
*** ChampSim Multicore Out-of-Order Simulator ***

Warmup Instructions: 50000000
Simulation Instructions: 50000000
Number of CPUs: 1
LLC sets: 2048
LLC ways: 16
Off-chip DRAM Size: 4096 MB Channels: 1 Width: 64-bit Data Rate: 6400 MT/s
CPU 0 runs ../cloudsuite_traces//cassandra_phase2_core2.trace.gz
.gz
NUM_OF_IPS_IN_CRITICAL_IP_TRAINING: 64
NUM_OF_CRITICAL_IP_TRAINING_TABLE_WAYS: 2
NUM_OF_CRITICAL_IP_TRAINING_TABLE_SETS: 32
WOBBLY_CRITICAL_IP_CACHE_SETS: 32
WOBBLY_CRITICAL_IP_CACHE_WAYS: 4
BTB has LRU replacement policy
ITLB has LRU replacement policy
DTLB has LRU replacement policy
STLB has LRU replacement policy
L1I has LRU replacement policy
L1D has LRU replacement policy
Bingo PHT WAYS: 16 and PHT_SIZE: 16384
Initialize SRRIP state for L2C
Initialize DRRIP state for LLC
UNIQUE_ASID[0] = €
UNIQUE_ASID[1] = 
Heartbeat CPU 0 instructions: 10000001 cycles: 3072712 heartbeat IPC: 3.25445 cumulative IPC: 3.25445 (Simulation time: 0 hr 3 min 17 sec) 
Heartbeat CPU 0 instructions: 20000002 cycles: 6016885 heartbeat IPC: 3.39654 cumulative IPC: 3.32398 (Simulation time: 0 hr 6 min 36 sec) 
Heartbeat CPU 0 instructions: 30000003 cycles: 8796638 heartbeat IPC: 3.59744 cumulative IPC: 3.41039 (Simulation time: 0 hr 10 min 11 sec) 
Heartbeat CPU 0 instructions: 40000001 cycles: 11643316 heartbeat IPC: 3.51287 cumulative IPC: 3.43545 (Simulation time: 0 hr 13 min 31 sec) 
Heartbeat CPU 0 instructions: 50000001 cycles: 14489320 heartbeat IPC: 3.5137 cumulative IPC: 3.45082 (Simulation time: 0 hr 16 min 45 sec) 

Warmup complete CPU 0 instructions: 50000001 cycles: 14489320 (Simulation time: 0 hr 16 min 45 sec) 

% increase in all ip prefetch 413.895
% increase in all ip prefetch 27.6262
% increase in all ip prefetch 1.57426
Heartbeat CPU 0 instructions: 60000000 cycles: 31928932 heartbeat IPC: 0.573407 cumulative IPC: 0.573407 (Simulation time: 0 hr 20 min 45 sec) 
Heartbeat CPU 0 instructions: 70000000 cycles: 49242398 heartbeat IPC: 0.577585 cumulative IPC: 0.575489 (Simulation time: 0 hr 24 min 36 sec) 
Heartbeat CPU 0 instructions: 80000002 cycles: 66811097 heartbeat IPC: 0.569194 cumulative IPC: 0.573375 (Simulation time: 0 hr 28 min 23 sec) 
Heartbeat CPU 0 instructions: 90000000 cycles: 84075507 heartbeat IPC: 0.579226 cumulative IPC: 0.574827 (Simulation time: 0 hr 32 min 18 sec) 
Heartbeat CPU 0 instructions: 100000000 cycles: 100944076 heartbeat IPC: 0.592818 cumulative IPC: 0.578337 (Simulation time: 0 hr 35 min 58 sec) 
Finished CPU 0 instructions: 50000001 cycles: 86454757 cumulative IPC: 0.578337 (Simulation time: 0 hr 35 min 58 sec) 

ChampSim completed all CPUs

Region of Interest Statistics

CPU 0 cumulative IPC: 0.578337 instructions: 50000001 cycles: 86454757

CPU 0 Average Load ROB stall cycles: 3.95849e+06
CPU 0 Fraction of times ROB stalled by Loads: 6.8915
CPU 0 Percentage of Load stall cycles in Total stall cycles: 3.95675e+07
 Total stall cycles: 57418009
 Total load stall cycles: 22718872776843
CPU 0 NUM of IPS identified critical: 0
CPU 0 Num of Load IPs stalling ROB: 2393
Threshold modification factor: -2
Max PIST entries: 64
Min PIST entries: 0
Avg PIST entries: 28.02
Critical IP stalls, total frequency: 0
rob stalling non-critical load ip: 16783620 freq: 15
rob stalling non-critical load ip: 16783636 freq: 2
rob stalling non-critical load ip: 16783652 freq: 3
rob stalling non-critical load ip: 16783660 freq: 66
rob stalling non-critical load ip: 16783672 freq: 10
rob stalling non-critical load ip: 16783680 freq: 8
rob stalling non-critical load ip: 16783684 freq: 4
rob stalling non-critical load ip: 16783692 freq: 68
rob stalling non-critical load ip: 16783700 freq: 64
rob stalling non-critical load ip: 16783876 freq: 15
rob stalling non-critical load ip: 16783908 freq: 5
rob stalling non-critical load ip: 16783916 freq: 161
rob stalling non-critical load ip: 16783928 freq: 109
rob stalling non-critical load ip: 16783936 freq: 41
rob stalling non-critical load ip: 16783940 freq: 16
rob stalling non-critical load ip: 16783948 freq: 102
rob stalling non-critical load ip: 16783956 freq: 139
rob stalling non-critical load ip: 16784128 freq: 93
rob stalling non-critical load ip: 16784136 freq: 20
rob stalling non-critical load ip: 16784148 freq: 2
rob stalling non-critical load ip: 16784152 freq: 113
rob stalling non-critical load ip: 16784160 freq: 26
rob stalling non-critical load ip: 16784168 freq: 31
rob stalling non-critical load ip: 16784176 freq: 10
rob stalling non-critical load ip: 16784184 freq: 26
rob stalling non-critical load ip: 16800260 freq: 5
rob stalling non-critical load ip: 16800284 freq: 67
rob stalling non-critical load ip: 16800536 freq: 3
rob stalling non-critical load ip: 16803568 freq: 2
rob stalling non-critical load ip: 16806692 freq: 15
rob stalling non-critical load ip: 16806724 freq: 4
rob stalling non-critical load ip: 16806732 freq: 2
rob stalling non-critical load ip: 16807120 freq: 158
rob stalling non-critical load ip: 16807124 freq: 4
rob stalling non-critical load ip: 16807128 freq: 4
rob stalling non-critical load ip: 16807188 freq: 3
rob stalling non-critical load ip: 16807200 freq: 6
rob stalling non-critical load ip: 16807208 freq: 2
rob stalling non-critical load ip: 16807228 freq: 8
rob stalling non-critical load ip: 16807232 freq: 3
rob stalling non-critical load ip: 16807244 freq: 1
rob stalling non-critical load ip: 16807248 freq: 2
rob stalling non-critical load ip: 16807256 freq: 6
rob stalling non-critical load ip: 16807260 freq: 2
rob stalling non-critical load ip: 16807264 freq: 2
rob stalling non-critical load ip: 16807268 freq: 24
rob stalling non-critical load ip: 16807392 freq: 138
rob stalling non-critical load ip: 16807956 freq: 2
rob stalling non-critical load ip: 16809664 freq: 2
rob stalling non-critical load ip: 16812528 freq: 4
rob stalling non-critical load ip: 16812716 freq: 665
rob stalling non-critical load ip: 16812908 freq: 47
rob stalling non-critical load ip: 16813176 freq: 13921
rob stalling non-critical load ip: 16813308 freq: 29101
rob stalling non-critical load ip: 16813444 freq: 83
rob stalling non-critical load ip: 16813448 freq: 1329
rob stalling non-critical load ip: 16813472 freq: 9
rob stalling non-critical load ip: 16813580 freq: 20
rob stalling non-critical load ip: 16813584 freq: 34
rob stalling non-critical load ip: 16813612 freq: 26
rob stalling non-critical load ip: 16813680 freq: 52
rob stalling non-critical load ip: 16813744 freq: 16
rob stalling non-critical load ip: 16813760 freq: 12
rob stalling non-critical load ip: 16813800 freq: 1
rob stalling non-critical load ip: 16813840 freq: 29
rob stalling non-critical load ip: 16814100 freq: 953
rob stalling non-critical load ip: 16814132 freq: 56
rob stalling non-critical load ip: 16814148 freq: 59
rob stalling non-critical load ip: 16814200 freq: 735
rob stalling non-critical load ip: 16814216 freq: 12
rob stalling non-critical load ip: 16814224 freq: 50
rob stalling non-critical load ip: 16814264 freq: 16
rob stalling non-critical load ip: 16814280 freq: 114
rob stalling non-critical load ip: 16814324 freq: 8
rob stalling non-critical load ip: 16814340 freq: 29
rob stalling non-critical load ip: 16815308 freq: 3
rob stalling non-critical load ip: 16815372 freq: 144
rob stalling non-critical load ip: 16815392 freq: 104
rob stalling non-critical load ip: 16815412 freq: 83
rob stalling non-critical load ip: 16815436 freq: 19
rob stalling non-critical load ip: 16817820 freq: 9
rob stalling non-critical load ip: 16817836 freq: 28
rob stalling non-critical load ip: 16817884 freq: 3
rob stalling non-critical load ip: 16817900 freq: 21
rob stalling non-critical load ip: 16817940 freq: 3
rob stalling non-critical load ip: 16817960 freq: 3
rob stalling non-critical load ip: 16820524 freq: 2
rob stalling non-critical load ip: 16820656 freq: 1
rob stalling non-critical load ip: 16820676 freq: 2
rob stalling non-critical load ip: 16820708 freq: 4
rob stalling non-critical load ip: 16820768 freq: 1
rob stalling non-critical load ip: 16820772 freq: 8
rob stalling non-critical load ip: 16820836 freq: 7
rob stalling non-critical load ip: 16821296 freq: 4
rob stalling non-critical load ip: 16821308 freq: 9
rob stalling non-critical load ip: 16821452 freq: 5
rob stalling non-critical load ip: 16821732 freq: 3
rob stalling non-critical load ip: 16822004 freq: 3
rob stalling non-critical load ip: 16822020 freq: 4
rob stalling non-critical load ip: 16822116 freq: 2
rob stalling non-critical load ip: 16822276 freq: 12
rob stalling non-critical load ip: 16822788 freq: 5
rob stalling non-critical load ip: 16823192 freq: 10
rob stalling non-critical load ip: 16823692 freq: 2
rob stalling non-critical load ip: 16823852 freq: 3
rob stalling non-critical load ip: 16826292 freq: 70
rob stalling non-critical load ip: 16826296 freq: 97
rob stalling non-critical load ip: 16827588 freq: 2
rob stalling non-critical load ip: 16827980 freq: 1
rob stalling non-critical load ip: 16828860 freq: 6
rob stalling non-critical load ip: 16828932 freq: 62
rob stalling non-critical load ip: 16844864 freq: 1
rob stalling non-critical load ip: 16845328 freq: 5
rob stalling non-critical load ip: 16851160 freq: 5
rob stalling non-critical load ip: 16851340 freq: 1
rob stalling non-critical load ip: 16851388 freq: 4
rob stalling non-critical load ip: 16851552 freq: 19
rob stalling non-critical load ip: 16851576 freq: 1
rob stalling non-critical load ip: 16851588 freq: 17
rob stalling non-critical load ip: 16851632 freq: 2
rob stalling non-critical load ip: 16851652 freq: 17
rob stalling non-critical load ip: 16865740 freq: 2
rob stalling non-critical load ip: 16891636 freq: 10
rob stalling non-critical load ip: 16891944 freq: 6
rob stalling non-critical load ip: 16891964 freq: 4
rob stalling non-critical load ip: 16892028 freq: 1
rob stalling non-critical load ip: 16892172 freq: 2
rob stalling non-critical load ip: 16892324 freq: 8
rob stalling non-critical load ip: 16898936 freq: 9
rob stalling non-critical load ip: 16899136 freq: 1
rob stalling non-critical load ip: 16899176 freq: 1
rob stalling non-critical load ip: 16899252 freq: 1
rob stalling non-critical load ip: 16899312 freq: 6
rob stalling non-critical load ip: 16899320 freq: 3
rob stalling non-critical load ip: 16900740 freq: 1
rob stalling non-critical load ip: 16908452 freq: 3
rob stalling non-critical load ip: 16908560 freq: 1
rob stalling non-critical load ip: 16908576 freq: 2
rob stalling non-critical load ip: 16908636 freq: 1
rob stalling non-critical load ip: 16917068 freq: 5
rob stalling non-critical load ip: 16917116 freq: 57
rob stalling non-critical load ip: 16917124 freq: 51
rob stalling non-critical load ip: 16917760 freq: 13
rob stalling non-critical load ip: 16917772 freq: 15
rob stalling non-critical load ip: 16977308 freq: 4
rob stalling non-critical load ip: 16977404 freq: 10
rob stalling non-critical load ip: 16977424 freq: 1
rob stalling non-critical load ip: 17022764 freq: 2
rob stalling non-critical load ip: 17077640 freq: 1
rob stalling non-critical load ip: 17077684 freq: 4
rob stalling non-critical load ip: 17077688 freq: 11
rob stalling non-critical load ip: 17077844 freq: 2
rob stalling non-critical load ip: 17077916 freq: 5
rob stalling non-critical load ip: 17078012 freq: 4
rob stalling non-critical load ip: 17078080 freq: 2
rob stalling non-critical load ip: 17078088 freq: 4
rob stalling non-critical load ip: 17078100 freq: 2
rob stalling non-critical load ip: 17079680 freq: 2
rob stalling non-critical load ip: 17080064 freq: 3
rob stalling non-critical load ip: 17080100 freq: 7
rob stalling non-critical load ip: 17084036 freq: 6
rob stalling non-critical load ip: 17084128 freq: 14
rob stalling non-critical load ip: 17084300 freq: 11
rob stalling non-critical load ip: 17084340 freq: 3
rob stalling non-critical load ip: 17084388 freq: 235
rob stalling non-critical load ip: 17084544 freq: 283
rob stalling non-critical load ip: 17084652 freq: 95
rob stalling non-critical load ip: 17084656 freq: 110
rob stalling non-critical load ip: 17084692 freq: 4
rob stalling non-critical load ip: 17084752 freq: 9
rob stalling non-critical load ip: 17084772 freq: 16
rob stalling non-critical load ip: 17084780 freq: 45
rob stalling non-critical load ip: 17084836 freq: 4
rob stalling non-critical load ip: 17088808 freq: 1
rob stalling non-critical load ip: 17089608 freq: 130
rob stalling non-critical load ip: 17089656 freq: 2
rob stalling non-critical load ip: 17089680 freq: 5
rob stalling non-critical load ip: 17089748 freq: 2
rob stalling non-critical load ip: 17089780 freq: 6
rob stalling non-critical load ip: 17089784 freq: 55
rob stalling non-critical load ip: 17105460 freq: 9
rob stalling non-critical load ip: 17105552 freq: 11
rob stalling non-critical load ip: 17109496 freq: 1
rob stalling non-critical load ip: 17109620 freq: 1
rob stalling non-critical load ip: 17147696 freq: 5
rob stalling non-critical load ip: 17148832 freq: 33
rob stalling non-critical load ip: 17148868 freq: 1
rob stalling non-critical load ip: 17148972 freq: 25
rob stalling non-critical load ip: 17148988 freq: 3
rob stalling non-critical load ip: 17149400 freq: 7
rob stalling non-critical load ip: 17149516 freq: 9
rob stalling non-critical load ip: 17149600 freq: 7
rob stalling non-critical load ip: 17183060 freq: 12
rob stalling non-critical load ip: 17183108 freq: 16
rob stalling non-critical load ip: 17183140 freq: 12
rob stalling non-critical load ip: 17183188 freq: 4
rob stalling non-critical load ip: 17183232 freq: 1
rob stalling non-critical load ip: 17183248 freq: 7
rob stalling non-critical load ip: 17183252 freq: 2
rob stalling non-critical load ip: 17183436 freq: 7
rob stalling non-critical load ip: 17183560 freq: 12
rob stalling non-critical load ip: 17183812 freq: 11
rob stalling non-critical load ip: 17183960 freq: 19
rob stalling non-critical load ip: 17184008 freq: 1
rob stalling non-critical load ip: 17184072 freq: 10
rob stalling non-critical load ip: 17184084 freq: 5
rob stalling non-critical load ip: 17184100 freq: 7
rob stalling non-critical load ip: 17184712 freq: 1
rob stalling non-critical load ip: 17184740 freq: 4
rob stalling non-critical load ip: 17184988 freq: 1
rob stalling non-critical load ip: 17185064 freq: 2
rob stalling non-critical load ip: 17185168 freq: 5
rob stalling non-critical load ip: 17185196 freq: 9
rob stalling non-critical load ip: 17185528 freq: 1
rob stalling non-critical load ip: 17185704 freq: 4
rob stalling non-critical load ip: 17185832 freq: 1
rob stalling non-critical load ip: 17185856 freq: 2
rob stalling non-critical load ip: 17185984 freq: 4
rob stalling non-critical load ip: 17186016 freq: 2
rob stalling non-critical load ip: 17186044 freq: 2
rob stalling non-critical load ip: 17186048 freq: 9
rob stalling non-critical load ip: 17186072 freq: 4
rob stalling non-critical load ip: 17186488 freq: 1
rob stalling non-critical load ip: 17186588 freq: 3
rob stalling non-critical load ip: 17186596 freq: 1
rob stalling non-critical load ip: 17186656 freq: 2
rob stalling non-critical load ip: 17188224 freq: 2
rob stalling non-critical load ip: 17188292 freq: 14
rob stalling non-critical load ip: 17188316 freq: 2
rob stalling non-critical load ip: 17190268 freq: 4
rob stalling non-critical load ip: 17190300 freq: 3
rob stalling non-critical load ip: 17190504 freq: 3
rob stalling non-critical load ip: 17190516 freq: 13
rob stalling non-critical load ip: 17225204 freq: 51
rob stalling non-critical load ip: 17226772 freq: 2
rob stalling non-critical load ip: 17226796 freq: 3
rob stalling non-critical load ip: 17226812 freq: 2
rob stalling non-critical load ip: 17226948 freq: 88
rob stalling non-critical load ip: 17245100 freq: 31
rob stalling non-critical load ip: 17245104 freq: 1
rob stalling non-critical load ip: 17253688 freq: 2
rob stalling non-critical load ip: 17254328 freq: 3
rob stalling non-critical load ip: 17267924 freq: 2
rob stalling non-critical load ip: 17506076 freq: 2
rob stalling non-critical load ip: 17506584 freq: 1
rob stalling non-critical load ip: 17506884 freq: 3
rob stalling non-critical load ip: 17507336 freq: 1
rob stalling non-critical load ip: 17507396 freq: 1
rob stalling non-critical load ip: 17507428 freq: 1
rob stalling non-critical load ip: 17507476 freq: 1
rob stalling non-critical load ip: 17511888 freq: 1
rob stalling non-critical load ip: 17545664 freq: 2
rob stalling non-critical load ip: 17545908 freq: 5
rob stalling non-critical load ip: 17546088 freq: 538
rob stalling non-critical load ip: 17546908 freq: 8
rob stalling non-critical load ip: 17546944 freq: 9
rob stalling non-critical load ip: 17547352 freq: 38
rob stalling non-critical load ip: 17547356 freq: 2
rob stalling non-critical load ip: 17547760 freq: 1
rob stalling non-critical load ip: 17547868 freq: 1
rob stalling non-critical load ip: 17548040 freq: 21
rob stalling non-critical load ip: 17555508 freq: 10
rob stalling non-critical load ip: 17559680 freq: 3
rob stalling non-critical load ip: 17612428 freq: 3
rob stalling non-critical load ip: 17612436 freq: 1
rob stalling non-critical load ip: 17613904 freq: 2
rob stalling non-critical load ip: 17613912 freq: 2
rob stalling non-critical load ip: 17614184 freq: 1
rob stalling non-critical load ip: 17614256 freq: 1
rob stalling non-critical load ip: 17614300 freq: 1
rob stalling non-critical load ip: 17614372 freq: 1
rob stalling non-critical load ip: 17616316 freq: 1
rob stalling non-critical load ip: 17616612 freq: 1
rob stalling non-critical load ip: 17616996 freq: 3
rob stalling non-critical load ip: 17617012 freq: 1
rob stalling non-critical load ip: 17617868 freq: 4
rob stalling non-critical load ip: 17617944 freq: 1
rob stalling non-critical load ip: 17618700 freq: 2
rob stalling non-critical load ip: 17618988 freq: 2
rob stalling non-critical load ip: 17641524 freq: 7
rob stalling non-critical load ip: 17641540 freq: 14
rob stalling non-critical load ip: 17641560 freq: 1
rob stalling non-critical load ip: 17641616 freq: 4
rob stalling non-critical load ip: 17642296 freq: 1
rob stalling non-critical load ip: 17644128 freq: 10
rob stalling non-critical load ip: 17644276 freq: 116
rob stalling non-critical load ip: 17682804 freq: 5
rob stalling non-critical load ip: 17682844 freq: 1
rob stalling non-critical load ip: 17683252 freq: 1
rob stalling non-critical load ip: 17683256 freq: 2
rob stalling non-critical load ip: 17683332 freq: 1
rob stalling non-critical load ip: 17683364 freq: 1
rob stalling non-critical load ip: 17782316 freq: 15
rob stalling non-critical load ip: 17782380 freq: 13
rob stalling non-critical load ip: 17782416 freq: 1
rob stalling non-critical load ip: 17782476 freq: 11
rob stalling non-critical load ip: 17782536 freq: 8
rob stalling non-critical load ip: 17782600 freq: 7
rob stalling non-critical load ip: 17783272 freq: 8
rob stalling non-critical load ip: 17784996 freq: 14
rob stalling non-critical load ip: 17785056 freq: 35
rob stalling non-critical load ip: 17785084 freq: 14
rob stalling non-critical load ip: 17785140 freq: 8
rob stalling non-critical load ip: 17785164 freq: 1
rob stalling non-critical load ip: 17785180 freq: 2
rob stalling non-critical load ip: 17785228 freq: 15
rob stalling non-critical load ip: 17785400 freq: 18
rob stalling non-critical load ip: 17785412 freq: 7
rob stalling non-critical load ip: 17795512 freq: 3
rob stalling non-critical load ip: 17795604 freq: 2
rob stalling non-critical load ip: 17825288 freq: 9
rob stalling non-critical load ip: 17905356 freq: 8
rob stalling non-critical load ip: 17905412 freq: 2
rob stalling non-critical load ip: 17905436 freq: 36
rob stalling non-critical load ip: 17905520 freq: 3
rob stalling non-critical load ip: 17905544 freq: 11
rob stalling non-critical load ip: 17905564 freq: 17
rob stalling non-critical load ip: 17905596 freq: 12
rob stalling non-critical load ip: 17906156 freq: 1
rob stalling non-critical load ip: 17906336 freq: 14
rob stalling non-critical load ip: 17906400 freq: 5
rob stalling non-critical load ip: 17906620 freq: 4
rob stalling non-critical load ip: 17906644 freq: 2
rob stalling non-critical load ip: 17906844 freq: 48
rob stalling non-critical load ip: 17906888 freq: 2
rob stalling non-critical load ip: 17906980 freq: 1
rob stalling non-critical load ip: 17907064 freq: 76
rob stalling non-critical load ip: 17907660 freq: 3
rob stalling non-critical load ip: 17908272 freq: 66
rob stalling non-critical load ip: 17908296 freq: 5
rob stalling non-critical load ip: 17908368 freq: 1
rob stalling non-critical load ip: 17908968 freq: 16
rob stalling non-critical load ip: 17909000 freq: 1
rob stalling non-critical load ip: 17909132 freq: 6
rob stalling non-critical load ip: 17909160 freq: 17
rob stalling non-critical load ip: 17909384 freq: 2
rob stalling non-critical load ip: 17909640 freq: 1
rob stalling non-critical load ip: 17926224 freq: 7
rob stalling non-critical load ip: 18022900 freq: 7
rob stalling non-critical load ip: 18022940 freq: 3
rob stalling non-critical load ip: 18022944 freq: 6
rob stalling non-critical load ip: 18023308 freq: 5
rob stalling non-critical load ip: 18025240 freq: 1
rob stalling non-critical load ip: 18025248 freq: 9
rob stalling non-critical load ip: 18025296 freq: 12
rob stalling non-critical load ip: 18025340 freq: 3
rob stalling non-critical load ip: 18025576 freq: 4
rob stalling non-critical load ip: 18026668 freq: 9
rob stalling non-critical load ip: 18027120 freq: 8
rob stalling non-critical load ip: 18027156 freq: 28
rob stalling non-critical load ip: 18027212 freq: 1
rob stalling non-critical load ip: 18027488 freq: 1
rob stalling non-critical load ip: 18027924 freq: 15
rob stalling non-critical load ip: 18049648 freq: 8
rob stalling non-critical load ip: 18049664 freq: 62
rob stalling non-critical load ip: 18049728 freq: 6
rob stalling non-critical load ip: 18049736 freq: 4
rob stalling non-critical load ip: 18049920 freq: 47
rob stalling non-critical load ip: 18049936 freq: 4
rob stalling non-critical load ip: 18049996 freq: 24
rob stalling non-critical load ip: 18050004 freq: 5
rob stalling non-critical load ip: 18050036 freq: 13
rob stalling non-critical load ip: 18050048 freq: 19
rob stalling non-critical load ip: 18064428 freq: 17
rob stalling non-critical load ip: 18064772 freq: 2
rob stalling non-critical load ip: 18064780 freq: 2
rob stalling non-critical load ip: 18065108 freq: 23
rob stalling non-critical load ip: 18065564 freq: 79
rob stalling non-critical load ip: 18065676 freq: 2
rob stalling non-critical load ip: 18065696 freq: 2
rob stalling non-critical load ip: 18066764 freq: 1
rob stalling non-critical load ip: 18067804 freq: 9
rob stalling non-critical load ip: 18067964 freq: 1
rob stalling non-critical load ip: 18086804 freq: 1
rob stalling non-critical load ip: 18088656 freq: 1
rob stalling non-critical load ip: 18088772 freq: 1
rob stalling non-critical load ip: 18093652 freq: 2
rob stalling non-critical load ip: 18093688 freq: 2
rob stalling non-critical load ip: 18095836 freq: 1
rob stalling non-critical load ip: 18095928 freq: 2
rob stalling non-critical load ip: 18096056 freq: 1
rob stalling non-critical load ip: 18097092 freq: 1
rob stalling non-critical load ip: 18128468 freq: 30
rob stalling non-critical load ip: 18128540 freq: 30
rob stalling non-critical load ip: 18128592 freq: 29
rob stalling non-critical load ip: 18128640 freq: 2
rob stalling non-critical load ip: 18128648 freq: 1
rob stalling non-critical load ip: 18128744 freq: 5
rob stalling non-critical load ip: 18132144 freq: 1
rob stalling non-critical load ip: 18132720 freq: 133
rob stalling non-critical load ip: 18132760 freq: 92
rob stalling non-critical load ip: 18132804 freq: 5
rob stalling non-critical load ip: 18132832 freq: 40
rob stalling non-critical load ip: 18132844 freq: 2
rob stalling non-critical load ip: 18132856 freq: 3
rob stalling non-critical load ip: 18132872 freq: 7
rob stalling non-critical load ip: 18132896 freq: 9
rob stalling non-critical load ip: 18132908 freq: 28
rob stalling non-critical load ip: 18132996 freq: 38
rob stalling non-critical load ip: 18133080 freq: 200
rob stalling non-critical load ip: 18133112 freq: 15
rob stalling non-critical load ip: 18133280 freq: 5
rob stalling non-critical load ip: 18133368 freq: 46
rob stalling non-critical load ip: 18133388 freq: 13
rob stalling non-critical load ip: 18133392 freq: 19
rob stalling non-critical load ip: 18133404 freq: 6
rob stalling non-critical load ip: 18133408 freq: 18
rob stalling non-critical load ip: 18133528 freq: 2
rob stalling non-critical load ip: 18133592 freq: 13
rob stalling non-critical load ip: 18133608 freq: 8
rob stalling non-critical load ip: 18133724 freq: 6
rob stalling non-critical load ip: 18133736 freq: 2
rob stalling non-critical load ip: 18133936 freq: 18
rob stalling non-critical load ip: 18133940 freq: 3
rob stalling non-critical load ip: 18133964 freq: 17
rob stalling non-critical load ip: 18134012 freq: 1
rob stalling non-critical load ip: 18134084 freq: 5
rob stalling non-critical load ip: 18134192 freq: 17
rob stalling non-critical load ip: 18134344 freq: 5
rob stalling non-critical load ip: 18134356 freq: 7
rob stalling non-critical load ip: 18134420 freq: 5
rob stalling non-critical load ip: 18134440 freq: 1
rob stalling non-critical load ip: 18177848 freq: 1
rob stalling non-critical load ip: 18180252 freq: 17
rob stalling non-critical load ip: 18181084 freq: 17
rob stalling non-critical load ip: 18181104 freq: 58
rob stalling non-critical load ip: 18181332 freq: 31
rob stalling non-critical load ip: 18181336 freq: 14
rob stalling non-critical load ip: 18303116 freq: 4
rob stalling non-critical load ip: 18303200 freq: 3
rob stalling non-critical load ip: 18303240 freq: 5
rob stalling non-critical load ip: 18303272 freq: 3
rob stalling non-critical load ip: 18303304 freq: 1
rob stalling non-critical load ip: 18303328 freq: 5
rob stalling non-critical load ip: 18457504 freq: 8
rob stalling non-critical load ip: 18457572 freq: 3
rob stalling non-critical load ip: 18466760 freq: 5
rob stalling non-critical load ip: 18466768 freq: 14
rob stalling non-critical load ip: 18466784 freq: 5
rob stalling non-critical load ip: 18466824 freq: 12
rob stalling non-critical load ip: 18466888 freq: 3
rob stalling non-critical load ip: 18467160 freq: 7
rob stalling non-critical load ip: 18467244 freq: 3
rob stalling non-critical load ip: 18467264 freq: 2
rob stalling non-critical load ip: 18467308 freq: 2
rob stalling non-critical load ip: 18467324 freq: 3
rob stalling non-critical load ip: 18467388 freq: 2
rob stalling non-critical load ip: 18469308 freq: 2
rob stalling non-critical load ip: 18469328 freq: 3
rob stalling non-critical load ip: 18469560 freq: 2
rob stalling non-critical load ip: 18469584 freq: 3
rob stalling non-critical load ip: 18469592 freq: 5
rob stalling non-critical load ip: 18469640 freq: 3
rob stalling non-critical load ip: 18469756 freq: 10
rob stalling non-critical load ip: 18469772 freq: 2
rob stalling non-critical load ip: 18469788 freq: 2
rob stalling non-critical load ip: 18483004 freq: 1
rob stalling non-critical load ip: 18510112 freq: 12
rob stalling non-critical load ip: 18550676 freq: 1
rob stalling non-critical load ip: 18604280 freq: 2
rob stalling non-critical load ip: 18625668 freq: 7
rob stalling non-critical load ip: 18630436 freq: 1
rob stalling non-critical load ip: 18631072 freq: 4
rob stalling non-critical load ip: 18631116 freq: 5
rob stalling non-critical load ip: 18634180 freq: 9
rob stalling non-critical load ip: 18634208 freq: 10
rob stalling non-critical load ip: 18634432 freq: 5
rob stalling non-critical load ip: 18634892 freq: 8
rob stalling non-critical load ip: 18757300 freq: 2
rob stalling non-critical load ip: 18757332 freq: 8
rob stalling non-critical load ip: 18757352 freq: 7
rob stalling non-critical load ip: 18757520 freq: 11
rob stalling non-critical load ip: 18757776 freq: 3
rob stalling non-critical load ip: 18759664 freq: 12
rob stalling non-critical load ip: 18759748 freq: 2
rob stalling non-critical load ip: 18760616 freq: 2
rob stalling non-critical load ip: 18760628 freq: 4
rob stalling non-critical load ip: 18760808 freq: 2
rob stalling non-critical load ip: 18783856 freq: 9
rob stalling non-critical load ip: 18847852 freq: 5
rob stalling non-critical load ip: 18847948 freq: 7
rob stalling non-critical load ip: 18847964 freq: 2
rob stalling non-critical load ip: 18847984 freq: 9
rob stalling non-critical load ip: 18848020 freq: 2
rob stalling non-critical load ip: 18848072 freq: 10
rob stalling non-critical load ip: 18848240 freq: 2
rob stalling non-critical load ip: 18848280 freq: 3
rob stalling non-critical load ip: 18848296 freq: 5
rob stalling non-critical load ip: 18848424 freq: 1
rob stalling non-critical load ip: 18848564 freq: 5
rob stalling non-critical load ip: 18848928 freq: 13
rob stalling non-critical load ip: 18848936 freq: 11
rob stalling non-critical load ip: 18848996 freq: 4
rob stalling non-critical load ip: 18850924 freq: 6
rob stalling non-critical load ip: 18850996 freq: 1
rob stalling non-critical load ip: 18851080 freq: 4
rob stalling non-critical load ip: 18851444 freq: 4
rob stalling non-critical load ip: 18851664 freq: 3
rob stalling non-critical load ip: 18851676 freq: 4
rob stalling non-critical load ip: 18851816 freq: 7
rob stalling non-critical load ip: 18852812 freq: 1
rob stalling non-critical load ip: 18853232 freq: 2
rob stalling non-critical load ip: 18853284 freq: 1
rob stalling non-critical load ip: 18854636 freq: 11
rob stalling non-critical load ip: 18946188 freq: 7
rob stalling non-critical load ip: 18947388 freq: 10
rob stalling non-critical load ip: 18951880 freq: 7
rob stalling non-critical load ip: 18951920 freq: 1
rob stalling non-critical load ip: 18952028 freq: 13
rob stalling non-critical load ip: 18954108 freq: 3
rob stalling non-critical load ip: 18955848 freq: 12
rob stalling non-critical load ip: 18955980 freq: 15
rob stalling non-critical load ip: 18956492 freq: 9
rob stalling non-critical load ip: 18956512 freq: 1
rob stalling non-critical load ip: 18956528 freq: 3
rob stalling non-critical load ip: 18956604 freq: 4
rob stalling non-critical load ip: 18956620 freq: 1
rob stalling non-critical load ip: 18956636 freq: 17
rob stalling non-critical load ip: 18956724 freq: 11
rob stalling non-critical load ip: 18956760 freq: 3
rob stalling non-critical load ip: 18956808 freq: 3
rob stalling non-critical load ip: 18956900 freq: 4
rob stalling non-critical load ip: 18957516 freq: 9
rob stalling non-critical load ip: 18957576 freq: 4
rob stalling non-critical load ip: 18957640 freq: 2
rob stalling non-critical load ip: 18957656 freq: 3
rob stalling non-critical load ip: 18958052 freq: 123
rob stalling non-critical load ip: 18958096 freq: 2
rob stalling non-critical load ip: 18958128 freq: 3
rob stalling non-critical load ip: 18958172 freq: 3
rob stalling non-critical load ip: 18958188 freq: 3
rob stalling non-critical load ip: 18958204 freq: 5
rob stalling non-critical load ip: 18958220 freq: 31
rob stalling non-critical load ip: 18960512 freq: 7
rob stalling non-critical load ip: 18960552 freq: 3
rob stalling non-critical load ip: 18960568 freq: 2
rob stalling non-critical load ip: 18960584 freq: 12
rob stalling non-critical load ip: 18960616 freq: 11
rob stalling non-critical load ip: 18960688 freq: 2
rob stalling non-critical load ip: 18960700 freq: 3
rob stalling non-critical load ip: 18960780 freq: 2
rob stalling non-critical load ip: 18960972 freq: 4
rob stalling non-critical load ip: 18970396 freq: 3
rob stalling non-critical load ip: 18980028 freq: 2
rob stalling non-critical load ip: 19454556 freq: 10
rob stalling non-critical load ip: 19489580 freq: 2
rob stalling non-critical load ip: 19489780 freq: 1
rob stalling non-critical load ip: 19493148 freq: 43
rob stalling non-critical load ip: 19493164 freq: 2
rob stalling non-critical load ip: 19493176 freq: 159
rob stalling non-critical load ip: 19493328 freq: 4
rob stalling non-critical load ip: 19493360 freq: 8
rob stalling non-critical load ip: 19493372 freq: 10
rob stalling non-critical load ip: 19493692 freq: 6
rob stalling non-critical load ip: 19493820 freq: 1
rob stalling non-critical load ip: 19493856 freq: 1
rob stalling non-critical load ip: 19493880 freq: 2
rob stalling non-critical load ip: 19493916 freq: 9
rob stalling non-critical load ip: 19493920 freq: 8
rob stalling non-critical load ip: 19493924 freq: 10
rob stalling non-critical load ip: 19493928 freq: 4
rob stalling non-critical load ip: 19493932 freq: 14
rob stalling non-critical load ip: 19493940 freq: 10
rob stalling non-critical load ip: 19493948 freq: 10
rob stalling non-critical load ip: 19493960 freq: 4
rob stalling non-critical load ip: 19493976 freq: 1
rob stalling non-critical load ip: 19493984 freq: 2
rob stalling non-critical load ip: 19493992 freq: 1
rob stalling non-critical load ip: 19494000 freq: 3
rob stalling non-critical load ip: 19494032 freq: 87
rob stalling non-critical load ip: 19494040 freq: 23
rob stalling non-critical load ip: 19494052 freq: 52
rob stalling non-critical load ip: 19494060 freq: 30
rob stalling non-critical load ip: 19494068 freq: 34
rob stalling non-critical load ip: 19494076 freq: 2177
rob stalling non-critical load ip: 19494084 freq: 40
rob stalling non-critical load ip: 19494096 freq: 141
rob stalling non-critical load ip: 19494104 freq: 6738
rob stalling non-critical load ip: 19494112 freq: 110
rob stalling non-critical load ip: 19494212 freq: 4
rob stalling non-critical load ip: 19494292 freq: 74
rob stalling non-critical load ip: 19494380 freq: 3
rob stalling non-critical load ip: 19494412 freq: 9
rob stalling non-critical load ip: 19494452 freq: 1
rob stalling non-critical load ip: 19496020 freq: 2
rob stalling non-critical load ip: 19496036 freq: 2
rob stalling non-critical load ip: 19496880 freq: 1
rob stalling non-critical load ip: 19496900 freq: 1
rob stalling non-critical load ip: 19496952 freq: 8
rob stalling non-critical load ip: 19499416 freq: 4
rob stalling non-critical load ip: 19499512 freq: 1
rob stalling non-critical load ip: 19499832 freq: 2
rob stalling non-critical load ip: 19500756 freq: 4
rob stalling non-critical load ip: 19500948 freq: 6
rob stalling non-critical load ip: 19500968 freq: 3
rob stalling non-critical load ip: 19501032 freq: 4
rob stalling non-critical load ip: 19501068 freq: 14
rob stalling non-critical load ip: 19501420 freq: 1
rob stalling non-critical load ip: 19688424 freq: 6
rob stalling non-critical load ip: 19688432 freq: 8
rob stalling non-critical load ip: 19689420 freq: 5
rob stalling non-critical load ip: 19689424 freq: 4
rob stalling non-critical load ip: 19689456 freq: 8
rob stalling non-critical load ip: 19689536 freq: 1
rob stalling non-critical load ip: 19691612 freq: 1
rob stalling non-critical load ip: 19692680 freq: 9
rob stalling non-critical load ip: 19692684 freq: 2
rob stalling non-critical load ip: 19692692 freq: 9
rob stalling non-critical load ip: 19692820 freq: 4
rob stalling non-critical load ip: 19695740 freq: 23
rob stalling non-critical load ip: 19695780 freq: 9
rob stalling non-critical load ip: 19695796 freq: 13
rob stalling non-critical load ip: 19695888 freq: 5
rob stalling non-critical load ip: 19695924 freq: 7
rob stalling non-critical load ip: 19695928 freq: 4
rob stalling non-critical load ip: 19695944 freq: 4
rob stalling non-critical load ip: 19696032 freq: 4
rob stalling non-critical load ip: 19696424 freq: 5
rob stalling non-critical load ip: 19696464 freq: 2
rob stalling non-critical load ip: 19698128 freq: 4
rob stalling non-critical load ip: 19698204 freq: 13
rob stalling non-critical load ip: 19698228 freq: 9
rob stalling non-critical load ip: 19698260 freq: 5
rob stalling non-critical load ip: 19698464 freq: 4
rob stalling non-critical load ip: 19698688 freq: 1
rob stalling non-critical load ip: 19699940 freq: 1
rob stalling non-critical load ip: 19699968 freq: 2
rob stalling non-critical load ip: 19700336 freq: 2
rob stalling non-critical load ip: 19700544 freq: 1
rob stalling non-critical load ip: 19701420 freq: 1
rob stalling non-critical load ip: 19701436 freq: 1
rob stalling non-critical load ip: 19701440 freq: 9
rob stalling non-critical load ip: 19701456 freq: 9
rob stalling non-critical load ip: 19701788 freq: 2
rob stalling non-critical load ip: 19701876 freq: 3
rob stalling non-critical load ip: 19701924 freq: 3
rob stalling non-critical load ip: 19702004 freq: 2
rob stalling non-critical load ip: 19702132 freq: 3
rob stalling non-critical load ip: 19702148 freq: 2
rob stalling non-critical load ip: 19702220 freq: 1
rob stalling non-critical load ip: 19702280 freq: 6
rob stalling non-critical load ip: 19702500 freq: 1
rob stalling non-critical load ip: 19702528 freq: 2
rob stalling non-critical load ip: 19702672 freq: 3
rob stalling non-critical load ip: 19702724 freq: 4
rob stalling non-critical load ip: 19702772 freq: 3
rob stalling non-critical load ip: 19702808 freq: 2
rob stalling non-critical load ip: 19702888 freq: 3
rob stalling non-critical load ip: 19704780 freq: 4
rob stalling non-critical load ip: 19704804 freq: 2
rob stalling non-critical load ip: 19705608 freq: 6
rob stalling non-critical load ip: 19705616 freq: 7
rob stalling non-critical load ip: 19706104 freq: 2
rob stalling non-critical load ip: 19706256 freq: 2
rob stalling non-critical load ip: 19706616 freq: 2
rob stalling non-critical load ip: 19706908 freq: 2
rob stalling non-critical load ip: 19707028 freq: 6
rob stalling non-critical load ip: 19707268 freq: 8
rob stalling non-critical load ip: 19707756 freq: 12
rob stalling non-critical load ip: 19707776 freq: 2
rob stalling non-critical load ip: 19707780 freq: 4
rob stalling non-critical load ip: 19707784 freq: 8
rob stalling non-critical load ip: 19707808 freq: 1
rob stalling non-critical load ip: 19708092 freq: 2
rob stalling non-critical load ip: 19708324 freq: 2
rob stalling non-critical load ip: 19709628 freq: 1
rob stalling non-critical load ip: 19709888 freq: 1
rob stalling non-critical load ip: 19710524 freq: 1
rob stalling non-critical load ip: 19711924 freq: 2
rob stalling non-critical load ip: 19711940 freq: 5
rob stalling non-critical load ip: 19711948 freq: 3
rob stalling non-critical load ip: 19723060 freq: 5
rob stalling non-critical load ip: 19723200 freq: 6
rob stalling non-critical load ip: 19723236 freq: 481
rob stalling non-critical load ip: 19723248 freq: 8
rob stalling non-critical load ip: 19723284 freq: 19
rob stalling non-critical load ip: 19723312 freq: 12
rob stalling non-critical load ip: 19723320 freq: 118
rob stalling non-critical load ip: 19723336 freq: 201
rob stalling non-critical load ip: 19723352 freq: 17
rob stalling non-critical load ip: 19723368 freq: 12
rob stalling non-critical load ip: 19723384 freq: 7
rob stalling non-critical load ip: 19723408 freq: 13
rob stalling non-critical load ip: 19723492 freq: 2
rob stalling non-critical load ip: 19723524 freq: 2
rob stalling non-critical load ip: 19723804 freq: 2
rob stalling non-critical load ip: 19724416 freq: 1
rob stalling non-critical load ip: 19724432 freq: 22
rob stalling non-critical load ip: 19724576 freq: 24
rob stalling non-critical load ip: 19724636 freq: 4
rob stalling non-critical load ip: 19724872 freq: 7
rob stalling non-critical load ip: 19725040 freq: 4
rob stalling non-critical load ip: 19725236 freq: 6
rob stalling non-critical load ip: 19725616 freq: 42
rob stalling non-critical load ip: 19725656 freq: 3
rob stalling non-critical load ip: 19725660 freq: 22
rob stalling non-critical load ip: 19725672 freq: 1
rob stalling non-critical load ip: 19725688 freq: 3
rob stalling non-critical load ip: 19725704 freq: 16
rob stalling non-critical load ip: 19725720 freq: 16
rob stalling non-critical load ip: 19725736 freq: 1
rob stalling non-critical load ip: 19725876 freq: 3
rob stalling non-critical load ip: 19725924 freq: 2
rob stalling non-critical load ip: 19726032 freq: 7
rob stalling non-critical load ip: 19730884 freq: 3
rob stalling non-critical load ip: 19731456 freq: 1
rob stalling non-critical load ip: 19731752 freq: 32
rob stalling non-critical load ip: 19731836 freq: 1
rob stalling non-critical load ip: 19731852 freq: 1
rob stalling non-critical load ip: 19732288 freq: 8
rob stalling non-critical load ip: 19732392 freq: 2
rob stalling non-critical load ip: 19732408 freq: 2
rob stalling non-critical load ip: 19732424 freq: 1
rob stalling non-critical load ip: 19732644 freq: 7
rob stalling non-critical load ip: 19732912 freq: 13
rob stalling non-critical load ip: 19732940 freq: 23
rob stalling non-critical load ip: 19732956 freq: 5
rob stalling non-critical load ip: 19732968 freq: 6
rob stalling non-critical load ip: 19733036 freq: 3
rob stalling non-critical load ip: 19733500 freq: 26
rob stalling non-critical load ip: 19745196 freq: 3
rob stalling non-critical load ip: 19745684 freq: 2
rob stalling non-critical load ip: 19745688 freq: 1
rob stalling non-critical load ip: 19745748 freq: 1
rob stalling non-critical load ip: 19746060 freq: 7
rob stalling non-critical load ip: 19746212 freq: 3
rob stalling non-critical load ip: 19746244 freq: 29
rob stalling non-critical load ip: 19746296 freq: 9
rob stalling non-critical load ip: 19746308 freq: 6
rob stalling non-critical load ip: 19748964 freq: 28
rob stalling non-critical load ip: 19749000 freq: 17
rob stalling non-critical load ip: 19749004 freq: 7
rob stalling non-critical load ip: 19749068 freq: 6
rob stalling non-critical load ip: 19749112 freq: 11
rob stalling non-critical load ip: 19752512 freq: 2
rob stalling non-critical load ip: 19752548 freq: 15
rob stalling non-critical load ip: 19752596 freq: 8
rob stalling non-critical load ip: 19752644 freq: 2
rob stalling non-critical load ip: 19752668 freq: 2
rob stalling non-critical load ip: 19752708 freq: 1
rob stalling non-critical load ip: 19752844 freq: 5
rob stalling non-critical load ip: 19752860 freq: 16
rob stalling non-critical load ip: 19752864 freq: 2
rob stalling non-critical load ip: 19752872 freq: 1
rob stalling non-critical load ip: 19791680 freq: 2
rob stalling non-critical load ip: 19791796 freq: 22
rob stalling non-critical load ip: 19791900 freq: 1
rob stalling non-critical load ip: 19795528 freq: 130
rob stalling non-critical load ip: 19795540 freq: 24
rob stalling non-critical load ip: 19795568 freq: 2
rob stalling non-critical load ip: 19795660 freq: 4
rob stalling non-critical load ip: 19837204 freq: 1
rob stalling non-critical load ip: 19850484 freq: 2
rob stalling non-critical load ip: 19850568 freq: 8
rob stalling non-critical load ip: 19850992 freq: 9
rob stalling non-critical load ip: 19851160 freq: 19
rob stalling non-critical load ip: 19852592 freq: 1
rob stalling non-critical load ip: 19867220 freq: 2
rob stalling non-critical load ip: 19867252 freq: 145799
rob stalling non-critical load ip: 19927076 freq: 4
rob stalling non-critical load ip: 19932180 freq: 13
rob stalling non-critical load ip: 19932284 freq: 2
rob stalling non-critical load ip: 19957160 freq: 6
rob stalling non-critical load ip: 19957192 freq: 4
rob stalling non-critical load ip: 19957256 freq: 4
rob stalling non-critical load ip: 19957484 freq: 1
rob stalling non-critical load ip: 19957964 freq: 61
rob stalling non-critical load ip: 19957976 freq: 1
rob stalling non-critical load ip: 19957992 freq: 2
rob stalling non-critical load ip: 19958056 freq: 1
rob stalling non-critical load ip: 19958148 freq: 2
rob stalling non-critical load ip: 19961896 freq: 7
rob stalling non-critical load ip: 19961904 freq: 10
rob stalling non-critical load ip: 19971860 freq: 12
rob stalling non-critical load ip: 19973068 freq: 4
rob stalling non-critical load ip: 19973888 freq: 1
rob stalling non-critical load ip: 19973996 freq: 5
rob stalling non-critical load ip: 19974244 freq: 5
rob stalling non-critical load ip: 19975132 freq: 4
rob stalling non-critical load ip: 19975160 freq: 9
rob stalling non-critical load ip: 19975316 freq: 1
rob stalling non-critical load ip: 19975392 freq: 1
rob stalling non-critical load ip: 19975404 freq: 1
rob stalling non-critical load ip: 19975432 freq: 8
rob stalling non-critical load ip: 19975608 freq: 2
rob stalling non-critical load ip: 19976536 freq: 7
rob stalling non-critical load ip: 19976712 freq: 7
rob stalling non-critical load ip: 19976772 freq: 2
rob stalling non-critical load ip: 19976808 freq: 4
rob stalling non-critical load ip: 20024224 freq: 12
rob stalling non-critical load ip: 20024236 freq: 2
rob stalling non-critical load ip: 20024256 freq: 31
rob stalling non-critical load ip: 20031748 freq: 4
rob stalling non-critical load ip: 20031872 freq: 1
rob stalling non-critical load ip: 20047232 freq: 7
rob stalling non-critical load ip: 20047492 freq: 82
rob stalling non-critical load ip: 20047552 freq: 4
rob stalling non-critical load ip: 20047816 freq: 3
rob stalling non-critical load ip: 20047980 freq: 4
rob stalling non-critical load ip: 20048080 freq: 283
rob stalling non-critical load ip: 20048096 freq: 10
rob stalling non-critical load ip: 20048244 freq: 13
rob stalling non-critical load ip: 20048260 freq: 12
rob stalling non-critical load ip: 20048380 freq: 7
rob stalling non-critical load ip: 20048388 freq: 2
rob stalling non-critical load ip: 20048408 freq: 5
rob stalling non-critical load ip: 20048424 freq: 3
rob stalling non-critical load ip: 20048660 freq: 49
rob stalling non-critical load ip: 20048684 freq: 64
rob stalling non-critical load ip: 20048752 freq: 1
rob stalling non-critical load ip: 20048920 freq: 21
rob stalling non-critical load ip: 20048960 freq: 6
rob stalling non-critical load ip: 20050724 freq: 5
rob stalling non-critical load ip: 20050828 freq: 7
rob stalling non-critical load ip: 20050968 freq: 1
rob stalling non-critical load ip: 20051180 freq: 5
rob stalling non-critical load ip: 20051356 freq: 1
rob stalling non-critical load ip: 20052520 freq: 4
rob stalling non-critical load ip: 20052736 freq: 4
rob stalling non-critical load ip: 20052892 freq: 20
rob stalling non-critical load ip: 20052924 freq: 18
rob stalling non-critical load ip: 20053048 freq: 7
rob stalling non-critical load ip: 20053068 freq: 20
rob stalling non-critical load ip: 20053108 freq: 1
rob stalling non-critical load ip: 20053164 freq: 31
rob stalling non-critical load ip: 20053192 freq: 9
rob stalling non-critical load ip: 20054744 freq: 34
rob stalling non-critical load ip: 20059568 freq: 5
rob stalling non-critical load ip: 20060000 freq: 6
rob stalling non-critical load ip: 20060056 freq: 7
rob stalling non-critical load ip: 20060072 freq: 4
rob stalling non-critical load ip: 20060168 freq: 6
rob stalling non-critical load ip: 20060336 freq: 5
rob stalling non-critical load ip: 20060524 freq: 2
rob stalling non-critical load ip: 20060616 freq: 11
rob stalling non-critical load ip: 20061160 freq: 12
rob stalling non-critical load ip: 20061440 freq: 8
rob stalling non-critical load ip: 20061492 freq: 43
rob stalling non-critical load ip: 20061560 freq: 21
rob stalling non-critical load ip: 20061676 freq: 2
rob stalling non-critical load ip: 20061832 freq: 8
rob stalling non-critical load ip: 20061844 freq: 2
rob stalling non-critical load ip: 20061856 freq: 17
rob stalling non-critical load ip: 20062008 freq: 19
rob stalling non-critical load ip: 20062088 freq: 1
rob stalling non-critical load ip: 20062104 freq: 10
rob stalling non-critical load ip: 20062272 freq: 5
rob stalling non-critical load ip: 20062696 freq: 1
rob stalling non-critical load ip: 20062784 freq: 47
rob stalling non-critical load ip: 20062836 freq: 9
rob stalling non-critical load ip: 20062904 freq: 33
rob stalling non-critical load ip: 20063036 freq: 8
rob stalling non-critical load ip: 20063876 freq: 10
rob stalling non-critical load ip: 20063904 freq: 1
rob stalling non-critical load ip: 20064076 freq: 1
rob stalling non-critical load ip: 20064080 freq: 1
rob stalling non-critical load ip: 20064396 freq: 2
rob stalling non-critical load ip: 20064480 freq: 11
rob stalling non-critical load ip: 20079080 freq: 2
rob stalling non-critical load ip: 20079460 freq: 1
rob stalling non-critical load ip: 20081736 freq: 1
rob stalling non-critical load ip: 20081864 freq: 3
rob stalling non-critical load ip: 20082268 freq: 7
rob stalling non-critical load ip: 20082308 freq: 6
rob stalling non-critical load ip: 20083212 freq: 3
rob stalling non-critical load ip: 20083228 freq: 8
rob stalling non-critical load ip: 20083440 freq: 6
rob stalling non-critical load ip: 20084492 freq: 1
rob stalling non-critical load ip: 20084520 freq: 3
rob stalling non-critical load ip: 20084532 freq: 3
rob stalling non-critical load ip: 20084544 freq: 12
rob stalling non-critical load ip: 20084712 freq: 1
rob stalling non-critical load ip: 20087336 freq: 10
rob stalling non-critical load ip: 20096056 freq: 4
rob stalling non-critical load ip: 20096104 freq: 9
rob stalling non-critical load ip: 20096292 freq: 2
rob stalling non-critical load ip: 20096308 freq: 4
rob stalling non-critical load ip: 20096324 freq: 3
rob stalling non-critical load ip: 20096364 freq: 1
rob stalling non-critical load ip: 20096416 freq: 2
rob stalling non-critical load ip: 20096608 freq: 5
rob stalling non-critical load ip: 20096732 freq: 5
rob stalling non-critical load ip: 20096772 freq: 11
rob stalling non-critical load ip: 20097336 freq: 9
rob stalling non-critical load ip: 20097340 freq: 29
rob stalling non-critical load ip: 20097868 freq: 7
rob stalling non-critical load ip: 20097876 freq: 6
rob stalling non-critical load ip: 20155144 freq: 6
rob stalling non-critical load ip: 20155176 freq: 24
rob stalling non-critical load ip: 20155208 freq: 2
rob stalling non-critical load ip: 20155452 freq: 9
rob stalling non-critical load ip: 20165604 freq: 6
rob stalling non-critical load ip: 20165628 freq: 3
rob stalling non-critical load ip: 20168600 freq: 15
rob stalling non-critical load ip: 20168796 freq: 4
rob stalling non-critical load ip: 20168800 freq: 2
rob stalling non-critical load ip: 20169008 freq: 5
rob stalling non-critical load ip: 20169080 freq: 13
rob stalling non-critical load ip: 20169124 freq: 1
rob stalling non-critical load ip: 20169220 freq: 10
rob stalling non-critical load ip: 20170580 freq: 33
rob stalling non-critical load ip: 20170616 freq: 41
rob stalling non-critical load ip: 20170792 freq: 1
rob stalling non-critical load ip: 20170832 freq: 1
rob stalling non-critical load ip: 20170952 freq: 5
rob stalling non-critical load ip: 20170968 freq: 4
rob stalling non-critical load ip: 20171036 freq: 7
rob stalling non-critical load ip: 20171120 freq: 1
rob stalling non-critical load ip: 20174020 freq: 12
rob stalling non-critical load ip: 20174084 freq: 1
rob stalling non-critical load ip: 20174220 freq: 8
rob stalling non-critical load ip: 20174224 freq: 9
rob stalling non-critical load ip: 20174332 freq: 16
rob stalling non-critical load ip: 20174344 freq: 12
rob stalling non-critical load ip: 20174372 freq: 54
rob stalling non-critical load ip: 20174376 freq: 8
rob stalling non-critical load ip: 20174416 freq: 1
rob stalling non-critical load ip: 20174444 freq: 1
rob stalling non-critical load ip: 20182888 freq: 15
rob stalling non-critical load ip: 20182900 freq: 9
rob stalling non-critical load ip: 20182940 freq: 3
rob stalling non-critical load ip: 20182980 freq: 4
rob stalling non-critical load ip: 20183184 freq: 52
rob stalling non-critical load ip: 20183340 freq: 7
rob stalling non-critical load ip: 20184960 freq: 5
rob stalling non-critical load ip: 20201692 freq: 8
rob stalling non-critical load ip: 20201964 freq: 7
rob stalling non-critical load ip: 20432220 freq: 4
rob stalling non-critical load ip: 20432264 freq: 8
rob stalling non-critical load ip: 20457776 freq: 6
rob stalling non-critical load ip: 20457780 freq: 1
rob stalling non-critical load ip: 20457876 freq: 4
rob stalling non-critical load ip: 20560968 freq: 4
rob stalling non-critical load ip: 20561052 freq: 6
rob stalling non-critical load ip: 20561136 freq: 1
rob stalling non-critical load ip: 20595892 freq: 2
rob stalling non-critical load ip: 20632612 freq: 1
rob stalling non-critical load ip: 20632776 freq: 8
rob stalling non-critical load ip: 20632780 freq: 3
rob stalling non-critical load ip: 20632884 freq: 2
rob stalling non-critical load ip: 20633040 freq: 6
rob stalling non-critical load ip: 20634300 freq: 8
rob stalling non-critical load ip: 20634584 freq: 2
rob stalling non-critical load ip: 20634756 freq: 2
rob stalling non-critical load ip: 20634788 freq: 1
rob stalling non-critical load ip: 20634792 freq: 1
rob stalling non-critical load ip: 20637384 freq: 7
rob stalling non-critical load ip: 20637392 freq: 9
rob stalling non-critical load ip: 20637420 freq: 1
rob stalling non-critical load ip: 20637612 freq: 5
rob stalling non-critical load ip: 20637632 freq: 5
rob stalling non-critical load ip: 20637644 freq: 6
rob stalling non-critical load ip: 20637796 freq: 7
rob stalling non-critical load ip: 20638412 freq: 5
rob stalling non-critical load ip: 20638472 freq: 1
rob stalling non-critical load ip: 20638824 freq: 4
rob stalling non-critical load ip: 20638864 freq: 4
rob stalling non-critical load ip: 20638900 freq: 5
rob stalling non-critical load ip: 20641336 freq: 2
rob stalling non-critical load ip: 20641736 freq: 7
rob stalling non-critical load ip: 20641828 freq: 1
rob stalling non-critical load ip: 20641928 freq: 2
rob stalling non-critical load ip: 20641944 freq: 1
rob stalling non-critical load ip: 20642004 freq: 4
rob stalling non-critical load ip: 20642056 freq: 4
rob stalling non-critical load ip: 20642656 freq: 5
rob stalling non-critical load ip: 20642820 freq: 7
rob stalling non-critical load ip: 20642908 freq: 6
rob stalling non-critical load ip: 20643900 freq: 3
rob stalling non-critical load ip: 20644212 freq: 6
rob stalling non-critical load ip: 20644388 freq: 1
rob stalling non-critical load ip: 20644436 freq: 2
rob stalling non-critical load ip: 20644464 freq: 5
rob stalling non-critical load ip: 20644472 freq: 2
rob stalling non-critical load ip: 20644480 freq: 2
rob stalling non-critical load ip: 20644492 freq: 1
rob stalling non-critical load ip: 20644496 freq: 1
rob stalling non-critical load ip: 20644548 freq: 4
rob stalling non-critical load ip: 20644608 freq: 2
rob stalling non-critical load ip: 20644612 freq: 3
rob stalling non-critical load ip: 20644704 freq: 3
rob stalling non-critical load ip: 20649556 freq: 8
rob stalling non-critical load ip: 20649560 freq: 3
rob stalling non-critical load ip: 20649684 freq: 8
rob stalling non-critical load ip: 20649724 freq: 6
rob stalling non-critical load ip: 20717244 freq: 4
rob stalling non-critical load ip: 20717320 freq: 4
rob stalling non-critical load ip: 20717496 freq: 4
rob stalling non-critical load ip: 20717636 freq: 6
rob stalling non-critical load ip: 20717772 freq: 2
rob stalling non-critical load ip: 20717804 freq: 5
rob stalling non-critical load ip: 20741432 freq: 4
rob stalling non-critical load ip: 20741572 freq: 4
rob stalling non-critical load ip: 20741620 freq: 2
rob stalling non-critical load ip: 20741692 freq: 3
rob stalling non-critical load ip: 20741944 freq: 2
rob stalling non-critical load ip: 20742556 freq: 4
rob stalling non-critical load ip: 20742584 freq: 5
rob stalling non-critical load ip: 20742616 freq: 2
rob stalling non-critical load ip: 20742676 freq: 4
rob stalling non-critical load ip: 20742688 freq: 1
rob stalling non-critical load ip: 20742752 freq: 1
rob stalling non-critical load ip: 20742816 freq: 1
rob stalling non-critical load ip: 20742848 freq: 2
rob stalling non-critical load ip: 20743620 freq: 1
rob stalling non-critical load ip: 20743684 freq: 13
rob stalling non-critical load ip: 20743864 freq: 7
rob stalling non-critical load ip: 20744088 freq: 2
rob stalling non-critical load ip: 20745860 freq: 6
rob stalling non-critical load ip: 20746124 freq: 2
rob stalling non-critical load ip: 20746200 freq: 1
rob stalling non-critical load ip: 20746604 freq: 5
rob stalling non-critical load ip: 20746608 freq: 2
rob stalling non-critical load ip: 20746928 freq: 6
rob stalling non-critical load ip: 20747792 freq: 1
rob stalling non-critical load ip: 20748744 freq: 1
rob stalling non-critical load ip: 20748820 freq: 3
rob stalling non-critical load ip: 20748964 freq: 8
rob stalling non-critical load ip: 20749248 freq: 8
rob stalling non-critical load ip: 20750080 freq: 3
rob stalling non-critical load ip: 20755876 freq: 7
rob stalling non-critical load ip: 20756192 freq: 3
rob stalling non-critical load ip: 20756208 freq: 4
rob stalling non-critical load ip: 20756300 freq: 4
rob stalling non-critical load ip: 20756432 freq: 4
rob stalling non-critical load ip: 20756784 freq: 8
rob stalling non-critical load ip: 20759720 freq: 9
rob stalling non-critical load ip: 20760008 freq: 7
rob stalling non-critical load ip: 20760060 freq: 1
rob stalling non-critical load ip: 20760160 freq: 4
rob stalling non-critical load ip: 20760180 freq: 2
rob stalling non-critical load ip: 20771400 freq: 2
rob stalling non-critical load ip: 20771552 freq: 4
rob stalling non-critical load ip: 20774404 freq: 11
rob stalling non-critical load ip: 20791736 freq: 3
rob stalling non-critical load ip: 20791768 freq: 1
rob stalling non-critical load ip: 20791776 freq: 5
rob stalling non-critical load ip: 20791976 freq: 7
rob stalling non-critical load ip: 20792420 freq: 1
rob stalling non-critical load ip: 20792448 freq: 1
rob stalling non-critical load ip: 20800304 freq: 2
rob stalling non-critical load ip: 20800420 freq: 2
rob stalling non-critical load ip: 20801756 freq: 1
rob stalling non-critical load ip: 20803096 freq: 2
rob stalling non-critical load ip: 20803148 freq: 5
rob stalling non-critical load ip: 20803300 freq: 5
rob stalling non-critical load ip: 20803644 freq: 1
rob stalling non-critical load ip: 20803760 freq: 4
rob stalling non-critical load ip: 20804304 freq: 3
rob stalling non-critical load ip: 20804540 freq: 4
rob stalling non-critical load ip: 20804656 freq: 3
rob stalling non-critical load ip: 20804804 freq: 3
rob stalling non-critical load ip: 20805024 freq: 25
rob stalling non-critical load ip: 20805104 freq: 4
rob stalling non-critical load ip: 20805316 freq: 13
rob stalling non-critical load ip: 20805380 freq: 2
rob stalling non-critical load ip: 20806248 freq: 3
rob stalling non-critical load ip: 20806456 freq: 2
rob stalling non-critical load ip: 20806956 freq: 4
rob stalling non-critical load ip: 20813492 freq: 1
rob stalling non-critical load ip: 20813576 freq: 1
rob stalling non-critical load ip: 20813772 freq: 1
rob stalling non-critical load ip: 20816344 freq: 6
rob stalling non-critical load ip: 20816400 freq: 45
rob stalling non-critical load ip: 20816452 freq: 9
rob stalling non-critical load ip: 20816868 freq: 1
rob stalling non-critical load ip: 20816876 freq: 1
rob stalling non-critical load ip: 20816904 freq: 18
rob stalling non-critical load ip: 20816912 freq: 7
rob stalling non-critical load ip: 20829656 freq: 4
rob stalling non-critical load ip: 20829680 freq: 1
rob stalling non-critical load ip: 20829932 freq: 2
rob stalling non-critical load ip: 20830036 freq: 3
rob stalling non-critical load ip: 20848732 freq: 2
rob stalling non-critical load ip: 2071812604 freq: 3
rob stalling non-critical load ip: 2071824268 freq: 1
rob stalling non-critical load ip: 2071824328 freq: 2
rob stalling non-critical load ip: 2071825480 freq: 2
rob stalling non-critical load ip: 2074816436 freq: 1
rob stalling non-critical load ip: 2074816456 freq: 1
rob stalling non-critical load ip: 2074819264 freq: 2
rob stalling non-critical load ip: 2074819516 freq: 4
rob stalling non-critical load ip: 2074819848 freq: 1
rob stalling non-critical load ip: 2074820008 freq: 1
rob stalling non-critical load ip: 2074820780 freq: 1
rob stalling non-critical load ip: 2074941636 freq: 2
rob stalling non-critical load ip: 2074941744 freq: 1
rob stalling non-critical load ip: 2074941816 freq: 1
rob stalling non-critical load ip: 2074941868 freq: 1
rob stalling non-critical load ip: 2074942452 freq: 1
rob stalling non-critical load ip: 2074942692 freq: 1
rob stalling non-critical load ip: 2074948992 freq: 1
rob stalling non-critical load ip: 2074949060 freq: 1
rob stalling non-critical load ip: 2074949708 freq: 1
rob stalling non-critical load ip: 2074950024 freq: 1
rob stalling non-critical load ip: 2074950160 freq: 3
rob stalling non-critical load ip: 2074950176 freq: 1
rob stalling non-critical load ip: 2074950236 freq: 3
rob stalling non-critical load ip: 2074950268 freq: 1
rob stalling non-critical load ip: 2074951236 freq: 4
rob stalling non-critical load ip: 2074951392 freq: 1
rob stalling non-critical load ip: 2074981916 freq: 2
rob stalling non-critical load ip: 2074982084 freq: 2
rob stalling non-critical load ip: 2074982156 freq: 1
rob stalling non-critical load ip: 2074982160 freq: 1
rob stalling non-critical load ip: 2074982164 freq: 1
rob stalling non-critical load ip: 2074998344 freq: 1
rob stalling non-critical load ip: 2074998480 freq: 1
rob stalling non-critical load ip: 2074998508 freq: 1
rob stalling non-critical load ip: 2078550532 freq: 1
rob stalling non-critical load ip: 2078562184 freq: 1
rob stalling non-critical load ip: 2078589608 freq: 2
rob stalling non-critical load ip: 2078590748 freq: 1
rob stalling non-critical load ip: 2078590916 freq: 1
rob stalling non-critical load ip: 18446744069047598800 freq: 1
rob stalling non-critical load ip: 18446744069047601060 freq: 5
rob stalling non-critical load ip: 18446744069047601096 freq: 25
rob stalling non-critical load ip: 18446744069081193244 freq: 1
rob stalling non-critical load ip: 18446744071436263080 freq: 1
rob stalling non-critical load ip: 18446744071436263460 freq: 3
rob stalling non-critical load ip: 18446744071436290024 freq: 1
rob stalling non-critical load ip: 18446744071436290028 freq: 50
rob stalling non-critical load ip: 18446744071436290040 freq: 2
rob stalling non-critical load ip: 18446744071436290044 freq: 16
rob stalling non-critical load ip: 18446744071436290096 freq: 7
rob stalling non-critical load ip: 18446744071436474488 freq: 50
rob stalling non-critical load ip: 18446744071436474504 freq: 1
rob stalling non-critical load ip: 18446744071436474544 freq: 2
rob stalling non-critical load ip: 18446744071436481196 freq: 1
rob stalling non-critical load ip: 18446744071436481268 freq: 1
rob stalling non-critical load ip: 18446744071436481356 freq: 1
rob stalling non-critical load ip: 18446744071436515748 freq: 10
rob stalling non-critical load ip: 18446744071436516416 freq: 264
rob stalling non-critical load ip: 18446744071436516472 freq: 4
rob stalling non-critical load ip: 18446744071436516480 freq: 528
rob stalling non-critical load ip: 18446744071436516488 freq: 44
rob stalling non-critical load ip: 18446744071436516552 freq: 517
rob stalling non-critical load ip: 18446744071436516624 freq: 8
rob stalling non-critical load ip: 18446744071436516628 freq: 5
rob stalling non-critical load ip: 18446744071436516704 freq: 657
rob stalling non-critical load ip: 18446744071436517680 freq: 4
rob stalling non-critical load ip: 18446744071436609408 freq: 3
rob stalling non-critical load ip: 18446744071436623188 freq: 7
rob stalling non-critical load ip: 18446744071436623196 freq: 4
rob stalling non-critical load ip: 18446744071436623504 freq: 4
rob stalling non-critical load ip: 18446744071436670508 freq: 6
rob stalling non-critical load ip: 18446744071436670516 freq: 6
rob stalling non-critical load ip: 18446744071436685916 freq: 6
rob stalling non-critical load ip: 18446744071436685996 freq: 5
rob stalling non-critical load ip: 18446744071436816456 freq: 8
rob stalling non-critical load ip: 18446744071436816616 freq: 9
rob stalling non-critical load ip: 18446744071436937476 freq: 6
rob stalling non-critical load ip: 18446744071436937504 freq: 4
rob stalling non-critical load ip: 18446744071437029636 freq: 87
rob stalling non-critical load ip: 18446744071437029652 freq: 15
rob stalling non-critical load ip: 18446744071437029664 freq: 54
rob stalling non-critical load ip: 18446744071437029684 freq: 354
rob stalling non-critical load ip: 18446744071437029688 freq: 34
rob stalling non-critical load ip: 18446744071437029716 freq: 5
rob stalling non-critical load ip: 18446744071437029764 freq: 34
rob stalling non-critical load ip: 18446744071437029788 freq: 464
rob stalling non-critical load ip: 18446744071437029824 freq: 826
rob stalling non-critical load ip: 18446744071437029828 freq: 46
rob stalling non-critical load ip: 18446744071437029856 freq: 8
rob stalling non-critical load ip: 18446744071437029904 freq: 64
rob stalling non-critical load ip: 18446744071437029928 freq: 959
rob stalling non-critical load ip: 18446744071437029932 freq: 2
rob stalling non-critical load ip: 18446744071437029964 freq: 217
rob stalling non-critical load ip: 18446744071437029968 freq: 61
rob stalling non-critical load ip: 18446744071437029996 freq: 7
rob stalling non-critical load ip: 18446744071437030044 freq: 53
rob stalling non-critical load ip: 18446744071437030068 freq: 358
rob stalling non-critical load ip: 18446744071437030100 freq: 164
rob stalling non-critical load ip: 18446744071437030104 freq: 867
rob stalling non-critical load ip: 18446744071437030108 freq: 3
rob stalling non-critical load ip: 18446744071437030132 freq: 7
rob stalling non-critical load ip: 18446744071437030180 freq: 413
rob stalling non-critical load ip: 18446744071437030204 freq: 224
rob stalling non-critical load ip: 18446744071437030264 freq: 2
rob stalling non-critical load ip: 18446744071437188232 freq: 409
rob stalling non-critical load ip: 18446744071437188248 freq: 464
rob stalling non-critical load ip: 18446744071437188268 freq: 5
rob stalling non-critical load ip: 18446744071437188436 freq: 517
rob stalling non-critical load ip: 18446744071437188556 freq: 472
rob stalling non-critical load ip: 18446744071437188560 freq: 9
rob stalling non-critical load ip: 18446744071437188672 freq: 17
rob stalling non-critical load ip: 18446744071437193412 freq: 3
rob stalling non-critical load ip: 18446744071437193428 freq: 4
rob stalling non-critical load ip: 18446744071437245496 freq: 1
rob stalling non-critical load ip: 18446744071437245540 freq: 7
rob stalling non-critical load ip: 18446744071437245676 freq: 42
rob stalling non-critical load ip: 18446744071437245744 freq: 3
rob stalling non-critical load ip: 18446744071437245752 freq: 102
rob stalling non-critical load ip: 18446744071437245760 freq: 102
rob stalling non-critical load ip: 18446744071437245916 freq: 5
rob stalling non-critical load ip: 18446744071437246004 freq: 16
rob stalling non-critical load ip: 18446744071437246068 freq: 68
rob stalling non-critical load ip: 18446744071437246196 freq: 982
rob stalling non-critical load ip: 18446744071437246228 freq: 37
rob stalling non-critical load ip: 18446744071437249028 freq: 464
rob stalling non-critical load ip: 18446744071437249036 freq: 8
rob stalling non-critical load ip: 18446744071437249136 freq: 3
rob stalling non-critical load ip: 18446744071437249168 freq: 10
rob stalling non-critical load ip: 18446744071437249320 freq: 3
rob stalling non-critical load ip: 18446744071437249356 freq: 21
rob stalling non-critical load ip: 18446744071437254240 freq: 4
rob stalling non-critical load ip: 18446744071437254356 freq: 12
rob stalling non-critical load ip: 18446744071437254364 freq: 11
rob stalling non-critical load ip: 18446744071437254368 freq: 1
rob stalling non-critical load ip: 18446744071437254412 freq: 7
rob stalling non-critical load ip: 18446744071437254472 freq: 25
rob stalling non-critical load ip: 18446744071437254484 freq: 2
rob stalling non-critical load ip: 18446744071437254492 freq: 2
rob stalling non-critical load ip: 18446744071437254560 freq: 121
rob stalling non-critical load ip: 18446744071437254568 freq: 34
rob stalling non-critical load ip: 18446744071437254576 freq: 98
rob stalling non-critical load ip: 18446744071437254656 freq: 7
rob stalling non-critical load ip: 18446744071437254680 freq: 50
rob stalling non-critical load ip: 18446744071437254856 freq: 23
rob stalling non-critical load ip: 18446744071437254864 freq: 1
rob stalling non-critical load ip: 18446744071437254924 freq: 19
rob stalling non-critical load ip: 18446744071437254932 freq: 105
rob stalling non-critical load ip: 18446744071437254940 freq: 105
rob stalling non-critical load ip: 18446744071437255104 freq: 215
rob stalling non-critical load ip: 18446744071437255252 freq: 188
rob stalling non-critical load ip: 18446744071437255316 freq: 12
rob stalling non-critical load ip: 18446744071437255460 freq: 9
rob stalling non-critical load ip: 18446744071437255492 freq: 57
rob stalling non-critical load ip: 18446744071437278816 freq: 115
rob stalling non-critical load ip: 18446744071437280556 freq: 12
rob stalling non-critical load ip: 18446744071437280564 freq: 2
rob stalling non-critical load ip: 18446744071437280624 freq: 5
rob stalling non-critical load ip: 18446744071437280632 freq: 643
rob stalling non-critical load ip: 18446744071437280640 freq: 539
rob stalling non-critical load ip: 18446744071437280692 freq: 4
rob stalling non-critical load ip: 18446744071437280720 freq: 13
rob stalling non-critical load ip: 18446744071437280724 freq: 12
rob stalling non-critical load ip: 18446744071437280760 freq: 70
rob stalling non-critical load ip: 18446744071437280920 freq: 17
rob stalling non-critical load ip: 18446744071437280960 freq: 19
rob stalling non-critical load ip: 18446744071437281036 freq: 1
rob stalling non-critical load ip: 18446744071437309240 freq: 4
rob stalling non-critical load ip: 18446744071437309356 freq: 10
rob stalling non-critical load ip: 18446744071437389380 freq: 11
rob stalling non-critical load ip: 18446744071437389384 freq: 531
rob stalling non-critical load ip: 18446744071437389412 freq: 18
rob stalling non-critical load ip: 18446744071437389444 freq: 8
rob stalling non-critical load ip: 18446744071437389460 freq: 3
rob stalling non-critical load ip: 18446744071437389492 freq: 65
rob stalling non-critical load ip: 18446744071437389508 freq: 406
rob stalling non-critical load ip: 18446744071437389524 freq: 22
rob stalling non-critical load ip: 18446744071437389540 freq: 58
rob stalling non-critical load ip: 18446744071437389556 freq: 421
rob stalling non-critical load ip: 18446744071437389572 freq: 82
rob stalling non-critical load ip: 18446744071437389604 freq: 395
rob stalling non-critical load ip: 18446744071437389624 freq: 1
rob stalling non-critical load ip: 18446744071437389652 freq: 392
rob stalling non-critical load ip: 18446744071437391556 freq: 269
rob stalling non-critical load ip: 18446744071437391576 freq: 2
rob stalling non-critical load ip: 18446744071437391592 freq: 2
rob stalling non-critical load ip: 18446744071437391624 freq: 5
rob stalling non-critical load ip: 18446744071437391636 freq: 4
rob stalling non-critical load ip: 18446744071437391716 freq: 38
rob stalling non-critical load ip: 18446744071437391784 freq: 6
rob stalling non-critical load ip: 18446744071437391904 freq: 4
rob stalling non-critical load ip: 18446744071437391980 freq: 3
rob stalling non-critical load ip: 18446744071437392044 freq: 8
rob stalling non-critical load ip: 18446744071437392104 freq: 8
rob stalling non-critical load ip: 18446744071437392164 freq: 4
rob stalling non-critical load ip: 18446744071437392232 freq: 6
rob stalling non-critical load ip: 18446744071437392300 freq: 8
rob stalling non-critical load ip: 18446744071437392360 freq: 4
rob stalling non-critical load ip: 18446744071437392420 freq: 2
rob stalling non-critical load ip: 18446744071437392492 freq: 5
rob stalling non-critical load ip: 18446744071437392564 freq: 6
rob stalling non-critical load ip: 18446744071437392624 freq: 6
rob stalling non-critical load ip: 18446744071437393508 freq: 335
rob stalling non-critical load ip: 18446744071437394496 freq: 38
rob stalling non-critical load ip: 18446744071437395396 freq: 42
rob stalling non-critical load ip: 18446744071437395484 freq: 558
rob stalling non-critical load ip: 18446744071437395492 freq: 3
rob stalling non-critical load ip: 18446744071437395508 freq: 3
rob stalling non-critical load ip: 18446744071437395516 freq: 549
rob stalling non-critical load ip: 18446744071437395528 freq: 26
rob stalling non-critical load ip: 18446744071437395536 freq: 487
rob stalling non-critical load ip: 18446744071437395544 freq: 2
rob stalling non-critical load ip: 18446744071437395552 freq: 31
rob stalling non-critical load ip: 18446744071437421604 freq: 8
rob stalling non-critical load ip: 18446744071437476228 freq: 19
rob stalling non-critical load ip: 18446744071437476304 freq: 3
rob stalling non-critical load ip: 18446744071437476312 freq: 6
rob stalling non-critical load ip: 18446744071437476364 freq: 5
rob stalling non-critical load ip: 18446744071437518660 freq: 543
rob stalling non-critical load ip: 18446744071437518696 freq: 377
rob stalling non-critical load ip: 18446744071437518712 freq: 120
rob stalling non-critical load ip: 18446744071437518716 freq: 17
rob stalling non-critical load ip: 18446744071437518732 freq: 46
rob stalling non-critical load ip: 18446744071437518792 freq: 290
rob stalling non-critical load ip: 18446744071437518808 freq: 501
rob stalling non-critical load ip: 18446744071437518880 freq: 266
rob stalling non-critical load ip: 18446744071437518884 freq: 425
rob stalling non-critical load ip: 18446744071437518888 freq: 13
rob stalling non-critical load ip: 18446744071437518896 freq: 1345
rob stalling non-critical load ip: 18446744071437518936 freq: 657
rob stalling non-critical load ip: 18446744071437518940 freq: 213
rob stalling non-critical load ip: 18446744071437518944 freq: 12
rob stalling non-critical load ip: 18446744071437519316 freq: 4
rob stalling non-critical load ip: 18446744071437571216 freq: 2
rob stalling non-critical load ip: 18446744071437571272 freq: 1
rob stalling non-critical load ip: 18446744071437571400 freq: 1
rob stalling non-critical load ip: 18446744071437571540 freq: 2
rob stalling non-critical load ip: 18446744071437660728 freq: 1
rob stalling non-critical load ip: 18446744071437663040 freq: 1
rob stalling non-critical load ip: 18446744071437663112 freq: 5
rob stalling non-critical load ip: 18446744071437663132 freq: 14
rob stalling non-critical load ip: 18446744071437663148 freq: 8
rob stalling non-critical load ip: 18446744071437663156 freq: 15
rob stalling non-critical load ip: 18446744071437663196 freq: 13
rob stalling non-critical load ip: 18446744071437663200 freq: 40
rob stalling non-critical load ip: 18446744071437663260 freq: 110
rob stalling non-critical load ip: 18446744071437663268 freq: 55
rob stalling non-critical load ip: 18446744071437663316 freq: 15
rob stalling non-critical load ip: 18446744071437663364 freq: 37
rob stalling non-critical load ip: 18446744071437663388 freq: 121
rob stalling non-critical load ip: 18446744071437663528 freq: 3
rob stalling non-critical load ip: 18446744071437663532 freq: 75
rob stalling non-critical load ip: 18446744071437663564 freq: 1
rob stalling non-critical load ip: 18446744071437663568 freq: 72
rob stalling non-critical load ip: 18446744071437663596 freq: 8
rob stalling non-critical load ip: 18446744071437663600 freq: 4
rob stalling non-critical load ip: 18446744071437663628 freq: 68
rob stalling non-critical load ip: 18446744071437663632 freq: 3
rob stalling non-critical load ip: 18446744071437663664 freq: 2
rob stalling non-critical load ip: 18446744071437663752 freq: 29
rob stalling non-critical load ip: 18446744071437663780 freq: 1
rob stalling non-critical load ip: 18446744071437663924 freq: 4
rob stalling non-critical load ip: 18446744071437663932 freq: 68
rob stalling non-critical load ip: 18446744071437666552 freq: 236
rob stalling non-critical load ip: 18446744071437666604 freq: 738
rob stalling non-critical load ip: 18446744071437666608 freq: 158
rob stalling non-critical load ip: 18446744071437666612 freq: 44
rob stalling non-critical load ip: 18446744071437666644 freq: 801
rob stalling non-critical load ip: 18446744071437666688 freq: 990
rob stalling non-critical load ip: 18446744071437666716 freq: 1135
rob stalling non-critical load ip: 18446744071437666724 freq: 119
rob stalling non-critical load ip: 18446744071437666728 freq: 44
rob stalling non-critical load ip: 18446744071437666744 freq: 11228
rob stalling non-critical load ip: 18446744071437666756 freq: 628
rob stalling non-critical load ip: 18446744071437666780 freq: 396
rob stalling non-critical load ip: 18446744071437666804 freq: 124
rob stalling non-critical load ip: 18446744071437666812 freq: 64
rob stalling non-critical load ip: 18446744071437666956 freq: 20850
rob stalling non-critical load ip: 18446744071437668024 freq: 3882
rob stalling non-critical load ip: 18446744071437668084 freq: 406
rob stalling non-critical load ip: 18446744071437668188 freq: 50
rob stalling non-critical load ip: 18446744071437668264 freq: 9484
rob stalling non-critical load ip: 18446744071437668268 freq: 613
rob stalling non-critical load ip: 18446744071437668320 freq: 833
rob stalling non-critical load ip: 18446744071437668328 freq: 108
rob stalling non-critical load ip: 18446744071437668360 freq: 2030
rob stalling non-critical load ip: 18446744071437668384 freq: 4017
rob stalling non-critical load ip: 18446744071437668400 freq: 798
rob stalling non-critical load ip: 18446744071437668452 freq: 1926
rob stalling non-critical load ip: 18446744071437668456 freq: 10
rob stalling non-critical load ip: 18446744071437668460 freq: 105
rob stalling non-critical load ip: 18446744071437668492 freq: 1907
rob stalling non-critical load ip: 18446744071437668516 freq: 2638
rob stalling non-critical load ip: 18446744071437668532 freq: 379
rob stalling non-critical load ip: 18446744071437668584 freq: 773
rob stalling non-critical load ip: 18446744071437668588 freq: 3
rob stalling non-critical load ip: 18446744071437668592 freq: 23
rob stalling non-critical load ip: 18446744071437668624 freq: 2459
rob stalling non-critical load ip: 18446744071437668644 freq: 217
rob stalling non-critical load ip: 18446744071437668660 freq: 1554
rob stalling non-critical load ip: 18446744071437668712 freq: 1868
rob stalling non-critical load ip: 18446744071437668716 freq: 1
rob stalling non-critical load ip: 18446744071437668720 freq: 45
rob stalling non-critical load ip: 18446744071437668752 freq: 2539
rob stalling non-critical load ip: 18446744071437668772 freq: 45
rob stalling non-critical load ip: 18446744071437668788 freq: 1786
rob stalling non-critical load ip: 18446744071437668840 freq: 2361
rob stalling non-critical load ip: 18446744071437668844 freq: 2
rob stalling non-critical load ip: 18446744071437668848 freq: 42
rob stalling non-critical load ip: 18446744071437668880 freq: 2404
rob stalling non-critical load ip: 18446744071437668900 freq: 84
rob stalling non-critical load ip: 18446744071437668912 freq: 1652
rob stalling non-critical load ip: 18446744071437668964 freq: 1149
rob stalling non-critical load ip: 18446744071437668968 freq: 698
rob stalling non-critical load ip: 18446744071437668980 freq: 379
rob stalling non-critical load ip: 18446744071437669000 freq: 2632
rob stalling non-critical load ip: 18446744071437669024 freq: 18430
rob stalling non-critical load ip: 18446744071437669112 freq: 40
rob stalling non-critical load ip: 18446744071437675208 freq: 1
rob stalling non-critical load ip: 18446744071437676164 freq: 1
rob stalling non-critical load ip: 18446744071437676612 freq: 1
rob stalling non-critical load ip: 18446744071437695136 freq: 4
rob stalling non-critical load ip: 18446744071437695176 freq: 16
rob stalling non-critical load ip: 18446744071437695212 freq: 16
[...]
Non-critical_ROB_Stalls_Percent_1_Bucket_6: 10675
Critical_ROB_Stalls_Percent_2_Bucket_0: 199011
Non-critical_ROB_Stalls_Percent_2_Bucket_0: 87145
Critical_ROB_Stalls_Percent_2_Bucket_1: 8224
Non-critical_ROB_Stalls_Percent_2_Bucket_1: 12673
Critical_ROB_Stalls_Percent_2_Bucket_2: 4397
Non-critical_ROB_Stalls_Percent_2_Bucket_2: 11984
Critical_ROB_Stalls_Percent_2_Bucket_3: 2214
Non-critical_ROB_Stalls_Percent_2_Bucket_3: 12257
Critical_ROB_Stalls_Percent_2_Bucket_4: 10089
Non-critical_ROB_Stalls_Percent_2_Bucket_4: 14534
Critical_ROB_Stalls_Percent_2_Bucket_5: 14611
Non-critical_ROB_Stalls_Percent_2_Bucket_5: 6928
Critical_ROB_Stalls_Percent_2_Bucket_6: 783
Non-critical_ROB_Stalls_Percent_2_Bucket_6: 10672
Critical_ROB_Stalls_Percent_3_Bucket_0: 209722
Non-critical_ROB_Stalls_Percent_3_Bucket_0: 76434
Critical_ROB_Stalls_Percent_3_Bucket_1: 8794
Non-critical_ROB_Stalls_Percent_3_Bucket_1: 12103
Critical_ROB_Stalls_Percent_3_Bucket_2: 4887
Non-critical_ROB_Stalls_Percent_3_Bucket_2: 11494
Critical_ROB_Stalls_Percent_3_Bucket_3: 3019
Non-critical_ROB_Stalls_Percent_3_Bucket_3: 11452
Critical_ROB_Stalls_Percent_3_Bucket_4: 11457
Non-critical_ROB_Stalls_Percent_3_Bucket_4: 13166
Critical_ROB_Stalls_Percent_3_Bucket_5: 15634
Non-critical_ROB_Stalls_Percent_3_Bucket_5: 5905
Critical_ROB_Stalls_Percent_3_Bucket_6: 2038
Non-critical_ROB_Stalls_Percent_3_Bucket_6: 9417
Critical_ROB_Stalls_Percent_4_Bucket_0: 215092
Non-critical_ROB_Stalls_Percent_4_Bucket_0: 71064
Critical_ROB_Stalls_Percent_4_Bucket_1: 9985
Non-critical_ROB_Stalls_Percent_4_Bucket_1: 10912
Critical_ROB_Stalls_Percent_4_Bucket_2: 5345
Non-critical_ROB_Stalls_Percent_4_Bucket_2: 11036
Critical_ROB_Stalls_Percent_4_Bucket_3: 4713
Non-critical_ROB_Stalls_Percent_4_Bucket_3: 9758
Critical_ROB_Stalls_Percent_4_Bucket_4: 19026
Non-critical_ROB_Stalls_Percent_4_Bucket_4: 5597
Critical_ROB_Stalls_Percent_4_Bucket_5: 17486
Non-critical_ROB_Stalls_Percent_4_Bucket_5: 4053
Critical_ROB_Stalls_Percent_4_Bucket_6: 4079
Non-critical_ROB_Stalls_Percent_4_Bucket_6: 7376
Critical_ROB_Stalls_Percent_5_Bucket_0: 221833
Non-critical_ROB_Stalls_Percent_5_Bucket_0: 64323
Critical_ROB_Stalls_Percent_5_Bucket_1: 11365
Non-critical_ROB_Stalls_Percent_5_Bucket_1: 9532
Critical_ROB_Stalls_Percent_5_Bucket_2: 9061
Non-critical_ROB_Stalls_Percent_5_Bucket_2: 7320
Critical_ROB_Stalls_Percent_5_Bucket_3: 7570
Non-critical_ROB_Stalls_Percent_5_Bucket_3: 6901
Critical_ROB_Stalls_Percent_5_Bucket_4: 19693
Non-critical_ROB_Stalls_Percent_5_Bucket_4: 4930
Critical_ROB_Stalls_Percent_5_Bucket_5: 17542
Non-critical_ROB_Stalls_Percent_5_Bucket_5: 3997
Critical_ROB_Stalls_Percent_5_Bucket_6: 6467
Non-critical_ROB_Stalls_Percent_5_Bucket_6: 4988
Critical_ROB_Stalls_Percent_6_Bucket_0: 230993
Non-critical_ROB_Stalls_Percent_6_Bucket_0: 55163
Critical_ROB_Stalls_Percent_6_Bucket_1: 12715
Non-critical_ROB_Stalls_Percent_6_Bucket_1: 8182
Critical_ROB_Stalls_Percent_6_Bucket_2: 10863
Non-critical_ROB_Stalls_Percent_6_Bucket_2: 5518
Critical_ROB_Stalls_Percent_6_Bucket_3: 9992
Non-critical_ROB_Stalls_Percent_6_Bucket_3: 4479
Critical_ROB_Stalls_Percent_6_Bucket_4: 21102
Non-critical_ROB_Stalls_Percent_6_Bucket_4: 3521
Critical_ROB_Stalls_Percent_6_Bucket_5: 18767
Non-critical_ROB_Stalls_Percent_6_Bucket_5: 2772
Critical_ROB_Stalls_Percent_6_Bucket_6: 8765
Non-critical_ROB_Stalls_Percent_6_Bucket_6: 2690
Critical_ROB_Stalls_Percent_7_Bucket_0: 244152
Non-critical_ROB_Stalls_Percent_7_Bucket_0: 42004
Critical_ROB_Stalls_Percent_7_Bucket_1: 14305
Non-critical_ROB_Stalls_Percent_7_Bucket_1: 6592
Critical_ROB_Stalls_Percent_7_Bucket_2: 12889
Non-critical_ROB_Stalls_Percent_7_Bucket_2: 3492
Critical_ROB_Stalls_Percent_7_Bucket_3: 11691
Non-critical_ROB_Stalls_Percent_7_Bucket_3: 2780
Critical_ROB_Stalls_Percent_7_Bucket_4: 21796
Non-critical_ROB_Stalls_Percent_7_Bucket_4: 2827
Critical_ROB_Stalls_Percent_7_Bucket_5: 19285
Non-critical_ROB_Stalls_Percent_7_Bucket_5: 2254
Critical_ROB_Stalls_Percent_7_Bucket_6: 8971
Non-critical_ROB_Stalls_Percent_7_Bucket_6: 2484
Critical_ROB_Stalls_Percent_8_Bucket_0: 255534
Non-critical_ROB_Stalls_Percent_8_Bucket_0: 30622
Critical_ROB_Stalls_Percent_8_Bucket_1: 16606
Non-critical_ROB_Stalls_Percent_8_Bucket_1: 4291
Critical_ROB_Stalls_Percent_8_Bucket_2: 13984
Non-critical_ROB_Stalls_Percent_8_Bucket_2: 2397
Critical_ROB_Stalls_Percent_8_Bucket_3: 12659
Non-critical_ROB_Stalls_Percent_8_Bucket_3: 1812
Critical_ROB_Stalls_Percent_8_Bucket_4: 23410
Non-critical_ROB_Stalls_Percent_8_Bucket_4: 1213
Critical_ROB_Stalls_Percent_8_Bucket_5: 20437
Non-critical_ROB_Stalls_Percent_8_Bucket_5: 1102
Critical_ROB_Stalls_Percent_8_Bucket_6: 9368
Non-critical_ROB_Stalls_Percent_8_Bucket_6: 2087
Average ROB occupancy Load Stall Begin: 58.5194
Average ROB occupancy Load Stall End: 66.7423
Min ROB occupancy Load Stall Begin: 1
Max ROB occupancy Load Stall Begin: 351
Min ROB occupancy Load Stall End: 1
Max ROB occupancy Load Stall End: 352
Average ROB occupancy Critical Load Stall Begin: -nan
Average ROB occupancy Critical Load Stall End: -nan
Min ROB occupancy Critical Load Stall Begin: 400
Max ROB occupancy Critical Load Stall Begin: 0
Min ROB occupancy Critical Load Stall End: 400
Max ROB occupancy Critical Load Stall End: 0
 ROB Load Stall Begin Bucket Count 0: 291699
 ROB Load Stall End Bucket Count 0: 286156
 ROB Critical Load Stall Begin Bucket Count 0: 0
 ROB Critical Load Stall End Bucket Count 0: 0
 ROB Load Stall Begin Bucket Count 1: 23546
 ROB Load Stall End Bucket Count 1: 20897
 ROB Critical Load Stall Begin Bucket Count 1: 0
 ROB Critical Load Stall End Bucket Count 1: 0
 ROB Load Stall Begin Bucket Count 2: 19226
 ROB Load Stall End Bucket Count 2: 16381
 ROB Critical Load Stall Begin Bucket Count 2: 0
 ROB Critical Load Stall End Bucket Count 2: 0
 ROB Load Stall Begin Bucket Count 3: 14968
 ROB Load Stall End Bucket Count 3: 14471
 ROB Critical Load Stall Begin Bucket Count 3: 0
 ROB Critical Load Stall End Bucket Count 3: 0
 ROB Load Stall Begin Bucket Count 4: 19289
 ROB Load Stall End Bucket Count 4: 24623
 ROB Critical Load Stall Begin Bucket Count 4: 0
 ROB Critical Load Stall End Bucket Count 4: 0
 ROB Load Stall Begin Bucket Count 5: 18763
 ROB Load Stall End Bucket Count 5: 21539
 ROB Critical Load Stall Begin Bucket Count 5: 0
 ROB Critical Load Stall End Bucket Count 5: 0
 ROB Load Stall Begin Bucket Count 6: 8031
 ROB Load Stall End Bucket Count 6: 11455
 ROB Critical Load Stall Begin Bucket Count 6: 0
 ROB Critical Load Stall End Bucket Count 6: 0
PIST Tag Read Accesses: 86040
PIST Read Accesses: 43020
PIST Tag Write Accesses: 86040
PIST Write Accesses: 43020
Criticality detector called times: 138681
Max global_stall_cycles_count: 199688
Threshold Modified: 2 times, factor: -2
Sturdy critical IP cache stats: 
 Unused entries: 0
CIC Tag Read Accesses: 0
CIC Read Accesses: 0
CIC Tag Write Accesses: 0
CIC Write Accesses: 0
Wobbly critical IP cache stats: 
 Unused entries: 116
CIC Tag Read Accesses: 29417912
CIC Read Accesses: 0
CIC Tag Write Accesses: 14483
CIC Write Accesses: 0
ITLB TOTAL     ACCESS:    7166872  HIT:    6909656  MISS:     257216  HIT %:     96.411  MISS %:    3.58896   MPKI: 5.14432
ITLB LOAD TRANSLATION ACCESS:    7166872  HIT:    6909656  MISS:     257216  HIT %:     96.411  MISS %:    3.58896   MPKI: 5.14432
ITLB PREFETCH  REQUESTED:          0  ISSUED:          0  USEFUL:          0  USELESS:          0
ITLB USEFUL LOAD PREFETCHES:          0 PREFETCH ISSUED TO LOWER LEVEL:          0  ACCURACY: -nan
ITLB TIMELY PREFETCHES:          0 LATE PREFETCHES: 0 DROPPED PREFETCHES: 0
ITLB PREFETCHES SAME FILL-ORIGIN LEVEL: 0 DIFFERENT FILL-ORIGIN LEVEL: 0
ITLB AVERAGE MISS LATENCY: 46.2225 cycles
ITLB RQ	ACCESS:    9379473	FORWARD:          0	MERGED:    2135081	TO_CACHE:    7244392

DTLB TOTAL     ACCESS:    4093845  HIT:    2869235  MISS:    1224610  HIT %:    70.0866  MISS %:    29.9134   MPKI: 24.4922
DTLB LOAD TRANSLATION ACCESS:    4093845  HIT:    2869235  MISS:    1224610  HIT %:    70.0866  MISS %:    29.9134   MPKI: 24.4922
DTLB PREFETCH  REQUESTED:          0  ISSUED:          0  USEFUL:          0  USELESS:          0
DTLB USEFUL LOAD PREFETCHES:          0 PREFETCH ISSUED TO LOWER LEVEL:          0  ACCURACY: -nan
DTLB TIMELY PREFETCHES:          0 LATE PREFETCHES: 0 DROPPED PREFETCHES: 0
DTLB PREFETCHES SAME FILL-ORIGIN LEVEL: 0 DIFFERENT FILL-ORIGIN LEVEL: 0
DTLB AVERAGE MISS LATENCY: 34.8801 cycles
DTLB RQ	ACCESS:    5020082	FORWARD:          0	MERGED:     824633	TO_CACHE:    4195449

STLB TOTAL     ACCESS:    1481826  HIT:     508155  MISS:     973671  HIT %:    34.2925  MISS %:    65.7075   MPKI: 19.4734
STLB LOAD TRANSLATION ACCESS:    1481826  HIT:     508155  MISS:     973671  HIT %:    34.2925  MISS %:    65.7075   MPKI: 19.4734
STLB PREFETCH  REQUESTED:          0  ISSUED:          0  USEFUL:          0  USELESS:          0
STLB USEFUL LOAD PREFETCHES:          0 PREFETCH ISSUED TO LOWER LEVEL:          0  ACCURACY: -nan
STLB TIMELY PREFETCHES:          0 LATE PREFETCHES: 0 DROPPED PREFETCHES: 0
STLB PREFETCHES SAME FILL-ORIGIN LEVEL: 0 DIFFERENT FILL-ORIGIN LEVEL: 0
STLB AVERAGE MISS LATENCY: 42.2472 cycles
STLB RQ	ACCESS:    1481826	FORWARD:          0	MERGED:          0	TO_CACHE:    1481826

STLB Hit, L1D data hit: 0
STLB Hit, L2C data hit: 0
STLB Hit, LLC data hit: 0
STLB Hit, LLC data miss: 0
STLB STLB hints to L2: 0
L1D TOTAL     ACCESS:    4908325  HIT:    4509256  MISS:     399069  HIT %:    91.8695  MISS %:    8.13045   MPKI: 7.98138
L1D LOAD      ACCESS:    3354702  HIT:    2986010  MISS:     368692  HIT %:    89.0097  MISS %:    10.9903   MPKI: 7.37384
L1D RFO       ACCESS:    1553623  HIT:    1523246  MISS:      30377  HIT %:    98.0448  MISS %:    1.95524   MPKI: 0.60754
L1D PREFETCH  REQUESTED:          0  ISSUED:          0  USEFUL:          0  USELESS:          0
L1D USEFUL LOAD PREFETCHES:          0 PREFETCH ISSUED TO LOWER LEVEL:          0  ACCURACY: -nan
L1D TIMELY PREFETCHES:          0 LATE PREFETCHES: 0 DROPPED PREFETCHES: 0
L1D PREFETCHES SAME FILL-ORIGIN LEVEL: 0 DIFFERENT FILL-ORIGIN LEVEL: 0
L1D AVERAGE MISS LATENCY: 98.3522 cycles
L1D RQ	ACCESS:    5718641	FORWARD:          0	MERGED:    2314495	TO_CACHE:    3367216
L1D WQ	ACCESS:    1748140	FORWARD:      36930	MERGED:      95274	TO_CACHE:    1652866

L1D UNIQUE REGIONS ACCESSED: 0
L1D REGIONS CONFLICTS: 0
L1D Cross Page Prefetch Requests: 0
L1D Same Page Prefetch Requests: 0
L1D ROI Sum of L1D PQ occupancy: 0
L1D PREFETCHES PUSHED FROM L2C: 0
L1I TOTAL     ACCESS:    9345807  HIT:    9258100  MISS:      87707  HIT %:    99.0615  MISS %:   0.938464   MPKI: 1.75414
L1I LOAD      ACCESS:    9345807  HIT:    9258100  MISS:      87707  HIT %:    99.0615  MISS %:   0.938464   MPKI: 1.75414
L1I PREFETCH  REQUESTED:          0  ISSUED:          0  USEFUL:          0  USELESS:          0
L1I USEFUL LOAD PREFETCHES:          0 PREFETCH ISSUED TO LOWER LEVEL:          0  ACCURACY: -nan
L1I TIMELY PREFETCHES:          0 LATE PREFETCHES: 0 DROPPED PREFETCHES: 0
L1I PREFETCHES SAME FILL-ORIGIN LEVEL: 0 DIFFERENT FILL-ORIGIN LEVEL: 0
L1I AVERAGE MISS LATENCY: 62.9282 cycles
L1I RQ	ACCESS:   13563462	FORWARD:          0	MERGED:    4183989	TO_CACHE:    9379473

BTB BRANCH_DIRECT_JUMP	ACCESS:          0  HIT:          0  MISS:          0
BTB BRANCH_INDIRECT	ACCESS:          0  HIT:          0  MISS:          0
BTB BRANCH_CONDITIONAL	ACCESS:          0  HIT:          0  MISS:          0
BTB BRANCH_DIRECT_CALL	ACCESS:          0  HIT:          0  MISS:          0
BTB BRANCH_INDIRECT_CALL	ACCESS:          0  HIT:          0  MISS:          0
BTB BRANCH_RETURN	ACCESS:          0  HIT:          0  MISS:          0
BTB BRANCH_OTHER ACCESS:          0  HIT:          0  MISS:          0

L2C TOTAL     ACCESS:    2009435  HIT:    1412747  MISS:     596688  HIT %:    70.3057  MISS %:    29.6943   MPKI: 11.9338
L2C LOAD      ACCESS:     456399  HIT:     212130  MISS:     244269  HIT %:    46.4791  MISS %:    53.5209   MPKI: 4.88538
L2C DATA LOAD MPKI: 3.7675
L2C INSTRUCTION LOAD MPKI: 1.11788
L2C RFO       ACCESS:      30377  HIT:      12119  MISS:      18258  HIT %:    39.8953  MISS %:    60.1047   MPKI: 0.36516
L2C PREFETCH  ACCESS:     298929  HIT:      35270  MISS:     263659  HIT %:    11.7988  MISS %:    88.2012   MPKI: 5.27318
L2C DATA PREFETCH MPKI: 5.27318
L2C INSTRUCTION PREFETCH MPKI: 0
L2C WRITEBACK ACCESS:     102677  HIT:     100620  MISS:       2057  HIT %:    97.9966  MISS %:    2.00337   MPKI: 0.04114
L2C LOAD TRANSLATION ACCESS:    1121053  HIT:    1052608  MISS:      68445  HIT %:    93.8946  MISS %:    6.10542   MPKI: 1.3689
L2C PREFETCH  REQUESTED:     312542  ISSUED:     312542  USEFUL:     141668  USELESS:     121911
L2C USEFUL LOAD PREFETCHES:     141668 PREFETCH ISSUED TO LOWER LEVEL:     267960  ACCURACY: 52.8691
L2C TIMELY PREFETCHES:     141668 LATE PREFETCHES: 4301 DROPPED PREFETCHES: 0
L2C PREFETCHES SAME FILL-ORIGIN LEVEL: 267960 DIFFERENT FILL-ORIGIN LEVEL: 0
L2C AVERAGE MISS LATENCY: 159.088 cycles
L2C RQ	ACCESS:    1607829	FORWARD:          0	MERGED:          0	TO_CACHE:    1607829
L2C WQ	ACCESS:     102677	FORWARD:          0	MERGED:          0	TO_CACHE:     102677
L2C PQ	ACCESS:     312542	FORWARD:          0	MERGED:          0	TO_CACHE:     312542

L2C Instructions Evicting Data 42464
L2C Translations Evicting Data 54540
L2C Data Evicting Data 373734
L2C Instructions Evicting Instructions 7256
L2C Translations Evicting Instructions 5910
L2C Data Evicting Instructions 42586
L2C Instructions Evicting Translations 6174
L2C Translations Evicting Translations 7995
L2C Data Evicting Translations 53972
L2C Dense regions hint from L2: 0
PSCL5 TOTAL     ACCESS:     973671  HIT:     973671  MISS:          0  HIT %:        100  MISS %:          0   MPKI: 0
PSCL5 LOAD TRANSLATION ACCESS:     973671  HIT:     973671  MISS:          0  HIT %:        100  MISS %:          0   MPKI: 0
PSCL5 PREFETCH  REQUESTED:          0  ISSUED:          0  USEFUL:          0  USELESS:          0
PSCL5 USEFUL LOAD PREFETCHES:          0 PREFETCH ISSUED TO LOWER LEVEL:          0  ACCURACY: -nan
PSCL5 TIMELY PREFETCHES:          0 LATE PREFETCHES: 0 DROPPED PREFETCHES: 0
PSCL5 PREFETCHES SAME FILL-ORIGIN LEVEL: 0 DIFFERENT FILL-ORIGIN LEVEL: 0

PSCL4 TOTAL     ACCESS:     950703  HIT:     950537  MISS:        166  HIT %:    99.9825  MISS %:  0.0174608   MPKI: 0.00332
PSCL4 LOAD TRANSLATION ACCESS:     950703  HIT:     950537  MISS:        166  HIT %:    99.9825  MISS %:  0.0174608   MPKI: 0.00332
PSCL4 PREFETCH  REQUESTED:          0  ISSUED:          0  USEFUL:          0  USELESS:          0
PSCL4 USEFUL LOAD PREFETCHES:          0 PREFETCH ISSUED TO LOWER LEVEL:          0  ACCURACY: -nan
PSCL4 TIMELY PREFETCHES:          0 LATE PREFETCHES: 0 DROPPED PREFETCHES: 0
PSCL4 PREFETCHES SAME FILL-ORIGIN LEVEL: 0 DIFFERENT FILL-ORIGIN LEVEL: 0

PSCL3 TOTAL     ACCESS:     971855  HIT:     971032  MISS:        823  HIT %:    99.9153  MISS %:  0.0846834   MPKI: 0.01646
PSCL3 LOAD TRANSLATION ACCESS:     971855  HIT:     971032  MISS:        823  HIT %:    99.9153  MISS %:  0.0846834   MPKI: 0.01646
PSCL3 PREFETCH  REQUESTED:          0  ISSUED:          0  USEFUL:          0  USELESS:          0
PSCL3 USEFUL LOAD PREFETCHES:          0 PREFETCH ISSUED TO LOWER LEVEL:          0  ACCURACY: -nan
PSCL3 TIMELY PREFETCHES:          0 LATE PREFETCHES: 0 DROPPED PREFETCHES: 0
PSCL3 PREFETCHES SAME FILL-ORIGIN LEVEL: 0 DIFFERENT FILL-ORIGIN LEVEL: 0

PSCL2 TOTAL     ACCESS:     973671  HIT:     827164  MISS:     146507  HIT %:    84.9531  MISS %:    15.0469   MPKI: 2.93014
PSCL2 LOAD TRANSLATION ACCESS:     973671  HIT:     827164  MISS:     146507  HIT %:    84.9531  MISS %:    15.0469   MPKI: 2.93014
PSCL2 PREFETCH  REQUESTED:          0  ISSUED:          0  USEFUL:          0  USELESS:          0
PSCL2 USEFUL LOAD PREFETCHES:          0 PREFETCH ISSUED TO LOWER LEVEL:          0  ACCURACY: -nan
PSCL2 TIMELY PREFETCHES:          0 LATE PREFETCHES: 0 DROPPED PREFETCHES: 0
PSCL2 PREFETCHES SAME FILL-ORIGIN LEVEL: 0 DIFFERENT FILL-ORIGIN LEVEL: 0

LLC TOTAL     ACCESS:     681137  HIT:     220310  MISS:     460827  HIT %:    32.3444  MISS %:    67.6556   MPKI: 9.21654
LLC LOAD      ACCESS:     239975  HIT:      74058  MISS:     165917  HIT %:    30.8607  MISS %:    69.1393   MPKI: 3.31834
LLC RFO       ACCESS:      18251  HIT:       5444  MISS:      12807  HIT %:    29.8285  MISS %:    70.1715   MPKI: 0.25614
LLC PREFETCH  ACCESS:     267960  HIT:      26906  MISS:     241054  HIT %:    10.0411  MISS %:    89.9589   MPKI: 4.82108
LLC WRITEBACK ACCESS:      86506  HIT:      83016  MISS:       3490  HIT %:    95.9656  MISS %:     4.0344   MPKI: 0.0698
LLC LOAD TRANSLATION ACCESS:      68445  HIT:      30886  MISS:      37559  HIT %:    45.1253  MISS %:    54.8747   MPKI: 0.75118
LLC PREFETCH  REQUESTED:          0  ISSUED:          0  USEFUL:       4759  USELESS:     234647
LLC USEFUL LOAD PREFETCHES:       4759 PREFETCH ISSUED TO LOWER LEVEL:     241054  ACCURACY: 1.97425
LLC TIMELY PREFETCHES:       4759 LATE PREFETCHES: 0 DROPPED PREFETCHES: 0
LLC PREFETCHES SAME FILL-ORIGIN LEVEL: 0 DIFFERENT FILL-ORIGIN LEVEL: 0
LLC AVERAGE MISS LATENCY: 168.098 cycles
LLC RQ	ACCESS:     326671	FORWARD:          0	MERGED:          0	TO_CACHE:     326671
LLC WQ	ACCESS:      86506	FORWARD:          0	MERGED:          0	TO_CACHE:      86506
LLC PQ	ACCESS:     267960	FORWARD:          0	MERGED:          0	TO_CACHE:     267960

LLC Dense regions hint to LLC: 0

RAW hits: 175117
Loads Generated: 5893759
Loads sent to L1D: 5718641
Stores Generated: 1748140
Stores sent to L1D: 1748140
Major fault: 0 Minor fault: 47230
Allocated PAGES: 47230
[Bingo] PHT Access: 168077
[Bingo] PHT Hit PC+Addr: 21218
[Bingo] PHT Hit PC+Offs: 113917
[Bingo] PHT Miss: 32942
[Bingo] Prefetch PC+Addr: 0
[Bingo] Prefetch PC+Offs: 0
[Bingo] Useful PC+Addr: 0
[Bingo] Useful PC+Offs: 0
[Bingo] Useless PC+Addr: 0
[Bingo] Useless PC+Offs: 0
[Bingo] L1 Prefetch per Region: 0
[Bingo] L2 Prefetch per Region: 3.32675
[Bingo] L3 Prefetch per Region: 0
[Bingo] No Prefetch per Region: 28.6732
[Bingo] Number of Voters Mean: 10.7046
[Bingo] Number of Voters SD: 10.0972
PHT read accesses: 2399328
PHT write accesses: 54308
AT read accesses: 214681
AT write accesses: 254653
FT read accesses: 166746
FT write accesses: 168077
PS read accesses: 276857
PS write accesses: 135135
PHT tag read accesses: 4084189
PHT tag write accesses: 75526
AT tag read accesses: 17945027
AT tag write accesses: 268986
FT tag read accesses: 18918997
FT tag write accesses: 280251
PS tag read accesses: 10833880
PS tag write accesses: 411789

DRAM Statistics
 CHANNEL 0
 RQ ROW_BUFFER_HIT:     128912  ROW_BUFFER_MISS:     328425
 DBUS_CONGESTED:         73
 WQ ROW_BUFFER_HIT:      12778  ROW_BUFFER_MISS:      66709  FULL:          0

 AVG_CONGESTED_CYCLE: 4
 All warmup complete: 2
Channel 0 Bank busy for read cycles: 0
Channel 0 Bank busy for write cycles: 0
Channel 0
Rank 0
0banks busy for read cycles: 47471942
0banks busy for write cycles: 42639
1banks busy for read cycles: 15834818
1banks busy for write cycles: 6608096
2banks busy for read cycles: 7777049
2banks busy for write cycles: 1883902
3banks busy for read cycles: 3029545
3banks busy for write cycles: 611607
4banks busy for read cycles: 755604
4banks busy for write cycles: 301453
5banks busy for read cycles: 364060
5banks busy for write cycles: 177845
6banks busy for read cycles: 214623
6banks busy for write cycles: 95878
7banks busy for read cycles: 278148
7banks busy for write cycles: 53140
8banks busy for read cycles: 897924
8banks busy for write cycles: 56485

CPU 0 Branch Prediction Accuracy: 98.9766% MPKI: 1.27166 Average ROB Occupancy at Mispredict: 51.2443
Branch types
NOT_BRANCH: 0 0%
BRANCH_DIRECT_JUMP: 0 0%
BRANCH_INDIRECT: 0 0%
BRANCH_CONDITIONAL: 0 0%
BRANCH_DIRECT_CALL: 0 0%
BRANCH_INDIRECT_CALL: 0 0%
BRANCH_RETURN: 0 0%
BRANCH_OTHER: 0 0%

DRAM PAGES: 1048576
Allocated PAGES: 47230
