
*** ChampSim Multicore Out-of-Order Simulator ***

Warmup Instructions: 50000000
Simulation Instructions: 50000000
Number of CPUs: 1
LLC sets: 2048
LLC ways: 16
Off-chip DRAM Size: 4096 MB Channels: 1 Width: 64-bit Data Rate: 6400 MT/s
CPU 0 runs ../cloudsuite_traces//cassandra_phase1_core0.trace.gz
.gz
NUM_OF_IPS_IN_CRITICAL_IP_TRAINING: 64
NUM_OF_CRITICAL_IP_TRAINING_TABLE_WAYS: 2
NUM_OF_CRITICAL_IP_TRAINING_TABLE_SETS: 32
WOBBLY_CRITICAL_IP_CACHE_SETS: 32
WOBBLY_CRITICAL_IP_CACHE_WAYS: 4
BTB has LRU replacement policy
ITLB has LRU replacement policy
DTLB has LRU replacement policy
STLB has LRU replacement policy
L1I has LRU replacement policy
L1D has LRU replacement policy
Bingo PHT WAYS: 16 and PHT_SIZE: 16384
Initialize SRRIP state for L2C
Initialize DRRIP state for LLC
UNIQUE_ASID[0] = €
UNIQUE_ASID[1] = 
Heartbeat CPU 0 instructions: 10000001 cycles: 2806621 heartbeat IPC: 3.563 cumulative IPC: 3.563 (Simulation time: 0 hr 5 min 8 sec) 
Heartbeat CPU 0 instructions: 20000003 cycles: 5544800 heartbeat IPC: 3.65206 cumulative IPC: 3.60698 (Simulation time: 0 hr 9 min 2 sec) 
Heartbeat CPU 0 instructions: 30000002 cycles: 8414027 heartbeat IPC: 3.48526 cumulative IPC: 3.56547 (Simulation time: 0 hr 12 min 48 sec) 
Heartbeat CPU 0 instructions: 40000000 cycles: 11131958 heartbeat IPC: 3.67927 cumulative IPC: 3.59326 (Simulation time: 0 hr 16 min 42 sec) 
Heartbeat CPU 0 instructions: 50000001 cycles: 13914151 heartbeat IPC: 3.59429 cumulative IPC: 3.59346 (Simulation time: 0 hr 19 min 54 sec) 

Warmup complete CPU 0 instructions: 50000001 cycles: 13914151 (Simulation time: 0 hr 19 min 54 sec) 

% increase in all ip prefetch 439.419
% increase in all ip prefetch -1.50471
Heartbeat CPU 0 instructions: 60000001 cycles: 30618366 heartbeat IPC: 0.598651 cumulative IPC: 0.598651 (Simulation time: 0 hr 23 min 48 sec) 
Heartbeat CPU 0 instructions: 70000003 cycles: 49337237 heartbeat IPC: 0.53422 cumulative IPC: 0.564604 (Simulation time: 0 hr 27 min 54 sec) 
Heartbeat CPU 0 instructions: 80000003 cycles: 67122249 heartbeat IPC: 0.562271 cumulative IPC: 0.563824 (Simulation time: 0 hr 31 min 52 sec) 
Heartbeat CPU 0 instructions: 90000000 cycles: 89308498 heartbeat IPC: 0.450729 cumulative IPC: 0.530544 (Simulation time: 0 hr 36 min 0 sec) 
Heartbeat CPU 0 instructions: 100000000 cycles: 106847969 heartbeat IPC: 0.570143 cumulative IPC: 0.538017 (Simulation time: 0 hr 37 min 47 sec) 
Finished CPU 0 instructions: 50000003 cycles: 92933819 cumulative IPC: 0.538017 (Simulation time: 0 hr 37 min 47 sec) 

ChampSim completed all CPUs

Region of Interest Statistics

CPU 0 cumulative IPC: 0.538017 instructions: 50000003 cycles: 92933819

CPU 0 Average Load ROB stall cycles: 4.42837e+06
CPU 0 Fraction of times ROB stalled by Loads: 6.7888
CPU 0 Percentage of Load stall cycles in Total stall cycles: 4.21895e+07
 Total stall cycles: 58514971
 Total load stall cycles: 24687197764868
CPU 0 NUM of IPS identified critical: 0
CPU 0 Num of Load IPs stalling ROB: 4672
Threshold modification factor: -1
Max PIST entries: 64
Min PIST entries: 0
Avg PIST entries: 28.17
Critical IP stalls, total frequency: 0
rob stalling non-critical load ip: 16783620 freq: 67
rob stalling non-critical load ip: 16783636 freq: 10
rob stalling non-critical load ip: 16783660 freq: 135
rob stalling non-critical load ip: 16783672 freq: 145
rob stalling non-critical load ip: 16783680 freq: 50
rob stalling non-critical load ip: 16783684 freq: 8
rob stalling non-critical load ip: 16783692 freq: 242
rob stalling non-critical load ip: 16783700 freq: 129
rob stalling non-critical load ip: 16783876 freq: 90
rob stalling non-critical load ip: 16783892 freq: 9
rob stalling non-critical load ip: 16783908 freq: 49
rob stalling non-critical load ip: 16783916 freq: 256
rob stalling non-critical load ip: 16783928 freq: 365
rob stalling non-critical load ip: 16783936 freq: 63
rob stalling non-critical load ip: 16783940 freq: 70
rob stalling non-critical load ip: 16783948 freq: 344
rob stalling non-critical load ip: 16783956 freq: 240
rob stalling non-critical load ip: 16783960 freq: 2
rob stalling non-critical load ip: 16784128 freq: 172
rob stalling non-critical load ip: 16784136 freq: 56
rob stalling non-critical load ip: 16784144 freq: 14
rob stalling non-critical load ip: 16784152 freq: 124
rob stalling non-critical load ip: 16784160 freq: 17
rob stalling non-critical load ip: 16784168 freq: 181
rob stalling non-critical load ip: 16784176 freq: 27
rob stalling non-critical load ip: 16784184 freq: 12
rob stalling non-critical load ip: 16800260 freq: 22
rob stalling non-critical load ip: 16800268 freq: 155
rob stalling non-critical load ip: 16800276 freq: 1
rob stalling non-critical load ip: 16800284 freq: 66
rob stalling non-critical load ip: 16800300 freq: 5
rob stalling non-critical load ip: 16806692 freq: 18
rob stalling non-critical load ip: 16806724 freq: 10
rob stalling non-critical load ip: 16806728 freq: 2
rob stalling non-critical load ip: 16806732 freq: 3
rob stalling non-critical load ip: 16807120 freq: 349
rob stalling non-critical load ip: 16807124 freq: 13
rob stalling non-critical load ip: 16807128 freq: 8
rob stalling non-critical load ip: 16807136 freq: 13
rob stalling non-critical load ip: 16807188 freq: 3
rob stalling non-critical load ip: 16807200 freq: 16
rob stalling non-critical load ip: 16807208 freq: 1
rob stalling non-critical load ip: 16807228 freq: 15
rob stalling non-critical load ip: 16807232 freq: 3
rob stalling non-critical load ip: 16807244 freq: 2
rob stalling non-critical load ip: 16807256 freq: 6
rob stalling non-critical load ip: 16807268 freq: 26
rob stalling non-critical load ip: 16807344 freq: 37
rob stalling non-critical load ip: 16807348 freq: 1
rob stalling non-critical load ip: 16807392 freq: 291
rob stalling non-critical load ip: 16807812 freq: 2
rob stalling non-critical load ip: 16807864 freq: 2
rob stalling non-critical load ip: 16807956 freq: 3
rob stalling non-critical load ip: 16808012 freq: 1
rob stalling non-critical load ip: 16812528 freq: 4
rob stalling non-critical load ip: 16812716 freq: 651
rob stalling non-critical load ip: 16812908 freq: 115
rob stalling non-critical load ip: 16813176 freq: 15701
rob stalling non-critical load ip: 16813308 freq: 26593
rob stalling non-critical load ip: 16813444 freq: 12
rob stalling non-critical load ip: 16813448 freq: 74
rob stalling non-critical load ip: 16813584 freq: 27
rob stalling non-critical load ip: 16813680 freq: 35
rob stalling non-critical load ip: 16813704 freq: 10
rob stalling non-critical load ip: 16813744 freq: 4
rob stalling non-critical load ip: 16813760 freq: 15
rob stalling non-critical load ip: 16813800 freq: 3
rob stalling non-critical load ip: 16813840 freq: 3
rob stalling non-critical load ip: 16814100 freq: 20
rob stalling non-critical load ip: 16814148 freq: 3
rob stalling non-critical load ip: 16814200 freq: 9
rob stalling non-critical load ip: 16814216 freq: 3
rob stalling non-critical load ip: 16814224 freq: 12
rob stalling non-critical load ip: 16814264 freq: 1
rob stalling non-critical load ip: 16814280 freq: 11
rob stalling non-critical load ip: 16814340 freq: 3
rob stalling non-critical load ip: 16815252 freq: 2
rob stalling non-critical load ip: 16815284 freq: 1
rob stalling non-critical load ip: 16815308 freq: 2
rob stalling non-critical load ip: 16815372 freq: 16
rob stalling non-critical load ip: 16815392 freq: 1
rob stalling non-critical load ip: 16815436 freq: 3
rob stalling non-critical load ip: 16815860 freq: 12
rob stalling non-critical load ip: 16815936 freq: 1
rob stalling non-critical load ip: 16817700 freq: 9
rob stalling non-critical load ip: 16817756 freq: 3
rob stalling non-critical load ip: 16817820 freq: 10
rob stalling non-critical load ip: 16817836 freq: 10
rob stalling non-critical load ip: 16817844 freq: 15
rob stalling non-critical load ip: 16817884 freq: 1
rob stalling non-critical load ip: 16817900 freq: 32
rob stalling non-critical load ip: 16817940 freq: 1
rob stalling non-critical load ip: 16820708 freq: 7
rob stalling non-critical load ip: 16820768 freq: 1
rob stalling non-critical load ip: 16820836 freq: 1
rob stalling non-critical load ip: 16820956 freq: 3
rob stalling non-critical load ip: 16821296 freq: 8
rob stalling non-critical load ip: 16821340 freq: 4
rob stalling non-critical load ip: 16821452 freq: 4
rob stalling non-critical load ip: 16821464 freq: 16
rob stalling non-critical load ip: 16821600 freq: 3
rob stalling non-critical load ip: 16821912 freq: 2
rob stalling non-critical load ip: 16821924 freq: 2
rob stalling non-critical load ip: 16821956 freq: 1
rob stalling non-critical load ip: 16822020 freq: 4
rob stalling non-critical load ip: 16822276 freq: 11
rob stalling non-critical load ip: 16822788 freq: 3
rob stalling non-critical load ip: 16823192 freq: 6
rob stalling non-critical load ip: 16823852 freq: 4
rob stalling non-critical load ip: 16826292 freq: 67
rob stalling non-critical load ip: 16826296 freq: 103
rob stalling non-critical load ip: 16828860 freq: 14
rob stalling non-critical load ip: 16828932 freq: 45
rob stalling non-critical load ip: 16844832 freq: 8
rob stalling non-critical load ip: 16844864 freq: 2
rob stalling non-critical load ip: 16845328 freq: 5
rob stalling non-critical load ip: 16851080 freq: 55
rob stalling non-critical load ip: 16851160 freq: 189
rob stalling non-critical load ip: 16851208 freq: 46
rob stalling non-critical load ip: 16851340 freq: 7
rob stalling non-critical load ip: 16851388 freq: 28
rob stalling non-critical load ip: 16851436 freq: 9
rob stalling non-critical load ip: 16851552 freq: 188
rob stalling non-critical load ip: 16851576 freq: 8
rob stalling non-critical load ip: 16851588 freq: 172
rob stalling non-critical load ip: 16851600 freq: 3
rob stalling non-critical load ip: 16851612 freq: 11
rob stalling non-critical load ip: 16851624 freq: 3
rob stalling non-critical load ip: 16851632 freq: 12
rob stalling non-critical load ip: 16851652 freq: 187
rob stalling non-critical load ip: 16865736 freq: 1
rob stalling non-critical load ip: 16865740 freq: 3
rob stalling non-critical load ip: 16891612 freq: 17
rob stalling non-critical load ip: 16891620 freq: 31
rob stalling non-critical load ip: 16891628 freq: 35
rob stalling non-critical load ip: 16891636 freq: 29
rob stalling non-critical load ip: 16891648 freq: 4
rob stalling non-critical load ip: 16892324 freq: 6
rob stalling non-critical load ip: 16898936 freq: 6
rob stalling non-critical load ip: 16899252 freq: 4
rob stalling non-critical load ip: 16900600 freq: 9
rob stalling non-critical load ip: 16900740 freq: 5
rob stalling non-critical load ip: 16908452 freq: 3
rob stalling non-critical load ip: 16917068 freq: 15
rob stalling non-critical load ip: 16917076 freq: 13
rob stalling non-critical load ip: 16917116 freq: 36
rob stalling non-critical load ip: 16917124 freq: 51
rob stalling non-critical load ip: 16917760 freq: 12
rob stalling non-critical load ip: 16917772 freq: 10
rob stalling non-critical load ip: 16935732 freq: 3
rob stalling non-critical load ip: 16977308 freq: 4
rob stalling non-critical load ip: 16977348 freq: 2
rob stalling non-critical load ip: 16977404 freq: 4
rob stalling non-critical load ip: 16977480 freq: 3
rob stalling non-critical load ip: 16981148 freq: 2
rob stalling non-critical load ip: 16981196 freq: 10
rob stalling non-critical load ip: 17022708 freq: 13
rob stalling non-critical load ip: 17022764 freq: 3
rob stalling non-critical load ip: 17077560 freq: 10
rob stalling non-critical load ip: 17077640 freq: 5
rob stalling non-critical load ip: 17077684 freq: 8
rob stalling non-critical load ip: 17077688 freq: 24
rob stalling non-critical load ip: 17077812 freq: 4
rob stalling non-critical load ip: 17078012 freq: 3
rob stalling non-critical load ip: 17078020 freq: 5
rob stalling non-critical load ip: 17078040 freq: 1
rob stalling non-critical load ip: 17078088 freq: 22
rob stalling non-critical load ip: 17078100 freq: 20
rob stalling non-critical load ip: 17078104 freq: 13
rob stalling non-critical load ip: 17078144 freq: 8
rob stalling non-critical load ip: 17079552 freq: 2
rob stalling non-critical load ip: 17079744 freq: 6
rob stalling non-critical load ip: 17080100 freq: 5
rob stalling non-critical load ip: 17084036 freq: 9
rob stalling non-critical load ip: 17084128 freq: 14
rob stalling non-critical load ip: 17084192 freq: 11
rob stalling non-critical load ip: 17084300 freq: 9
rob stalling non-critical load ip: 17084388 freq: 255
rob stalling non-critical load ip: 17084544 freq: 273
rob stalling non-critical load ip: 17084652 freq: 78
rob stalling non-critical load ip: 17084656 freq: 98
rob stalling non-critical load ip: 17084752 freq: 16
rob stalling non-critical load ip: 17084772 freq: 10
rob stalling non-critical load ip: 17084780 freq: 17
rob stalling non-critical load ip: 17087300 freq: 15
rob stalling non-critical load ip: 17087304 freq: 1
rob stalling non-critical load ip: 17088808 freq: 27
rob stalling non-critical load ip: 17089552 freq: 1
rob stalling non-critical load ip: 17089588 freq: 2
rob stalling non-critical load ip: 17089608 freq: 157
rob stalling non-critical load ip: 17089628 freq: 7
rob stalling non-critical load ip: 17089724 freq: 5
rob stalling non-critical load ip: 17089780 freq: 11
rob stalling non-critical load ip: 17089784 freq: 62
rob stalling non-critical load ip: 17093408 freq: 1
rob stalling non-critical load ip: 17105460 freq: 7
rob stalling non-critical load ip: 17105536 freq: 8
rob stalling non-critical load ip: 17105544 freq: 1
rob stalling non-critical load ip: 17105552 freq: 20
rob stalling non-critical load ip: 17109060 freq: 12
rob stalling non-critical load ip: 17109064 freq: 1
rob stalling non-critical load ip: 17109080 freq: 5
rob stalling non-critical load ip: 17109088 freq: 5
rob stalling non-critical load ip: 17109104 freq: 20
rob stalling non-critical load ip: 17109116 freq: 3
rob stalling non-critical load ip: 17109144 freq: 3
rob stalling non-critical load ip: 17109192 freq: 1
rob stalling non-critical load ip: 17109496 freq: 16
rob stalling non-critical load ip: 17109512 freq: 6
rob stalling non-critical load ip: 17109548 freq: 3
rob stalling non-critical load ip: 17109588 freq: 7
rob stalling non-critical load ip: 17109616 freq: 8
rob stalling non-critical load ip: 17109620 freq: 4
rob stalling non-critical load ip: 17147696 freq: 12
rob stalling non-critical load ip: 17147700 freq: 2
rob stalling non-critical load ip: 17148832 freq: 37
rob stalling non-critical load ip: 17148868 freq: 11
rob stalling non-critical load ip: 17148904 freq: 3
rob stalling non-critical load ip: 17148972 freq: 34
rob stalling non-critical load ip: 17149344 freq: 1
rob stalling non-critical load ip: 17149600 freq: 5
rob stalling non-critical load ip: 17149604 freq: 1
rob stalling non-critical load ip: 17158540 freq: 7
rob stalling non-critical load ip: 17183048 freq: 5
rob stalling non-critical load ip: 17183108 freq: 9
rob stalling non-critical load ip: 17183140 freq: 6
rob stalling non-critical load ip: 17183188 freq: 3
rob stalling non-critical load ip: 17183232 freq: 21
rob stalling non-critical load ip: 17183244 freq: 7
rob stalling non-critical load ip: 17183248 freq: 84
rob stalling non-critical load ip: 17183380 freq: 10
rob stalling non-critical load ip: 17183436 freq: 13
rob stalling non-critical load ip: 17183476 freq: 3
rob stalling non-critical load ip: 17183560 freq: 7
rob stalling non-critical load ip: 17183568 freq: 8
rob stalling non-critical load ip: 17183812 freq: 24
rob stalling non-critical load ip: 17183960 freq: 60
rob stalling non-critical load ip: 17184072 freq: 42
rob stalling non-critical load ip: 17184084 freq: 13
rob stalling non-critical load ip: 17184100 freq: 23
rob stalling non-critical load ip: 17184740 freq: 12
rob stalling non-critical load ip: 17184768 freq: 1
rob stalling non-critical load ip: 17184792 freq: 1
rob stalling non-critical load ip: 17184900 freq: 4
rob stalling non-critical load ip: 17184924 freq: 7
rob stalling non-critical load ip: 17184968 freq: 5
rob stalling non-critical load ip: 17184988 freq: 5
rob stalling non-critical load ip: 17185032 freq: 3
rob stalling non-critical load ip: 17185060 freq: 5
rob stalling non-critical load ip: 17185064 freq: 5
rob stalling non-critical load ip: 17185072 freq: 10
rob stalling non-critical load ip: 17185076 freq: 4
rob stalling non-critical load ip: 17185080 freq: 1
rob stalling non-critical load ip: 17185196 freq: 9
rob stalling non-critical load ip: 17185296 freq: 4
rob stalling non-critical load ip: 17185456 freq: 6
rob stalling non-critical load ip: 17185608 freq: 2
rob stalling non-critical load ip: 17185704 freq: 4
rob stalling non-critical load ip: 17185764 freq: 26
rob stalling non-critical load ip: 17185908 freq: 6
rob stalling non-critical load ip: 17186044 freq: 2
rob stalling non-critical load ip: 17186048 freq: 10
rob stalling non-critical load ip: 17186072 freq: 8
rob stalling non-critical load ip: 17186076 freq: 2
rob stalling non-critical load ip: 17186436 freq: 2
rob stalling non-critical load ip: 17186496 freq: 2
rob stalling non-critical load ip: 17186588 freq: 5
rob stalling non-critical load ip: 17186656 freq: 6
rob stalling non-critical load ip: 17187196 freq: 1
rob stalling non-critical load ip: 17187260 freq: 2
rob stalling non-critical load ip: 17187276 freq: 3
rob stalling non-critical load ip: 17188224 freq: 11
rob stalling non-critical load ip: 17188264 freq: 7
rob stalling non-critical load ip: 17188292 freq: 19
rob stalling non-critical load ip: 17188316 freq: 7
rob stalling non-critical load ip: 17188320 freq: 1
rob stalling non-critical load ip: 17188436 freq: 6
rob stalling non-critical load ip: 17188556 freq: 3
rob stalling non-critical load ip: 17188652 freq: 2
rob stalling non-critical load ip: 17188768 freq: 2
rob stalling non-critical load ip: 17189488 freq: 6
rob stalling non-critical load ip: 17190268 freq: 11
rob stalling non-critical load ip: 17190288 freq: 5
rob stalling non-critical load ip: 17190300 freq: 3
rob stalling non-critical load ip: 17190412 freq: 10
rob stalling non-critical load ip: 17190420 freq: 2
rob stalling non-critical load ip: 17190504 freq: 4
rob stalling non-critical load ip: 17190516 freq: 13
rob stalling non-critical load ip: 17226948 freq: 72
rob stalling non-critical load ip: 17245100 freq: 96
rob stalling non-critical load ip: 17245104 freq: 3
rob stalling non-critical load ip: 17247588 freq: 3
rob stalling non-critical load ip: 17247664 freq: 1
rob stalling non-critical load ip: 17247668 freq: 9
rob stalling non-critical load ip: 17247672 freq: 2
rob stalling non-critical load ip: 17247676 freq: 2
rob stalling non-critical load ip: 17247840 freq: 5
rob stalling non-critical load ip: 17247896 freq: 4
rob stalling non-critical load ip: 17247988 freq: 5
rob stalling non-critical load ip: 17248120 freq: 3
rob stalling non-critical load ip: 17248652 freq: 4
rob stalling non-critical load ip: 17253688 freq: 1
rob stalling non-critical load ip: 17267896 freq: 3
rob stalling non-critical load ip: 17267924 freq: 7
rob stalling non-critical load ip: 17369768 freq: 3
rob stalling non-critical load ip: 17369860 freq: 4
rob stalling non-critical load ip: 17369976 freq: 7
rob stalling non-critical load ip: 17370212 freq: 1
rob stalling non-critical load ip: 17410380 freq: 5
rob stalling non-critical load ip: 17503864 freq: 12
rob stalling non-critical load ip: 17504256 freq: 10
rob stalling non-critical load ip: 17504760 freq: 35
rob stalling non-critical load ip: 17504836 freq: 1
rob stalling non-critical load ip: 17505268 freq: 9
rob stalling non-critical load ip: 17506076 freq: 15
rob stalling non-critical load ip: 17506100 freq: 1
rob stalling non-critical load ip: 17506112 freq: 1
rob stalling non-critical load ip: 17506192 freq: 1
rob stalling non-critical load ip: 17506380 freq: 3
rob stalling non-critical load ip: 17506412 freq: 1
rob stalling non-critical load ip: 17506584 freq: 11
rob stalling non-critical load ip: 17506824 freq: 6
rob stalling non-critical load ip: 17506844 freq: 3
rob stalling non-critical load ip: 17506884 freq: 28
rob stalling non-critical load ip: 17506964 freq: 5
rob stalling non-critical load ip: 17506996 freq: 3
rob stalling non-critical load ip: 17507036 freq: 1
rob stalling non-critical load ip: 17507044 freq: 28
rob stalling non-critical load ip: 17507048 freq: 3
rob stalling non-critical load ip: 17507072 freq: 2
rob stalling non-critical load ip: 17507160 freq: 11
rob stalling non-critical load ip: 17507336 freq: 4
rob stalling non-critical load ip: 17507428 freq: 10
rob stalling non-critical load ip: 17507476 freq: 13
rob stalling non-critical load ip: 17507492 freq: 1
rob stalling non-critical load ip: 17511888 freq: 37
rob stalling non-critical load ip: 17511980 freq: 41
rob stalling non-critical load ip: 17546088 freq: 201
rob stalling non-critical load ip: 17546120 freq: 1
rob stalling non-critical load ip: 17546908 freq: 4
rob stalling non-critical load ip: 17547352 freq: 29
rob stalling non-critical load ip: 17548040 freq: 37
rob stalling non-critical load ip: 17555508 freq: 15
rob stalling non-critical load ip: 17559680 freq: 2
rob stalling non-critical load ip: 17612428 freq: 12
rob stalling non-critical load ip: 17612436 freq: 28
rob stalling non-critical load ip: 17612468 freq: 5
rob stalling non-critical load ip: 17613860 freq: 1
rob stalling non-critical load ip: 17613884 freq: 5
rob stalling non-critical load ip: 17613904 freq: 2
rob stalling non-critical load ip: 17613912 freq: 2
rob stalling non-critical load ip: 17614068 freq: 3
rob stalling non-critical load ip: 17614160 freq: 2
rob stalling non-critical load ip: 17614372 freq: 1
rob stalling non-critical load ip: 17614460 freq: 2
rob stalling non-critical load ip: 17614860 freq: 2
rob stalling non-critical load ip: 17615996 freq: 4
rob stalling non-critical load ip: 17616020 freq: 6
rob stalling non-critical load ip: 17616180 freq: 1
rob stalling non-critical load ip: 17616192 freq: 8
rob stalling non-critical load ip: 17616396 freq: 5
rob stalling non-critical load ip: 17616612 freq: 4
rob stalling non-critical load ip: 17616908 freq: 3
rob stalling non-critical load ip: 17616996 freq: 15
rob stalling non-critical load ip: 17617012 freq: 3
rob stalling non-critical load ip: 17617064 freq: 19
rob stalling non-critical load ip: 17617580 freq: 5
rob stalling non-critical load ip: 17617684 freq: 7
rob stalling non-critical load ip: 17617788 freq: 2
rob stalling non-critical load ip: 17617800 freq: 2
rob stalling non-critical load ip: 17617868 freq: 4
rob stalling non-critical load ip: 17617884 freq: 4
rob stalling non-critical load ip: 17617900 freq: 3
rob stalling non-critical load ip: 17617944 freq: 2
rob stalling non-critical load ip: 17627064 freq: 3
rob stalling non-critical load ip: 17627436 freq: 3
rob stalling non-critical load ip: 17627540 freq: 12
rob stalling non-critical load ip: 17628116 freq: 1
rob stalling non-critical load ip: 17628132 freq: 3
rob stalling non-critical load ip: 17628144 freq: 3
rob stalling non-critical load ip: 17633784 freq: 1
rob stalling non-critical load ip: 17633912 freq: 2
rob stalling non-critical load ip: 17634056 freq: 1
rob stalling non-critical load ip: 17641524 freq: 4
rob stalling non-critical load ip: 17641540 freq: 13
rob stalling non-critical load ip: 17641600 freq: 1
rob stalling non-critical load ip: 17641616 freq: 5
rob stalling non-critical load ip: 17641716 freq: 3
rob stalling non-critical load ip: 17641788 freq: 1
rob stalling non-critical load ip: 17642272 freq: 10
rob stalling non-critical load ip: 17642296 freq: 4
rob stalling non-critical load ip: 17642308 freq: 1
rob stalling non-critical load ip: 17642360 freq: 4
rob stalling non-critical load ip: 17642396 freq: 39
rob stalling non-critical load ip: 17642428 freq: 52
rob stalling non-critical load ip: 17642528 freq: 5
rob stalling non-critical load ip: 17642640 freq: 7
rob stalling non-critical load ip: 17642644 freq: 8
rob stalling non-critical load ip: 17644128 freq: 14
rob stalling non-critical load ip: 17644276 freq: 125
rob stalling non-critical load ip: 17682628 freq: 2
rob stalling non-critical load ip: 17682804 freq: 4
rob stalling non-critical load ip: 17682824 freq: 17
rob stalling non-critical load ip: 17682860 freq: 1
rob stalling non-critical load ip: 17682900 freq: 4
rob stalling non-critical load ip: 17683132 freq: 3
rob stalling non-critical load ip: 17683164 freq: 2
rob stalling non-critical load ip: 17683248 freq: 3
rob stalling non-critical load ip: 17683252 freq: 1
rob stalling non-critical load ip: 17683256 freq: 3
rob stalling non-critical load ip: 17683364 freq: 2
rob stalling non-critical load ip: 17683380 freq: 9
rob stalling non-critical load ip: 17683456 freq: 9
rob stalling non-critical load ip: 17683576 freq: 3
rob stalling non-critical load ip: 17683716 freq: 2
rob stalling non-critical load ip: 17683888 freq: 3
rob stalling non-critical load ip: 17683908 freq: 4
rob stalling non-critical load ip: 17686220 freq: 1
rob stalling non-critical load ip: 17692512 freq: 30
rob stalling non-critical load ip: 17692588 freq: 1
rob stalling non-critical load ip: 17692592 freq: 27
rob stalling non-critical load ip: 17692596 freq: 5
rob stalling non-critical load ip: 17782316 freq: 23
rob stalling non-critical load ip: 17782380 freq: 32
rob stalling non-critical load ip: 17782384 freq: 8
rob stalling non-critical load ip: 17782400 freq: 6
rob stalling non-critical load ip: 17782476 freq: 16
rob stalling non-critical load ip: 17782480 freq: 3
rob stalling non-critical load ip: 17782536 freq: 25
rob stalling non-critical load ip: 17782548 freq: 3
rob stalling non-critical load ip: 17782600 freq: 4
rob stalling non-critical load ip: 17782732 freq: 2
rob stalling non-critical load ip: 17783272 freq: 15
rob stalling non-critical load ip: 17784996 freq: 14
rob stalling non-critical load ip: 17785056 freq: 28
rob stalling non-critical load ip: 17785080 freq: 1
rob stalling non-critical load ip: 17785228 freq: 16
rob stalling non-critical load ip: 17785400 freq: 11
rob stalling non-critical load ip: 17785412 freq: 5
rob stalling non-critical load ip: 17795512 freq: 4
rob stalling non-critical load ip: 17795560 freq: 2
rob stalling non-critical load ip: 17878072 freq: 1
rob stalling non-critical load ip: 17905356 freq: 10
rob stalling non-critical load ip: 17905412 freq: 4
rob stalling non-critical load ip: 17905436 freq: 29
rob stalling non-critical load ip: 17905520 freq: 4
rob stalling non-critical load ip: 17905544 freq: 11
rob stalling non-critical load ip: 17905552 freq: 2
rob stalling non-critical load ip: 17905564 freq: 11
rob stalling non-critical load ip: 17905596 freq: 4
rob stalling non-critical load ip: 17906156 freq: 7
rob stalling non-critical load ip: 17906336 freq: 35
rob stalling non-critical load ip: 17906384 freq: 36
rob stalling non-critical load ip: 17906400 freq: 38
rob stalling non-critical load ip: 17906620 freq: 4
rob stalling non-critical load ip: 17906644 freq: 1
rob stalling non-critical load ip: 17906844 freq: 220
rob stalling non-critical load ip: 17906888 freq: 18
rob stalling non-critical load ip: 17906912 freq: 1
rob stalling non-critical load ip: 17906980 freq: 3
rob stalling non-critical load ip: 17907064 freq: 111
rob stalling non-critical load ip: 17908272 freq: 127
rob stalling non-critical load ip: 17908312 freq: 3
rob stalling non-critical load ip: 17908368 freq: 3
rob stalling non-critical load ip: 17908968 freq: 18
rob stalling non-critical load ip: 17909132 freq: 1
rob stalling non-critical load ip: 17909160 freq: 12
rob stalling non-critical load ip: 17909384 freq: 2
rob stalling non-critical load ip: 17923724 freq: 2
rob stalling non-critical load ip: 17926224 freq: 3
rob stalling non-critical load ip: 18022900 freq: 19
rob stalling non-critical load ip: 18022940 freq: 7
rob stalling non-critical load ip: 18022944 freq: 11
rob stalling non-critical load ip: 18023308 freq: 4
rob stalling non-critical load ip: 18025248 freq: 7
rob stalling non-critical load ip: 18025276 freq: 3
rob stalling non-critical load ip: 18025296 freq: 12
rob stalling non-critical load ip: 18025304 freq: 5
rob stalling non-critical load ip: 18025340 freq: 9
rob stalling non-critical load ip: 18025576 freq: 6
rob stalling non-critical load ip: 18026668 freq: 20
rob stalling non-critical load ip: 18027120 freq: 13
rob stalling non-critical load ip: 18027156 freq: 27
rob stalling non-critical load ip: 18027236 freq: 2
rob stalling non-critical load ip: 18027488 freq: 2
rob stalling non-critical load ip: 18027924 freq: 11
rob stalling non-critical load ip: 18027932 freq: 8
rob stalling non-critical load ip: 18049648 freq: 6
rob stalling non-critical load ip: 18049664 freq: 35
rob stalling non-critical load ip: 18049736 freq: 2
rob stalling non-critical load ip: 18049752 freq: 1
rob stalling non-critical load ip: 18049920 freq: 49
rob stalling non-critical load ip: 18049936 freq: 3
rob stalling non-critical load ip: 18049956 freq: 1
rob stalling non-critical load ip: 18049996 freq: 15
rob stalling non-critical load ip: 18050004 freq: 3
rob stalling non-critical load ip: 18050048 freq: 5
rob stalling non-critical load ip: 18064428 freq: 14
rob stalling non-critical load ip: 18064772 freq: 3
rob stalling non-critical load ip: 18064780 freq: 2
rob stalling non-critical load ip: 18064816 freq: 2
rob stalling non-critical load ip: 18065108 freq: 19
rob stalling non-critical load ip: 18067804 freq: 9
rob stalling non-critical load ip: 18086804 freq: 49
rob stalling non-critical load ip: 18086864 freq: 1
rob stalling non-critical load ip: 18086944 freq: 7
rob stalling non-critical load ip: 18088656 freq: 8
rob stalling non-critical load ip: 18088676 freq: 20
rob stalling non-critical load ip: 18088752 freq: 4
rob stalling non-critical load ip: 18088772 freq: 3
rob stalling non-critical load ip: 18088808 freq: 3
rob stalling non-critical load ip: 18093632 freq: 1
rob stalling non-critical load ip: 18093648 freq: 6
rob stalling non-critical load ip: 18093652 freq: 12
rob stalling non-critical load ip: 18093688 freq: 10
rob stalling non-critical load ip: 18093732 freq: 4
rob stalling non-critical load ip: 18093804 freq: 3
rob stalling non-critical load ip: 18093808 freq: 9
rob stalling non-critical load ip: 18093824 freq: 5
rob stalling non-critical load ip: 18093836 freq: 2
rob stalling non-critical load ip: 18094548 freq: 23
rob stalling non-critical load ip: 18094696 freq: 7
rob stalling non-critical load ip: 18094784 freq: 1
rob stalling non-critical load ip: 18094840 freq: 2
rob stalling non-critical load ip: 18094924 freq: 20
rob stalling non-critical load ip: 18095040 freq: 1
rob stalling non-critical load ip: 18095240 freq: 6
rob stalling non-critical load ip: 18095408 freq: 16
rob stalling non-critical load ip: 18095468 freq: 5
rob stalling non-critical load ip: 18095572 freq: 15
rob stalling non-critical load ip: 18095580 freq: 6
rob stalling non-critical load ip: 18095592 freq: 15
rob stalling non-critical load ip: 18095596 freq: 34
rob stalling non-critical load ip: 18095664 freq: 1
rob stalling non-critical load ip: 18095724 freq: 10
rob stalling non-critical load ip: 18095784 freq: 2
rob stalling non-critical load ip: 18095808 freq: 1
rob stalling non-critical load ip: 18095816 freq: 8
rob stalling non-critical load ip: 18095824 freq: 8
rob stalling non-critical load ip: 18095836 freq: 10
rob stalling non-critical load ip: 18095840 freq: 18
rob stalling non-critical load ip: 18095872 freq: 1
rob stalling non-critical load ip: 18095928 freq: 14
rob stalling non-critical load ip: 18096008 freq: 5
rob stalling non-critical load ip: 18096056 freq: 6
rob stalling non-critical load ip: 18096076 freq: 1
rob stalling non-critical load ip: 18097012 freq: 1
rob stalling non-critical load ip: 18097092 freq: 2
rob stalling non-critical load ip: 18097120 freq: 1
rob stalling non-critical load ip: 18107224 freq: 4
rob stalling non-critical load ip: 18107364 freq: 5
rob stalling non-critical load ip: 18107752 freq: 7
rob stalling non-critical load ip: 18128468 freq: 67
rob stalling non-critical load ip: 18128484 freq: 2
rob stalling non-critical load ip: 18128540 freq: 34
rob stalling non-critical load ip: 18128640 freq: 6
rob stalling non-critical load ip: 18128744 freq: 41
rob stalling non-critical load ip: 18128756 freq: 1
rob stalling non-critical load ip: 18132720 freq: 222
rob stalling non-critical load ip: 18132760 freq: 178
rob stalling non-critical load ip: 18132804 freq: 11
rob stalling non-critical load ip: 18132832 freq: 42
rob stalling non-critical load ip: 18132844 freq: 9
rob stalling non-critical load ip: 18132856 freq: 1
rob stalling non-critical load ip: 18132872 freq: 12
rob stalling non-critical load ip: 18132896 freq: 37
rob stalling non-critical load ip: 18132908 freq: 46
rob stalling non-critical load ip: 18132980 freq: 42
rob stalling non-critical load ip: 18132996 freq: 191
rob stalling non-critical load ip: 18133012 freq: 3
rob stalling non-critical load ip: 18133028 freq: 6
rob stalling non-critical load ip: 18133080 freq: 450
rob stalling non-critical load ip: 18133112 freq: 63
rob stalling non-critical load ip: 18133280 freq: 4
rob stalling non-critical load ip: 18133368 freq: 190
rob stalling non-critical load ip: 18133388 freq: 91
rob stalling non-critical load ip: 18133392 freq: 47
rob stalling non-critical load ip: 18133404 freq: 5
rob stalling non-critical load ip: 18133408 freq: 111
rob stalling non-critical load ip: 18133456 freq: 4
rob stalling non-critical load ip: 18133528 freq: 12
rob stalling non-critical load ip: 18133592 freq: 46
rob stalling non-critical load ip: 18133608 freq: 50
rob stalling non-critical load ip: 18133724 freq: 8
rob stalling non-critical load ip: 18133736 freq: 2
rob stalling non-critical load ip: 18133936 freq: 19
rob stalling non-critical load ip: 18133940 freq: 10
rob stalling non-critical load ip: 18133964 freq: 17
rob stalling non-critical load ip: 18133996 freq: 10
rob stalling non-critical load ip: 18134000 freq: 16
rob stalling non-critical load ip: 18134084 freq: 22
rob stalling non-critical load ip: 18134192 freq: 70
rob stalling non-critical load ip: 18134276 freq: 14
rob stalling non-critical load ip: 18134316 freq: 4
rob stalling non-critical load ip: 18134344 freq: 3
rob stalling non-critical load ip: 18134356 freq: 21
rob stalling non-critical load ip: 18134420 freq: 7
rob stalling non-critical load ip: 18134436 freq: 10
rob stalling non-critical load ip: 18177848 freq: 1
rob stalling non-critical load ip: 18180252 freq: 14
rob stalling non-critical load ip: 18181084 freq: 10
rob stalling non-critical load ip: 18181104 freq: 39
rob stalling non-critical load ip: 18181304 freq: 1
rob stalling non-critical load ip: 18181332 freq: 25
rob stalling non-critical load ip: 18302544 freq: 1
rob stalling non-critical load ip: 18302756 freq: 23
rob stalling non-critical load ip: 18303116 freq: 20
rob stalling non-critical load ip: 18303164 freq: 4
rob stalling non-critical load ip: 18303200 freq: 6
rob stalling non-critical load ip: 18303304 freq: 2
rob stalling non-critical load ip: 18303328 freq: 5
rob stalling non-critical load ip: 18442044 freq: 1
rob stalling non-critical load ip: 18457504 freq: 32
rob stalling non-critical load ip: 18457520 freq: 2
rob stalling non-critical load ip: 18457572 freq: 23
rob stalling non-critical load ip: 18457588 freq: 9
rob stalling non-critical load ip: 18457592 freq: 39
rob stalling non-critical load ip: 18466760 freq: 18
rob stalling non-critical load ip: 18466768 freq: 82
rob stalling non-critical load ip: 18466784 freq: 8
rob stalling non-critical load ip: 18466824 freq: 39
rob stalling non-critical load ip: 18466888 freq: 9
rob stalling non-critical load ip: 18466940 freq: 1
rob stalling non-critical load ip: 18466952 freq: 4
rob stalling non-critical load ip: 18466988 freq: 1
rob stalling non-critical load ip: 18467160 freq: 12
rob stalling non-critical load ip: 18467180 freq: 7
rob stalling non-critical load ip: 18467240 freq: 1
rob stalling non-critical load ip: 18467244 freq: 4
rob stalling non-critical load ip: 18467324 freq: 3
rob stalling non-critical load ip: 18467388 freq: 2
rob stalling non-critical load ip: 18469328 freq: 6
rob stalling non-critical load ip: 18469540 freq: 4
rob stalling non-critical load ip: 18469560 freq: 3
rob stalling non-critical load ip: 18469584 freq: 3
rob stalling non-critical load ip: 18469632 freq: 8
rob stalling non-critical load ip: 18469756 freq: 16
rob stalling non-critical load ip: 18469772 freq: 3
rob stalling non-critical load ip: 18481752 freq: 1
rob stalling non-critical load ip: 18481788 freq: 9
rob stalling non-critical load ip: 18481820 freq: 2
rob stalling non-critical load ip: 18482068 freq: 22
rob stalling non-critical load ip: 18482232 freq: 51
rob stalling non-critical load ip: 18482236 freq: 64
rob stalling non-critical load ip: 18482240 freq: 3
rob stalling non-critical load ip: 18482800 freq: 1
rob stalling non-critical load ip: 18483004 freq: 17
rob stalling non-critical load ip: 18483052 freq: 5
rob stalling non-critical load ip: 18488312 freq: 23
rob stalling non-critical load ip: 18488540 freq: 2
rob stalling non-critical load ip: 18488568 freq: 13
rob stalling non-critical load ip: 18488592 freq: 7
rob stalling non-critical load ip: 18489604 freq: 6
rob stalling non-critical load ip: 18489728 freq: 28
rob stalling non-critical load ip: 18489732 freq: 3
rob stalling non-critical load ip: 18489756 freq: 1
rob stalling non-critical load ip: 18489768 freq: 20
rob stalling non-critical load ip: 18489772 freq: 3
rob stalling non-critical load ip: 18489896 freq: 7
rob stalling non-critical load ip: 18490360 freq: 2
rob stalling non-critical load ip: 18490392 freq: 9
rob stalling non-critical load ip: 18490420 freq: 2
rob stalling non-critical load ip: 18490424 freq: 2
rob stalling non-critical load ip: 18490436 freq: 3
rob stalling non-critical load ip: 18490728 freq: 3
rob stalling non-critical load ip: 18510112 freq: 14
rob stalling non-critical load ip: 18510548 freq: 64
rob stalling non-critical load ip: 18510948 freq: 70
rob stalling non-critical load ip: 18510952 freq: 9
rob stalling non-critical load ip: 18511016 freq: 6
rob stalling non-critical load ip: 18511028 freq: 1
rob stalling non-critical load ip: 18511088 freq: 6
rob stalling non-critical load ip: 18511136 freq: 9
rob stalling non-critical load ip: 18513436 freq: 1
rob stalling non-critical load ip: 18550640 freq: 49
rob stalling non-critical load ip: 18550676 freq: 6
rob stalling non-critical load ip: 18550808 freq: 3
rob stalling non-critical load ip: 18550920 freq: 10
rob stalling non-critical load ip: 18550924 freq: 1
rob stalling non-critical load ip: 18551032 freq: 15
rob stalling non-critical load ip: 18551120 freq: 5
rob stalling non-critical load ip: 18551124 freq: 2
rob stalling non-critical load ip: 18551144 freq: 3
rob stalling non-critical load ip: 18551148 freq: 2
rob stalling non-critical load ip: 18551208 freq: 1
rob stalling non-critical load ip: 18551268 freq: 1
rob stalling non-critical load ip: 18551932 freq: 6
rob stalling non-critical load ip: 18552128 freq: 23
rob stalling non-critical load ip: 18552272 freq: 12
rob stalling non-critical load ip: 18552516 freq: 6
rob stalling non-critical load ip: 18552572 freq: 19
rob stalling non-critical load ip: 18553288 freq: 5
rob stalling non-critical load ip: 18553348 freq: 3
rob stalling non-critical load ip: 18553752 freq: 5
rob stalling non-critical load ip: 18553756 freq: 1
rob stalling non-critical load ip: 18553908 freq: 61
rob stalling non-critical load ip: 18554056 freq: 57
rob stalling non-critical load ip: 18554184 freq: 10
rob stalling non-critical load ip: 18554200 freq: 38
rob stalling non-critical load ip: 18572720 freq: 5
rob stalling non-critical load ip: 18572728 freq: 1
rob stalling non-critical load ip: 18573372 freq: 4
rob stalling non-critical load ip: 18604280 freq: 13
rob stalling non-critical load ip: 18604340 freq: 4
rob stalling non-critical load ip: 18604344 freq: 40
rob stalling non-critical load ip: 18604364 freq: 5
rob stalling non-critical load ip: 18604480 freq: 3
rob stalling non-critical load ip: 18625668 freq: 20
rob stalling non-critical load ip: 18630436 freq: 2
rob stalling non-critical load ip: 18631072 freq: 2
rob stalling non-critical load ip: 18631092 freq: 2
rob stalling non-critical load ip: 18631116 freq: 2
rob stalling non-critical load ip: 18634180 freq: 5
rob stalling non-critical load ip: 18634208 freq: 5
rob stalling non-critical load ip: 18634448 freq: 1
rob stalling non-critical load ip: 18634892 freq: 19
rob stalling non-critical load ip: 18757300 freq: 5
rob stalling non-critical load ip: 18757332 freq: 9
rob stalling non-critical load ip: 18757352 freq: 5
rob stalling non-critical load ip: 18757520 freq: 8
rob stalling non-critical load ip: 18757540 freq: 1
rob stalling non-critical load ip: 18757776 freq: 3
rob stalling non-critical load ip: 18777480 freq: 4
rob stalling non-critical load ip: 18783856 freq: 62
rob stalling non-critical load ip: 18783872 freq: 4
rob stalling non-critical load ip: 18783924 freq: 7
rob stalling non-critical load ip: 18783940 freq: 13
rob stalling non-critical load ip: 18783960 freq: 3
rob stalling non-critical load ip: 18783964 freq: 2
rob stalling non-critical load ip: 18847880 freq: 3
rob stalling non-critical load ip: 18847948 freq: 11
rob stalling non-critical load ip: 18847984 freq: 15
rob stalling non-critical load ip: 18848036 freq: 1
rob stalling non-critical load ip: 18848072 freq: 21
rob stalling non-critical load ip: 18848296 freq: 14
rob stalling non-critical load ip: 18848340 freq: 2
rob stalling non-critical load ip: 18848452 freq: 2
rob stalling non-critical load ip: 18848928 freq: 5
rob stalling non-critical load ip: 18848936 freq: 5
rob stalling non-critical load ip: 18850924 freq: 1
rob stalling non-critical load ip: 18851012 freq: 3
rob stalling non-critical load ip: 18851080 freq: 4
rob stalling non-critical load ip: 18853212 freq: 14
rob stalling non-critical load ip: 18853232 freq: 3
rob stalling non-critical load ip: 18860616 freq: 116
rob stalling non-critical load ip: 18945652 freq: 5
rob stalling non-critical load ip: 18946156 freq: 2
rob stalling non-critical load ip: 18946188 freq: 10
rob stalling non-critical load ip: 18946532 freq: 3
rob stalling non-critical load ip: 18947388 freq: 8
rob stalling non-critical load ip: 18951880 freq: 5
rob stalling non-critical load ip: 18951920 freq: 1
rob stalling non-critical load ip: 18951968 freq: 19
rob stalling non-critical load ip: 18952028 freq: 10
rob stalling non-critical load ip: 18953912 freq: 5
rob stalling non-critical load ip: 18955848 freq: 10
rob stalling non-critical load ip: 18955980 freq: 12
rob stalling non-critical load ip: 18956208 freq: 1
rob stalling non-critical load ip: 18956492 freq: 1
rob stalling non-critical load ip: 18956512 freq: 2
rob stalling non-critical load ip: 18956528 freq: 1
rob stalling non-critical load ip: 18956548 freq: 2
rob stalling non-critical load ip: 18956564 freq: 1
rob stalling non-critical load ip: 18956604 freq: 1
rob stalling non-critical load ip: 18956620 freq: 5
rob stalling non-critical load ip: 18956724 freq: 18
rob stalling non-critical load ip: 18956748 freq: 2
rob stalling non-critical load ip: 18956808 freq: 4
rob stalling non-critical load ip: 18956864 freq: 10
rob stalling non-critical load ip: 18956880 freq: 2
rob stalling non-critical load ip: 18956900 freq: 5
rob stalling non-critical load ip: 18957516 freq: 9
rob stalling non-critical load ip: 18957576 freq: 3
rob stalling non-critical load ip: 18957624 freq: 1
rob stalling non-critical load ip: 18957640 freq: 2
rob stalling non-critical load ip: 18958028 freq: 92
rob stalling non-critical load ip: 18958052 freq: 92
rob stalling non-critical load ip: 18958056 freq: 1
rob stalling non-critical load ip: 18958080 freq: 1
rob stalling non-critical load ip: 18958096 freq: 1
rob stalling non-critical load ip: 18958128 freq: 1
rob stalling non-critical load ip: 18958188 freq: 3
rob stalling non-critical load ip: 18958204 freq: 1
rob stalling non-critical load ip: 18958220 freq: 11
rob stalling non-critical load ip: 18960512 freq: 34
rob stalling non-critical load ip: 18960524 freq: 1
rob stalling non-critical load ip: 18960552 freq: 4
rob stalling non-critical load ip: 18960584 freq: 15
rob stalling non-critical load ip: 18960616 freq: 14
rob stalling non-critical load ip: 18960632 freq: 2
rob stalling non-critical load ip: 18960648 freq: 2
rob stalling non-critical load ip: 18960676 freq: 6
rob stalling non-critical load ip: 18960688 freq: 10
rob stalling non-critical load ip: 18960700 freq: 7
rob stalling non-critical load ip: 18960732 freq: 4
rob stalling non-critical load ip: 18960780 freq: 15
rob stalling non-critical load ip: 18960812 freq: 4
rob stalling non-critical load ip: 18960908 freq: 12
rob stalling non-critical load ip: 18960972 freq: 5
rob stalling non-critical load ip: 18970396 freq: 14
rob stalling non-critical load ip: 18970400 freq: 2
rob stalling non-critical load ip: 18980028 freq: 40
rob stalling non-critical load ip: 19454556 freq: 19
rob stalling non-critical load ip: 19489332 freq: 4
rob stalling non-critical load ip: 19489344 freq: 5
rob stalling non-critical load ip: 19489396 freq: 2
rob stalling non-critical load ip: 19489408 freq: 4
rob stalling non-critical load ip: 19489544 freq: 10
rob stalling non-critical load ip: 19489948 freq: 26
rob stalling non-critical load ip: 19489960 freq: 4
rob stalling non-critical load ip: 19490008 freq: 10
rob stalling non-critical load ip: 19492860 freq: 10
rob stalling non-critical load ip: 19492892 freq: 15
rob stalling non-critical load ip: 19493116 freq: 4
rob stalling non-critical load ip: 19493148 freq: 63
rob stalling non-critical load ip: 19493164 freq: 8
rob stalling non-critical load ip: 19493176 freq: 179
rob stalling non-critical load ip: 19493188 freq: 33
rob stalling non-critical load ip: 19493328 freq: 7
rob stalling non-critical load ip: 19493360 freq: 7
rob stalling non-critical load ip: 19493372 freq: 4
rob stalling non-critical load ip: 19493400 freq: 13
rob stalling non-critical load ip: 19493820 freq: 15
rob stalling non-critical load ip: 19493916 freq: 13
rob stalling non-critical load ip: 19493932 freq: 12
rob stalling non-critical load ip: 19493948 freq: 4
rob stalling non-critical load ip: 19493956 freq: 7
rob stalling non-critical load ip: 19493960 freq: 11
rob stalling non-critical load ip: 19493984 freq: 2
rob stalling non-critical load ip: 19494032 freq: 57
rob stalling non-critical load ip: 19494040 freq: 29
rob stalling non-critical load ip: 19494052 freq: 81
rob stalling non-critical load ip: 19494060 freq: 28
rob stalling non-critical load ip: 19494068 freq: 18
rob stalling non-critical load ip: 19494076 freq: 1460
rob stalling non-critical load ip: 19494084 freq: 49
rob stalling non-critical load ip: 19494096 freq: 39
rob stalling non-critical load ip: 19494104 freq: 5059
rob stalling non-critical load ip: 19494112 freq: 99
rob stalling non-critical load ip: 19494292 freq: 59
rob stalling non-critical load ip: 19494412 freq: 9
rob stalling non-critical load ip: 19494452 freq: 1
rob stalling non-critical load ip: 19494664 freq: 9
rob stalling non-critical load ip: 19495484 freq: 53
rob stalling non-critical load ip: 19495680 freq: 7
rob stalling non-critical load ip: 19495700 freq: 74
rob stalling non-critical load ip: 19495740 freq: 44
rob stalling non-critical load ip: 19495772 freq: 2
rob stalling non-critical load ip: 19495816 freq: 20
rob stalling non-critical load ip: 19496020 freq: 66
rob stalling non-critical load ip: 19496036 freq: 44
rob stalling non-critical load ip: 19496052 freq: 48
rob stalling non-critical load ip: 19496064 freq: 28
rob stalling non-critical load ip: 19496700 freq: 13
rob stalling non-critical load ip: 19496796 freq: 11
rob stalling non-critical load ip: 19496816 freq: 11
rob stalling non-critical load ip: 19496880 freq: 17
rob stalling non-critical load ip: 19496900 freq: 7
rob stalling non-critical load ip: 19496924 freq: 13
rob stalling non-critical load ip: 19496944 freq: 1
rob stalling non-critical load ip: 19496952 freq: 65
rob stalling non-critical load ip: 19496960 freq: 2
rob stalling non-critical load ip: 19497140 freq: 23
rob stalling non-critical load ip: 19497260 freq: 1
rob stalling non-critical load ip: 19499172 freq: 2
rob stalling non-critical load ip: 19499416 freq: 7
rob stalling non-critical load ip: 19499480 freq: 5
rob stalling non-critical load ip: 19499512 freq: 4
rob stalling non-critical load ip: 19499832 freq: 2
rob stalling non-critical load ip: 19500044 freq: 13
rob stalling non-critical load ip: 19500056 freq: 4
rob stalling non-critical load ip: 19500088 freq: 2
rob stalling non-critical load ip: 19500756 freq: 4
rob stalling non-critical load ip: 19501012 freq: 8
rob stalling non-critical load ip: 19501068 freq: 6
rob stalling non-critical load ip: 19688432 freq: 5
rob stalling non-critical load ip: 19689424 freq: 1
rob stalling non-critical load ip: 19689456 freq: 27
rob stalling non-critical load ip: 19689532 freq: 3
rob stalling non-critical load ip: 19689536 freq: 3
rob stalling non-critical load ip: 19690828 freq: 7
rob stalling non-critical load ip: 19690852 freq: 2
rob stalling non-critical load ip: 19691352 freq: 1
rob stalling non-critical load ip: 19691412 freq: 2
rob stalling non-critical load ip: 19691612 freq: 1
rob stalling non-critical load ip: 19692684 freq: 7
rob stalling non-critical load ip: 19692692 freq: 42
rob stalling non-critical load ip: 19692820 freq: 6
rob stalling non-critical load ip: 19695740 freq: 12
rob stalling non-critical load ip: 19695780 freq: 4
rob stalling non-critical load ip: 19695796 freq: 11
rob stalling non-critical load ip: 19695888 freq: 5
rob stalling non-critical load ip: 19695944 freq: 4
rob stalling non-critical load ip: 19695992 freq: 1
rob stalling non-critical load ip: 19696032 freq: 3
rob stalling non-critical load ip: 19696364 freq: 1
rob stalling non-critical load ip: 19698128 freq: 2
rob stalling non-critical load ip: 19698148 freq: 1
rob stalling non-critical load ip: 19698204 freq: 14
rob stalling non-critical load ip: 19698228 freq: 3
rob stalling non-critical load ip: 19698288 freq: 7
rob stalling non-critical load ip: 19699940 freq: 1
rob stalling non-critical load ip: 19699952 freq: 2
rob stalling non-critical load ip: 19699968 freq: 7
rob stalling non-critical load ip: 19700320 freq: 3
rob stalling non-critical load ip: 19701420 freq: 4
rob stalling non-critical load ip: 19701440 freq: 8
rob stalling non-critical load ip: 19701452 freq: 1
rob stalling non-critical load ip: 19701456 freq: 10
rob stalling non-critical load ip: 19701852 freq: 2
rob stalling non-critical load ip: 19701964 freq: 1
rob stalling non-critical load ip: 19702148 freq: 3
rob stalling non-critical load ip: 19702672 freq: 4
rob stalling non-critical load ip: 19704700 freq: 1
rob stalling non-critical load ip: 19704804 freq: 1
rob stalling non-critical load ip: 19707028 freq: 7
rob stalling non-critical load ip: 19707092 freq: 1
rob stalling non-critical load ip: 19707268 freq: 8
rob stalling non-critical load ip: 19707756 freq: 8
rob stalling non-critical load ip: 19707808 freq: 2
rob stalling non-critical load ip: 19708008 freq: 1
rob stalling non-critical load ip: 19708048 freq: 2
rob stalling non-critical load ip: 19708092 freq: 1
rob stalling non-critical load ip: 19708440 freq: 2
rob stalling non-critical load ip: 19711940 freq: 3
rob stalling non-critical load ip: 19711948 freq: 2
rob stalling non-critical load ip: 19723200 freq: 2
rob stalling non-critical load ip: 19723236 freq: 75
rob stalling non-critical load ip: 19723248 freq: 7
rob stalling non-critical load ip: 19723284 freq: 12
rob stalling non-critical load ip: 19723312 freq: 5
rob stalling non-critical load ip: 19723320 freq: 87
rob stalling non-critical load ip: 19723336 freq: 151
rob stalling non-critical load ip: 19723352 freq: 13
rob stalling non-critical load ip: 19723368 freq: 4
rob stalling non-critical load ip: 19723384 freq: 6
rob stalling non-critical load ip: 19723408 freq: 2
rob stalling non-critical load ip: 19723468 freq: 1
rob stalling non-critical load ip: 19723524 freq: 2
rob stalling non-critical load ip: 19724432 freq: 17
rob stalling non-critical load ip: 19724480 freq: 1
rob stalling non-critical load ip: 19724576 freq: 13
rob stalling non-critical load ip: 19724872 freq: 5
rob stalling non-critical load ip: 19725040 freq: 4
rob stalling non-critical load ip: 19725616 freq: 34
rob stalling non-critical load ip: 19725660 freq: 26
rob stalling non-critical load ip: 19725688 freq: 3
rob stalling non-critical load ip: 19725704 freq: 12
rob stalling non-critical load ip: 19725720 freq: 17
rob stalling non-critical load ip: 19725876 freq: 6
rob stalling non-critical load ip: 19725904 freq: 3
rob stalling non-critical load ip: 19726032 freq: 3
rob stalling non-critical load ip: 19730884 freq: 3
rob stalling non-critical load ip: 19731752 freq: 13
rob stalling non-critical load ip: 19731852 freq: 1
rob stalling non-critical load ip: 19732288 freq: 7
rob stalling non-critical load ip: 19732912 freq: 11
rob stalling non-critical load ip: 19732940 freq: 12
rob stalling non-critical load ip: 19732968 freq: 7
rob stalling non-critical load ip: 19732984 freq: 1
rob stalling non-critical load ip: 19733048 freq: 1
rob stalling non-critical load ip: 19733500 freq: 11
rob stalling non-critical load ip: 19745196 freq: 1
rob stalling non-critical load ip: 19745684 freq: 5
rob stalling non-critical load ip: 19746212 freq: 5
rob stalling non-critical load ip: 19746244 freq: 30
rob stalling non-critical load ip: 19746296 freq: 8
rob stalling non-critical load ip: 19746308 freq: 4
rob stalling non-critical load ip: 19748964 freq: 30
rob stalling non-critical load ip: 19749000 freq: 13
rob stalling non-critical load ip: 19749004 freq: 6
rob stalling non-critical load ip: 19749068 freq: 4
rob stalling non-critical load ip: 19749112 freq: 12
rob stalling non-critical load ip: 19752512 freq: 3
rob stalling non-critical load ip: 19752596 freq: 3
rob stalling non-critical load ip: 19752684 freq: 4
rob stalling non-critical load ip: 19752708 freq: 4
rob stalling non-critical load ip: 19752844 freq: 7
rob stalling non-critical load ip: 19752860 freq: 12
rob stalling non-critical load ip: 19752864 freq: 2
rob stalling non-critical load ip: 19752872 freq: 3
rob stalling non-critical load ip: 19752876 freq: 1
rob stalling non-critical load ip: 19791796 freq: 18
rob stalling non-critical load ip: 19791900 freq: 1
rob stalling non-critical load ip: 19795528 freq: 12
rob stalling non-critical load ip: 19795568 freq: 6
rob stalling non-critical load ip: 19795660 freq: 7
rob stalling non-critical load ip: 19837204 freq: 2
rob stalling non-critical load ip: 19850568 freq: 4
rob stalling non-critical load ip: 19850992 freq: 4
rob stalling non-critical load ip: 19851160 freq: 14
rob stalling non-critical load ip: 19851192 freq: 2
rob stalling non-critical load ip: 19851292 freq: 4
rob stalling non-critical load ip: 19851312 freq: 3
rob stalling non-critical load ip: 19852592 freq: 1
rob stalling non-critical load ip: 19852960 freq: 1
rob stalling non-critical load ip: 19867252 freq: 90455
rob stalling non-critical load ip: 19932180 freq: 9
rob stalling non-critical load ip: 19932304 freq: 1
rob stalling non-critical load ip: 19952072 freq: 1
rob stalling non-critical load ip: 19957160 freq: 4
rob stalling non-critical load ip: 19957192 freq: 1
rob stalling non-critical load ip: 19957256 freq: 3
rob stalling non-critical load ip: 19957484 freq: 2
rob stalling non-critical load ip: 19957964 freq: 50
rob stalling non-critical load ip: 19957972 freq: 1
rob stalling non-critical load ip: 19957976 freq: 2
rob stalling non-critical load ip: 19957992 freq: 2
rob stalling non-critical load ip: 19958012 freq: 1
rob stalling non-critical load ip: 19958036 freq: 5
rob stalling non-critical load ip: 19961896 freq: 3
rob stalling non-critical load ip: 19961904 freq: 4
rob stalling non-critical load ip: 19971860 freq: 3
rob stalling non-critical load ip: 19971880 freq: 2
rob stalling non-critical load ip: 19974244 freq: 8
rob stalling non-critical load ip: 19974268 freq: 4
rob stalling non-critical load ip: 19975132 freq: 1
rob stalling non-critical load ip: 19975316 freq: 6
rob stalling non-critical load ip: 19976208 freq: 1
rob stalling non-critical load ip: 19976536 freq: 3
rob stalling non-critical load ip: 19976712 freq: 4
rob stalling non-critical load ip: 19976772 freq: 7
rob stalling non-critical load ip: 20024224 freq: 13
rob stalling non-critical load ip: 20024236 freq: 4
rob stalling non-critical load ip: 20024256 freq: 31
rob stalling non-critical load ip: 20024264 freq: 1
rob stalling non-critical load ip: 20031748 freq: 1
rob stalling non-critical load ip: 20047492 freq: 70
rob stalling non-critical load ip: 20047552 freq: 4
rob stalling non-critical load ip: 20047980 freq: 3
rob stalling non-critical load ip: 20048080 freq: 189
rob stalling non-critical load ip: 20048096 freq: 5
rob stalling non-critical load ip: 20048140 freq: 3
rob stalling non-critical load ip: 20048244 freq: 11
rob stalling non-critical load ip: 20048260 freq: 7
rob stalling non-critical load ip: 20048380 freq: 4
rob stalling non-critical load ip: 20048388 freq: 2
rob stalling non-critical load ip: 20048408 freq: 3
rob stalling non-critical load ip: 20048424 freq: 3
rob stalling non-critical load ip: 20048660 freq: 20
rob stalling non-critical load ip: 20048684 freq: 30
rob stalling non-critical load ip: 20048752 freq: 2
rob stalling non-critical load ip: 20048856 freq: 8
rob stalling non-critical load ip: 20048920 freq: 10
rob stalling non-critical load ip: 20049224 freq: 1
rob stalling non-critical load ip: 20049324 freq: 1
rob stalling non-critical load ip: 20050724 freq: 5
rob stalling non-critical load ip: 20050828 freq: 4
rob stalling non-critical load ip: 20052520 freq: 3
rob stalling non-critical load ip: 20052540 freq: 10
rob stalling non-critical load ip: 20052576 freq: 1
rob stalling non-critical load ip: 20052736 freq: 1
rob stalling non-critical load ip: 20052892 freq: 12
rob stalling non-critical load ip: 20052924 freq: 17
rob stalling non-critical load ip: 20053048 freq: 5
rob stalling non-critical load ip: 20053068 freq: 13
rob stalling non-critical load ip: 20053164 freq: 27
rob stalling non-critical load ip: 20053192 freq: 2
rob stalling non-critical load ip: 20054744 freq: 32
rob stalling non-critical load ip: 20059568 freq: 4
rob stalling non-critical load ip: 20060056 freq: 5
rob stalling non-critical load ip: 20060072 freq: 4
rob stalling non-critical load ip: 20060168 freq: 6
rob stalling non-critical load ip: 20060604 freq: 8
rob stalling non-critical load ip: 20060620 freq: 1
rob stalling non-critical load ip: 20061160 freq: 8
rob stalling non-critical load ip: 20061492 freq: 31
rob stalling non-critical load ip: 20061560 freq: 14
rob stalling non-critical load ip: 20061676 freq: 3
rob stalling non-critical load ip: 20061832 freq: 9
rob stalling non-critical load ip: 20061856 freq: 13
rob stalling non-critical load ip: 20062008 freq: 10
rob stalling non-critical load ip: 20062104 freq: 2
rob stalling non-critical load ip: 20062272 freq: 11
rob stalling non-critical load ip: 20062680 freq: 2
rob stalling non-critical load ip: 20062784 freq: 42
rob stalling non-critical load ip: 20062836 freq: 9
rob stalling non-critical load ip: 20062904 freq: 34
rob stalling non-critical load ip: 20063904 freq: 1
rob stalling non-critical load ip: 20064480 freq: 7
rob stalling non-critical load ip: 20079096 freq: 5
rob stalling non-critical load ip: 20079460 freq: 3
rob stalling non-critical load ip: 20079476 freq: 4
rob stalling non-critical load ip: 20081736 freq: 4
rob stalling non-critical load ip: 20082308 freq: 3
rob stalling non-critical load ip: 20083212 freq: 4
rob stalling non-critical load ip: 20084492 freq: 4
rob stalling non-critical load ip: 20084520 freq: 1
rob stalling non-critical load ip: 20084544 freq: 12
rob stalling non-critical load ip: 20084628 freq: 3
rob stalling non-critical load ip: 20084644 freq: 4
rob stalling non-critical load ip: 20084652 freq: 2
rob stalling non-critical load ip: 20084744 freq: 7
rob stalling non-critical load ip: 20087336 freq: 9
rob stalling non-critical load ip: 20096056 freq: 9
rob stalling non-critical load ip: 20096324 freq: 4
rob stalling non-critical load ip: 20096608 freq: 5
rob stalling non-critical load ip: 20096732 freq: 6
rob stalling non-critical load ip: 20096772 freq: 13
rob stalling non-critical load ip: 20097116 freq: 2
rob stalling non-critical load ip: 20097336 freq: 3
rob stalling non-critical load ip: 20097340 freq: 31
rob stalling non-critical load ip: 20097868 freq: 9
rob stalling non-critical load ip: 20097876 freq: 3
rob stalling non-critical load ip: 20155144 freq: 8
rob stalling non-critical load ip: 20155176 freq: 28
rob stalling non-critical load ip: 20165604 freq: 3
rob stalling non-critical load ip: 20168600 freq: 9
rob stalling non-critical load ip: 20169080 freq: 15
rob stalling non-critical load ip: 20169200 freq: 1
rob stalling non-critical load ip: 20169220 freq: 14
rob stalling non-critical load ip: 20170580 freq: 25
rob stalling non-critical load ip: 20170616 freq: 36
rob stalling non-critical load ip: 20170656 freq: 13
rob stalling non-critical load ip: 20170968 freq: 7
rob stalling non-critical load ip: 20171040 freq: 2
rob stalling non-critical load ip: 20174004 freq: 6
rob stalling non-critical load ip: 20174020 freq: 9
rob stalling non-critical load ip: 20174084 freq: 3
rob stalling non-critical load ip: 20174220 freq: 8
rob stalling non-critical load ip: 20174224 freq: 10
rob stalling non-critical load ip: 20174332 freq: 12
rob stalling non-critical load ip: 20174344 freq: 9
rob stalling non-critical load ip: 20174372 freq: 54
rob stalling non-critical load ip: 20174376 freq: 12
rob stalling non-critical load ip: 20182888 freq: 12
rob stalling non-critical load ip: 20182900 freq: 5
rob stalling non-critical load ip: 20182940 freq: 2
rob stalling non-critical load ip: 20182980 freq: 5
rob stalling non-critical load ip: 20183184 freq: 44
rob stalling non-critical load ip: 20183340 freq: 6
rob stalling non-critical load ip: 20184960 freq: 6
rob stalling non-critical load ip: 20185016 freq: 5
rob stalling non-critical load ip: 20201692 freq: 5
rob stalling non-critical load ip: 20201964 freq: 9
rob stalling non-critical load ip: 20432196 freq: 4
rob stalling non-critical load ip: 20432220 freq: 3
rob stalling non-critical load ip: 20457776 freq: 12
rob stalling non-critical load ip: 20457780 freq: 4
rob stalling non-critical load ip: 20457876 freq: 3
rob stalling non-critical load ip: 20561136 freq: 4
rob stalling non-critical load ip: 20561148 freq: 2
rob stalling non-critical load ip: 20595892 freq: 1
rob stalling non-critical load ip: 20632776 freq: 5
rob stalling non-critical load ip: 20632856 freq: 1
rob stalling non-critical load ip: 20632884 freq: 2
rob stalling non-critical load ip: 20632956 freq: 3
rob stalling non-critical load ip: 20633040 freq: 2
rob stalling non-critical load ip: 20634272 freq: 3
rob stalling non-critical load ip: 20634300 freq: 8
rob stalling non-critical load ip: 20634644 freq: 1
rob stalling non-critical load ip: 20637384 freq: 5
rob stalling non-critical load ip: 20637612 freq: 2
rob stalling non-critical load ip: 20637632 freq: 3
rob stalling non-critical load ip: 20637644 freq: 4
rob stalling non-critical load ip: 20637796 freq: 2
rob stalling non-critical load ip: 20638412 freq: 1
rob stalling non-critical load ip: 20638420 freq: 1
rob stalling non-critical load ip: 20638472 freq: 1
rob stalling non-critical load ip: 20638864 freq: 4
rob stalling non-critical load ip: 20638900 freq: 4
rob stalling non-critical load ip: 20638984 freq: 2
rob stalling non-critical load ip: 20639008 freq: 3
rob stalling non-critical load ip: 20641736 freq: 11
rob stalling non-critical load ip: 20641908 freq: 2
rob stalling non-critical load ip: 20641960 freq: 5
rob stalling non-critical load ip: 20642004 freq: 4
rob stalling non-critical load ip: 20642056 freq: 4
rob stalling non-critical load ip: 20642656 freq: 2
rob stalling non-critical load ip: 20642820 freq: 3
rob stalling non-critical load ip: 20642908 freq: 5
rob stalling non-critical load ip: 20643900 freq: 3
rob stalling non-critical load ip: 20644212 freq: 3
rob stalling non-critical load ip: 20644424 freq: 6
rob stalling non-critical load ip: 20644464 freq: 8
rob stalling non-critical load ip: 20644472 freq: 2
rob stalling non-critical load ip: 20644492 freq: 3
rob stalling non-critical load ip: 20644496 freq: 2
rob stalling non-critical load ip: 20644548 freq: 7
rob stalling non-critical load ip: 20644612 freq: 10
rob stalling non-critical load ip: 20644704 freq: 3
rob stalling non-critical load ip: 20649556 freq: 8
rob stalling non-critical load ip: 20649568 freq: 1
rob stalling non-critical load ip: 20649684 freq: 11
rob stalling non-critical load ip: 20649688 freq: 1
rob stalling non-critical load ip: 20649724 freq: 3
rob stalling non-critical load ip: 20649860 freq: 2
rob stalling non-critical load ip: 20717244 freq: 5
rob stalling non-critical load ip: 20717428 freq: 1
rob stalling non-critical load ip: 20717636 freq: 4
rob stalling non-critical load ip: 20717772 freq: 3
rob stalling non-critical load ip: 20717804 freq: 7
rob stalling non-critical load ip: 20741432 freq: 4
rob stalling non-critical load ip: 20741572 freq: 4
rob stalling non-critical load ip: 20741692 freq: 2
rob stalling non-critical load ip: 20741944 freq: 3
rob stalling non-critical load ip: 20742556 freq: 4
rob stalling non-critical load ip: 20742676 freq: 4
rob stalling non-critical load ip: 20742804 freq: 1
rob stalling non-critical load ip: 20742824 freq: 1
rob stalling non-critical load ip: 20743684 freq: 5
rob stalling non-critical load ip: 20743864 freq: 4
rob stalling non-critical load ip: 20745860 freq: 3
rob stalling non-critical load ip: 20746072 freq: 5
rob stalling non-critical load ip: 20746124 freq: 5
rob stalling non-critical load ip: 20746600 freq: 2
rob stalling non-critical load ip: 20746608 freq: 2
rob stalling non-critical load ip: 20746612 freq: 6
rob stalling non-critical load ip: 20746928 freq: 10
rob stalling non-critical load ip: 20748820 freq: 5
rob stalling non-critical load ip: 20748876 freq: 1
rob stalling non-critical load ip: 20748964 freq: 11
rob stalling non-critical load ip: 20749064 freq: 2
rob stalling non-critical load ip: 20749236 freq: 7
rob stalling non-critical load ip: 20749248 freq: 16
rob stalling non-critical load ip: 20749388 freq: 3
rob stalling non-critical load ip: 20749392 freq: 4
rob stalling non-critical load ip: 20749408 freq: 1
rob stalling non-critical load ip: 20750004 freq: 3
rob stalling non-critical load ip: 20750080 freq: 6
rob stalling non-critical load ip: 20755876 freq: 6
rob stalling non-critical load ip: 20755932 freq: 3
rob stalling non-critical load ip: 20756208 freq: 3
rob stalling non-critical load ip: 20756300 freq: 4
rob stalling non-critical load ip: 20756432 freq: 5
rob stalling non-critical load ip: 20756784 freq: 3
rob stalling non-critical load ip: 20757896 freq: 6
rob stalling non-critical load ip: 20759720 freq: 14
rob stalling non-critical load ip: 20759724 freq: 4
rob stalling non-critical load ip: 20760008 freq: 16
rob stalling non-critical load ip: 20760160 freq: 6
rob stalling non-critical load ip: 20760180 freq: 2
rob stalling non-critical load ip: 20771552 freq: 1
rob stalling non-critical load ip: 20774404 freq: 6
rob stalling non-critical load ip: 20792420 freq: 1
rob stalling non-critical load ip: 20792624 freq: 2
rob stalling non-critical load ip: 20800304 freq: 5
rob stalling non-critical load ip: 20800376 freq: 8
rob stalling non-critical load ip: 20800420 freq: 5
rob stalling non-critical load ip: 20800788 freq: 1
rob stalling non-critical load ip: 20800828 freq: 1
rob stalling non-critical load ip: 20801052 freq: 1
rob stalling non-critical load ip: 20801772 freq: 3
rob stalling non-critical load ip: 20803148 freq: 3
rob stalling non-critical load ip: 20803300 freq: 5
rob stalling non-critical load ip: 20804540 freq: 3
rob stalling non-critical load ip: 20804656 freq: 3
rob stalling non-critical load ip: 20805024 freq: 13
rob stalling non-critical load ip: 20805104 freq: 8
rob stalling non-critical load ip: 20805316 freq: 5
rob stalling non-critical load ip: 20805380 freq: 2
rob stalling non-critical load ip: 20806212 freq: 4
rob stalling non-critical load ip: 20806956 freq: 14
rob stalling non-critical load ip: 20813440 freq: 4
rob stalling non-critical load ip: 20813456 freq: 3
rob stalling non-critical load ip: 20813512 freq: 6
rob stalling non-critical load ip: 20813524 freq: 29
rob stalling non-critical load ip: 20813576 freq: 2
rob stalling non-critical load ip: 20813596 freq: 3
rob stalling non-critical load ip: 20813724 freq: 1
rob stalling non-critical load ip: 20813772 freq: 4
rob stalling non-critical load ip: 20813872 freq: 17
rob stalling non-critical load ip: 20813952 freq: 23
rob stalling non-critical load ip: 20813960 freq: 3
rob stalling non-critical load ip: 20814440 freq: 6
rob stalling non-critical load ip: 20816344 freq: 4
rob stalling non-critical load ip: 20816400 freq: 16
rob stalling non-critical load ip: 20816452 freq: 10
rob stalling non-critical load ip: 20816876 freq: 1
rob stalling non-critical load ip: 20816904 freq: 27
rob stalling non-critical load ip: 20816912 freq: 11
rob stalling non-critical load ip: 20829664 freq: 3
rob stalling non-critical load ip: 20829716 freq: 2
rob stalling non-critical load ip: 20829984 freq: 1
rob stalling non-critical load ip: 20848732 freq: 2
rob stalling non-critical load ip: 20849012 freq: 9
rob stalling non-critical load ip: 2071812604 freq: 8
rob stalling non-critical load ip: 2071812620 freq: 1
rob stalling non-critical load ip: 2071823724 freq: 3
rob stalling non-critical load ip: 2071823844 freq: 7
rob stalling non-critical load ip: 2071823888 freq: 20
rob stalling non-critical load ip: 2071824268 freq: 18
rob stalling non-critical load ip: 2071824296 freq: 25
rob stalling non-critical load ip: 2071824316 freq: 6
rob stalling non-critical load ip: 2071824328 freq: 19
rob stalling non-critical load ip: 2071824400 freq: 21
rob stalling non-critical load ip: 2071825420 freq: 2
rob stalling non-critical load ip: 2071825424 freq: 35
rob stalling non-critical load ip: 2071825480 freq: 12
rob stalling non-critical load ip: 2074452540 freq: 14
rob stalling non-critical load ip: 2074452548 freq: 6
rob stalling non-critical load ip: 2074452560 freq: 1
rob stalling non-critical load ip: 2074452912 freq: 5
rob stalling non-critical load ip: 2074453348 freq: 1
rob stalling non-critical load ip: 2074589848 freq: 3
rob stalling non-critical load ip: 2074589852 freq: 14
rob stalling non-critical load ip: 2074816436 freq: 6
rob stalling non-critical load ip: 2074816456 freq: 7
rob stalling non-critical load ip: 2074816476 freq: 6
rob stalling non-critical load ip: 2074816560 freq: 1
rob stalling non-critical load ip: 2074817264 freq: 14
rob stalling non-critical load ip: 2074817576 freq: 6
rob stalling non-critical load ip: 2074819848 freq: 2
rob stalling non-critical load ip: 2074908396 freq: 1
rob stalling non-critical load ip: 2074914844 freq: 1
rob stalling non-critical load ip: 2074918212 freq: 1
rob stalling non-critical load ip: 2074921148 freq: 1
rob stalling non-critical load ip: 2074941612 freq: 25
rob stalling non-critical load ip: 2074941616 freq: 3
rob stalling non-critical load ip: 2074941620 freq: 38
rob stalling non-critical load ip: 2074941636 freq: 2
rob stalling non-critical load ip: 2074941744 freq: 27
rob stalling non-critical load ip: 2074941748 freq: 32
rob stalling non-critical load ip: 2074941784 freq: 10
rob stalling non-critical load ip: 2074941816 freq: 14
rob stalling non-critical load ip: 2074941832 freq: 4
rob stalling non-critical load ip: 2074941868 freq: 36
rob stalling non-critical load ip: 2074941920 freq: 16
rob stalling non-critical load ip: 2074941924 freq: 34
rob stalling non-critical load ip: 2074941944 freq: 2
rob stalling non-critical load ip: 2074941960 freq: 32
rob stalling non-critical load ip: 2074942272 freq: 32
rob stalling non-critical load ip: 2074942452 freq: 47
rob stalling non-critical load ip: 2074942728 freq: 3
rob stalling non-critical load ip: 2074942736 freq: 1
rob stalling non-critical load ip: 2074942756 freq: 14
rob stalling non-critical load ip: 2074943044 freq: 5
rob stalling non-critical load ip: 2074943068 freq: 3
rob stalling non-critical load ip: 2074943080 freq: 9
rob stalling non-critical load ip: 2074943172 freq: 13
rob stalling non-critical load ip: 2074943200 freq: 12
rob stalling non-critical load ip: 2074943204 freq: 14
rob stalling non-critical load ip: 2074943432 freq: 11
rob stalling non-critical load ip: 2074946820 freq: 7
rob stalling non-critical load ip: 2074946824 freq: 17
rob stalling non-critical load ip: 2074946856 freq: 9
rob stalling non-critical load ip: 2074946920 freq: 1
rob stalling non-critical load ip: 2074946956 freq: 11
rob stalling non-critical load ip: 2074946960 freq: 3
rob stalling non-critical load ip: 2074948992 freq: 4
rob stalling non-critical load ip: 2074949048 freq: 2
rob stalling non-critical load ip: 2074949060 freq: 2
rob stalling non-critical load ip: 2074949584 freq: 1
rob stalling non-critical load ip: 2074949612 freq: 2
rob stalling non-critical load ip: 2074949668 freq: 3
rob stalling non-critical load ip: 2074949864 freq: 2
rob stalling non-critical load ip: 2074949908 freq: 4
rob stalling non-critical load ip: 2074950020 freq: 2
rob stalling non-critical load ip: 2074950024 freq: 8
rob stalling non-critical load ip: 2074950036 freq: 9
rob stalling non-critical load ip: 2074950160 freq: 13
rob stalling non-critical load ip: 2074950236 freq: 25
rob stalling non-critical load ip: 2074950256 freq: 1
rob stalling non-critical load ip: 2074950268 freq: 16
rob stalling non-critical load ip: 2074950300 freq: 6
rob stalling non-critical load ip: 2074950352 freq: 3
rob stalling non-critical load ip: 2074950468 freq: 1
rob stalling non-critical load ip: 2074950492 freq: 18
rob stalling non-critical load ip: 2074950508 freq: 7
rob stalling non-critical load ip: 2074950940 freq: 4
rob stalling non-critical load ip: 2074950980 freq: 2
rob stalling non-critical load ip: 2074951196 freq: 7
rob stalling non-critical load ip: 2074951224 freq: 42
rob stalling non-critical load ip: 2074951236 freq: 61
rob stalling non-critical load ip: 2074951312 freq: 23
rob stalling non-critical load ip: 2074951316 freq: 55
rob stalling non-critical load ip: 2074951368 freq: 33
rob stalling non-critical load ip: 2074951392 freq: 2
rob stalling non-critical load ip: 2074951468 freq: 11
rob stalling non-critical load ip: 2074951552 freq: 2
rob stalling non-critical load ip: 2074951680 freq: 2
rob stalling non-critical load ip: 2074951684 freq: 11
rob stalling non-critical load ip: 2074952012 freq: 4
rob stalling non-critical load ip: 2074998328 freq: 3
rob stalling non-critical load ip: 2074998344 freq: 10
rob stalling non-critical load ip: 2074998388 freq: 2
rob stalling non-critical load ip: 2078543072 freq: 47
rob stalling non-critical load ip: 2078543184 freq: 37
rob stalling non-critical load ip: 2078550092 freq: 4
rob stalling non-critical load ip: 2078550532 freq: 6
rob stalling non-critical load ip: 2078556420 freq: 1
rob stalling non-critical load ip: 2078556464 freq: 2
rob stalling non-critical load ip: 2078561932 freq: 3
rob stalling non-critical load ip: 2078562184 freq: 13
rob stalling non-critical load ip: 2078562292 freq: 40
rob stalling non-critical load ip: 2078583088 freq: 70
rob stalling non-critical load ip: 2078583096 freq: 62
rob stalling non-critical load ip: 2078583148 freq: 7
rob stalling non-critical load ip: 2078583192 freq: 56
rob stalling non-critical load ip: 2078583220 freq: 1
rob stalling non-critical load ip: 2078583676 freq: 2
rob stalling non-critical load ip: 2078583696 freq: 5
rob stalling non-critical load ip: 2078583752 freq: 4
rob stalling non-critical load ip: 2078583852 freq: 7
rob stalling non-critical load ip: 2078583964 freq: 13
rob stalling non-critical load ip: 2078588688 freq: 2
rob stalling non-critical load ip: 2078588700 freq: 2
rob stalling non-critical load ip: 2078589608 freq: 7
rob stalling non-critical load ip: 2078589892 freq: 30
rob stalling non-critical load ip: 2078590664 freq: 3
rob stalling non-critical load ip: 2078590672 freq: 1
rob stalling non-critical load ip: 2078590676 freq: 5
rob stalling non-critical load ip: 2078590748 freq: 7
rob stalling non-critical load ip: 2078590864 freq: 7
rob stalling non-critical load ip: 2078590916 freq: 13
rob stalling non-critical load ip: 2078590924 freq: 3
rob stalling non-critical load ip: 18446744069047601060 freq: 4
rob stalling non-critical load ip: 18446744069047601096 freq: 20
rob stalling non-critical load ip: 18446744069081192336 freq: 3
rob stalling non-critical load ip: 18446744069081192984 freq: 7
rob stalling non-critical load ip: 18446744069081193004 freq: 2
rob stalling non-critical load ip: 18446744069081193248 freq: 12
rob stalling non-critical load ip: 18446744069081193252 freq: 12
rob stalling non-critical load ip: 18446744069081193456 freq: 15
rob stalling non-critical load ip: 18446744071436263424 freq: 2
rob stalling non-critical load ip: 18446744071436263460 freq: 3
rob stalling non-critical load ip: 18446744071436287736 freq: 16
rob stalling non-critical load ip: 18446744071436287752 freq: 1
rob stalling non-critical load ip: 18446744071436290024 freq: 7
rob stalling non-critical load ip: 18446744071436290028 freq: 115
rob stalling non-critical load ip: 18446744071436290040 freq: 5
rob stalling non-critical load ip: 18446744071436290044 freq: 58
rob stalling non-critical load ip: 18446744071436290052 freq: 3
rob stalling non-critical load ip: 18446744071436290076 freq: 5
rob stalling non-critical load ip: 18446744071436290096 freq: 8
rob stalling non-critical load ip: 18446744071436290108 freq: 10
rob stalling non-critical load ip: 18446744071436301320 freq: 2
rob stalling non-critical load ip: 18446744071436301340 freq: 11
rob stalling non-critical load ip: 18446744071436301360 freq: 2
rob stalling non-critical load ip: 18446744071436303308 freq: 13
rob stalling non-critical load ip: 18446744071436303996 freq: 8
rob stalling non-critical load ip: 18446744071436306280 freq: 4
rob stalling non-critical load ip: 18446744071436306304 freq: 14
rob stalling non-critical load ip: 18446744071436306464 freq: 9
rob stalling non-critical load ip: 18446744071436321276 freq: 4
rob stalling non-critical load ip: 18446744071436322896 freq: 7
rob stalling non-critical load ip: 18446744071436323028 freq: 9
rob stalling non-critical load ip: 18446744071436327584 freq: 2
rob stalling non-critical load ip: 18446744071436327592 freq: 13
rob stalling non-critical load ip: 18446744071436327668 freq: 1
rob stalling non-critical load ip: 18446744071436329444 freq: 3
rob stalling non-critical load ip: 18446744071436336748 freq: 1
rob stalling non-critical load ip: 18446744071436337032 freq: 1
rob stalling non-critical load ip: 18446744071436337384 freq: 1
rob stalling non-critical load ip: 18446744071436337592 freq: 2
rob stalling non-critical load ip: 18446744071436337760 freq: 15
rob stalling non-critical load ip: 18446744071436337864 freq: 5
rob stalling non-critical load ip: 18446744071436337884 freq: 13
rob stalling non-critical load ip: 18446744071436337928 freq: 43
rob stalling non-critical load ip: 18446744071436338080 freq: 6
rob stalling non-critical load ip: 18446744071436338208 freq: 19
[...]
Non-critical_ROB_Stalls_Percent_1_Bucket_6: 10383
Critical_ROB_Stalls_Percent_2_Bucket_0: 157148
Non-critical_ROB_Stalls_Percent_2_Bucket_0: 101291
Critical_ROB_Stalls_Percent_2_Bucket_1: 10709
Non-critical_ROB_Stalls_Percent_2_Bucket_1: 13877
Critical_ROB_Stalls_Percent_2_Bucket_2: 5727
Non-critical_ROB_Stalls_Percent_2_Bucket_2: 11913
Critical_ROB_Stalls_Percent_2_Bucket_3: 5175
Non-critical_ROB_Stalls_Percent_2_Bucket_3: 10563
Critical_ROB_Stalls_Percent_2_Bucket_4: 20427
Non-critical_ROB_Stalls_Percent_2_Bucket_4: 5106
Critical_ROB_Stalls_Percent_2_Bucket_5: 19820
Non-critical_ROB_Stalls_Percent_2_Bucket_5: 4202
Critical_ROB_Stalls_Percent_2_Bucket_6: 4730
Non-critical_ROB_Stalls_Percent_2_Bucket_6: 7773
Critical_ROB_Stalls_Percent_3_Bucket_0: 162690
Non-critical_ROB_Stalls_Percent_3_Bucket_0: 95749
Critical_ROB_Stalls_Percent_3_Bucket_1: 12281
Non-critical_ROB_Stalls_Percent_3_Bucket_1: 12305
Critical_ROB_Stalls_Percent_3_Bucket_2: 10326
Non-critical_ROB_Stalls_Percent_3_Bucket_2: 7314
Critical_ROB_Stalls_Percent_3_Bucket_3: 8163
Non-critical_ROB_Stalls_Percent_3_Bucket_3: 7575
Critical_ROB_Stalls_Percent_3_Bucket_4: 21755
Non-critical_ROB_Stalls_Percent_3_Bucket_4: 3778
Critical_ROB_Stalls_Percent_3_Bucket_5: 19919
Non-critical_ROB_Stalls_Percent_3_Bucket_5: 4103
Critical_ROB_Stalls_Percent_3_Bucket_6: 6702
Non-critical_ROB_Stalls_Percent_3_Bucket_6: 5801
Critical_ROB_Stalls_Percent_4_Bucket_0: 172567
Non-critical_ROB_Stalls_Percent_4_Bucket_0: 85872
Critical_ROB_Stalls_Percent_4_Bucket_1: 13236
Non-critical_ROB_Stalls_Percent_4_Bucket_1: 11350
Critical_ROB_Stalls_Percent_4_Bucket_2: 11305
Non-critical_ROB_Stalls_Percent_4_Bucket_2: 6335
Critical_ROB_Stalls_Percent_4_Bucket_3: 10092
Non-critical_ROB_Stalls_Percent_4_Bucket_3: 5646
Critical_ROB_Stalls_Percent_4_Bucket_4: 22373
Non-critical_ROB_Stalls_Percent_4_Bucket_4: 3160
Critical_ROB_Stalls_Percent_4_Bucket_5: 21030
Non-critical_ROB_Stalls_Percent_4_Bucket_5: 2992
Critical_ROB_Stalls_Percent_4_Bucket_6: 8866
Non-critical_ROB_Stalls_Percent_4_Bucket_6: 3637
Critical_ROB_Stalls_Percent_5_Bucket_0: 186062
Non-critical_ROB_Stalls_Percent_5_Bucket_0: 72377
Critical_ROB_Stalls_Percent_5_Bucket_1: 14158
Non-critical_ROB_Stalls_Percent_5_Bucket_1: 10428
Critical_ROB_Stalls_Percent_5_Bucket_2: 12256
Non-critical_ROB_Stalls_Percent_5_Bucket_2: 5384
Critical_ROB_Stalls_Percent_5_Bucket_3: 11944
Non-critical_ROB_Stalls_Percent_5_Bucket_3: 3794
Critical_ROB_Stalls_Percent_5_Bucket_4: 22668
Non-critical_ROB_Stalls_Percent_5_Bucket_4: 2865
Critical_ROB_Stalls_Percent_5_Bucket_5: 21330
Non-critical_ROB_Stalls_Percent_5_Bucket_5: 2692
Critical_ROB_Stalls_Percent_5_Bucket_6: 8932
Non-critical_ROB_Stalls_Percent_5_Bucket_6: 3571
Critical_ROB_Stalls_Percent_6_Bucket_0: 197991
Non-critical_ROB_Stalls_Percent_6_Bucket_0: 60448
Critical_ROB_Stalls_Percent_6_Bucket_1: 16523
Non-critical_ROB_Stalls_Percent_6_Bucket_1: 8063
Critical_ROB_Stalls_Percent_6_Bucket_2: 13088
Non-critical_ROB_Stalls_Percent_6_Bucket_2: 4552
Critical_ROB_Stalls_Percent_6_Bucket_3: 12510
Non-critical_ROB_Stalls_Percent_6_Bucket_3: 3228
Critical_ROB_Stalls_Percent_6_Bucket_4: 23513
Non-critical_ROB_Stalls_Percent_6_Bucket_4: 2020
Critical_ROB_Stalls_Percent_6_Bucket_5: 22630
Non-critical_ROB_Stalls_Percent_6_Bucket_5: 1392
Critical_ROB_Stalls_Percent_6_Bucket_6: 9648
Non-critical_ROB_Stalls_Percent_6_Bucket_6: 2855
Critical_ROB_Stalls_Percent_7_Bucket_0: 211576
Non-critical_ROB_Stalls_Percent_7_Bucket_0: 46863
Critical_ROB_Stalls_Percent_7_Bucket_1: 17726
Non-critical_ROB_Stalls_Percent_7_Bucket_1: 6860
Critical_ROB_Stalls_Percent_7_Bucket_2: 14261
Non-critical_ROB_Stalls_Percent_7_Bucket_2: 3379
Critical_ROB_Stalls_Percent_7_Bucket_3: 13488
Non-critical_ROB_Stalls_Percent_7_Bucket_3: 2250
Critical_ROB_Stalls_Percent_7_Bucket_4: 24165
Non-critical_ROB_Stalls_Percent_7_Bucket_4: 1368
Critical_ROB_Stalls_Percent_7_Bucket_5: 22959
Non-critical_ROB_Stalls_Percent_7_Bucket_5: 1063
Critical_ROB_Stalls_Percent_7_Bucket_6: 10172
Non-critical_ROB_Stalls_Percent_7_Bucket_6: 2331
Critical_ROB_Stalls_Percent_8_Bucket_0: 224442
Non-critical_ROB_Stalls_Percent_8_Bucket_0: 33997
Critical_ROB_Stalls_Percent_8_Bucket_1: 19399
Non-critical_ROB_Stalls_Percent_8_Bucket_1: 5187
Critical_ROB_Stalls_Percent_8_Bucket_2: 15138
Non-critical_ROB_Stalls_Percent_8_Bucket_2: 2502
Critical_ROB_Stalls_Percent_8_Bucket_3: 14177
Non-critical_ROB_Stalls_Percent_8_Bucket_3: 1561
Critical_ROB_Stalls_Percent_8_Bucket_4: 24672
Non-critical_ROB_Stalls_Percent_8_Bucket_4: 861
Critical_ROB_Stalls_Percent_8_Bucket_5: 23456
Non-critical_ROB_Stalls_Percent_8_Bucket_5: 566
Critical_ROB_Stalls_Percent_8_Bucket_6: 11481
Non-critical_ROB_Stalls_Percent_8_Bucket_6: 1022
Average ROB occupancy Load Stall Begin: 65.0605
Average ROB occupancy Load Stall End: 74.1019
Min ROB occupancy Load Stall Begin: 1
Max ROB occupancy Load Stall Begin: 351
Min ROB occupancy Load Stall End: 1
Max ROB occupancy Load Stall End: 352
Average ROB occupancy Critical Load Stall Begin: -nan
Average ROB occupancy Critical Load Stall End: -nan
Min ROB occupancy Critical Load Stall Begin: 400
Max ROB occupancy Critical Load Stall Begin: 0
Min ROB occupancy Critical Load Stall End: 400
Max ROB occupancy Critical Load Stall End: 0
 ROB Load Stall Begin Bucket Count 0: 265132
 ROB Load Stall End Bucket Count 0: 258439
 ROB Critical Load Stall Begin Bucket Count 0: 0
 ROB Critical Load Stall End Bucket Count 0: 0
 ROB Load Stall Begin Bucket Count 1: 27512
 ROB Load Stall End Bucket Count 1: 24586
 ROB Critical Load Stall Begin Bucket Count 1: 0
 ROB Critical Load Stall End Bucket Count 1: 0
 ROB Load Stall Begin Bucket Count 2: 19441
 ROB Load Stall End Bucket Count 2: 17640
 ROB Critical Load Stall Begin Bucket Count 2: 0
 ROB Critical Load Stall End Bucket Count 2: 0
 ROB Load Stall Begin Bucket Count 3: 15367
 ROB Load Stall End Bucket Count 3: 15738
 ROB Critical Load Stall Begin Bucket Count 3: 0
 ROB Critical Load Stall End Bucket Count 3: 0
 ROB Load Stall Begin Bucket Count 4: 20070
 ROB Load Stall End Bucket Count 4: 25533
 ROB Critical Load Stall Begin Bucket Count 4: 0
 ROB Critical Load Stall End Bucket Count 4: 0
 ROB Load Stall Begin Bucket Count 5: 21985
 ROB Load Stall End Bucket Count 5: 24022
 ROB Critical Load Stall Begin Bucket Count 5: 0
 ROB Critical Load Stall End Bucket Count 5: 0
 ROB Load Stall Begin Bucket Count 6: 8954
 ROB Load Stall End Bucket Count 6: 12503
 ROB Critical Load Stall Begin Bucket Count 6: 0
 ROB Critical Load Stall End Bucket Count 6: 0
PIST Tag Read Accesses: 81280
PIST Read Accesses: 40640
PIST Tag Write Accesses: 81280
PIST Write Accesses: 40640
Criticality detector called times: 148820
Max global_stall_cycles_count: 242789
Threshold Modified: 1 times, factor: -1
Sturdy critical IP cache stats: 
 Unused entries: 0
CIC Tag Read Accesses: 0
CIC Read Accesses: 0
CIC Tag Write Accesses: 0
CIC Write Accesses: 0
Wobbly critical IP cache stats: 
 Unused entries: 118
CIC Tag Read Accesses: 32058851
CIC Read Accesses: 0
CIC Tag Write Accesses: 10
CIC Write Accesses: 0
ITLB TOTAL     ACCESS:    7180407  HIT:    6844330  MISS:     336077  HIT %:    95.3195  MISS %:    4.68047   MPKI: 6.72154
ITLB LOAD TRANSLATION ACCESS:    7180407  HIT:    6844330  MISS:     336077  HIT %:    95.3195  MISS %:    4.68047   MPKI: 6.72154
ITLB PREFETCH  REQUESTED:          0  ISSUED:          0  USEFUL:          0  USELESS:          0
ITLB USEFUL LOAD PREFETCHES:          0 PREFETCH ISSUED TO LOWER LEVEL:          0  ACCURACY: -nan
ITLB TIMELY PREFETCHES:          0 LATE PREFETCHES: 0 DROPPED PREFETCHES: 0
ITLB PREFETCHES SAME FILL-ORIGIN LEVEL: 0 DIFFERENT FILL-ORIGIN LEVEL: 0
ITLB AVERAGE MISS LATENCY: 41.6927 cycles
ITLB RQ	ACCESS:    9449352	FORWARD:          0	MERGED:    2165141	TO_CACHE:    7284211

DTLB TOTAL     ACCESS:    4373877  HIT:    2968535  MISS:    1405342  HIT %:    67.8696  MISS %:    32.1304   MPKI: 28.1068
DTLB LOAD TRANSLATION ACCESS:    4373877  HIT:    2968535  MISS:    1405342  HIT %:    67.8696  MISS %:    32.1304   MPKI: 28.1068
DTLB PREFETCH  REQUESTED:          0  ISSUED:          0  USEFUL:          0  USELESS:          0
DTLB USEFUL LOAD PREFETCHES:          0 PREFETCH ISSUED TO LOWER LEVEL:          0  ACCURACY: -nan
DTLB TIMELY PREFETCHES:          0 LATE PREFETCHES: 0 DROPPED PREFETCHES: 0
DTLB PREFETCHES SAME FILL-ORIGIN LEVEL: 0 DIFFERENT FILL-ORIGIN LEVEL: 0
DTLB AVERAGE MISS LATENCY: 34.627 cycles
DTLB RQ	ACCESS:    5427778	FORWARD:          0	MERGED:     923563	TO_CACHE:    4504215

STLB TOTAL     ACCESS:    1741419  HIT:     557751  MISS:    1183668  HIT %:    32.0285  MISS %:    67.9715   MPKI: 23.6734
STLB LOAD TRANSLATION ACCESS:    1741419  HIT:     557751  MISS:    1183668  HIT %:    32.0285  MISS %:    67.9715   MPKI: 23.6734
STLB PREFETCH  REQUESTED:          0  ISSUED:          0  USEFUL:          0  USELESS:          0
STLB USEFUL LOAD PREFETCHES:          0 PREFETCH ISSUED TO LOWER LEVEL:          0  ACCURACY: -nan
STLB TIMELY PREFETCHES:          0 LATE PREFETCHES: 0 DROPPED PREFETCHES: 0
STLB PREFETCHES SAME FILL-ORIGIN LEVEL: 0 DIFFERENT FILL-ORIGIN LEVEL: 0
STLB AVERAGE MISS LATENCY: 39.5703 cycles
STLB RQ	ACCESS:    1741419	FORWARD:          0	MERGED:          0	TO_CACHE:    1741419

STLB Hit, L1D data hit: 0
STLB Hit, L2C data hit: 0
STLB Hit, LLC data hit: 0
STLB Hit, LLC data miss: 0
STLB STLB hints to L2: 0
L1D TOTAL     ACCESS:    5286974  HIT:    4804642  MISS:     482332  HIT %:     90.877  MISS %:    9.12303   MPKI: 9.64664
L1D LOAD      ACCESS:    3502916  HIT:    3064452  MISS:     438464  HIT %:    87.4829  MISS %:    12.5171   MPKI: 8.76928
L1D RFO       ACCESS:    1784058  HIT:    1740190  MISS:      43868  HIT %:    97.5411  MISS %:    2.45889   MPKI: 0.87736
L1D PREFETCH  REQUESTED:          0  ISSUED:          0  USEFUL:          0  USELESS:          0
L1D USEFUL LOAD PREFETCHES:          0 PREFETCH ISSUED TO LOWER LEVEL:          0  ACCURACY: -nan
L1D TIMELY PREFETCHES:          0 LATE PREFETCHES: 0 DROPPED PREFETCHES: 0
L1D PREFETCHES SAME FILL-ORIGIN LEVEL: 0 DIFFERENT FILL-ORIGIN LEVEL: 0
L1D AVERAGE MISS LATENCY: 94.5037 cycles
L1D RQ	ACCESS:    5992815	FORWARD:          0	MERGED:    2434751	TO_CACHE:    3519593
L1D WQ	ACCESS:    2010349	FORWARD:      38471	MERGED:     102164	TO_CACHE:    1908185

L1D UNIQUE REGIONS ACCESSED: 0
L1D REGIONS CONFLICTS: 0
L1D Cross Page Prefetch Requests: 0
L1D Same Page Prefetch Requests: 0
L1D ROI Sum of L1D PQ occupancy: 0
L1D PREFETCHES PUSHED FROM L2C: 0
L1I TOTAL     ACCESS:    9303425  HIT:    8970134  MISS:     333291  HIT %:    96.4175  MISS %:    3.58245   MPKI: 6.66582
L1I LOAD      ACCESS:    9303425  HIT:    8970134  MISS:     333291  HIT %:    96.4175  MISS %:    3.58245   MPKI: 6.66582
L1I PREFETCH  REQUESTED:          0  ISSUED:          0  USEFUL:          0  USELESS:          0
L1I USEFUL LOAD PREFETCHES:          0 PREFETCH ISSUED TO LOWER LEVEL:          0  ACCURACY: -nan
L1I TIMELY PREFETCHES:          0 LATE PREFETCHES: 0 DROPPED PREFETCHES: 0
L1I PREFETCHES SAME FILL-ORIGIN LEVEL: 0 DIFFERENT FILL-ORIGIN LEVEL: 0
L1I AVERAGE MISS LATENCY: 35.8199 cycles
L1I RQ	ACCESS:   13793775	FORWARD:          0	MERGED:    4344423	TO_CACHE:    9449352

BTB BRANCH_DIRECT_JUMP	ACCESS:          0  HIT:          0  MISS:          0
BTB BRANCH_INDIRECT	ACCESS:          0  HIT:          0  MISS:          0
BTB BRANCH_CONDITIONAL	ACCESS:          0  HIT:          0  MISS:          0
BTB BRANCH_DIRECT_CALL	ACCESS:          0  HIT:          0  MISS:          0
BTB BRANCH_INDIRECT_CALL	ACCESS:          0  HIT:          0  MISS:          0
BTB BRANCH_RETURN	ACCESS:          0  HIT:          0  MISS:          0
BTB BRANCH_OTHER ACCESS:          0  HIT:          0  MISS:          0

L2C TOTAL     ACCESS:    2576329  HIT:    1907198  MISS:     669131  HIT %:    74.0277  MISS %:    25.9723   MPKI: 13.3826
L2C LOAD      ACCESS:     771751  HIT:     461079  MISS:     310672  HIT %:    59.7445  MISS %:    40.2555   MPKI: 6.21344
L2C DATA LOAD MPKI: 4.38444
L2C INSTRUCTION LOAD MPKI: 1.829
L2C RFO       ACCESS:      43867  HIT:      15095  MISS:      28772  HIT %:    34.4108  MISS %:    65.5892   MPKI: 0.57544
L2C PREFETCH  ACCESS:     304425  HIT:      55370  MISS:     249055  HIT %:    18.1884  MISS %:    81.8116   MPKI: 4.9811
L2C DATA PREFETCH MPKI: 4.9811
L2C INSTRUCTION PREFETCH MPKI: 0
L2C WRITEBACK ACCESS:     133758  HIT:     129116  MISS:       4642  HIT %:    96.5296  MISS %:    3.47045   MPKI: 0.09284
L2C LOAD TRANSLATION ACCESS:    1322528  HIT:    1246538  MISS:      75990  HIT %:    94.2542  MISS %:    5.74581   MPKI: 1.5198
L2C PREFETCH  REQUESTED:     320218  ISSUED:     320218  USEFUL:     136106  USELESS:     113373
L2C USEFUL LOAD PREFETCHES:     136106 PREFETCH ISSUED TO LOWER LEVEL:     254049  ACCURACY: 53.5747
L2C TIMELY PREFETCHES:     136106 LATE PREFETCHES: 4994 DROPPED PREFETCHES: 0
L2C PREFETCHES SAME FILL-ORIGIN LEVEL: 254049 DIFFERENT FILL-ORIGIN LEVEL: 0
L2C AVERAGE MISS LATENCY: 148.595 cycles
L2C RQ	ACCESS:    2138151	FORWARD:          0	MERGED:          0	TO_CACHE:    2138148
L2C WQ	ACCESS:     133758	FORWARD:          3	MERGED:          0	TO_CACHE:     133758
L2C PQ	ACCESS:     320218	FORWARD:          0	MERGED:          0	TO_CACHE:     320218

L2C Instructions Evicting Data 62933
L2C Translations Evicting Data 57984
L2C Data Evicting Data 378147
L2C Instructions Evicting Instructions 18868
L2C Translations Evicting Instructions 8998
L2C Data Evicting Instructions 61396
L2C Instructions Evicting Translations 9649
L2C Translations Evicting Translations 9008
L2C Data Evicting Translations 57506
L2C Dense regions hint from L2: 0
PSCL5 TOTAL     ACCESS:    1183668  HIT:    1183668  MISS:          0  HIT %:        100  MISS %:          0   MPKI: 0
PSCL5 LOAD TRANSLATION ACCESS:    1183668  HIT:    1183668  MISS:          0  HIT %:        100  MISS %:          0   MPKI: 0
PSCL5 PREFETCH  REQUESTED:          0  ISSUED:          0  USEFUL:          0  USELESS:          0
PSCL5 USEFUL LOAD PREFETCHES:          0 PREFETCH ISSUED TO LOWER LEVEL:          0  ACCURACY: -nan
PSCL5 TIMELY PREFETCHES:          0 LATE PREFETCHES: 0 DROPPED PREFETCHES: 0
PSCL5 PREFETCHES SAME FILL-ORIGIN LEVEL: 0 DIFFERENT FILL-ORIGIN LEVEL: 0

PSCL4 TOTAL     ACCESS:    1123082  HIT:    1122966  MISS:        116  HIT %:    99.9897  MISS %:  0.0103287   MPKI: 0.00232
PSCL4 LOAD TRANSLATION ACCESS:    1123082  HIT:    1122966  MISS:        116  HIT %:    99.9897  MISS %:  0.0103287   MPKI: 0.00232
PSCL4 PREFETCH  REQUESTED:          0  ISSUED:          0  USEFUL:          0  USELESS:          0
PSCL4 USEFUL LOAD PREFETCHES:          0 PREFETCH ISSUED TO LOWER LEVEL:          0  ACCURACY: -nan
PSCL4 TIMELY PREFETCHES:          0 LATE PREFETCHES: 0 DROPPED PREFETCHES: 0
PSCL4 PREFETCHES SAME FILL-ORIGIN LEVEL: 0 DIFFERENT FILL-ORIGIN LEVEL: 0

PSCL3 TOTAL     ACCESS:    1177293  HIT:    1174728  MISS:       2565  HIT %:    99.7821  MISS %:   0.217873   MPKI: 0.0513
PSCL3 LOAD TRANSLATION ACCESS:    1177293  HIT:    1174728  MISS:       2565  HIT %:    99.7821  MISS %:   0.217873   MPKI: 0.0513
PSCL3 PREFETCH  REQUESTED:          0  ISSUED:          0  USEFUL:          0  USELESS:          0
PSCL3 USEFUL LOAD PREFETCHES:          0 PREFETCH ISSUED TO LOWER LEVEL:          0  ACCURACY: -nan
PSCL3 TIMELY PREFETCHES:          0 LATE PREFETCHES: 0 DROPPED PREFETCHES: 0
PSCL3 PREFETCHES SAME FILL-ORIGIN LEVEL: 0 DIFFERENT FILL-ORIGIN LEVEL: 0

PSCL2 TOTAL     ACCESS:    1183668  HIT:    1047288  MISS:     136380  HIT %:    88.4782  MISS %:    11.5218   MPKI: 2.7276
PSCL2 LOAD TRANSLATION ACCESS:    1183668  HIT:    1047288  MISS:     136380  HIT %:    88.4782  MISS %:    11.5218   MPKI: 2.7276
PSCL2 PREFETCH  REQUESTED:          0  ISSUED:          0  USEFUL:          0  USELESS:          0
PSCL2 USEFUL LOAD PREFETCHES:          0 PREFETCH ISSUED TO LOWER LEVEL:          0  ACCURACY: -nan
PSCL2 TIMELY PREFETCHES:          0 LATE PREFETCHES: 0 DROPPED PREFETCHES: 0
PSCL2 PREFETCHES SAME FILL-ORIGIN LEVEL: 0 DIFFERENT FILL-ORIGIN LEVEL: 0

LLC TOTAL     ACCESS:     774102  HIT:     293166  MISS:     480936  HIT %:    37.8718  MISS %:    62.1282   MPKI: 9.61872
LLC LOAD      ACCESS:     305693  HIT:     108260  MISS:     197433  HIT %:    35.4146  MISS %:    64.5854   MPKI: 3.94866
LLC RFO       ACCESS:      28757  HIT:       8965  MISS:      19792  HIT %:     31.175  MISS %:     68.825   MPKI: 0.39584
LLC PREFETCH  ACCESS:     254049  HIT:      33197  MISS:     220852  HIT %:    13.0672  MISS %:    86.9328   MPKI: 4.41704
LLC WRITEBACK ACCESS:     109613  HIT:     105686  MISS:       3927  HIT %:    96.4174  MISS %:     3.5826   MPKI: 0.07854
LLC LOAD TRANSLATION ACCESS:      75990  HIT:      37058  MISS:      38932  HIT %:    48.7669  MISS %:    51.2331   MPKI: 0.77864
LLC PREFETCH  REQUESTED:          0  ISSUED:          0  USEFUL:       5248  USELESS:     211453
LLC USEFUL LOAD PREFETCHES:       5248 PREFETCH ISSUED TO LOWER LEVEL:     220852  ACCURACY: 2.37625
LLC TIMELY PREFETCHES:       5248 LATE PREFETCHES: 0 DROPPED PREFETCHES: 0
LLC PREFETCHES SAME FILL-ORIGIN LEVEL: 0 DIFFERENT FILL-ORIGIN LEVEL: 0
LLC AVERAGE MISS LATENCY: 165.876 cycles
LLC RQ	ACCESS:     410440	FORWARD:          0	MERGED:          0	TO_CACHE:     410440
LLC WQ	ACCESS:     109613	FORWARD:          0	MERGED:          0	TO_CACHE:     109613
LLC PQ	ACCESS:     254049	FORWARD:          0	MERGED:          0	TO_CACHE:     254049

LLC Dense regions hint to LLC: 0

RAW hits: 179580
Loads Generated: 6172396
Loads sent to L1D: 5992815
Stores Generated: 2010342
Stores sent to L1D: 2010349
Major fault: 0 Minor fault: 48897
Allocated PAGES: 48897
[Bingo] PHT Access: 209730
[Bingo] PHT Hit PC+Addr: 33485
[Bingo] PHT Hit PC+Offs: 114808
[Bingo] PHT Miss: 61437
[Bingo] Prefetch PC+Addr: 0
[Bingo] Prefetch PC+Offs: 0
[Bingo] Useful PC+Addr: 0
[Bingo] Useful PC+Offs: 0
[Bingo] Useless PC+Addr: 0
[Bingo] Useless PC+Offs: 0
[Bingo] L1 Prefetch per Region: 0
[Bingo] L2 Prefetch per Region: 3.19428
[Bingo] L3 Prefetch per Region: 0
[Bingo] No Prefetch per Region: 28.8057
[Bingo] Number of Voters Mean: 10.5639
[Bingo] Number of Voters SD: 12.5204
PHT read accesses: 2757625
PHT write accesses: 64419
AT read accesses: 245774
AT write accesses: 292833
FT read accesses: 197774
FT write accesses: 209730
PS read accesses: 302181
PS write accesses: 148293
PHT tag read accesses: 4797753
PHT tag write accesses: 97904
AT tag read accesses: 20682319
AT tag write accesses: 310184
FT tag read accesses: 22327705
FT tag write accesses: 342785
PS tag read accesses: 12777298
PS tag write accesses: 450192

DRAM Statistics
 CHANNEL 0
 RQ ROW_BUFFER_HIT:     132144  ROW_BUFFER_MISS:     344862
 DBUS_CONGESTED:        126
 WQ ROW_BUFFER_HIT:      18340  ROW_BUFFER_MISS:      78119  FULL:          0

 AVG_CONGESTED_CYCLE: 4
 All warmup complete: 2
Channel 0 Bank busy for read cycles: 0
Channel 0 Bank busy for write cycles: 0
Channel 0
Rank 0
0banks busy for read cycles: 49401399
0banks busy for write cycles: 47812
1banks busy for read cycles: 18318328
1banks busy for write cycles: 7514260
2banks busy for read cycles: 8266655
2banks busy for write cycles: 2324179
3banks busy for read cycles: 2720625
3banks busy for write cycles: 839682
4banks busy for read cycles: 745963
4banks busy for write cycles: 424854
5banks busy for read cycles: 331004
5banks busy for write cycles: 252547
6banks busy for read cycles: 241937
6banks busy for write cycles: 149758
7banks busy for read cycles: 284989
7banks busy for write cycles: 73337
8banks busy for read cycles: 907406
8banks busy for write cycles: 89085

CPU 0 Branch Prediction Accuracy: 98.6576% MPKI: 1.68378 Average ROB Occupancy at Mispredict: 47.9332
Branch types
NOT_BRANCH: 0 0%
BRANCH_DIRECT_JUMP: 0 0%
BRANCH_INDIRECT: 0 0%
BRANCH_CONDITIONAL: 0 0%
BRANCH_DIRECT_CALL: 0 0%
BRANCH_INDIRECT_CALL: 0 0%
BRANCH_RETURN: 0 0%
BRANCH_OTHER: 0 0%

DRAM PAGES: 1048576
Allocated PAGES: 48897
