
*** ChampSim Multicore Out-of-Order Simulator ***

Warmup Instructions: 50000000
Simulation Instructions: 50000000
Number of CPUs: 1
LLC sets: 2048
LLC ways: 16
Off-chip DRAM Size: 4096 MB Channels: 1 Width: 64-bit Data Rate: 6400 MT/s
CPU 0 runs ../cloudsuite_traces//cassandra_phase4_core2.trace.gz
.gz
NUM_OF_IPS_IN_CRITICAL_IP_TRAINING: 64
NUM_OF_CRITICAL_IP_TRAINING_TABLE_WAYS: 2
NUM_OF_CRITICAL_IP_TRAINING_TABLE_SETS: 32
WOBBLY_CRITICAL_IP_CACHE_SETS: 32
WOBBLY_CRITICAL_IP_CACHE_WAYS: 4
BTB has LRU replacement policy
ITLB has LRU replacement policy
DTLB has LRU replacement policy
STLB has LRU replacement policy
L1I has LRU replacement policy
L1D has LRU replacement policy
Bingo PHT WAYS: 16 and PHT_SIZE: 16384
Initialize SRRIP state for L2C
Initialize DRRIP state for LLC
UNIQUE_ASID[0] = €
UNIQUE_ASID[1] = 
Heartbeat CPU 0 instructions: 10000000 cycles: 2765766 heartbeat IPC: 3.61563 cumulative IPC: 3.61563 (Simulation time: 0 hr 3 min 43 sec) 
Heartbeat CPU 0 instructions: 20000003 cycles: 5558874 heartbeat IPC: 3.58024 cumulative IPC: 3.59785 (Simulation time: 0 hr 7 min 12 sec) 
Heartbeat CPU 0 instructions: 30000000 cycles: 8321666 heartbeat IPC: 3.61953 cumulative IPC: 3.60505 (Simulation time: 0 hr 10 min 30 sec) 
Heartbeat CPU 0 instructions: 40000000 cycles: 11081794 heartbeat IPC: 3.62302 cumulative IPC: 3.60952 (Simulation time: 0 hr 14 min 5 sec) 
Heartbeat CPU 0 instructions: 50000000 cycles: 13928224 heartbeat IPC: 3.51317 cumulative IPC: 3.58983 (Simulation time: 0 hr 17 min 25 sec) 

Warmup complete CPU 0 instructions: 50000002 cycles: 13928225 (Simulation time: 0 hr 17 min 25 sec) 

% increase in all ip prefetch 442.726
% increase in all ip prefetch 11.275
% increase in all ip prefetch 1.77859
Heartbeat CPU 0 instructions: 60000002 cycles: 31846763 heartbeat IPC: 0.558081 cumulative IPC: 0.558081 (Simulation time: 0 hr 21 min 34 sec) 
Heartbeat CPU 0 instructions: 70000000 cycles: 47886080 heartbeat IPC: 0.623468 cumulative IPC: 0.588965 (Simulation time: 0 hr 25 min 58 sec) 
Heartbeat CPU 0 instructions: 80000000 cycles: 63346761 heartbeat IPC: 0.646802 cumulative IPC: 0.60706 (Simulation time: 0 hr 30 min 3 sec) 
Heartbeat CPU 0 instructions: 90000001 cycles: 81683728 heartbeat IPC: 0.545346 cumulative IPC: 0.590358 (Simulation time: 0 hr 34 min 5 sec) 
Heartbeat CPU 0 instructions: 100000002 cycles: 98744970 heartbeat IPC: 0.586124 cumulative IPC: 0.589506 (Simulation time: 0 hr 37 min 6 sec) 
Finished CPU 0 instructions: 50000000 cycles: 84816745 cumulative IPC: 0.589506 (Simulation time: 0 hr 37 min 6 sec) 

ChampSim completed all CPUs

Region of Interest Statistics

CPU 0 cumulative IPC: 0.589506 instructions: 50000000 cycles: 84816745

CPU 0 Average Load ROB stall cycles: 4.4392e+06
CPU 0 Fraction of times ROB stalled by Loads: 8.23056
CPU 0 Percentage of Load stall cycles in Total stall cycles: 4.95388e+07
 Total stall cycles: 51540553
 Total load stall cycles: 25532587888010
CPU 0 NUM of IPS identified critical: 0
CPU 0 Num of Load IPs stalling ROB: 3237
Threshold modification factor: -2
Max PIST entries: 64
Min PIST entries: 0
Avg PIST entries: 28.38
Critical IP stalls, total frequency: 0
rob stalling non-critical load ip: 16783620 freq: 64
rob stalling non-critical load ip: 16783636 freq: 2
rob stalling non-critical load ip: 16783644 freq: 8
rob stalling non-critical load ip: 16783652 freq: 36
rob stalling non-critical load ip: 16783656 freq: 7
rob stalling non-critical load ip: 16783660 freq: 1165
rob stalling non-critical load ip: 16783672 freq: 229
rob stalling non-critical load ip: 16783676 freq: 2
rob stalling non-critical load ip: 16783680 freq: 29
rob stalling non-critical load ip: 16783684 freq: 6
rob stalling non-critical load ip: 16783692 freq: 192
rob stalling non-critical load ip: 16783696 freq: 1
rob stalling non-critical load ip: 16783700 freq: 915
rob stalling non-critical load ip: 16783876 freq: 80
rob stalling non-critical load ip: 16783892 freq: 20
rob stalling non-critical load ip: 16783908 freq: 11
rob stalling non-critical load ip: 16783916 freq: 144
rob stalling non-critical load ip: 16783928 freq: 147
rob stalling non-critical load ip: 16783936 freq: 48
rob stalling non-critical load ip: 16783940 freq: 19
rob stalling non-critical load ip: 16783948 freq: 159
rob stalling non-critical load ip: 16783956 freq: 119
rob stalling non-critical load ip: 16784128 freq: 69
rob stalling non-critical load ip: 16784136 freq: 28
rob stalling non-critical load ip: 16784144 freq: 3
rob stalling non-critical load ip: 16784152 freq: 84
rob stalling non-critical load ip: 16784160 freq: 9
rob stalling non-critical load ip: 16784168 freq: 51
rob stalling non-critical load ip: 16784172 freq: 1
rob stalling non-critical load ip: 16784176 freq: 9
rob stalling non-critical load ip: 16784184 freq: 12
rob stalling non-critical load ip: 16800260 freq: 37
rob stalling non-critical load ip: 16800268 freq: 48
rob stalling non-critical load ip: 16800292 freq: 1
rob stalling non-critical load ip: 16800316 freq: 6
rob stalling non-critical load ip: 16806692 freq: 11
rob stalling non-critical load ip: 16806724 freq: 6
rob stalling non-critical load ip: 16806728 freq: 1
rob stalling non-critical load ip: 16806732 freq: 4
rob stalling non-critical load ip: 16807120 freq: 168
rob stalling non-critical load ip: 16807124 freq: 10
rob stalling non-critical load ip: 16807128 freq: 3
rob stalling non-critical load ip: 16807136 freq: 13
rob stalling non-critical load ip: 16807188 freq: 1
rob stalling non-critical load ip: 16807200 freq: 8
rob stalling non-critical load ip: 16807208 freq: 3
rob stalling non-critical load ip: 16807228 freq: 12
rob stalling non-critical load ip: 16807244 freq: 3
rob stalling non-critical load ip: 16807256 freq: 3
rob stalling non-critical load ip: 16807264 freq: 2
rob stalling non-critical load ip: 16807268 freq: 20
rob stalling non-critical load ip: 16807344 freq: 27
rob stalling non-critical load ip: 16807392 freq: 175
rob stalling non-critical load ip: 16807956 freq: 1
rob stalling non-critical load ip: 16809376 freq: 1
rob stalling non-critical load ip: 16812528 freq: 6
rob stalling non-critical load ip: 16812716 freq: 524
rob stalling non-critical load ip: 16812908 freq: 146
rob stalling non-critical load ip: 16813176 freq: 7735
rob stalling non-critical load ip: 16813308 freq: 16708
rob stalling non-critical load ip: 16813444 freq: 18
rob stalling non-critical load ip: 16813448 freq: 262
rob stalling non-critical load ip: 16813472 freq: 3
rob stalling non-critical load ip: 16813580 freq: 6
rob stalling non-critical load ip: 16813612 freq: 7
rob stalling non-critical load ip: 16813680 freq: 89
rob stalling non-critical load ip: 16813696 freq: 2
rob stalling non-critical load ip: 16813704 freq: 29
rob stalling non-critical load ip: 16813744 freq: 6
rob stalling non-critical load ip: 16813760 freq: 31
rob stalling non-critical load ip: 16813800 freq: 4
rob stalling non-critical load ip: 16813840 freq: 3
rob stalling non-critical load ip: 16814100 freq: 102
rob stalling non-critical load ip: 16814132 freq: 8
rob stalling non-critical load ip: 16814148 freq: 5
rob stalling non-critical load ip: 16814200 freq: 65
rob stalling non-critical load ip: 16814216 freq: 8
rob stalling non-critical load ip: 16814224 freq: 2
rob stalling non-critical load ip: 16814264 freq: 4
rob stalling non-critical load ip: 16814280 freq: 39
rob stalling non-critical load ip: 16815252 freq: 58
rob stalling non-critical load ip: 16815308 freq: 1
rob stalling non-critical load ip: 16815372 freq: 22
rob stalling non-critical load ip: 16815392 freq: 8
rob stalling non-critical load ip: 16815412 freq: 18
rob stalling non-critical load ip: 16815436 freq: 5
rob stalling non-critical load ip: 16817700 freq: 1
rob stalling non-critical load ip: 16817820 freq: 6
rob stalling non-critical load ip: 16817836 freq: 7
rob stalling non-critical load ip: 16817884 freq: 2
rob stalling non-critical load ip: 16817900 freq: 22
rob stalling non-critical load ip: 16817940 freq: 3
rob stalling non-critical load ip: 16820708 freq: 7
rob stalling non-critical load ip: 16820772 freq: 4
rob stalling non-critical load ip: 16820836 freq: 3
rob stalling non-critical load ip: 16820956 freq: 2
rob stalling non-critical load ip: 16821296 freq: 8
rob stalling non-critical load ip: 16821452 freq: 4
rob stalling non-critical load ip: 16821464 freq: 4
rob stalling non-critical load ip: 16821840 freq: 3
rob stalling non-critical load ip: 16821912 freq: 3
rob stalling non-critical load ip: 16821980 freq: 5
rob stalling non-critical load ip: 16822004 freq: 2
rob stalling non-critical load ip: 16822020 freq: 4
rob stalling non-critical load ip: 16822116 freq: 1
rob stalling non-critical load ip: 16822276 freq: 6
rob stalling non-critical load ip: 16822788 freq: 3
rob stalling non-critical load ip: 16822888 freq: 7
rob stalling non-critical load ip: 16823128 freq: 5
rob stalling non-critical load ip: 16823852 freq: 2
rob stalling non-critical load ip: 16826292 freq: 54
rob stalling non-critical load ip: 16826296 freq: 95
rob stalling non-critical load ip: 16827788 freq: 2
rob stalling non-critical load ip: 16828860 freq: 8
rob stalling non-critical load ip: 16828932 freq: 40
rob stalling non-critical load ip: 16845328 freq: 7
rob stalling non-critical load ip: 16851080 freq: 11
rob stalling non-critical load ip: 16851160 freq: 45
rob stalling non-critical load ip: 16851208 freq: 9
rob stalling non-critical load ip: 16857412 freq: 1
rob stalling non-critical load ip: 16865708 freq: 8
rob stalling non-critical load ip: 16891612 freq: 55
rob stalling non-critical load ip: 16891620 freq: 30
rob stalling non-critical load ip: 16891628 freq: 25
rob stalling non-critical load ip: 16891636 freq: 17
rob stalling non-critical load ip: 16891648 freq: 1
rob stalling non-critical load ip: 16891944 freq: 9
rob stalling non-critical load ip: 16891964 freq: 2
rob stalling non-critical load ip: 16891976 freq: 8
rob stalling non-critical load ip: 16892028 freq: 3
rob stalling non-critical load ip: 16892172 freq: 2
rob stalling non-critical load ip: 16892324 freq: 5
rob stalling non-critical load ip: 16894836 freq: 2
rob stalling non-critical load ip: 16898936 freq: 6
rob stalling non-critical load ip: 16899252 freq: 4
rob stalling non-critical load ip: 16899320 freq: 1
rob stalling non-critical load ip: 16900600 freq: 7
rob stalling non-critical load ip: 16900740 freq: 1
rob stalling non-critical load ip: 16908452 freq: 1
rob stalling non-critical load ip: 16908636 freq: 17
rob stalling non-critical load ip: 16908808 freq: 2
rob stalling non-critical load ip: 16908916 freq: 4
rob stalling non-critical load ip: 16908944 freq: 8
rob stalling non-critical load ip: 16909136 freq: 5
rob stalling non-critical load ip: 16917076 freq: 1
rob stalling non-critical load ip: 16917116 freq: 35
rob stalling non-critical load ip: 16917124 freq: 33
rob stalling non-critical load ip: 16917760 freq: 28
rob stalling non-critical load ip: 16917772 freq: 8
rob stalling non-critical load ip: 16924716 freq: 8
rob stalling non-critical load ip: 16924760 freq: 1
rob stalling non-critical load ip: 16946620 freq: 3
rob stalling non-critical load ip: 16947740 freq: 2
rob stalling non-critical load ip: 16947784 freq: 2
rob stalling non-critical load ip: 16977308 freq: 1
rob stalling non-critical load ip: 16977404 freq: 2
rob stalling non-critical load ip: 16998920 freq: 3
rob stalling non-critical load ip: 17018104 freq: 1
rob stalling non-critical load ip: 17018128 freq: 1
rob stalling non-critical load ip: 17022708 freq: 85
rob stalling non-critical load ip: 17077560 freq: 3
rob stalling non-critical load ip: 17077620 freq: 5
rob stalling non-critical load ip: 17077668 freq: 1
rob stalling non-critical load ip: 17077684 freq: 3
rob stalling non-critical load ip: 17077688 freq: 8
rob stalling non-critical load ip: 17077816 freq: 3
rob stalling non-critical load ip: 17077844 freq: 2
rob stalling non-critical load ip: 17077896 freq: 1
rob stalling non-critical load ip: 17078012 freq: 7
rob stalling non-critical load ip: 17078088 freq: 14
rob stalling non-critical load ip: 17078100 freq: 32
rob stalling non-critical load ip: 17078104 freq: 9
rob stalling non-critical load ip: 17078144 freq: 4
rob stalling non-critical load ip: 17078184 freq: 1
rob stalling non-critical load ip: 17079552 freq: 5
rob stalling non-critical load ip: 17079744 freq: 2
rob stalling non-critical load ip: 17084036 freq: 6
rob stalling non-critical load ip: 17084128 freq: 9
rob stalling non-critical load ip: 17084192 freq: 17
rob stalling non-critical load ip: 17084300 freq: 12
rob stalling non-critical load ip: 17084332 freq: 17
rob stalling non-critical load ip: 17084340 freq: 2
rob stalling non-critical load ip: 17084388 freq: 166
rob stalling non-critical load ip: 17084544 freq: 169
rob stalling non-critical load ip: 17084592 freq: 2
rob stalling non-critical load ip: 17084652 freq: 59
rob stalling non-critical load ip: 17084656 freq: 78
rob stalling non-critical load ip: 17084752 freq: 4
rob stalling non-critical load ip: 17084780 freq: 17
rob stalling non-critical load ip: 17084836 freq: 1
rob stalling non-critical load ip: 17087348 freq: 4
rob stalling non-critical load ip: 17088144 freq: 1
rob stalling non-critical load ip: 17088228 freq: 5
rob stalling non-critical load ip: 17088796 freq: 9
rob stalling non-critical load ip: 17088808 freq: 7
rob stalling non-critical load ip: 17089552 freq: 1
rob stalling non-critical load ip: 17089576 freq: 1
rob stalling non-critical load ip: 17089608 freq: 133
rob stalling non-critical load ip: 17089628 freq: 2
rob stalling non-critical load ip: 17089656 freq: 4
rob stalling non-critical load ip: 17089680 freq: 7
rob stalling non-critical load ip: 17089724 freq: 2
rob stalling non-critical load ip: 17089780 freq: 7
rob stalling non-critical load ip: 17089784 freq: 27
rob stalling non-critical load ip: 17091780 freq: 1
rob stalling non-critical load ip: 17093388 freq: 69
rob stalling non-critical load ip: 17093408 freq: 1
rob stalling non-critical load ip: 17096804 freq: 1
rob stalling non-critical load ip: 17105460 freq: 4
rob stalling non-critical load ip: 17105536 freq: 1
rob stalling non-critical load ip: 17109060 freq: 10
rob stalling non-critical load ip: 17109080 freq: 7
rob stalling non-critical load ip: 17109088 freq: 1
rob stalling non-critical load ip: 17109104 freq: 4
rob stalling non-critical load ip: 17109144 freq: 68
rob stalling non-critical load ip: 17109192 freq: 3
rob stalling non-critical load ip: 17109496 freq: 7
rob stalling non-critical load ip: 17109512 freq: 2
rob stalling non-critical load ip: 17109548 freq: 34
rob stalling non-critical load ip: 17109616 freq: 8
rob stalling non-critical load ip: 17147696 freq: 18
rob stalling non-critical load ip: 17147700 freq: 2
rob stalling non-critical load ip: 17148832 freq: 19
rob stalling non-critical load ip: 17148868 freq: 3
rob stalling non-critical load ip: 17148904 freq: 1
rob stalling non-critical load ip: 17148972 freq: 21
rob stalling non-critical load ip: 17149208 freq: 2
rob stalling non-critical load ip: 17149340 freq: 3
rob stalling non-critical load ip: 17149344 freq: 1
rob stalling non-critical load ip: 17149400 freq: 9
rob stalling non-critical load ip: 17149516 freq: 4
rob stalling non-critical load ip: 17149600 freq: 8
rob stalling non-critical load ip: 17158540 freq: 3
rob stalling non-critical load ip: 17182576 freq: 4
rob stalling non-critical load ip: 17182648 freq: 2
rob stalling non-critical load ip: 17182796 freq: 11
rob stalling non-critical load ip: 17182832 freq: 112
rob stalling non-critical load ip: 17182836 freq: 146
rob stalling non-critical load ip: 17182876 freq: 2
rob stalling non-critical load ip: 17182912 freq: 116
rob stalling non-critical load ip: 17182972 freq: 18
rob stalling non-critical load ip: 17183108 freq: 4
rob stalling non-critical load ip: 17183140 freq: 3
rob stalling non-critical load ip: 17183188 freq: 1
rob stalling non-critical load ip: 17183244 freq: 16
rob stalling non-critical load ip: 17183248 freq: 33
rob stalling non-critical load ip: 17183380 freq: 9
rob stalling non-critical load ip: 17183436 freq: 17
rob stalling non-critical load ip: 17183520 freq: 4
rob stalling non-critical load ip: 17183560 freq: 7
rob stalling non-critical load ip: 17183688 freq: 4
rob stalling non-critical load ip: 17183812 freq: 15
rob stalling non-critical load ip: 17183960 freq: 34
rob stalling non-critical load ip: 17184072 freq: 12
rob stalling non-critical load ip: 17184084 freq: 13
rob stalling non-critical load ip: 17184100 freq: 3
rob stalling non-critical load ip: 17184328 freq: 1
rob stalling non-critical load ip: 17184588 freq: 2
rob stalling non-critical load ip: 17184740 freq: 11
rob stalling non-critical load ip: 17184900 freq: 6
rob stalling non-critical load ip: 17184924 freq: 5
rob stalling non-critical load ip: 17184968 freq: 2
rob stalling non-critical load ip: 17185060 freq: 3
rob stalling non-critical load ip: 17185064 freq: 1
rob stalling non-critical load ip: 17185072 freq: 4
rob stalling non-critical load ip: 17185140 freq: 5
rob stalling non-critical load ip: 17185168 freq: 2
rob stalling non-critical load ip: 17185196 freq: 11
rob stalling non-critical load ip: 17185284 freq: 1
rob stalling non-critical load ip: 17185456 freq: 11
rob stalling non-critical load ip: 17185632 freq: 20
rob stalling non-critical load ip: 17185704 freq: 5
rob stalling non-critical load ip: 17185764 freq: 6
rob stalling non-critical load ip: 17185832 freq: 2
rob stalling non-critical load ip: 17185984 freq: 1
rob stalling non-critical load ip: 17186044 freq: 1
rob stalling non-critical load ip: 17186048 freq: 2
rob stalling non-critical load ip: 17186116 freq: 4
rob stalling non-critical load ip: 17186656 freq: 3
rob stalling non-critical load ip: 17187196 freq: 6
rob stalling non-critical load ip: 17187276 freq: 7
rob stalling non-critical load ip: 17188224 freq: 12
rob stalling non-critical load ip: 17188228 freq: 3
rob stalling non-critical load ip: 17188244 freq: 1
rob stalling non-critical load ip: 17188264 freq: 4
rob stalling non-critical load ip: 17188292 freq: 15
rob stalling non-critical load ip: 17188316 freq: 7
rob stalling non-critical load ip: 17188436 freq: 24
rob stalling non-critical load ip: 17188440 freq: 8368
rob stalling non-critical load ip: 17188488 freq: 111
rob stalling non-critical load ip: 17188520 freq: 46
rob stalling non-critical load ip: 17188524 freq: 448
rob stalling non-critical load ip: 17188532 freq: 280
rob stalling non-critical load ip: 17188556 freq: 346
rob stalling non-critical load ip: 17188568 freq: 381
rob stalling non-critical load ip: 17188584 freq: 550
rob stalling non-critical load ip: 17188596 freq: 6
rob stalling non-critical load ip: 17188600 freq: 237
rob stalling non-critical load ip: 17188616 freq: 248
rob stalling non-critical load ip: 17188636 freq: 123
rob stalling non-critical load ip: 17188652 freq: 35
rob stalling non-critical load ip: 17188700 freq: 13
rob stalling non-critical load ip: 17188784 freq: 9047
rob stalling non-critical load ip: 17188788 freq: 1
rob stalling non-critical load ip: 17188792 freq: 311
rob stalling non-critical load ip: 17188808 freq: 14
rob stalling non-critical load ip: 17188904 freq: 5
rob stalling non-critical load ip: 17189432 freq: 2
rob stalling non-critical load ip: 17189448 freq: 5
rob stalling non-critical load ip: 17189520 freq: 7
rob stalling non-critical load ip: 17189632 freq: 4
rob stalling non-critical load ip: 17190268 freq: 5
rob stalling non-critical load ip: 17190288 freq: 11
rob stalling non-critical load ip: 17190300 freq: 3
rob stalling non-critical load ip: 17190420 freq: 6
rob stalling non-critical load ip: 17190504 freq: 4
rob stalling non-critical load ip: 17190516 freq: 17
rob stalling non-critical load ip: 17225204 freq: 110
rob stalling non-critical load ip: 17225220 freq: 3
rob stalling non-critical load ip: 17225500 freq: 2
rob stalling non-critical load ip: 17226796 freq: 8
rob stalling non-critical load ip: 17226948 freq: 53
rob stalling non-critical load ip: 17245100 freq: 57
rob stalling non-critical load ip: 17247668 freq: 4
rob stalling non-critical load ip: 17247840 freq: 1
rob stalling non-critical load ip: 17247896 freq: 2
rob stalling non-critical load ip: 17247988 freq: 3
rob stalling non-critical load ip: 17267924 freq: 3
rob stalling non-critical load ip: 17410380 freq: 2
rob stalling non-critical load ip: 17493144 freq: 1
rob stalling non-critical load ip: 17503864 freq: 61
rob stalling non-critical load ip: 17504256 freq: 5
rob stalling non-critical load ip: 17504760 freq: 76
rob stalling non-critical load ip: 17504764 freq: 3
rob stalling non-critical load ip: 17504800 freq: 4
rob stalling non-critical load ip: 17505268 freq: 7
rob stalling non-critical load ip: 17505284 freq: 1
rob stalling non-critical load ip: 17506076 freq: 6
rob stalling non-critical load ip: 17506100 freq: 1
rob stalling non-critical load ip: 17506112 freq: 12
rob stalling non-critical load ip: 17506128 freq: 1
rob stalling non-critical load ip: 17506176 freq: 1
rob stalling non-critical load ip: 17506192 freq: 2
rob stalling non-critical load ip: 17506380 freq: 12
rob stalling non-critical load ip: 17506412 freq: 5
rob stalling non-critical load ip: 17506584 freq: 12
rob stalling non-critical load ip: 17506760 freq: 6
rob stalling non-critical load ip: 17506844 freq: 3
rob stalling non-critical load ip: 17506884 freq: 12
rob stalling non-critical load ip: 17506964 freq: 4
rob stalling non-critical load ip: 17507044 freq: 51
rob stalling non-critical load ip: 17507048 freq: 3
rob stalling non-critical load ip: 17507160 freq: 23
rob stalling non-critical load ip: 17507196 freq: 1
rob stalling non-critical load ip: 17507336 freq: 5
rob stalling non-critical load ip: 17507396 freq: 4
rob stalling non-critical load ip: 17507428 freq: 12
rob stalling non-critical load ip: 17507476 freq: 25
rob stalling non-critical load ip: 17507492 freq: 4
rob stalling non-critical load ip: 17511888 freq: 87
rob stalling non-critical load ip: 17511980 freq: 88
rob stalling non-critical load ip: 17526292 freq: 1
rob stalling non-critical load ip: 17546088 freq: 301
rob stalling non-critical load ip: 17546104 freq: 3
rob stalling non-critical load ip: 17546908 freq: 4
rob stalling non-critical load ip: 17547352 freq: 19
rob stalling non-critical load ip: 17547776 freq: 1
rob stalling non-critical load ip: 17548040 freq: 19
rob stalling non-critical load ip: 17555508 freq: 7
rob stalling non-critical load ip: 17559680 freq: 2
rob stalling non-critical load ip: 17612428 freq: 4
rob stalling non-critical load ip: 17612436 freq: 3
rob stalling non-critical load ip: 17612468 freq: 1
rob stalling non-critical load ip: 17613904 freq: 2
rob stalling non-critical load ip: 17613912 freq: 3
rob stalling non-critical load ip: 17613924 freq: 1
rob stalling non-critical load ip: 17614016 freq: 1
rob stalling non-critical load ip: 17614160 freq: 4
rob stalling non-critical load ip: 17614256 freq: 2
rob stalling non-critical load ip: 17614300 freq: 8
rob stalling non-critical load ip: 17614460 freq: 7
rob stalling non-critical load ip: 17616612 freq: 1
rob stalling non-critical load ip: 17616908 freq: 1
rob stalling non-critical load ip: 17617012 freq: 2
rob stalling non-critical load ip: 17617064 freq: 2
rob stalling non-critical load ip: 17617580 freq: 6
rob stalling non-critical load ip: 17617684 freq: 4
rob stalling non-critical load ip: 17617788 freq: 3
rob stalling non-critical load ip: 17617800 freq: 1
rob stalling non-critical load ip: 17617868 freq: 2
rob stalling non-critical load ip: 17617944 freq: 1
rob stalling non-critical load ip: 17641524 freq: 3
rob stalling non-critical load ip: 17641540 freq: 8
rob stalling non-critical load ip: 17641616 freq: 1
rob stalling non-critical load ip: 17642272 freq: 2
rob stalling non-critical load ip: 17642428 freq: 3
rob stalling non-critical load ip: 17642640 freq: 3
rob stalling non-critical load ip: 17643356 freq: 1
rob stalling non-critical load ip: 17644128 freq: 8
rob stalling non-critical load ip: 17644276 freq: 90
rob stalling non-critical load ip: 17668288 freq: 6
rob stalling non-critical load ip: 17682628 freq: 4
rob stalling non-critical load ip: 17682804 freq: 7
rob stalling non-critical load ip: 17683040 freq: 3
rob stalling non-critical load ip: 17683092 freq: 2
rob stalling non-critical load ip: 17683132 freq: 2
rob stalling non-critical load ip: 17683228 freq: 11
rob stalling non-critical load ip: 17683248 freq: 2
rob stalling non-critical load ip: 17683252 freq: 2
rob stalling non-critical load ip: 17683312 freq: 1
rob stalling non-critical load ip: 17683456 freq: 6
rob stalling non-critical load ip: 17683888 freq: 1
rob stalling non-critical load ip: 17683908 freq: 5
rob stalling non-critical load ip: 17686100 freq: 4
rob stalling non-critical load ip: 17692512 freq: 9
rob stalling non-critical load ip: 17692592 freq: 5
rob stalling non-critical load ip: 17692596 freq: 4
rob stalling non-critical load ip: 17782316 freq: 17
rob stalling non-critical load ip: 17782380 freq: 12
rob stalling non-critical load ip: 17782428 freq: 2
rob stalling non-critical load ip: 17782476 freq: 7
rob stalling non-critical load ip: 17782536 freq: 9
rob stalling non-critical load ip: 17782600 freq: 6
rob stalling non-critical load ip: 17782928 freq: 1
rob stalling non-critical load ip: 17783272 freq: 22
rob stalling non-critical load ip: 17784996 freq: 19
rob stalling non-critical load ip: 17785020 freq: 3
rob stalling non-critical load ip: 17785056 freq: 20
rob stalling non-critical load ip: 17785084 freq: 4
rob stalling non-critical load ip: 17785124 freq: 1
rob stalling non-critical load ip: 17785140 freq: 3
rob stalling non-critical load ip: 17785228 freq: 15
rob stalling non-critical load ip: 17785400 freq: 10
rob stalling non-critical load ip: 17785412 freq: 5
rob stalling non-critical load ip: 17795512 freq: 2
rob stalling non-critical load ip: 17905356 freq: 6
rob stalling non-critical load ip: 17905412 freq: 4
rob stalling non-critical load ip: 17905436 freq: 18
rob stalling non-critical load ip: 17905520 freq: 6
rob stalling non-critical load ip: 17905544 freq: 17
rob stalling non-critical load ip: 17905596 freq: 5
rob stalling non-critical load ip: 17906156 freq: 4
rob stalling non-critical load ip: 17906336 freq: 15
rob stalling non-critical load ip: 17906400 freq: 6
rob stalling non-critical load ip: 17906620 freq: 7
rob stalling non-critical load ip: 17906644 freq: 1
rob stalling non-critical load ip: 17906844 freq: 39
rob stalling non-critical load ip: 17906980 freq: 1
rob stalling non-critical load ip: 17907064 freq: 55
rob stalling non-critical load ip: 17908272 freq: 53
rob stalling non-critical load ip: 17908368 freq: 2
rob stalling non-critical load ip: 17908968 freq: 4
rob stalling non-critical load ip: 17909132 freq: 2
rob stalling non-critical load ip: 17909160 freq: 11
rob stalling non-critical load ip: 17909936 freq: 1
rob stalling non-critical load ip: 17923724 freq: 1
rob stalling non-critical load ip: 18022900 freq: 5
rob stalling non-critical load ip: 18022940 freq: 6
rob stalling non-critical load ip: 18022944 freq: 2
rob stalling non-critical load ip: 18023308 freq: 2
rob stalling non-critical load ip: 18025240 freq: 5
rob stalling non-critical load ip: 18025248 freq: 3
rob stalling non-critical load ip: 18025296 freq: 6
rob stalling non-critical load ip: 18025320 freq: 1
rob stalling non-critical load ip: 18025340 freq: 3
rob stalling non-critical load ip: 18026668 freq: 7
rob stalling non-critical load ip: 18026960 freq: 1
rob stalling non-critical load ip: 18027120 freq: 7
rob stalling non-critical load ip: 18027156 freq: 19
rob stalling non-critical load ip: 18027236 freq: 1
rob stalling non-critical load ip: 18027488 freq: 2
rob stalling non-critical load ip: 18027924 freq: 7
rob stalling non-critical load ip: 18049648 freq: 3
rob stalling non-critical load ip: 18049664 freq: 30
rob stalling non-critical load ip: 18049920 freq: 40
rob stalling non-critical load ip: 18049936 freq: 4
rob stalling non-critical load ip: 18049996 freq: 12
rob stalling non-critical load ip: 18050036 freq: 5
rob stalling non-critical load ip: 18050048 freq: 4
rob stalling non-critical load ip: 18064428 freq: 10
rob stalling non-critical load ip: 18064760 freq: 1
rob stalling non-critical load ip: 18064772 freq: 1
rob stalling non-critical load ip: 18064780 freq: 2
rob stalling non-critical load ip: 18065108 freq: 25
rob stalling non-critical load ip: 18065564 freq: 56
rob stalling non-critical load ip: 18065676 freq: 5
rob stalling non-critical load ip: 18066592 freq: 4
rob stalling non-critical load ip: 18067804 freq: 7
rob stalling non-critical load ip: 18086804 freq: 25
rob stalling non-critical load ip: 18086864 freq: 3
rob stalling non-critical load ip: 18086944 freq: 3
rob stalling non-critical load ip: 18086956 freq: 1
rob stalling non-critical load ip: 18088656 freq: 7
rob stalling non-critical load ip: 18088676 freq: 5
rob stalling non-critical load ip: 18088696 freq: 1
rob stalling non-critical load ip: 18088772 freq: 3
rob stalling non-critical load ip: 18088804 freq: 4
rob stalling non-critical load ip: 18093444 freq: 1
rob stalling non-critical load ip: 18093652 freq: 7
rob stalling non-critical load ip: 18093688 freq: 12
rob stalling non-critical load ip: 18093732 freq: 2
rob stalling non-critical load ip: 18093804 freq: 1
rob stalling non-critical load ip: 18093836 freq: 2
rob stalling non-critical load ip: 18094548 freq: 6
rob stalling non-critical load ip: 18094604 freq: 2
rob stalling non-critical load ip: 18094624 freq: 1
rob stalling non-critical load ip: 18094696 freq: 8
rob stalling non-critical load ip: 18094720 freq: 2
rob stalling non-critical load ip: 18094752 freq: 2
rob stalling non-critical load ip: 18094840 freq: 2
rob stalling non-critical load ip: 18094872 freq: 3
rob stalling non-critical load ip: 18094892 freq: 1
rob stalling non-critical load ip: 18094924 freq: 14
rob stalling non-critical load ip: 18094956 freq: 8
rob stalling non-critical load ip: 18095052 freq: 1
rob stalling non-critical load ip: 18095240 freq: 4
rob stalling non-critical load ip: 18095324 freq: 1
rob stalling non-critical load ip: 18095464 freq: 13
rob stalling non-critical load ip: 18095468 freq: 2
rob stalling non-critical load ip: 18095488 freq: 12
rob stalling non-critical load ip: 18095552 freq: 1
rob stalling non-critical load ip: 18095572 freq: 18
rob stalling non-critical load ip: 18095580 freq: 7
rob stalling non-critical load ip: 18095592 freq: 33
rob stalling non-critical load ip: 18095596 freq: 50
rob stalling non-critical load ip: 18095628 freq: 11
rob stalling non-critical load ip: 18095664 freq: 2
rob stalling non-critical load ip: 18095688 freq: 1
rob stalling non-critical load ip: 18095724 freq: 5
rob stalling non-critical load ip: 18095748 freq: 3
rob stalling non-critical load ip: 18095816 freq: 28
rob stalling non-critical load ip: 18095824 freq: 26
rob stalling non-critical load ip: 18095836 freq: 6
rob stalling non-critical load ip: 18095840 freq: 24
rob stalling non-critical load ip: 18095928 freq: 14
rob stalling non-critical load ip: 18096056 freq: 3
rob stalling non-critical load ip: 18096076 freq: 1
rob stalling non-critical load ip: 18096088 freq: 5
rob stalling non-critical load ip: 18096824 freq: 2
rob stalling non-critical load ip: 18096840 freq: 2
rob stalling non-critical load ip: 18096872 freq: 11
rob stalling non-critical load ip: 18097092 freq: 6
rob stalling non-critical load ip: 18128468 freq: 27
rob stalling non-critical load ip: 18128484 freq: 3
rob stalling non-critical load ip: 18128540 freq: 21
rob stalling non-critical load ip: 18128640 freq: 2
rob stalling non-critical load ip: 18128744 freq: 3
rob stalling non-critical load ip: 18132140 freq: 4
rob stalling non-critical load ip: 18132720 freq: 121
rob stalling non-critical load ip: 18132760 freq: 74
rob stalling non-critical load ip: 18132804 freq: 9
rob stalling non-critical load ip: 18132832 freq: 25
rob stalling non-critical load ip: 18132872 freq: 7
rob stalling non-critical load ip: 18132896 freq: 10
rob stalling non-critical load ip: 18132908 freq: 38
rob stalling non-critical load ip: 18132980 freq: 29
rob stalling non-critical load ip: 18132996 freq: 89
rob stalling non-critical load ip: 18133012 freq: 3
rob stalling non-critical load ip: 18133028 freq: 7
rob stalling non-critical load ip: 18133080 freq: 255
rob stalling non-critical load ip: 18133112 freq: 26
rob stalling non-critical load ip: 18133116 freq: 4
rob stalling non-critical load ip: 18133368 freq: 165
rob stalling non-critical load ip: 18133388 freq: 65
rob stalling non-critical load ip: 18133392 freq: 38
rob stalling non-critical load ip: 18133404 freq: 12
rob stalling non-critical load ip: 18133408 freq: 46
rob stalling non-critical load ip: 18133528 freq: 14
rob stalling non-critical load ip: 18133592 freq: 98
rob stalling non-critical load ip: 18133608 freq: 35
rob stalling non-critical load ip: 18133656 freq: 2
rob stalling non-critical load ip: 18133724 freq: 4
rob stalling non-critical load ip: 18133736 freq: 2
rob stalling non-critical load ip: 18133864 freq: 3
rob stalling non-critical load ip: 18133936 freq: 13
rob stalling non-critical load ip: 18133940 freq: 7
rob stalling non-critical load ip: 18133964 freq: 16
rob stalling non-critical load ip: 18133996 freq: 11
rob stalling non-critical load ip: 18134000 freq: 7
rob stalling non-critical load ip: 18134012 freq: 2
rob stalling non-critical load ip: 18134084 freq: 57
rob stalling non-critical load ip: 18134192 freq: 74
rob stalling non-critical load ip: 18134264 freq: 1
rob stalling non-critical load ip: 18134276 freq: 6
rob stalling non-critical load ip: 18134316 freq: 5
rob stalling non-critical load ip: 18134344 freq: 5
rob stalling non-critical load ip: 18134356 freq: 11
rob stalling non-critical load ip: 18134420 freq: 7
rob stalling non-critical load ip: 18134436 freq: 5
rob stalling non-critical load ip: 18177816 freq: 1
rob stalling non-critical load ip: 18180252 freq: 11
rob stalling non-critical load ip: 18181084 freq: 9
rob stalling non-critical load ip: 18181104 freq: 38
rob stalling non-critical load ip: 18181332 freq: 31
rob stalling non-critical load ip: 18303200 freq: 3
rob stalling non-critical load ip: 18303272 freq: 2
rob stalling non-critical load ip: 18311956 freq: 8
rob stalling non-critical load ip: 18312064 freq: 1
rob stalling non-critical load ip: 18368560 freq: 2
rob stalling non-critical load ip: 18368604 freq: 1
rob stalling non-critical load ip: 18369828 freq: 1
rob stalling non-critical load ip: 18384892 freq: 1
rob stalling non-critical load ip: 18447916 freq: 2
rob stalling non-critical load ip: 18451620 freq: 1
rob stalling non-critical load ip: 18452952 freq: 1
rob stalling non-critical load ip: 18457504 freq: 28
rob stalling non-critical load ip: 18457520 freq: 10
rob stalling non-critical load ip: 18457564 freq: 1
rob stalling non-critical load ip: 18457572 freq: 19
rob stalling non-critical load ip: 18457588 freq: 7
rob stalling non-critical load ip: 18457592 freq: 18
rob stalling non-critical load ip: 18466760 freq: 8
rob stalling non-critical load ip: 18466768 freq: 45
rob stalling non-critical load ip: 18466784 freq: 9
rob stalling non-critical load ip: 18466824 freq: 15
rob stalling non-critical load ip: 18466852 freq: 6
rob stalling non-critical load ip: 18466888 freq: 4
rob stalling non-critical load ip: 18466952 freq: 3
rob stalling non-critical load ip: 18466988 freq: 1
rob stalling non-critical load ip: 18467160 freq: 9
rob stalling non-critical load ip: 18467280 freq: 1
rob stalling non-critical load ip: 18467388 freq: 1
rob stalling non-critical load ip: 18469328 freq: 3
rob stalling non-critical load ip: 18469756 freq: 13
rob stalling non-critical load ip: 18469772 freq: 1
rob stalling non-critical load ip: 18481788 freq: 8
rob stalling non-critical load ip: 18482232 freq: 7
rob stalling non-critical load ip: 18482236 freq: 7
rob stalling non-critical load ip: 18483004 freq: 3
rob stalling non-critical load ip: 18483084 freq: 3
rob stalling non-critical load ip: 18488312 freq: 3
rob stalling non-critical load ip: 18488568 freq: 2
rob stalling non-critical load ip: 18489604 freq: 4
rob stalling non-critical load ip: 18489728 freq: 2
rob stalling non-critical load ip: 18489756 freq: 1
rob stalling non-critical load ip: 18489772 freq: 1
rob stalling non-critical load ip: 18489896 freq: 2
rob stalling non-critical load ip: 18490392 freq: 3
rob stalling non-critical load ip: 18490420 freq: 1
rob stalling non-critical load ip: 18490424 freq: 3
rob stalling non-critical load ip: 18510112 freq: 5
rob stalling non-critical load ip: 18510948 freq: 3
rob stalling non-critical load ip: 18510952 freq: 2
rob stalling non-critical load ip: 18510968 freq: 1
rob stalling non-critical load ip: 18511136 freq: 1
rob stalling non-critical load ip: 18514352 freq: 2
rob stalling non-critical load ip: 18550640 freq: 3
rob stalling non-critical load ip: 18550920 freq: 1
rob stalling non-critical load ip: 18551932 freq: 1
rob stalling non-critical load ip: 18552128 freq: 1
rob stalling non-critical load ip: 18552272 freq: 4
rob stalling non-critical load ip: 18552516 freq: 2
rob stalling non-critical load ip: 18553752 freq: 1
rob stalling non-critical load ip: 18554056 freq: 3
rob stalling non-critical load ip: 18554200 freq: 2
rob stalling non-critical load ip: 18572720 freq: 1
rob stalling non-critical load ip: 18573372 freq: 2
rob stalling non-critical load ip: 18604280 freq: 2
rob stalling non-critical load ip: 18604340 freq: 1
rob stalling non-critical load ip: 18604344 freq: 10
rob stalling non-critical load ip: 18604480 freq: 1
rob stalling non-critical load ip: 18625668 freq: 5
rob stalling non-critical load ip: 18631072 freq: 2
rob stalling non-critical load ip: 18631116 freq: 4
rob stalling non-critical load ip: 18634180 freq: 3
rob stalling non-critical load ip: 18634892 freq: 4
rob stalling non-critical load ip: 18757300 freq: 1
rob stalling non-critical load ip: 18757520 freq: 6
rob stalling non-critical load ip: 18757540 freq: 5
rob stalling non-critical load ip: 18757776 freq: 4
rob stalling non-critical load ip: 18759664 freq: 5
rob stalling non-critical load ip: 18776508 freq: 1
rob stalling non-critical load ip: 18776552 freq: 1
rob stalling non-critical load ip: 18783856 freq: 20
rob stalling non-critical load ip: 18783924 freq: 2
rob stalling non-critical load ip: 18783940 freq: 36
rob stalling non-critical load ip: 18783960 freq: 9
rob stalling non-critical load ip: 18828812 freq: 1
rob stalling non-critical load ip: 18847852 freq: 2
rob stalling non-critical load ip: 18847948 freq: 6
rob stalling non-critical load ip: 18848072 freq: 8
rob stalling non-critical load ip: 18848136 freq: 1
rob stalling non-critical load ip: 18848276 freq: 3
rob stalling non-critical load ip: 18848280 freq: 3
rob stalling non-critical load ip: 18848448 freq: 3
rob stalling non-critical load ip: 18848564 freq: 3
rob stalling non-critical load ip: 18850924 freq: 2
rob stalling non-critical load ip: 18851080 freq: 3
rob stalling non-critical load ip: 18851432 freq: 3
rob stalling non-critical load ip: 18853212 freq: 4
rob stalling non-critical load ip: 18867460 freq: 2
rob stalling non-critical load ip: 18877804 freq: 1
rob stalling non-critical load ip: 18878096 freq: 2
rob stalling non-critical load ip: 18878120 freq: 1
rob stalling non-critical load ip: 18879816 freq: 1
rob stalling non-critical load ip: 18880020 freq: 3
rob stalling non-critical load ip: 18881780 freq: 1
rob stalling non-critical load ip: 18883232 freq: 2
rob stalling non-critical load ip: 18945680 freq: 3
rob stalling non-critical load ip: 18946188 freq: 6
rob stalling non-critical load ip: 18947388 freq: 5
rob stalling non-critical load ip: 18947596 freq: 5
rob stalling non-critical load ip: 18951656 freq: 2
rob stalling non-critical load ip: 18951744 freq: 2
rob stalling non-critical load ip: 18951880 freq: 4
rob stalling non-critical load ip: 18951952 freq: 3
rob stalling non-critical load ip: 18952028 freq: 8
rob stalling non-critical load ip: 18954108 freq: 8
rob stalling non-critical load ip: 18955848 freq: 8
rob stalling non-critical load ip: 18955884 freq: 1
rob stalling non-critical load ip: 18955980 freq: 10
rob stalling non-critical load ip: 18956492 freq: 5
rob stalling non-critical load ip: 18956604 freq: 3
rob stalling non-critical load ip: 18956724 freq: 8
rob stalling non-critical load ip: 18956760 freq: 3
rob stalling non-critical load ip: 18956808 freq: 5
rob stalling non-critical load ip: 18956864 freq: 2
rob stalling non-critical load ip: 18956884 freq: 3
rob stalling non-critical load ip: 18956900 freq: 4
rob stalling non-critical load ip: 18957516 freq: 6
rob stalling non-critical load ip: 18957576 freq: 3
rob stalling non-critical load ip: 18958052 freq: 79
rob stalling non-critical load ip: 18958080 freq: 3
rob stalling non-critical load ip: 18958128 freq: 1
rob stalling non-critical load ip: 18958144 freq: 2
rob stalling non-critical load ip: 18958172 freq: 1
rob stalling non-critical load ip: 18958188 freq: 2
rob stalling non-critical load ip: 18958204 freq: 3
rob stalling non-critical load ip: 18958220 freq: 6
rob stalling non-critical load ip: 18960512 freq: 8
rob stalling non-critical load ip: 18960584 freq: 6
rob stalling non-critical load ip: 18960616 freq: 9
rob stalling non-critical load ip: 18960700 freq: 9
rob stalling non-critical load ip: 18960748 freq: 1
rob stalling non-critical load ip: 18960780 freq: 2
rob stalling non-critical load ip: 18960812 freq: 3
rob stalling non-critical load ip: 18960908 freq: 5
rob stalling non-critical load ip: 18960972 freq: 2
rob stalling non-critical load ip: 18970396 freq: 8
rob stalling non-critical load ip: 18980028 freq: 100
rob stalling non-critical load ip: 19454556 freq: 9
rob stalling non-critical load ip: 19454624 freq: 2
rob stalling non-critical load ip: 19489264 freq: 1
rob stalling non-critical load ip: 19489332 freq: 2
rob stalling non-critical load ip: 19489544 freq: 2
rob stalling non-critical load ip: 19489580 freq: 2
rob stalling non-critical load ip: 19489780 freq: 4
rob stalling non-critical load ip: 19489804 freq: 8
rob stalling non-critical load ip: 19489840 freq: 4
rob stalling non-critical load ip: 19489948 freq: 3
rob stalling non-critical load ip: 19492860 freq: 1
rob stalling non-critical load ip: 19492892 freq: 4
rob stalling non-critical load ip: 19493148 freq: 40
rob stalling non-critical load ip: 19493164 freq: 5
rob stalling non-critical load ip: 19493176 freq: 116
rob stalling non-critical load ip: 19493328 freq: 2
rob stalling non-critical load ip: 19493372 freq: 4
rob stalling non-critical load ip: 19493400 freq: 4
rob stalling non-critical load ip: 19493820 freq: 9
rob stalling non-critical load ip: 19493832 freq: 5
rob stalling non-critical load ip: 19493916 freq: 11
rob stalling non-critical load ip: 19493932 freq: 12
rob stalling non-critical load ip: 19493940 freq: 2
rob stalling non-critical load ip: 19493956 freq: 6
rob stalling non-critical load ip: 19493960 freq: 6
rob stalling non-critical load ip: 19494032 freq: 38
rob stalling non-critical load ip: 19494040 freq: 37
rob stalling non-critical load ip: 19494052 freq: 32
rob stalling non-critical load ip: 19494060 freq: 20
rob stalling non-critical load ip: 19494068 freq: 20
rob stalling non-critical load ip: 19494076 freq: 1412
rob stalling non-critical load ip: 19494084 freq: 24
rob stalling non-critical load ip: 19494096 freq: 32
rob stalling non-critical load ip: 19494104 freq: 4488
rob stalling non-critical load ip: 19494112 freq: 46
rob stalling non-critical load ip: 19494292 freq: 36
rob stalling non-critical load ip: 19494412 freq: 4
rob stalling non-critical load ip: 19494452 freq: 1
rob stalling non-critical load ip: 19495484 freq: 98
rob stalling non-critical load ip: 19495680 freq: 3
rob stalling non-critical load ip: 19495700 freq: 7
rob stalling non-critical load ip: 19495740 freq: 8
rob stalling non-critical load ip: 19495816 freq: 37
rob stalling non-critical load ip: 19496020 freq: 116
rob stalling non-critical load ip: 19496036 freq: 87
rob stalling non-critical load ip: 19496052 freq: 97
rob stalling non-critical load ip: 19496064 freq: 63
rob stalling non-critical load ip: 19496092 freq: 1
rob stalling non-critical load ip: 19499416 freq: 4
rob stalling non-critical load ip: 19499480 freq: 2
rob stalling non-critical load ip: 19499512 freq: 1
rob stalling non-critical load ip: 19499632 freq: 1
rob stalling non-critical load ip: 19500756 freq: 4
rob stalling non-critical load ip: 19500968 freq: 5
rob stalling non-critical load ip: 19501420 freq: 3
rob stalling non-critical load ip: 19502280 freq: 4
rob stalling non-critical load ip: 19688432 freq: 5
rob stalling non-critical load ip: 19689420 freq: 5
rob stalling non-critical load ip: 19689424 freq: 1
rob stalling non-critical load ip: 19689456 freq: 10
rob stalling non-critical load ip: 19689484 freq: 1
rob stalling non-critical load ip: 19689532 freq: 6
rob stalling non-critical load ip: 19689536 freq: 2
rob stalling non-critical load ip: 19689548 freq: 5
rob stalling non-critical load ip: 19690004 freq: 1
rob stalling non-critical load ip: 19691428 freq: 1
rob stalling non-critical load ip: 19692680 freq: 5
rob stalling non-critical load ip: 19692692 freq: 20
rob stalling non-critical load ip: 19692736 freq: 2
rob stalling non-critical load ip: 19692820 freq: 5
rob stalling non-critical load ip: 19695740 freq: 6
rob stalling non-critical load ip: 19695780 freq: 4
rob stalling non-critical load ip: 19695796 freq: 6
rob stalling non-critical load ip: 19695944 freq: 2
rob stalling non-critical load ip: 19696032 freq: 3
rob stalling non-critical load ip: 19696424 freq: 3
rob stalling non-critical load ip: 19698128 freq: 5
rob stalling non-critical load ip: 19698228 freq: 6
rob stalling non-critical load ip: 19699940 freq: 1
rob stalling non-critical load ip: 19699968 freq: 2
rob stalling non-critical load ip: 19699980 freq: 1
rob stalling non-critical load ip: 19701420 freq: 5
rob stalling non-critical load ip: 19701440 freq: 4
rob stalling non-critical load ip: 19701452 freq: 2
rob stalling non-critical load ip: 19702672 freq: 2
rob stalling non-critical load ip: 19702724 freq: 2
rob stalling non-critical load ip: 19702808 freq: 2
rob stalling non-critical load ip: 19702988 freq: 1
rob stalling non-critical load ip: 19706616 freq: 3
rob stalling non-critical load ip: 19707028 freq: 6
rob stalling non-critical load ip: 19707268 freq: 6
rob stalling non-critical load ip: 19707756 freq: 5
rob stalling non-critical load ip: 19707776 freq: 1
rob stalling non-critical load ip: 19707808 freq: 2
rob stalling non-critical load ip: 19708324 freq: 2
rob stalling non-critical load ip: 19711940 freq: 5
rob stalling non-critical load ip: 19711944 freq: 1
rob stalling non-critical load ip: 19723200 freq: 4
rob stalling non-critical load ip: 19723236 freq: 248
rob stalling non-critical load ip: 19723248 freq: 5
rob stalling non-critical load ip: 19723284 freq: 10
rob stalling non-critical load ip: 19723312 freq: 11
rob stalling non-critical load ip: 19723320 freq: 93
rob stalling non-critical load ip: 19723336 freq: 130
rob stalling non-critical load ip: 19723352 freq: 14
rob stalling non-critical load ip: 19723368 freq: 15
rob stalling non-critical load ip: 19723384 freq: 10
rob stalling non-critical load ip: 19723408 freq: 1
rob stalling non-critical load ip: 19723524 freq: 1
rob stalling non-critical load ip: 19724432 freq: 15
rob stalling non-critical load ip: 19724576 freq: 12
rob stalling non-critical load ip: 19724872 freq: 3
rob stalling non-critical load ip: 19725040 freq: 1
rob stalling non-critical load ip: 19725616 freq: 27
rob stalling non-critical load ip: 19725644 freq: 2
rob stalling non-critical load ip: 19725660 freq: 15
rob stalling non-critical load ip: 19725688 freq: 6
rob stalling non-critical load ip: 19725704 freq: 12
rob stalling non-critical load ip: 19725720 freq: 12
rob stalling non-critical load ip: 19725844 freq: 1
rob stalling non-critical load ip: 19725876 freq: 3
rob stalling non-critical load ip: 19725924 freq: 2
rob stalling non-critical load ip: 19730884 freq: 2
rob stalling non-critical load ip: 19731752 freq: 18
rob stalling non-critical load ip: 19732288 freq: 6
rob stalling non-critical load ip: 19732304 freq: 4
rob stalling non-critical load ip: 19732456 freq: 1
rob stalling non-critical load ip: 19732912 freq: 11
rob stalling non-critical load ip: 19732940 freq: 15
rob stalling non-critical load ip: 19732968 freq: 8
rob stalling non-critical load ip: 19733500 freq: 9
rob stalling non-critical load ip: 19745436 freq: 3
rob stalling non-critical load ip: 19745684 freq: 3
rob stalling non-critical load ip: 19745688 freq: 3
rob stalling non-critical load ip: 19746060 freq: 2
rob stalling non-critical load ip: 19746212 freq: 4
rob stalling non-critical load ip: 19746244 freq: 20
rob stalling non-critical load ip: 19746296 freq: 9
rob stalling non-critical load ip: 19746308 freq: 12
rob stalling non-critical load ip: 19748964 freq: 21
rob stalling non-critical load ip: 19749112 freq: 9
rob stalling non-critical load ip: 19752708 freq: 6
rob stalling non-critical load ip: 19752844 freq: 4
rob stalling non-critical load ip: 19752860 freq: 11
rob stalling non-critical load ip: 19752864 freq: 1
rob stalling non-critical load ip: 19752872 freq: 4
rob stalling non-critical load ip: 19752876 freq: 1
rob stalling non-critical load ip: 19791796 freq: 12
rob stalling non-critical load ip: 19791900 freq: 3
rob stalling non-critical load ip: 19795528 freq: 51
rob stalling non-critical load ip: 19795540 freq: 6
rob stalling non-critical load ip: 19795568 freq: 1
rob stalling non-critical load ip: 19795660 freq: 4
rob stalling non-critical load ip: 19837204 freq: 2
rob stalling non-critical load ip: 19850568 freq: 8
rob stalling non-critical load ip: 19850992 freq: 5
rob stalling non-critical load ip: 19851160 freq: 14
rob stalling non-critical load ip: 19851292 freq: 10
rob stalling non-critical load ip: 19851312 freq: 1
rob stalling non-critical load ip: 19851632 freq: 1
rob stalling non-critical load ip: 19852596 freq: 1
rob stalling non-critical load ip: 19867220 freq: 1
rob stalling non-critical load ip: 19867252 freq: 55898
rob stalling non-critical load ip: 19932180 freq: 9
rob stalling non-critical load ip: 19957256 freq: 3
rob stalling non-critical load ip: 19957964 freq: 34
rob stalling non-critical load ip: 19961896 freq: 3
rob stalling non-critical load ip: 19961904 freq: 3
rob stalling non-critical load ip: 19975316 freq: 3
rob stalling non-critical load ip: 19976772 freq: 4
rob stalling non-critical load ip: 20024224 freq: 13
rob stalling non-critical load ip: 20024236 freq: 5
rob stalling non-critical load ip: 20031748 freq: 1
rob stalling non-critical load ip: 20031768 freq: 2
rob stalling non-critical load ip: 20032960 freq: 1
rob stalling non-critical load ip: 20047492 freq: 52
rob stalling non-critical load ip: 20047980 freq: 2
rob stalling non-critical load ip: 20048080 freq: 151
rob stalling non-critical load ip: 20048096 freq: 6
rob stalling non-critical load ip: 20048140 freq: 3
rob stalling non-critical load ip: 20048244 freq: 6
rob stalling non-critical load ip: 20048260 freq: 5
rob stalling non-critical load ip: 20048380 freq: 9
rob stalling non-critical load ip: 20048388 freq: 2
rob stalling non-critical load ip: 20048408 freq: 3
rob stalling non-critical load ip: 20048660 freq: 12
rob stalling non-critical load ip: 20048684 freq: 19
rob stalling non-critical load ip: 20050724 freq: 3
rob stalling non-critical load ip: 20050828 freq: 3
rob stalling non-critical load ip: 20051180 freq: 3
rob stalling non-critical load ip: 20052520 freq: 5
rob stalling non-critical load ip: 20052640 freq: 2
rob stalling non-critical load ip: 20052892 freq: 11
rob stalling non-critical load ip: 20052924 freq: 13
rob stalling non-critical load ip: 20053048 freq: 1
rob stalling non-critical load ip: 20053068 freq: 9
rob stalling non-critical load ip: 20053164 freq: 25
rob stalling non-critical load ip: 20053192 freq: 3
rob stalling non-critical load ip: 20054744 freq: 20
rob stalling non-critical load ip: 20060056 freq: 5
rob stalling non-critical load ip: 20060072 freq: 2
rob stalling non-critical load ip: 20060168 freq: 3
rob stalling non-critical load ip: 20060604 freq: 5
rob stalling non-critical load ip: 20061160 freq: 5
rob stalling non-critical load ip: 20061440 freq: 8
rob stalling non-critical load ip: 20061492 freq: 24
rob stalling non-critical load ip: 20061560 freq: 12
rob stalling non-critical load ip: 20061676 freq: 4
rob stalling non-critical load ip: 20061856 freq: 6
rob stalling non-critical load ip: 20062008 freq: 7
rob stalling non-critical load ip: 20062272 freq: 8
rob stalling non-critical load ip: 20062784 freq: 30
rob stalling non-critical load ip: 20062836 freq: 8
rob stalling non-critical load ip: 20062904 freq: 27
rob stalling non-critical load ip: 20063036 freq: 1
rob stalling non-critical load ip: 20063904 freq: 2
rob stalling non-critical load ip: 20064076 freq: 2
rob stalling non-critical load ip: 20064080 freq: 5
rob stalling non-critical load ip: 20064396 freq: 3
rob stalling non-critical load ip: 20064480 freq: 5
rob stalling non-critical load ip: 20079444 freq: 2
rob stalling non-critical load ip: 20079460 freq: 4
rob stalling non-critical load ip: 20079476 freq: 3
rob stalling non-critical load ip: 20083212 freq: 6
rob stalling non-critical load ip: 20083440 freq: 6
rob stalling non-critical load ip: 20083492 freq: 1
rob stalling non-critical load ip: 20084520 freq: 2
rob stalling non-critical load ip: 20084544 freq: 11
rob stalling non-critical load ip: 20084628 freq: 7
rob stalling non-critical load ip: 20084644 freq: 6
rob stalling non-critical load ip: 20084744 freq: 10
rob stalling non-critical load ip: 20087336 freq: 7
rob stalling non-critical load ip: 20096056 freq: 5
rob stalling non-critical load ip: 20096104 freq: 5
rob stalling non-critical load ip: 20096284 freq: 7
rob stalling non-critical load ip: 20096324 freq: 2
rob stalling non-critical load ip: 20096364 freq: 3
rob stalling non-critical load ip: 20096608 freq: 6
rob stalling non-critical load ip: 20096612 freq: 4
rob stalling non-critical load ip: 20096732 freq: 4
rob stalling non-critical load ip: 20096772 freq: 9
rob stalling non-critical load ip: 20097336 freq: 4
rob stalling non-critical load ip: 20097340 freq: 20
rob stalling non-critical load ip: 20097868 freq: 8
rob stalling non-critical load ip: 20097876 freq: 5
rob stalling non-critical load ip: 20155144 freq: 4
rob stalling non-critical load ip: 20155176 freq: 18
rob stalling non-critical load ip: 20155452 freq: 3
rob stalling non-critical load ip: 20165604 freq: 4
rob stalling non-critical load ip: 20168600 freq: 10
rob stalling non-critical load ip: 20168796 freq: 1
rob stalling non-critical load ip: 20168800 freq: 2
rob stalling non-critical load ip: 20169008 freq: 2
rob stalling non-critical load ip: 20169080 freq: 7
rob stalling non-critical load ip: 20169220 freq: 4
rob stalling non-critical load ip: 20170580 freq: 23
rob stalling non-critical load ip: 20170616 freq: 25
rob stalling non-critical load ip: 20170792 freq: 1
rob stalling non-critical load ip: 20170968 freq: 6
rob stalling non-critical load ip: 20171036 freq: 7
rob stalling non-critical load ip: 20171040 freq: 1
rob stalling non-critical load ip: 20171188 freq: 1
rob stalling non-critical load ip: 20174004 freq: 5
rob stalling non-critical load ip: 20174020 freq: 6
rob stalling non-critical load ip: 20174084 freq: 1
rob stalling non-critical load ip: 20174220 freq: 8
rob stalling non-critical load ip: 20174224 freq: 5
rob stalling non-critical load ip: 20174332 freq: 9
rob stalling non-critical load ip: 20174344 freq: 7
rob stalling non-critical load ip: 20174372 freq: 58
rob stalling non-critical load ip: 20174376 freq: 10
rob stalling non-critical load ip: 20174388 freq: 1
rob stalling non-critical load ip: 20182888 freq: 8
rob stalling non-critical load ip: 20182900 freq: 9
rob stalling non-critical load ip: 20183184 freq: 35
rob stalling non-critical load ip: 20183340 freq: 5
rob stalling non-critical load ip: 20184960 freq: 2
rob stalling non-critical load ip: 20185016 freq: 3
rob stalling non-critical load ip: 20201692 freq: 6
rob stalling non-critical load ip: 20201964 freq: 5
rob stalling non-critical load ip: 20432196 freq: 3
rob stalling non-critical load ip: 20432264 freq: 1
rob stalling non-critical load ip: 20457776 freq: 4
rob stalling non-critical load ip: 20457780 freq: 2
rob stalling non-critical load ip: 20457876 freq: 3
rob stalling non-critical load ip: 20560968 freq: 3
rob stalling non-critical load ip: 20632776 freq: 2
rob stalling non-critical load ip: 20637384 freq: 3
rob stalling non-critical load ip: 20637632 freq: 2
rob stalling non-critical load ip: 20637644 freq: 2
rob stalling non-critical load ip: 20637796 freq: 2
rob stalling non-critical load ip: 20638412 freq: 2
rob stalling non-critical load ip: 20638472 freq: 2
rob stalling non-critical load ip: 20638864 freq: 3
rob stalling non-critical load ip: 20638900 freq: 3
rob stalling non-critical load ip: 20638984 freq: 3
rob stalling non-critical load ip: 20641736 freq: 5
rob stalling non-critical load ip: 20641908 freq: 2
rob stalling non-critical load ip: 20642004 freq: 1
rob stalling non-critical load ip: 20642056 freq: 3
rob stalling non-critical load ip: 20642656 freq: 3
rob stalling non-critical load ip: 20642820 freq: 3
rob stalling non-critical load ip: 20642908 freq: 3
rob stalling non-critical load ip: 20643900 freq: 3
rob stalling non-critical load ip: 20644212 freq: 2
rob stalling non-critical load ip: 20644464 freq: 5
rob stalling non-critical load ip: 20644548 freq: 2
rob stalling non-critical load ip: 20649556 freq: 4
rob stalling non-critical load ip: 20649560 freq: 1
rob stalling non-critical load ip: 20649684 freq: 6
rob stalling non-critical load ip: 20649724 freq: 2
rob stalling non-critical load ip: 20717132 freq: 1
rob stalling non-critical load ip: 20717320 freq: 3
rob stalling non-critical load ip: 20717804 freq: 7
rob stalling non-critical load ip: 20741432 freq: 3
rob stalling non-critical load ip: 20741572 freq: 3
rob stalling non-critical load ip: 20741692 freq: 1
rob stalling non-critical load ip: 20742676 freq: 3
rob stalling non-critical load ip: 20742824 freq: 1
rob stalling non-critical load ip: 20742848 freq: 2
rob stalling non-critical load ip: 20743684 freq: 3
rob stalling non-critical load ip: 20746072 freq: 2
rob stalling non-critical load ip: 20746600 freq: 2
rob stalling non-critical load ip: 20746604 freq: 5
rob stalling non-critical load ip: 20746612 freq: 2
rob stalling non-critical load ip: 20746928 freq: 6
rob stalling non-critical load ip: 20747724 freq: 1
rob stalling non-critical load ip: 20749064 freq: 1
rob stalling non-critical load ip: 20749248 freq: 6
rob stalling non-critical load ip: 20749384 freq: 1
rob stalling non-critical load ip: 20755876 freq: 3
rob stalling non-critical load ip: 20755932 freq: 2
rob stalling non-critical load ip: 20756300 freq: 2
rob stalling non-critical load ip: 20759720 freq: 5
rob stalling non-critical load ip: 20760008 freq: 7
rob stalling non-critical load ip: 20771552 freq: 3
rob stalling non-critical load ip: 20786792 freq: 1
rob stalling non-critical load ip: 20791776 freq: 2
rob stalling non-critical load ip: 20800376 freq: 5
rob stalling non-critical load ip: 20800788 freq: 1
rob stalling non-critical load ip: 20803148 freq: 1
rob stalling non-critical load ip: 20804540 freq: 1
rob stalling non-critical load ip: 20804656 freq: 3
rob stalling non-critical load ip: 20804804 freq: 3
rob stalling non-critical load ip: 20805024 freq: 12
rob stalling non-critical load ip: 20805104 freq: 4
rob stalling non-critical load ip: 20805316 freq: 3
rob stalling non-critical load ip: 20805380 freq: 1
rob stalling non-critical load ip: 20813444 freq: 1
rob stalling non-critical load ip: 20813524 freq: 21
rob stalling non-critical load ip: 20813576 freq: 2
rob stalling non-critical load ip: 20813596 freq: 2
rob stalling non-critical load ip: 20813872 freq: 3
rob stalling non-critical load ip: 20813952 freq: 13
rob stalling non-critical load ip: 20813960 freq: 2
rob stalling non-critical load ip: 20814440 freq: 1
rob stalling non-critical load ip: 20816344 freq: 3
rob stalling non-critical load ip: 20816384 freq: 3
rob stalling non-critical load ip: 20816400 freq: 9
rob stalling non-critical load ip: 20816452 freq: 2
rob stalling non-critical load ip: 20816904 freq: 18
rob stalling non-critical load ip: 20816912 freq: 5
rob stalling non-critical load ip: 20829664 freq: 3
rob stalling non-critical load ip: 20829680 freq: 2
rob stalling non-critical load ip: 20829716 freq: 3
rob stalling non-critical load ip: 20848732 freq: 1
rob stalling non-critical load ip: 2071812508 freq: 1
rob stalling non-critical load ip: 2071812604 freq: 2
rob stalling non-critical load ip: 2071823844 freq: 1
rob stalling non-critical load ip: 2071823888 freq: 5
rob stalling non-critical load ip: 2071824296 freq: 7
rob stalling non-critical load ip: 2071824328 freq: 3
rob stalling non-critical load ip: 2071824400 freq: 13
rob stalling non-critical load ip: 2071825420 freq: 1
rob stalling non-critical load ip: 2071825424 freq: 10
rob stalling non-critical load ip: 2071825480 freq: 12
rob stalling non-critical load ip: 2074452912 freq: 2
rob stalling non-critical load ip: 2074816436 freq: 1
rob stalling non-critical load ip: 2074816992 freq: 2
rob stalling non-critical load ip: 2074819848 freq: 1
rob stalling non-critical load ip: 2074820780 freq: 1
rob stalling non-critical load ip: 2074914844 freq: 1
rob stalling non-critical load ip: 2074916508 freq: 2
rob stalling non-critical load ip: 2074918212 freq: 2
rob stalling non-critical load ip: 2074920608 freq: 2
rob stalling non-critical load ip: 2074920612 freq: 2
rob stalling non-critical load ip: 2074921148 freq: 1
rob stalling non-critical load ip: 2074921288 freq: 1
rob stalling non-critical load ip: 2074923652 freq: 2
rob stalling non-critical load ip: 2074926024 freq: 2
rob stalling non-critical load ip: 2074926084 freq: 2
rob stalling non-critical load ip: 2074941612 freq: 4
rob stalling non-critical load ip: 2074941620 freq: 8
rob stalling non-critical load ip: 2074941700 freq: 2
rob stalling non-critical load ip: 2074941744 freq: 13
rob stalling non-critical load ip: 2074941748 freq: 7
rob stalling non-critical load ip: 2074941800 freq: 2
rob stalling non-critical load ip: 2074941832 freq: 1
rob stalling non-critical load ip: 2074941960 freq: 2
rob stalling non-critical load ip: 2074942452 freq: 4
rob stalling non-critical load ip: 2074942640 freq: 2
rob stalling non-critical load ip: 2074942756 freq: 4
rob stalling non-critical load ip: 2074943044 freq: 1
rob stalling non-critical load ip: 2074943076 freq: 2
rob stalling non-critical load ip: 2074943136 freq: 1
rob stalling non-critical load ip: 2074943172 freq: 3
rob stalling non-critical load ip: 2074943200 freq: 3
rob stalling non-critical load ip: 2074943204 freq: 3
rob stalling non-critical load ip: 2074943432 freq: 5
rob stalling non-critical load ip: 2074946824 freq: 6
rob stalling non-critical load ip: 2074946920 freq: 1
rob stalling non-critical load ip: 2074949864 freq: 3
rob stalling non-critical load ip: 2074949908 freq: 3
rob stalling non-critical load ip: 2074950024 freq: 1
rob stalling non-critical load ip: 2074950160 freq: 9
rob stalling non-critical load ip: 2074950192 freq: 3
rob stalling non-critical load ip: 2074950236 freq: 16
rob stalling non-critical load ip: 2074950256 freq: 1
rob stalling non-critical load ip: 2074950268 freq: 6
rob stalling non-critical load ip: 2074950352 freq: 1
rob stalling non-critical load ip: 2074950492 freq: 10
rob stalling non-critical load ip: 2074950504 freq: 1
rob stalling non-critical load ip: 2074950680 freq: 1
rob stalling non-critical load ip: 2074951196 freq: 3
rob stalling non-critical load ip: 2074951224 freq: 16
rob stalling non-critical load ip: 2074951236 freq: 19
rob stalling non-critical load ip: 2074951312 freq: 2
rob stalling non-critical load ip: 2074951316 freq: 6
rob stalling non-critical load ip: 2074951368 freq: 5
rob stalling non-critical load ip: 2074951400 freq: 1
rob stalling non-critical load ip: 2074951468 freq: 4
rob stalling non-critical load ip: 2074951680 freq: 3
rob stalling non-critical load ip: 2074951684 freq: 3
rob stalling non-critical load ip: 2074951700 freq: 1
rob stalling non-critical load ip: 2074951724 freq: 1
rob stalling non-critical load ip: 2074952028 freq: 1
rob stalling non-critical load ip: 2074981688 freq: 3
rob stalling non-critical load ip: 2074981716 freq: 2
rob stalling non-critical load ip: 2074981916 freq: 6
rob stalling non-critical load ip: 2074982156 freq: 3
rob stalling non-critical load ip: 2074982160 freq: 1
rob stalling non-critical load ip: 2074982168 freq: 1
rob stalling non-critical load ip: 2074982228 freq: 2
rob stalling non-critical load ip: 2074982328 freq: 1
rob stalling non-critical load ip: 2074982332 freq: 1
rob stalling non-critical load ip: 2074982656 freq: 2
rob stalling non-critical load ip: 2074998328 freq: 2
rob stalling non-critical load ip: 2074998332 freq: 4
rob stalling non-critical load ip: 2074998344 freq: 3
rob stalling non-critical load ip: 2074998508 freq: 1
rob stalling non-critical load ip: 2074999168 freq: 1
rob stalling non-critical load ip: 2078543184 freq: 4
rob stalling non-critical load ip: 2078550532 freq: 1
rob stalling non-critical load ip: 2078556404 freq: 2
rob stalling non-critical load ip: 2078562184 freq: 4
rob stalling non-critical load ip: 2078583088 freq: 4
rob stalling non-critical load ip: 2078583148 freq: 1
rob stalling non-critical load ip: 2078583192 freq: 1
rob stalling non-critical load ip: 2078583852 freq: 1
rob stalling non-critical load ip: 2078583964 freq: 2
rob stalling non-critical load ip: 2078589904 freq: 3
rob stalling non-critical load ip: 2078590916 freq: 6
rob stalling non-critical load ip: 18446744069047601096 freq: 17
rob stalling non-critical load ip: 18446744069081193248 freq: 7
rob stalling non-critical load ip: 18446744069081193456 freq: 3
rob stalling non-critical load ip: 18446744071436263044 freq: 3
rob stalling non-critical load ip: 18446744071436264220 freq: 1
rob stalling non-critical load ip: 18446744071436289992 freq: 1
rob stalling non-critical load ip: 18446744071436290008 freq: 1
rob stalling non-critical load ip: 18446744071436290028 freq: 6
rob stalling non-critical load ip: 18446744071436290040 freq: 1
rob stalling non-critical load ip: 18446744071436290044 freq: 7
rob stalling non-critical load ip: 18446744071436290052 freq: 1
rob stalling non-critical load ip: 18446744071436290076 freq: 2
rob stalling non-critical load ip: 18446744071436306280 freq: 4
rob stalling non-critical load ip: 18446744071436306464 freq: 2
rob stalling non-critical load ip: 18446744071436310888 freq: 1
rob stalling non-critical load ip: 18446744071436310908 freq: 4
rob stalling non-critical load ip: 18446744071436337524 freq: 2
rob stalling non-critical load ip: 18446744071436337884 freq: 5
rob stalling non-critical load ip: 18446744071436342912 freq: 1
rob stalling non-critical load ip: 18446744071436347708 freq: 1
rob stalling non-critical load ip: 18446744071436347712 freq: 15
rob stalling non-critical load ip: 18446744071436348040 freq: 1
rob stalling non-critical load ip: 18446744071436348060 freq: 1
rob stalling non-critical load ip: 18446744071436348064 freq: 7
rob stalling non-critical load ip: 18446744071436348104 freq: 6
rob stalling non-critical load ip: 18446744071436474488 freq: 11
rob stalling non-critical load ip: 18446744071436481196 freq: 1
rob stalling non-critical load ip: 18446744071436515748 freq: 3
rob stalling non-critical load ip: 18446744071436516416 freq: 267
rob stalling non-critical load ip: 18446744071436516472 freq: 5
rob stalling non-critical load ip: 18446744071436516480 freq: 504
rob stalling non-critical load ip: 18446744071436516488 freq: 7
rob stalling non-critical load ip: 18446744071436516552 freq: 511
rob stalling non-critical load ip: 18446744071436516624 freq: 2
rob stalling non-critical load ip: 18446744071436516628 freq: 1
rob stalling non-critical load ip: 18446744071436516704 freq: 624
rob stalling non-critical load ip: 18446744071436609404 freq: 7
rob stalling non-critical load ip: 18446744071436623188 freq: 10
rob stalling non-critical load ip: 18446744071436623504 freq: 14
rob stalling non-critical load ip: 18446744071436631144 freq: 4
rob stalling non-critical load ip: 18446744071436670508 freq: 4
rob stalling non-critical load ip: 18446744071436670516 freq: 4
rob stalling non-critical load ip: 18446744071436670524 freq: 1
rob stalling non-critical load ip: 18446744071436685996 freq: 3
rob stalling non-critical load ip: 18446744071436734444 freq: 1
rob stalling non-critical load ip: 18446744071436734468 freq: 5
rob stalling non-critical load ip: 18446744071436734532 freq: 1
rob stalling non-critical load ip: 18446744071436734608 freq: 4
rob stalling non-critical load ip: 18446744071436734772 freq: 2
rob stalling non-critical load ip: 18446744071436734852 freq: 1
rob stalling non-critical load ip: 18446744071436734936 freq: 9
rob stalling non-critical load ip: 18446744071436816500 freq: 3
rob stalling non-critical load ip: 18446744071436816616 freq: 5
rob stalling non-critical load ip: 18446744071436937504 freq: 1
rob stalling non-critical load ip: 18446744071437029636 freq: 49
rob stalling non-critical load ip: 18446744071437029652 freq: 10
rob stalling non-critical load ip: 18446744071437029664 freq: 38
rob stalling non-critical load ip: 18446744071437029684 freq: 312
rob stalling non-critical load ip: 18446744071437029688 freq: 30
rob stalling non-critical load ip: 18446744071437029716 freq: 10
rob stalling non-critical load ip: 18446744071437029764 freq: 31
rob stalling non-critical load ip: 18446744071437029788 freq: 464
rob stalling non-critical load ip: 18446744071437029824 freq: 745
rob stalling non-critical load ip: 18446744071437029828 freq: 55
rob stalling non-critical load ip: 18446744071437029856 freq: 9
rob stalling non-critical load ip: 18446744071437029904 freq: 50
rob stalling non-critical load ip: 18446744071437029928 freq: 810
rob stalling non-critical load ip: 18446744071437029932 freq: 2
rob stalling non-critical load ip: 18446744071437029964 freq: 211
rob stalling non-critical load ip: 18446744071437029968 freq: 51
rob stalling non-critical load ip: 18446744071437029996 freq: 5
rob stalling non-critical load ip: 18446744071437030044 freq: 38
rob stalling non-critical load ip: 18446744071437030068 freq: 346
rob stalling non-critical load ip: 18446744071437030100 freq: 158
rob stalling non-critical load ip: 18446744071437030104 freq: 703
rob stalling non-critical load ip: 18446744071437030132 freq: 5
rob stalling non-critical load ip: 18446744071437030180 freq: 288
rob stalling non-critical load ip: 18446744071437030204 freq: 195
rob stalling non-critical load ip: 18446744071437188232 freq: 382
rob stalling non-critical load ip: 18446744071437188248 freq: 438
rob stalling non-critical load ip: 18446744071437188268 freq: 6
rob stalling non-critical load ip: 18446744071437188276 freq: 9
rob stalling non-critical load ip: 18446744071437188436 freq: 507
rob stalling non-critical load ip: 18446744071437188556 freq: 435
rob stalling non-critical load ip: 18446744071437188560 freq: 7
rob stalling non-critical load ip: 18446744071437188672 freq: 19
rob stalling non-critical load ip: 18446744071437193412 freq: 1
rob stalling non-critical load ip: 18446744071437193428 freq: 2
rob stalling non-critical load ip: 18446744071437242788 freq: 11
rob stalling non-critical load ip: 18446744071437242812 freq: 2
rob stalling non-critical load ip: 18446744071437242840 freq: 6
rob stalling non-critical load ip: 18446744071437245540 freq: 3
rob stalling non-critical load ip: 18446744071437245676 freq: 33
rob stalling non-critical load ip: 18446744071437245744 freq: 3
rob stalling non-critical load ip: 18446744071437245752 freq: 89
rob stalling non-critical load ip: 18446744071437245760 freq: 95
rob stalling non-critical load ip: 18446744071437245916 freq: 3
rob stalling non-critical load ip: 18446744071437246004 freq: 15
rob stalling non-critical load ip: 18446744071437246068 freq: 69
rob stalling non-critical load ip: 18446744071437246196 freq: 806
rob stalling non-critical load ip: 18446744071437246228 freq: 21
rob stalling non-critical load ip: 18446744071437249028 freq: 454
rob stalling non-critical load ip: 18446744071437249036 freq: 12
rob stalling non-critical load ip: 18446744071437249080 freq: 2
rob stalling non-critical load ip: 18446744071437249136 freq: 3
rob stalling non-critical load ip: 18446744071437249168 freq: 12
rob stalling non-critical load ip: 18446744071437249320 freq: 5
rob stalling non-critical load ip: 18446744071437249356 freq: 14
rob stalling non-critical load ip: 18446744071437254240 freq: 1
rob stalling non-critical load ip: 18446744071437254356 freq: 4
rob stalling non-critical load ip: 18446744071437254364 freq: 11
rob stalling non-critical load ip: 18446744071437254412 freq: 6
rob stalling non-critical load ip: 18446744071437254472 freq: 23
rob stalling non-critical load ip: 18446744071437254492 freq: 4
rob stalling non-critical load ip: 18446744071437254560 freq: 120
rob stalling non-critical load ip: 18446744071437254568 freq: 45
rob stalling non-critical load ip: 18446744071437254576 freq: 118
rob stalling non-critical load ip: 18446744071437254656 freq: 5
rob stalling non-critical load ip: 18446744071437254680 freq: 54
rob stalling non-critical load ip: 18446744071437254688 freq: 11
rob stalling non-critical load ip: 18446744071437254716 freq: 9
rob stalling non-critical load ip: 18446744071437254856 freq: 21
rob stalling non-critical load ip: 18446744071437254924 freq: 20
rob stalling non-critical load ip: 18446744071437254932 freq: 98
rob stalling non-critical load ip: 18446744071437254940 freq: 107
rob stalling non-critical load ip: 18446744071437255104 freq: 171
rob stalling non-critical load ip: 18446744071437255196 freq: 1
rob stalling non-critical load ip: 18446744071437255252 freq: 208
rob stalling non-critical load ip: 18446744071437255316 freq: 14
rob stalling non-critical load ip: 18446744071437255460 freq: 6
rob stalling non-critical load ip: 18446744071437255492 freq: 78
rob stalling non-critical load ip: 18446744071437278816 freq: 174
rob stalling non-critical load ip: 18446744071437278820 freq: 5
rob stalling non-critical load ip: 18446744071437278908 freq: 2
rob stalling non-critical load ip: 18446744071437280556 freq: 2
rob stalling non-critical load ip: 18446744071437280564 freq: 1
rob stalling non-critical load ip: 18446744071437280624 freq: 1
rob stalling non-critical load ip: 18446744071437280632 freq: 530
rob stalling non-critical load ip: 18446744071437280640 freq: 437
rob stalling non-critical load ip: 18446744071437280680 freq: 1
rob stalling non-critical load ip: 18446744071437280692 freq: 3
rob stalling non-critical load ip: 18446744071437280720 freq: 5
rob stalling non-critical load ip: 18446744071437280724 freq: 36
rob stalling non-critical load ip: 18446744071437280760 freq: 87
rob stalling non-critical load ip: 18446744071437280808 freq: 7
rob stalling non-critical load ip: 18446744071437280920 freq: 16
rob stalling non-critical load ip: 18446744071437280960 freq: 16
rob stalling non-critical load ip: 18446744071437281020 freq: 2
rob stalling non-critical load ip: 18446744071437281036 freq: 4
rob stalling non-critical load ip: 18446744071437309356 freq: 6
rob stalling non-critical load ip: 18446744071437389380 freq: 16
rob stalling non-critical load ip: 18446744071437389384 freq: 518
rob stalling non-critical load ip: 18446744071437389412 freq: 6
rob stalling non-critical load ip: 18446744071437389444 freq: 8
rob stalling non-critical load ip: 18446744071437389476 freq: 2
rob stalling non-critical load ip: 18446744071437389492 freq: 310
rob stalling non-critical load ip: 18446744071437389508 freq: 126
rob stalling non-critical load ip: 18446744071437389524 freq: 49
rob stalling non-critical load ip: 18446744071437389540 freq: 224
rob stalling non-critical load ip: 18446744071437389556 freq: 132
rob stalling non-critical load ip: 18446744071437389572 freq: 230
rob stalling non-critical load ip: 18446744071437389588 freq: 4
rob stalling non-critical load ip: 18446744071437389604 freq: 222
rob stalling non-critical load ip: 18446744071437389624 freq: 3
rob stalling non-critical load ip: 18446744071437389652 freq: 223
rob stalling non-critical load ip: 18446744071437391556 freq: 385
rob stalling non-critical load ip: 18446744071437391576 freq: 1
rob stalling non-critical load ip: 18446744071437391592 freq: 6
rob stalling non-critical load ip: 18446744071437391624 freq: 3
rob stalling non-critical load ip: 18446744071437391636 freq: 2
rob stalling non-critical load ip: 18446744071437391716 freq: 28
rob stalling non-critical load ip: 18446744071437391784 freq: 3
rob stalling non-critical load ip: 18446744071437391844 freq: 6
rob stalling non-critical load ip: 18446744071437391904 freq: 7
rob stalling non-critical load ip: 18446744071437391980 freq: 3
rob stalling non-critical load ip: 18446744071437392044 freq: 5
rob stalling non-critical load ip: 18446744071437392104 freq: 9
rob stalling non-critical load ip: 18446744071437392164 freq: 4
rob stalling non-critical load ip: 18446744071437392232 freq: 8
rob stalling non-critical load ip: 18446744071437392300 freq: 7
rob stalling non-critical load ip: 18446744071437392360 freq: 4
rob stalling non-critical load ip: 18446744071437392420 freq: 3
rob stalling non-critical load ip: 18446744071437392492 freq: 5
rob stalling non-critical load ip: 18446744071437392564 freq: 3
rob stalling non-critical load ip: 18446744071437392624 freq: 7
rob stalling non-critical load ip: 18446744071437393508 freq: 332
rob stalling non-critical load ip: 18446744071437394496 freq: 34
rob stalling non-critical load ip: 18446744071437395396 freq: 27
rob stalling non-critical load ip: 18446744071437395484 freq: 524
rob stalling non-critical load ip: 18446744071437395492 freq: 4
rob stalling non-critical load ip: 18446744071437395508 freq: 7
rob stalling non-critical load ip: 18446744071437395516 freq: 521
rob stalling non-critical load ip: 18446744071437395528 freq: 18
rob stalling non-critical load ip: 18446744071437395536 freq: 457
rob stalling non-critical load ip: 18446744071437395544 freq: 4
rob stalling non-critical load ip: 18446744071437395552 freq: 37
rob stalling non-critical load ip: 18446744071437395560 freq: 4
rob stalling non-critical load ip: 18446744071437421444 freq: 4
rob stalling non-critical load ip: 18446744071437421488 freq: 5
rob stalling non-critical load ip: 18446744071437421604 freq: 7
rob stalling non-critical load ip: 18446744071437476228 freq: 8
rob stalling non-critical load ip: 18446744071437476304 freq: 3
rob stalling non-critical load ip: 18446744071437476312 freq: 1
rob stalling non-critical load ip: 18446744071437518660 freq: 345
rob stalling non-critical load ip: 18446744071437518696 freq: 169
rob stalling non-critical load ip: 18446744071437518700 freq: 3
rob stalling non-critical load ip: 18446744071437518712 freq: 61
rob stalling non-critical load ip: 18446744071437518716 freq: 5
rob stalling non-critical load ip: 18446744071437518732 freq: 20
rob stalling non-critical load ip: 18446744071437518792 freq: 128
rob stalling non-critical load ip: 18446744071437518808 freq: 132
rob stalling non-critical load ip: 18446744071437518880 freq: 108
[...]
Non-critical_ROB_Stalls_Percent_1_Bucket_6: 9778
Critical_ROB_Stalls_Percent_2_Bucket_0: 242317
Non-critical_ROB_Stalls_Percent_2_Bucket_0: 107153
Critical_ROB_Stalls_Percent_2_Bucket_1: 12767
Non-critical_ROB_Stalls_Percent_2_Bucket_1: 29185
Critical_ROB_Stalls_Percent_2_Bucket_2: 5018
Non-critical_ROB_Stalls_Percent_2_Bucket_2: 16193
Critical_ROB_Stalls_Percent_2_Bucket_3: 2900
Non-critical_ROB_Stalls_Percent_2_Bucket_3: 12925
Critical_ROB_Stalls_Percent_2_Bucket_4: 8110
Non-critical_ROB_Stalls_Percent_2_Bucket_4: 9562
Critical_ROB_Stalls_Percent_2_Bucket_5: 10834
Non-critical_ROB_Stalls_Percent_2_Bucket_5: 5414
Critical_ROB_Stalls_Percent_2_Bucket_6: 1485
Non-critical_ROB_Stalls_Percent_2_Bucket_6: 9527
Critical_ROB_Stalls_Percent_3_Bucket_0: 251046
Non-critical_ROB_Stalls_Percent_3_Bucket_0: 98424
Critical_ROB_Stalls_Percent_3_Bucket_1: 16089
Non-critical_ROB_Stalls_Percent_3_Bucket_1: 25863
Critical_ROB_Stalls_Percent_3_Bucket_2: 7306
Non-critical_ROB_Stalls_Percent_3_Bucket_2: 13905
Critical_ROB_Stalls_Percent_3_Bucket_3: 4317
Non-critical_ROB_Stalls_Percent_3_Bucket_3: 11508
Critical_ROB_Stalls_Percent_3_Bucket_4: 10533
Non-critical_ROB_Stalls_Percent_3_Bucket_4: 7139
Critical_ROB_Stalls_Percent_3_Bucket_5: 11608
Non-critical_ROB_Stalls_Percent_3_Bucket_5: 4640
Critical_ROB_Stalls_Percent_3_Bucket_6: 3572
Non-critical_ROB_Stalls_Percent_3_Bucket_6: 7440
Critical_ROB_Stalls_Percent_4_Bucket_0: 263593
Non-critical_ROB_Stalls_Percent_4_Bucket_0: 85877
Critical_ROB_Stalls_Percent_4_Bucket_1: 18142
Non-critical_ROB_Stalls_Percent_4_Bucket_1: 23810
Critical_ROB_Stalls_Percent_4_Bucket_2: 9648
Non-critical_ROB_Stalls_Percent_4_Bucket_2: 11563
Critical_ROB_Stalls_Percent_4_Bucket_3: 8294
Non-critical_ROB_Stalls_Percent_4_Bucket_3: 7531
Critical_ROB_Stalls_Percent_4_Bucket_4: 12809
Non-critical_ROB_Stalls_Percent_4_Bucket_4: 4863
Critical_ROB_Stalls_Percent_4_Bucket_5: 12070
Non-critical_ROB_Stalls_Percent_4_Bucket_5: 4178
Critical_ROB_Stalls_Percent_4_Bucket_6: 3691
Non-critical_ROB_Stalls_Percent_4_Bucket_6: 7321
Critical_ROB_Stalls_Percent_5_Bucket_0: 276145
Non-critical_ROB_Stalls_Percent_5_Bucket_0: 73325
Critical_ROB_Stalls_Percent_5_Bucket_1: 20983
Non-critical_ROB_Stalls_Percent_5_Bucket_1: 20969
Critical_ROB_Stalls_Percent_5_Bucket_2: 12860
Non-critical_ROB_Stalls_Percent_5_Bucket_2: 8351
Critical_ROB_Stalls_Percent_5_Bucket_3: 10253
Non-critical_ROB_Stalls_Percent_5_Bucket_3: 5572
Critical_ROB_Stalls_Percent_5_Bucket_4: 13545
Non-critical_ROB_Stalls_Percent_5_Bucket_4: 4127
Critical_ROB_Stalls_Percent_5_Bucket_5: 12489
Non-critical_ROB_Stalls_Percent_5_Bucket_5: 3759
Critical_ROB_Stalls_Percent_5_Bucket_6: 5645
Non-critical_ROB_Stalls_Percent_5_Bucket_6: 5367
Critical_ROB_Stalls_Percent_6_Bucket_0: 289226
Non-critical_ROB_Stalls_Percent_6_Bucket_0: 60244
Critical_ROB_Stalls_Percent_6_Bucket_1: 23807
Non-critical_ROB_Stalls_Percent_6_Bucket_1: 18145
Critical_ROB_Stalls_Percent_6_Bucket_2: 14337
Non-critical_ROB_Stalls_Percent_6_Bucket_2: 6874
Critical_ROB_Stalls_Percent_6_Bucket_3: 11764
Non-critical_ROB_Stalls_Percent_6_Bucket_3: 4061
Critical_ROB_Stalls_Percent_6_Bucket_4: 14536
Non-critical_ROB_Stalls_Percent_6_Bucket_4: 3136
Critical_ROB_Stalls_Percent_6_Bucket_5: 13604
Non-critical_ROB_Stalls_Percent_6_Bucket_5: 2644
Critical_ROB_Stalls_Percent_6_Bucket_6: 7356
Non-critical_ROB_Stalls_Percent_6_Bucket_6: 3656
Critical_ROB_Stalls_Percent_7_Bucket_0: 303643
Non-critical_ROB_Stalls_Percent_7_Bucket_0: 45827
Critical_ROB_Stalls_Percent_7_Bucket_1: 29027
Non-critical_ROB_Stalls_Percent_7_Bucket_1: 12925
Critical_ROB_Stalls_Percent_7_Bucket_2: 15521
Non-critical_ROB_Stalls_Percent_7_Bucket_2: 5690
Critical_ROB_Stalls_Percent_7_Bucket_3: 12623
Non-critical_ROB_Stalls_Percent_7_Bucket_3: 3202
Critical_ROB_Stalls_Percent_7_Bucket_4: 15376
Non-critical_ROB_Stalls_Percent_7_Bucket_4: 2296
Critical_ROB_Stalls_Percent_7_Bucket_5: 14149
Non-critical_ROB_Stalls_Percent_7_Bucket_5: 2099
Critical_ROB_Stalls_Percent_7_Bucket_6: 7915
Non-critical_ROB_Stalls_Percent_7_Bucket_6: 3097
Critical_ROB_Stalls_Percent_8_Bucket_0: 317730
Non-critical_ROB_Stalls_Percent_8_Bucket_0: 31740
Critical_ROB_Stalls_Percent_8_Bucket_1: 33521
Non-critical_ROB_Stalls_Percent_8_Bucket_1: 8431
Critical_ROB_Stalls_Percent_8_Bucket_2: 17170
Non-critical_ROB_Stalls_Percent_8_Bucket_2: 4041
Critical_ROB_Stalls_Percent_8_Bucket_3: 13367
Non-critical_ROB_Stalls_Percent_8_Bucket_3: 2458
Critical_ROB_Stalls_Percent_8_Bucket_4: 16056
Non-critical_ROB_Stalls_Percent_8_Bucket_4: 1616
Critical_ROB_Stalls_Percent_8_Bucket_5: 14957
Non-critical_ROB_Stalls_Percent_8_Bucket_5: 1291
Critical_ROB_Stalls_Percent_8_Bucket_6: 8652
Non-critical_ROB_Stalls_Percent_8_Bucket_6: 2360
Average ROB occupancy Load Stall Begin: 50.4414
Average ROB occupancy Load Stall End: 58.4654
Min ROB occupancy Load Stall Begin: 1
Max ROB occupancy Load Stall Begin: 351
Min ROB occupancy Load Stall End: 1
Max ROB occupancy Load Stall End: 352
Average ROB occupancy Critical Load Stall Begin: -nan
Average ROB occupancy Critical Load Stall End: -nan
Min ROB occupancy Critical Load Stall Begin: 400
Max ROB occupancy Critical Load Stall Begin: 0
Min ROB occupancy Critical Load Stall End: 400
Max ROB occupancy Critical Load Stall End: 0
 ROB Load Stall Begin Bucket Count 0: 357348
 ROB Load Stall End Bucket Count 0: 349470
 ROB Critical Load Stall Begin Bucket Count 0: 0
 ROB Critical Load Stall End Bucket Count 0: 0
 ROB Load Stall Begin Bucket Count 1: 43105
 ROB Load Stall End Bucket Count 1: 41952
 ROB Critical Load Stall Begin Bucket Count 1: 0
 ROB Critical Load Stall End Bucket Count 1: 0
 ROB Load Stall Begin Bucket Count 2: 21468
 ROB Load Stall End Bucket Count 2: 21211
 ROB Critical Load Stall Begin Bucket Count 2: 0
 ROB Critical Load Stall End Bucket Count 2: 0
 ROB Load Stall Begin Bucket Count 3: 14854
 ROB Load Stall End Bucket Count 3: 15825
 ROB Critical Load Stall Begin Bucket Count 3: 0
 ROB Critical Load Stall End Bucket Count 3: 0
 ROB Load Stall Begin Bucket Count 4: 14098
 ROB Load Stall End Bucket Count 4: 17672
 ROB Critical Load Stall Begin Bucket Count 4: 0
 ROB Critical Load Stall End Bucket Count 4: 0
 ROB Load Stall Begin Bucket Count 5: 14618
 ROB Load Stall End Bucket Count 5: 16248
 ROB Critical Load Stall Begin Bucket Count 5: 0
 ROB Critical Load Stall End Bucket Count 5: 0
 ROB Load Stall Begin Bucket Count 6: 7899
 ROB Load Stall End Bucket Count 6: 11012
 ROB Critical Load Stall Begin Bucket Count 6: 0
 ROB Critical Load Stall End Bucket Count 6: 0
PIST Tag Read Accesses: 107390
PIST Read Accesses: 53695
PIST Tag Write Accesses: 107390
PIST Write Accesses: 53695
Criticality detector called times: 124426
Max global_stall_cycles_count: 277152
Threshold Modified: 2 times, factor: -2
Sturdy critical IP cache stats: 
 Unused entries: 0
CIC Tag Read Accesses: 0
CIC Read Accesses: 0
CIC Tag Write Accesses: 0
CIC Write Accesses: 0
Wobbly critical IP cache stats: 
 Unused entries: 98
CIC Tag Read Accesses: 36933774
CIC Read Accesses: 0
CIC Tag Write Accesses: 10044
CIC Write Accesses: 0
ITLB TOTAL     ACCESS:    8105064  HIT:    7585953  MISS:     519111  HIT %:    93.5952  MISS %:    6.40477   MPKI: 10.3822
ITLB LOAD TRANSLATION ACCESS:    8105064  HIT:    7585953  MISS:     519111  HIT %:    93.5952  MISS %:    6.40477   MPKI: 10.3822
ITLB PREFETCH  REQUESTED:          0  ISSUED:          0  USEFUL:          0  USELESS:          0
ITLB USEFUL LOAD PREFETCHES:          0 PREFETCH ISSUED TO LOWER LEVEL:          0  ACCURACY: -nan
ITLB TIMELY PREFETCHES:          0 LATE PREFETCHES: 0 DROPPED PREFETCHES: 0
ITLB PREFETCHES SAME FILL-ORIGIN LEVEL: 0 DIFFERENT FILL-ORIGIN LEVEL: 0
ITLB AVERAGE MISS LATENCY: 36.0357 cycles
ITLB RQ	ACCESS:   10237414	FORWARD:          0	MERGED:    1816211	TO_CACHE:    8421203

DTLB TOTAL     ACCESS:    5238154  HIT:    3194386  MISS:    2043768  HIT %:     60.983  MISS %:     39.017   MPKI: 40.8754
DTLB LOAD TRANSLATION ACCESS:    5238154  HIT:    3194386  MISS:    2043768  HIT %:     60.983  MISS %:     39.017   MPKI: 40.8754
DTLB PREFETCH  REQUESTED:          0  ISSUED:          0  USEFUL:          0  USELESS:          0
DTLB USEFUL LOAD PREFETCHES:          0 PREFETCH ISSUED TO LOWER LEVEL:          0  ACCURACY: -nan
DTLB TIMELY PREFETCHES:          0 LATE PREFETCHES: 0 DROPPED PREFETCHES: 0
DTLB PREFETCHES SAME FILL-ORIGIN LEVEL: 0 DIFFERENT FILL-ORIGIN LEVEL: 0
DTLB AVERAGE MISS LATENCY: 26.3033 cycles
DTLB RQ	ACCESS:    6472692	FORWARD:          0	MERGED:    1033912	TO_CACHE:    5438780

STLB TOTAL     ACCESS:    2562879  HIT:    1072510  MISS:    1490369  HIT %:    41.8479  MISS %:    58.1521   MPKI: 29.8074
STLB LOAD TRANSLATION ACCESS:    2562879  HIT:    1072510  MISS:    1490369  HIT %:    41.8479  MISS %:    58.1521   MPKI: 29.8074
STLB PREFETCH  REQUESTED:          0  ISSUED:          0  USEFUL:          0  USELESS:          0
STLB USEFUL LOAD PREFETCHES:          0 PREFETCH ISSUED TO LOWER LEVEL:          0  ACCURACY: -nan
STLB TIMELY PREFETCHES:          0 LATE PREFETCHES: 0 DROPPED PREFETCHES: 0
STLB PREFETCHES SAME FILL-ORIGIN LEVEL: 0 DIFFERENT FILL-ORIGIN LEVEL: 0
STLB AVERAGE MISS LATENCY: 32.9622 cycles
STLB RQ	ACCESS:    2562879	FORWARD:          0	MERGED:          0	TO_CACHE:    2562879

STLB Hit, L1D data hit: 0
STLB Hit, L2C data hit: 0
STLB Hit, LLC data hit: 0
STLB Hit, LLC data miss: 0
STLB STLB hints to L2: 0
L1D TOTAL     ACCESS:    6250681  HIT:    5893988  MISS:     356693  HIT %:    94.2935  MISS %:    5.70647   MPKI: 7.13386
L1D LOAD      ACCESS:    4413750  HIT:    4118845  MISS:     294905  HIT %:    93.3185  MISS %:    6.68151   MPKI: 5.8981
L1D RFO       ACCESS:    1836931  HIT:    1775143  MISS:      61788  HIT %:    96.6363  MISS %:    3.36365   MPKI: 1.23576
L1D PREFETCH  REQUESTED:          0  ISSUED:          0  USEFUL:          0  USELESS:          0
L1D USEFUL LOAD PREFETCHES:          0 PREFETCH ISSUED TO LOWER LEVEL:          0  ACCURACY: -nan
L1D TIMELY PREFETCHES:          0 LATE PREFETCHES: 0 DROPPED PREFETCHES: 0
L1D PREFETCHES SAME FILL-ORIGIN LEVEL: 0 DIFFERENT FILL-ORIGIN LEVEL: 0
L1D AVERAGE MISS LATENCY: 108.459 cycles
L1D RQ	ACCESS:    7015450	FORWARD:          0	MERGED:    2514902	TO_CACHE:    4443617
L1D WQ	ACCESS:    2167389	FORWARD:      56931	MERGED:     138314	TO_CACHE:    2029075

L1D UNIQUE REGIONS ACCESSED: 0
L1D REGIONS CONFLICTS: 0
L1D Cross Page Prefetch Requests: 0
L1D Same Page Prefetch Requests: 0
L1D ROI Sum of L1D PQ occupancy: 0
L1D PREFETCHES PUSHED FROM L2C: 0
L1I TOTAL     ACCESS:   10202967  HIT:   10098903  MISS:     104064  HIT %:    98.9801  MISS %:    1.01994   MPKI: 2.08128
L1I LOAD      ACCESS:   10202967  HIT:   10098903  MISS:     104064  HIT %:    98.9801  MISS %:    1.01994   MPKI: 2.08128
L1I PREFETCH  REQUESTED:          0  ISSUED:          0  USEFUL:          0  USELESS:          0
L1I USEFUL LOAD PREFETCHES:          0 PREFETCH ISSUED TO LOWER LEVEL:          0  ACCURACY: -nan
L1I TIMELY PREFETCHES:          0 LATE PREFETCHES: 0 DROPPED PREFETCHES: 0
L1I PREFETCHES SAME FILL-ORIGIN LEVEL: 0 DIFFERENT FILL-ORIGIN LEVEL: 0
L1I AVERAGE MISS LATENCY: 53.5399 cycles
L1I RQ	ACCESS:   17006484	FORWARD:          0	MERGED:    6769070	TO_CACHE:   10237414

BTB BRANCH_DIRECT_JUMP	ACCESS:          0  HIT:          0  MISS:          0
BTB BRANCH_INDIRECT	ACCESS:          0  HIT:          0  MISS:          0
BTB BRANCH_CONDITIONAL	ACCESS:          0  HIT:          0  MISS:          0
BTB BRANCH_DIRECT_CALL	ACCESS:          0  HIT:          0  MISS:          0
BTB BRANCH_INDIRECT_CALL	ACCESS:          0  HIT:          0  MISS:          0
BTB BRANCH_RETURN	ACCESS:          0  HIT:          0  MISS:          0
BTB BRANCH_OTHER ACCESS:          0  HIT:          0  MISS:          0

L2C TOTAL     ACCESS:    2428243  HIT:    1921703  MISS:     506540  HIT %:    79.1396  MISS %:    20.8604   MPKI: 10.1308
L2C LOAD      ACCESS:     398967  HIT:     216403  MISS:     182564  HIT %:    54.2408  MISS %:    45.7592   MPKI: 3.65128
L2C DATA LOAD MPKI: 2.86764
L2C INSTRUCTION LOAD MPKI: 0.78364
L2C RFO       ACCESS:      61786  HIT:      13481  MISS:      48305  HIT %:    21.8189  MISS %:    78.1811   MPKI: 0.9661
L2C PREFETCH  ACCESS:     257348  HIT:      28877  MISS:     228471  HIT %:     11.221  MISS %:     88.779   MPKI: 4.56942
L2C DATA PREFETCH MPKI: 4.56942
L2C INSTRUCTION PREFETCH MPKI: 0
L2C WRITEBACK ACCESS:     138701  HIT:     134821  MISS:       3880  HIT %:    97.2026  MISS %:    2.79738   MPKI: 0.0776
L2C LOAD TRANSLATION ACCESS:    1571441  HIT:    1528121  MISS:      43320  HIT %:    97.2433  MISS %:    2.75671   MPKI: 0.8664
L2C PREFETCH  REQUESTED:     268165  ISSUED:     268165  USEFUL:     111728  USELESS:     116547
L2C USEFUL LOAD PREFETCHES:     111728 PREFETCH ISSUED TO LOWER LEVEL:     232813  ACCURACY: 47.9904
L2C TIMELY PREFETCHES:     111728 LATE PREFETCHES: 4342 DROPPED PREFETCHES: 0
L2C PREFETCHES SAME FILL-ORIGIN LEVEL: 232813 DIFFERENT FILL-ORIGIN LEVEL: 0
L2C AVERAGE MISS LATENCY: 172.003 cycles
L2C RQ	ACCESS:    2032198	FORWARD:          0	MERGED:          0	TO_CACHE:    2032194
L2C WQ	ACCESS:     138701	FORWARD:          4	MERGED:          0	TO_CACHE:     138701
L2C PQ	ACCESS:     268165	FORWARD:          0	MERGED:          0	TO_CACHE:     268165

L2C Instructions Evicting Data 30248
L2C Translations Evicting Data 34739
L2C Data Evicting Data 355521
L2C Instructions Evicting Instructions 5074
L2C Translations Evicting Instructions 3601
L2C Data Evicting Instructions 30193
L2C Instructions Evicting Translations 3860
L2C Translations Evicting Translations 4980
L2C Data Evicting Translations 34444
L2C Dense regions hint from L2: 0
PSCL5 TOTAL     ACCESS:    1490369  HIT:    1490369  MISS:          0  HIT %:        100  MISS %:          0   MPKI: 0
PSCL5 LOAD TRANSLATION ACCESS:    1490369  HIT:    1490369  MISS:          0  HIT %:        100  MISS %:          0   MPKI: 0
PSCL5 PREFETCH  REQUESTED:          0  ISSUED:          0  USEFUL:          0  USELESS:          0
PSCL5 USEFUL LOAD PREFETCHES:          0 PREFETCH ISSUED TO LOWER LEVEL:          0  ACCURACY: -nan
PSCL5 TIMELY PREFETCHES:          0 LATE PREFETCHES: 0 DROPPED PREFETCHES: 0
PSCL5 PREFETCHES SAME FILL-ORIGIN LEVEL: 0 DIFFERENT FILL-ORIGIN LEVEL: 0

PSCL4 TOTAL     ACCESS:    1487219  HIT:    1487123  MISS:         96  HIT %:    99.9935  MISS %:   0.006455   MPKI: 0.00192
PSCL4 LOAD TRANSLATION ACCESS:    1487219  HIT:    1487123  MISS:         96  HIT %:    99.9935  MISS %:   0.006455   MPKI: 0.00192
PSCL4 PREFETCH  REQUESTED:          0  ISSUED:          0  USEFUL:          0  USELESS:          0
PSCL4 USEFUL LOAD PREFETCHES:          0 PREFETCH ISSUED TO LOWER LEVEL:          0  ACCURACY: -nan
PSCL4 TIMELY PREFETCHES:          0 LATE PREFETCHES: 0 DROPPED PREFETCHES: 0
PSCL4 PREFETCHES SAME FILL-ORIGIN LEVEL: 0 DIFFERENT FILL-ORIGIN LEVEL: 0

PSCL3 TOTAL     ACCESS:    1486711  HIT:    1485413  MISS:       1298  HIT %:    99.9127  MISS %:  0.0873068   MPKI: 0.02596
PSCL3 LOAD TRANSLATION ACCESS:    1486711  HIT:    1485413  MISS:       1298  HIT %:    99.9127  MISS %:  0.0873068   MPKI: 0.02596
PSCL3 PREFETCH  REQUESTED:          0  ISSUED:          0  USEFUL:          0  USELESS:          0
PSCL3 USEFUL LOAD PREFETCHES:          0 PREFETCH ISSUED TO LOWER LEVEL:          0  ACCURACY: -nan
PSCL3 TIMELY PREFETCHES:          0 LATE PREFETCHES: 0 DROPPED PREFETCHES: 0
PSCL3 PREFETCHES SAME FILL-ORIGIN LEVEL: 0 DIFFERENT FILL-ORIGIN LEVEL: 0

PSCL2 TOTAL     ACCESS:    1490369  HIT:    1410283  MISS:      80086  HIT %:    94.6264  MISS %:    5.37357   MPKI: 1.60172
PSCL2 LOAD TRANSLATION ACCESS:    1490369  HIT:    1410283  MISS:      80086  HIT %:    94.6264  MISS %:    5.37357   MPKI: 1.60172
PSCL2 PREFETCH  REQUESTED:          0  ISSUED:          0  USEFUL:          0  USELESS:          0
PSCL2 USEFUL LOAD PREFETCHES:          0 PREFETCH ISSUED TO LOWER LEVEL:          0  ACCURACY: -nan
PSCL2 TIMELY PREFETCHES:          0 LATE PREFETCHES: 0 DROPPED PREFETCHES: 0
PSCL2 PREFETCHES SAME FILL-ORIGIN LEVEL: 0 DIFFERENT FILL-ORIGIN LEVEL: 0

LLC TOTAL     ACCESS:     622860  HIT:     199923  MISS:     422937  HIT %:    32.0976  MISS %:    67.9024   MPKI: 8.45874
LLC LOAD      ACCESS:     178241  HIT:      42794  MISS:     135447  HIT %:    24.0091  MISS %:    75.9909   MPKI: 2.70894
LLC RFO       ACCESS:      48286  HIT:       4192  MISS:      44094  HIT %:    8.68161  MISS %:    91.3184   MPKI: 0.88188
LLC PREFETCH  ACCESS:     232813  HIT:      20829  MISS:     211984  HIT %:    8.94667  MISS %:    91.0533   MPKI: 4.23968
LLC WRITEBACK ACCESS:     120200  HIT:     116859  MISS:       3341  HIT %:    97.2205  MISS %:    2.77953   MPKI: 0.06682
LLC LOAD TRANSLATION ACCESS:      43320  HIT:      15249  MISS:      28071  HIT %:    35.2008  MISS %:    64.7992   MPKI: 0.56142
LLC PREFETCH  REQUESTED:          0  ISSUED:          0  USEFUL:       3453  USELESS:     207671
LLC USEFUL LOAD PREFETCHES:       3453 PREFETCH ISSUED TO LOWER LEVEL:     211984  ACCURACY: 1.6289
LLC TIMELY PREFETCHES:       3453 LATE PREFETCHES: 0 DROPPED PREFETCHES: 0
LLC PREFETCHES SAME FILL-ORIGIN LEVEL: 0 DIFFERENT FILL-ORIGIN LEVEL: 0
LLC AVERAGE MISS LATENCY: 171.028 cycles
LLC RQ	ACCESS:     269847	FORWARD:          0	MERGED:          0	TO_CACHE:     269847
LLC WQ	ACCESS:     120200	FORWARD:          0	MERGED:          0	TO_CACHE:     120200
LLC PQ	ACCESS:     232813	FORWARD:          0	MERGED:          0	TO_CACHE:     232813

LLC Dense regions hint to LLC: 0

RAW hits: 446789
Loads Generated: 7462239
Loads sent to L1D: 7015450
Stores Generated: 2167390
Stores sent to L1D: 2167389
Major fault: 0 Minor fault: 49198
Allocated PAGES: 49198
[Bingo] PHT Access: 112598
[Bingo] PHT Hit PC+Addr: 13259
[Bingo] PHT Hit PC+Offs: 70785
[Bingo] PHT Miss: 28554
[Bingo] Prefetch PC+Addr: 0
[Bingo] Prefetch PC+Offs: 0
[Bingo] Useful PC+Addr: 0
[Bingo] Useful PC+Offs: 0
[Bingo] Useless PC+Addr: 0
[Bingo] Useless PC+Offs: 0
[Bingo] L1 Prefetch per Region: 0
[Bingo] L2 Prefetch per Region: 4.25057
[Bingo] L3 Prefetch per Region: 0
[Bingo] No Prefetch per Region: 27.7494
[Bingo] Number of Voters Mean: 10.2498
[Bingo] Number of Voters SD: 15.4242
PHT read accesses: 1550052
PHT write accesses: 42065
AT read accesses: 195848
AT write accesses: 223580
FT read accesses: 132270
FT write accesses: 112598
PS read accesses: 173869
PS write accesses: 84044
PHT tag read accesses: 2879065
PHT tag write accesses: 55324
AT tag read accesses: 14733504
AT tag write accesses: 237916
FT tag read accesses: 14509083
FT tag write accesses: 202007
PS tag read accesses: 7945525
PS tag write accesses: 257786

DRAM Statistics
 CHANNEL 0
 RQ ROW_BUFFER_HIT:     135279  ROW_BUFFER_MISS:     284317
 DBUS_CONGESTED:        133
 WQ ROW_BUFFER_HIT:      19164  ROW_BUFFER_MISS:      92214  FULL:          0

 AVG_CONGESTED_CYCLE: 4
 All warmup complete: 2
Channel 0 Bank busy for read cycles: 0
Channel 0 Bank busy for write cycles: 0
Channel 0
Rank 0
0banks busy for read cycles: 49309420
0banks busy for write cycles: 40701
1banks busy for read cycles: 14025623
1banks busy for write cycles: 5975264
2banks busy for read cycles: 5945038
2banks busy for write cycles: 2004982
3banks busy for read cycles: 2016267
3banks busy for write cycles: 880307
4banks busy for read cycles: 766174
4banks busy for write cycles: 571436
5banks busy for read cycles: 365227
5banks busy for write cycles: 383780
6banks busy for read cycles: 282382
6banks busy for write cycles: 272526
7banks busy for read cycles: 338945
7banks busy for write cycles: 215466
8banks busy for read cycles: 1068960
8banks busy for write cycles: 354248

CPU 0 Branch Prediction Accuracy: 98.8849% MPKI: 1.84264 Average ROB Occupancy at Mispredict: 48.2657
Branch types
NOT_BRANCH: 0 0%
BRANCH_DIRECT_JUMP: 0 0%
BRANCH_INDIRECT: 0 0%
BRANCH_CONDITIONAL: 0 0%
BRANCH_DIRECT_CALL: 0 0%
BRANCH_INDIRECT_CALL: 0 0%
BRANCH_RETURN: 0 0%
BRANCH_OTHER: 0 0%

DRAM PAGES: 1048576
Allocated PAGES: 49198
