
*** ChampSim Multicore Out-of-Order Simulator ***

Warmup Instructions: 50000000
Simulation Instructions: 50000000
Number of CPUs: 1
LLC sets: 2048
LLC ways: 16
Off-chip DRAM Size: 4096 MB Channels: 1 Width: 64-bit Data Rate: 6400 MT/s
CPU 0 runs ../cloudsuite_traces//cassandra_phase4_core1.trace.gz
.gz
NUM_OF_IPS_IN_CRITICAL_IP_TRAINING: 64
NUM_OF_CRITICAL_IP_TRAINING_TABLE_WAYS: 2
NUM_OF_CRITICAL_IP_TRAINING_TABLE_SETS: 32
WOBBLY_CRITICAL_IP_CACHE_SETS: 32
WOBBLY_CRITICAL_IP_CACHE_WAYS: 4
BTB has LRU replacement policy
ITLB has LRU replacement policy
DTLB has LRU replacement policy
STLB has LRU replacement policy
L1I has LRU replacement policy
L1D has LRU replacement policy
Bingo PHT WAYS: 16 and PHT_SIZE: 16384
Initialize SRRIP state for L2C
Initialize DRRIP state for LLC
UNIQUE_ASID[0] = €
UNIQUE_ASID[1] = 
Heartbeat CPU 0 instructions: 10000002 cycles: 2804822 heartbeat IPC: 3.56529 cumulative IPC: 3.56529 (Simulation time: 0 hr 3 min 28 sec) 
Heartbeat CPU 0 instructions: 20000003 cycles: 5705883 heartbeat IPC: 3.44702 cumulative IPC: 3.50515 (Simulation time: 0 hr 6 min 49 sec) 
Heartbeat CPU 0 instructions: 30000002 cycles: 8700948 heartbeat IPC: 3.33883 cumulative IPC: 3.4479 (Simulation time: 0 hr 9 min 48 sec) 
Heartbeat CPU 0 instructions: 40000002 cycles: 11832180 heartbeat IPC: 3.19363 cumulative IPC: 3.38061 (Simulation time: 0 hr 13 min 30 sec) 
Heartbeat CPU 0 instructions: 50000000 cycles: 14814595 heartbeat IPC: 3.35299 cumulative IPC: 3.37505 (Simulation time: 0 hr 16 min 41 sec) 

Warmup complete CPU 0 instructions: 50000004 cycles: 14814596 (Simulation time: 0 hr 16 min 41 sec) 

% increase in all ip prefetch 374.552
% increase in all ip prefetch 18.1549
% increase in all ip prefetch 21.541
% increase in all ip prefetch 50.9237
% increase in all ip prefetch -37.8706
Heartbeat CPU 0 instructions: 60000002 cycles: 34387053 heartbeat IPC: 0.510922 cumulative IPC: 0.510922 (Simulation time: 0 hr 21 min 4 sec) 
Heartbeat CPU 0 instructions: 70000000 cycles: 51016286 heartbeat IPC: 0.601351 cumulative IPC: 0.55246 (Simulation time: 0 hr 25 min 33 sec) 
Heartbeat CPU 0 instructions: 80000001 cycles: 67957498 heartbeat IPC: 0.590277 cumulative IPC: 0.564516 (Simulation time: 0 hr 30 min 2 sec) 
Heartbeat CPU 0 instructions: 90000002 cycles: 87653820 heartbeat IPC: 0.507709 cumulative IPC: 0.549155 (Simulation time: 0 hr 34 min 6 sec) 
Heartbeat CPU 0 instructions: 100000002 cycles: 105294460 heartbeat IPC: 0.566873 cumulative IPC: 0.552609 (Simulation time: 0 hr 37 min 6 sec) 
Finished CPU 0 instructions: 50000002 cycles: 90479865 cumulative IPC: 0.552609 (Simulation time: 0 hr 37 min 6 sec) 

ChampSim completed all CPUs

Region of Interest Statistics

CPU 0 cumulative IPC: 0.552609 instructions: 50000002 cycles: 90479865

CPU 0 Average Load ROB stall cycles: 5.39202e+06
CPU 0 Fraction of times ROB stalled by Loads: 9.08859
CPU 0 Percentage of Load stall cycles in Total stall cycles: 5.64946e+07
 Total stall cycles: 55164027
 Total load stall cycles: 31164697708473
CPU 0 NUM of IPS identified critical: 0
CPU 0 Num of Load IPs stalling ROB: 3907
Threshold modification factor: -4
Max PIST entries: 64
Min PIST entries: 0
Avg PIST entries: 30.09
Critical IP stalls, total frequency: 0
rob stalling non-critical load ip: 16783620 freq: 56
rob stalling non-critical load ip: 16783636 freq: 5
rob stalling non-critical load ip: 16783652 freq: 45
rob stalling non-critical load ip: 16783656 freq: 7
rob stalling non-critical load ip: 16783660 freq: 1125
rob stalling non-critical load ip: 16783672 freq: 556
rob stalling non-critical load ip: 16783680 freq: 27
rob stalling non-critical load ip: 16783684 freq: 6
rob stalling non-critical load ip: 16783692 freq: 269
rob stalling non-critical load ip: 16783700 freq: 826
rob stalling non-critical load ip: 16783876 freq: 19
rob stalling non-critical load ip: 16783908 freq: 5
rob stalling non-critical load ip: 16783916 freq: 167
rob stalling non-critical load ip: 16783928 freq: 127
rob stalling non-critical load ip: 16783936 freq: 37
rob stalling non-critical load ip: 16783940 freq: 31
rob stalling non-critical load ip: 16783948 freq: 105
rob stalling non-critical load ip: 16783956 freq: 146
rob stalling non-critical load ip: 16784128 freq: 225
rob stalling non-critical load ip: 16784136 freq: 39
rob stalling non-critical load ip: 16784140 freq: 1
rob stalling non-critical load ip: 16784144 freq: 3
rob stalling non-critical load ip: 16784148 freq: 72
rob stalling non-critical load ip: 16784152 freq: 150
rob stalling non-critical load ip: 16784164 freq: 3
rob stalling non-critical load ip: 16784168 freq: 169
rob stalling non-critical load ip: 16784172 freq: 1
rob stalling non-critical load ip: 16784176 freq: 35
rob stalling non-critical load ip: 16784184 freq: 14
rob stalling non-critical load ip: 16800260 freq: 10
rob stalling non-critical load ip: 16800284 freq: 51
rob stalling non-critical load ip: 16800316 freq: 3
rob stalling non-critical load ip: 16800536 freq: 1
rob stalling non-critical load ip: 16803568 freq: 3
rob stalling non-critical load ip: 16806692 freq: 8
rob stalling non-critical load ip: 16806724 freq: 5
rob stalling non-critical load ip: 16806728 freq: 1
rob stalling non-critical load ip: 16806732 freq: 1
rob stalling non-critical load ip: 16807120 freq: 152
rob stalling non-critical load ip: 16807124 freq: 7
rob stalling non-critical load ip: 16807128 freq: 5
rob stalling non-critical load ip: 16807136 freq: 8
rob stalling non-critical load ip: 16807188 freq: 2
rob stalling non-critical load ip: 16807200 freq: 6
rob stalling non-critical load ip: 16807208 freq: 2
rob stalling non-critical load ip: 16807228 freq: 7
rob stalling non-critical load ip: 16807244 freq: 3
rob stalling non-critical load ip: 16807256 freq: 3
rob stalling non-critical load ip: 16807260 freq: 1
rob stalling non-critical load ip: 16807264 freq: 1
rob stalling non-critical load ip: 16807268 freq: 32
rob stalling non-critical load ip: 16807344 freq: 21
rob stalling non-critical load ip: 16807352 freq: 30
rob stalling non-critical load ip: 16807392 freq: 154
rob stalling non-critical load ip: 16807812 freq: 4
rob stalling non-critical load ip: 16807864 freq: 7
rob stalling non-critical load ip: 16807956 freq: 14
rob stalling non-critical load ip: 16807996 freq: 3
rob stalling non-critical load ip: 16808008 freq: 1
rob stalling non-critical load ip: 16808024 freq: 16
rob stalling non-critical load ip: 16809376 freq: 5
rob stalling non-critical load ip: 16812528 freq: 10
rob stalling non-critical load ip: 16812716 freq: 713
rob stalling non-critical load ip: 16812788 freq: 1
rob stalling non-critical load ip: 16812908 freq: 119
rob stalling non-critical load ip: 16813176 freq: 7957
rob stalling non-critical load ip: 16813308 freq: 13873
rob stalling non-critical load ip: 16813436 freq: 1
rob stalling non-critical load ip: 16813444 freq: 18
rob stalling non-critical load ip: 16813448 freq: 143
rob stalling non-critical load ip: 16813580 freq: 5
rob stalling non-critical load ip: 16813584 freq: 21
rob stalling non-critical load ip: 16813612 freq: 6
rob stalling non-critical load ip: 16813680 freq: 103
rob stalling non-critical load ip: 16813696 freq: 2
rob stalling non-critical load ip: 16813704 freq: 37
rob stalling non-critical load ip: 16813760 freq: 34
rob stalling non-critical load ip: 16813800 freq: 5
rob stalling non-critical load ip: 16814100 freq: 23
rob stalling non-critical load ip: 16814132 freq: 4
rob stalling non-critical load ip: 16814148 freq: 5
rob stalling non-critical load ip: 16814200 freq: 35
rob stalling non-critical load ip: 16814216 freq: 4
rob stalling non-critical load ip: 16814280 freq: 29
rob stalling non-critical load ip: 16814340 freq: 3
rob stalling non-critical load ip: 16815252 freq: 27
rob stalling non-critical load ip: 16815284 freq: 8
rob stalling non-critical load ip: 16815372 freq: 12
rob stalling non-critical load ip: 16815412 freq: 9
rob stalling non-critical load ip: 16815436 freq: 7
rob stalling non-critical load ip: 16815892 freq: 3
rob stalling non-critical load ip: 16817700 freq: 5
rob stalling non-critical load ip: 16817756 freq: 3
rob stalling non-critical load ip: 16817820 freq: 11
rob stalling non-critical load ip: 16817836 freq: 13
rob stalling non-critical load ip: 16817844 freq: 14
rob stalling non-critical load ip: 16817900 freq: 22
rob stalling non-critical load ip: 16817940 freq: 2
rob stalling non-critical load ip: 16817960 freq: 1
rob stalling non-critical load ip: 16820524 freq: 1
rob stalling non-critical load ip: 16820672 freq: 3
rob stalling non-critical load ip: 16820676 freq: 4
rob stalling non-critical load ip: 16820708 freq: 2
rob stalling non-critical load ip: 16820772 freq: 3
rob stalling non-critical load ip: 16820836 freq: 3
rob stalling non-critical load ip: 16821280 freq: 5
rob stalling non-critical load ip: 16821296 freq: 14
rob stalling non-critical load ip: 16821308 freq: 11
rob stalling non-critical load ip: 16821452 freq: 8
rob stalling non-critical load ip: 16821464 freq: 7
rob stalling non-critical load ip: 16821732 freq: 5
rob stalling non-critical load ip: 16821800 freq: 5
rob stalling non-critical load ip: 16821840 freq: 15
rob stalling non-critical load ip: 16821912 freq: 102
rob stalling non-critical load ip: 16821956 freq: 9
rob stalling non-critical load ip: 16821980 freq: 3
rob stalling non-critical load ip: 16822004 freq: 82
rob stalling non-critical load ip: 16822020 freq: 4
rob stalling non-critical load ip: 16822264 freq: 13
rob stalling non-critical load ip: 16822276 freq: 15
rob stalling non-critical load ip: 16822308 freq: 4
rob stalling non-critical load ip: 16822320 freq: 2
rob stalling non-critical load ip: 16822400 freq: 2
rob stalling non-critical load ip: 16822416 freq: 2
rob stalling non-critical load ip: 16822788 freq: 6
rob stalling non-critical load ip: 16823180 freq: 8
rob stalling non-critical load ip: 16823192 freq: 9
rob stalling non-critical load ip: 16823220 freq: 2
rob stalling non-critical load ip: 16823808 freq: 11
rob stalling non-critical load ip: 16823852 freq: 28
rob stalling non-critical load ip: 16824084 freq: 3
rob stalling non-critical load ip: 16824088 freq: 1
rob stalling non-critical load ip: 16824132 freq: 1
rob stalling non-critical load ip: 16824200 freq: 14
rob stalling non-critical load ip: 16824268 freq: 2
rob stalling non-critical load ip: 16826292 freq: 68
rob stalling non-critical load ip: 16826296 freq: 98
rob stalling non-critical load ip: 16827588 freq: 3
rob stalling non-critical load ip: 16827788 freq: 3
rob stalling non-critical load ip: 16828860 freq: 7
rob stalling non-critical load ip: 16828932 freq: 42
rob stalling non-critical load ip: 16844988 freq: 8
rob stalling non-critical load ip: 16845328 freq: 5
rob stalling non-critical load ip: 16851080 freq: 68
rob stalling non-critical load ip: 16851160 freq: 56
rob stalling non-critical load ip: 16851208 freq: 18
rob stalling non-critical load ip: 16851340 freq: 52
rob stalling non-critical load ip: 16851388 freq: 119
rob stalling non-critical load ip: 16851436 freq: 20
rob stalling non-critical load ip: 16851472 freq: 4
rob stalling non-critical load ip: 16851552 freq: 101
rob stalling non-critical load ip: 16851564 freq: 1
rob stalling non-critical load ip: 16851576 freq: 1
rob stalling non-critical load ip: 16851588 freq: 90
rob stalling non-critical load ip: 16851600 freq: 2
rob stalling non-critical load ip: 16851612 freq: 5
rob stalling non-critical load ip: 16851632 freq: 7
rob stalling non-critical load ip: 16851652 freq: 96
rob stalling non-critical load ip: 16851728 freq: 83
rob stalling non-critical load ip: 16858176 freq: 3
rob stalling non-critical load ip: 16858244 freq: 1
rob stalling non-critical load ip: 16865708 freq: 2
rob stalling non-critical load ip: 16865740 freq: 1
rob stalling non-critical load ip: 16891612 freq: 15
rob stalling non-critical load ip: 16891620 freq: 28
rob stalling non-critical load ip: 16891628 freq: 22
rob stalling non-critical load ip: 16891636 freq: 22
rob stalling non-critical load ip: 16891924 freq: 3
rob stalling non-critical load ip: 16891944 freq: 10
rob stalling non-critical load ip: 16891964 freq: 4
rob stalling non-critical load ip: 16892028 freq: 2
rob stalling non-critical load ip: 16892172 freq: 3
rob stalling non-critical load ip: 16892324 freq: 6
rob stalling non-critical load ip: 16898936 freq: 5
rob stalling non-critical load ip: 16899088 freq: 4
rob stalling non-critical load ip: 16899164 freq: 3
rob stalling non-critical load ip: 16899252 freq: 6
rob stalling non-critical load ip: 16900600 freq: 12
rob stalling non-critical load ip: 16900648 freq: 2
rob stalling non-critical load ip: 16908452 freq: 8
rob stalling non-critical load ip: 16908636 freq: 4
rob stalling non-critical load ip: 16908808 freq: 6
rob stalling non-critical load ip: 16908944 freq: 7
rob stalling non-critical load ip: 16917068 freq: 14
rob stalling non-critical load ip: 16917076 freq: 2
rob stalling non-critical load ip: 16917116 freq: 45
rob stalling non-critical load ip: 16917124 freq: 36
rob stalling non-critical load ip: 16917760 freq: 16
rob stalling non-critical load ip: 16917772 freq: 9
rob stalling non-critical load ip: 16924716 freq: 26
rob stalling non-critical load ip: 16946440 freq: 2
rob stalling non-critical load ip: 16946620 freq: 7
rob stalling non-critical load ip: 16959880 freq: 2
rob stalling non-critical load ip: 16960136 freq: 2
rob stalling non-critical load ip: 16960204 freq: 2
rob stalling non-critical load ip: 16960336 freq: 1
rob stalling non-critical load ip: 16965236 freq: 1
rob stalling non-critical load ip: 16965380 freq: 6
rob stalling non-critical load ip: 16965588 freq: 1
rob stalling non-critical load ip: 16966772 freq: 4
rob stalling non-critical load ip: 16966800 freq: 6
rob stalling non-critical load ip: 16967368 freq: 2
rob stalling non-critical load ip: 16969904 freq: 2
rob stalling non-critical load ip: 16977404 freq: 4
rob stalling non-critical load ip: 16977480 freq: 4
rob stalling non-critical load ip: 16990072 freq: 4
rob stalling non-critical load ip: 16990688 freq: 2
rob stalling non-critical load ip: 17002964 freq: 3
rob stalling non-critical load ip: 17003036 freq: 6
rob stalling non-critical load ip: 17003072 freq: 24
rob stalling non-critical load ip: 17003116 freq: 2
rob stalling non-critical load ip: 17003184 freq: 1
rob stalling non-critical load ip: 17018104 freq: 3
rob stalling non-critical load ip: 17022708 freq: 20
rob stalling non-critical load ip: 17077560 freq: 9
rob stalling non-critical load ip: 17077640 freq: 3
rob stalling non-critical load ip: 17077668 freq: 2
rob stalling non-critical load ip: 17077684 freq: 13
rob stalling non-critical load ip: 17077688 freq: 9
rob stalling non-critical load ip: 17077812 freq: 3
rob stalling non-critical load ip: 17077844 freq: 1
rob stalling non-critical load ip: 17077916 freq: 4
rob stalling non-critical load ip: 17078088 freq: 7
rob stalling non-critical load ip: 17078100 freq: 6
rob stalling non-critical load ip: 17078104 freq: 6
rob stalling non-critical load ip: 17078144 freq: 3
rob stalling non-critical load ip: 17078240 freq: 1
rob stalling non-critical load ip: 17078252 freq: 1
rob stalling non-critical load ip: 17078420 freq: 12
rob stalling non-critical load ip: 17079616 freq: 26
rob stalling non-critical load ip: 17079636 freq: 6
rob stalling non-critical load ip: 17079680 freq: 2
rob stalling non-critical load ip: 17079744 freq: 4
rob stalling non-critical load ip: 17080064 freq: 2
rob stalling non-critical load ip: 17084036 freq: 4
rob stalling non-critical load ip: 17084128 freq: 22
rob stalling non-critical load ip: 17084192 freq: 19
rob stalling non-critical load ip: 17084300 freq: 16
rob stalling non-critical load ip: 17084332 freq: 15
rob stalling non-critical load ip: 17084340 freq: 10
rob stalling non-critical load ip: 17084388 freq: 275
rob stalling non-critical load ip: 17084544 freq: 267
rob stalling non-critical load ip: 17084592 freq: 2
rob stalling non-critical load ip: 17084652 freq: 111
rob stalling non-critical load ip: 17084656 freq: 90
rob stalling non-critical load ip: 17084752 freq: 14
rob stalling non-critical load ip: 17084772 freq: 13
rob stalling non-critical load ip: 17084780 freq: 34
rob stalling non-critical load ip: 17084836 freq: 2
rob stalling non-critical load ip: 17088808 freq: 11
rob stalling non-critical load ip: 17089608 freq: 87
rob stalling non-critical load ip: 17089724 freq: 1
rob stalling non-critical load ip: 17089780 freq: 9
rob stalling non-critical load ip: 17089784 freq: 31
rob stalling non-critical load ip: 17105460 freq: 11
rob stalling non-critical load ip: 17109080 freq: 4
rob stalling non-critical load ip: 17109088 freq: 4
rob stalling non-critical load ip: 17109104 freq: 1
rob stalling non-critical load ip: 17109116 freq: 1
rob stalling non-critical load ip: 17109144 freq: 3
rob stalling non-critical load ip: 17109496 freq: 12
rob stalling non-critical load ip: 17109512 freq: 1
rob stalling non-critical load ip: 17109616 freq: 7
rob stalling non-critical load ip: 17109620 freq: 5
rob stalling non-critical load ip: 17147696 freq: 9
rob stalling non-critical load ip: 17148832 freq: 26
rob stalling non-critical load ip: 17148844 freq: 1
rob stalling non-critical load ip: 17148868 freq: 1
rob stalling non-critical load ip: 17148904 freq: 3
rob stalling non-critical load ip: 17148972 freq: 21
rob stalling non-critical load ip: 17148988 freq: 1
rob stalling non-critical load ip: 17149204 freq: 2
rob stalling non-critical load ip: 17149340 freq: 9
rob stalling non-critical load ip: 17149400 freq: 11
rob stalling non-critical load ip: 17149516 freq: 6
rob stalling non-critical load ip: 17149568 freq: 1
rob stalling non-critical load ip: 17158540 freq: 18
rob stalling non-critical load ip: 17182648 freq: 3
rob stalling non-critical load ip: 17182832 freq: 4
rob stalling non-critical load ip: 17182836 freq: 5
rob stalling non-critical load ip: 17182912 freq: 3
rob stalling non-critical load ip: 17183048 freq: 2
rob stalling non-critical load ip: 17183060 freq: 15
rob stalling non-critical load ip: 17183108 freq: 16
rob stalling non-critical load ip: 17183140 freq: 8
rob stalling non-critical load ip: 17183188 freq: 4
rob stalling non-critical load ip: 17183248 freq: 28
rob stalling non-critical load ip: 17183380 freq: 2
rob stalling non-critical load ip: 17183436 freq: 5
rob stalling non-critical load ip: 17183560 freq: 10
rob stalling non-critical load ip: 17183568 freq: 2
rob stalling non-critical load ip: 17183688 freq: 2
rob stalling non-critical load ip: 17183812 freq: 51
rob stalling non-critical load ip: 17183860 freq: 10
rob stalling non-critical load ip: 17183920 freq: 1
rob stalling non-critical load ip: 17183952 freq: 9
rob stalling non-critical load ip: 17183960 freq: 47
rob stalling non-critical load ip: 17184072 freq: 15
rob stalling non-critical load ip: 17184084 freq: 15
rob stalling non-critical load ip: 17184100 freq: 8
rob stalling non-critical load ip: 17184328 freq: 1
rob stalling non-critical load ip: 17184712 freq: 1
rob stalling non-critical load ip: 17184740 freq: 6
rob stalling non-critical load ip: 17184900 freq: 3
rob stalling non-critical load ip: 17184924 freq: 2
rob stalling non-critical load ip: 17184968 freq: 2
rob stalling non-critical load ip: 17184988 freq: 1
rob stalling non-critical load ip: 17185032 freq: 1
rob stalling non-critical load ip: 17185180 freq: 3
rob stalling non-critical load ip: 17185456 freq: 8
rob stalling non-critical load ip: 17185704 freq: 4
rob stalling non-critical load ip: 17185764 freq: 2
rob stalling non-critical load ip: 17185832 freq: 1
rob stalling non-critical load ip: 17185856 freq: 2
rob stalling non-critical load ip: 17185872 freq: 2
rob stalling non-critical load ip: 17185984 freq: 2
rob stalling non-critical load ip: 17185988 freq: 2
rob stalling non-critical load ip: 17186048 freq: 8
rob stalling non-critical load ip: 17186072 freq: 4
rob stalling non-critical load ip: 17186100 freq: 3
rob stalling non-critical load ip: 17186488 freq: 4
rob stalling non-critical load ip: 17186520 freq: 8
rob stalling non-critical load ip: 17186588 freq: 13
rob stalling non-critical load ip: 17186596 freq: 7
rob stalling non-critical load ip: 17186736 freq: 2
rob stalling non-critical load ip: 17187196 freq: 4
rob stalling non-critical load ip: 17187276 freq: 4
rob stalling non-critical load ip: 17188224 freq: 13
rob stalling non-critical load ip: 17188228 freq: 5
rob stalling non-critical load ip: 17188244 freq: 2
rob stalling non-critical load ip: 17188264 freq: 7
rob stalling non-critical load ip: 17188292 freq: 29
rob stalling non-critical load ip: 17188316 freq: 7
rob stalling non-critical load ip: 17188436 freq: 20
rob stalling non-critical load ip: 17188440 freq: 9
rob stalling non-critical load ip: 17188532 freq: 1
rob stalling non-critical load ip: 17188556 freq: 9
rob stalling non-critical load ip: 17188568 freq: 6
rob stalling non-critical load ip: 17188584 freq: 6
rob stalling non-critical load ip: 17188596 freq: 2
rob stalling non-critical load ip: 17188600 freq: 3
rob stalling non-critical load ip: 17188616 freq: 8
rob stalling non-critical load ip: 17188636 freq: 3
rob stalling non-critical load ip: 17188652 freq: 24
rob stalling non-critical load ip: 17188700 freq: 7
rob stalling non-critical load ip: 17188732 freq: 1
rob stalling non-critical load ip: 17188784 freq: 18
rob stalling non-critical load ip: 17188792 freq: 5
rob stalling non-critical load ip: 17189432 freq: 1
rob stalling non-critical load ip: 17189488 freq: 5
rob stalling non-critical load ip: 17190268 freq: 2
rob stalling non-critical load ip: 17190288 freq: 5
rob stalling non-critical load ip: 17190300 freq: 1
rob stalling non-critical load ip: 17225220 freq: 37
rob stalling non-critical load ip: 17225292 freq: 1
rob stalling non-critical load ip: 17225488 freq: 1
rob stalling non-critical load ip: 17225500 freq: 7
rob stalling non-critical load ip: 17225876 freq: 1
rob stalling non-critical load ip: 17225984 freq: 3
rob stalling non-critical load ip: 17226532 freq: 26
rob stalling non-critical load ip: 17226548 freq: 1
rob stalling non-critical load ip: 17226796 freq: 2
rob stalling non-critical load ip: 17226856 freq: 1
rob stalling non-critical load ip: 17226948 freq: 61
rob stalling non-critical load ip: 17245100 freq: 84
rob stalling non-critical load ip: 17245104 freq: 1
rob stalling non-critical load ip: 17247576 freq: 29
rob stalling non-critical load ip: 17247588 freq: 5
rob stalling non-critical load ip: 17247664 freq: 1
rob stalling non-critical load ip: 17247668 freq: 38
rob stalling non-critical load ip: 17247672 freq: 17
rob stalling non-critical load ip: 17247676 freq: 8
rob stalling non-critical load ip: 17247864 freq: 1
rob stalling non-critical load ip: 17247896 freq: 11
rob stalling non-critical load ip: 17247988 freq: 17
rob stalling non-critical load ip: 17248120 freq: 17
rob stalling non-critical load ip: 17248652 freq: 1
rob stalling non-critical load ip: 17254328 freq: 4
rob stalling non-critical load ip: 17267924 freq: 3
rob stalling non-critical load ip: 17410380 freq: 6
rob stalling non-critical load ip: 17503864 freq: 3
rob stalling non-critical load ip: 17504256 freq: 9
rob stalling non-critical load ip: 17504760 freq: 16
rob stalling non-critical load ip: 17504912 freq: 6
rob stalling non-critical load ip: 17505268 freq: 6
rob stalling non-critical load ip: 17506076 freq: 7
rob stalling non-critical load ip: 17506112 freq: 1
rob stalling non-critical load ip: 17506192 freq: 4
rob stalling non-critical load ip: 17506308 freq: 1
rob stalling non-critical load ip: 17506356 freq: 4
rob stalling non-critical load ip: 17506380 freq: 6
rob stalling non-critical load ip: 17506584 freq: 11
rob stalling non-critical load ip: 17506844 freq: 3
rob stalling non-critical load ip: 17506884 freq: 15
rob stalling non-critical load ip: 17507044 freq: 29
rob stalling non-critical load ip: 17507160 freq: 6
rob stalling non-critical load ip: 17507336 freq: 2
rob stalling non-critical load ip: 17507396 freq: 5
rob stalling non-critical load ip: 17507428 freq: 5
rob stalling non-critical load ip: 17507476 freq: 5
rob stalling non-critical load ip: 17511888 freq: 18
rob stalling non-critical load ip: 17511980 freq: 20
rob stalling non-critical load ip: 17546088 freq: 441
rob stalling non-critical load ip: 17546104 freq: 4
rob stalling non-critical load ip: 17546120 freq: 4
rob stalling non-critical load ip: 17546172 freq: 4
rob stalling non-critical load ip: 17546908 freq: 2
rob stalling non-critical load ip: 17547352 freq: 31
rob stalling non-critical load ip: 17548040 freq: 30
rob stalling non-critical load ip: 17612428 freq: 10
rob stalling non-critical load ip: 17612436 freq: 5
rob stalling non-critical load ip: 17612452 freq: 2
rob stalling non-critical load ip: 17613884 freq: 2
rob stalling non-critical load ip: 17613980 freq: 2
rob stalling non-critical load ip: 17614016 freq: 1
rob stalling non-critical load ip: 17614068 freq: 1
rob stalling non-critical load ip: 17614256 freq: 3
rob stalling non-critical load ip: 17614300 freq: 4
rob stalling non-critical load ip: 17614460 freq: 6
rob stalling non-critical load ip: 17614468 freq: 2
rob stalling non-critical load ip: 17614660 freq: 1
rob stalling non-critical load ip: 17614692 freq: 2
rob stalling non-critical load ip: 17616016 freq: 11
rob stalling non-critical load ip: 17616020 freq: 3
rob stalling non-critical load ip: 17616192 freq: 6
rob stalling non-critical load ip: 17616316 freq: 2
rob stalling non-critical load ip: 17616612 freq: 2
rob stalling non-critical load ip: 17616908 freq: 3
rob stalling non-critical load ip: 17616996 freq: 4
rob stalling non-critical load ip: 17617580 freq: 5
rob stalling non-critical load ip: 17617684 freq: 3
rob stalling non-critical load ip: 17617788 freq: 1
rob stalling non-critical load ip: 17617800 freq: 2
rob stalling non-critical load ip: 17617840 freq: 1
rob stalling non-critical load ip: 17617848 freq: 2
rob stalling non-critical load ip: 17617868 freq: 4
rob stalling non-critical load ip: 17617884 freq: 8
rob stalling non-critical load ip: 17617900 freq: 5
rob stalling non-critical load ip: 17617944 freq: 3
rob stalling non-critical load ip: 17618556 freq: 9
rob stalling non-critical load ip: 17618600 freq: 1
rob stalling non-critical load ip: 17618988 freq: 3
rob stalling non-critical load ip: 17641524 freq: 6
rob stalling non-critical load ip: 17641540 freq: 7
rob stalling non-critical load ip: 17641560 freq: 2
rob stalling non-critical load ip: 17641616 freq: 1
rob stalling non-critical load ip: 17642272 freq: 4
rob stalling non-critical load ip: 17642428 freq: 5
rob stalling non-critical load ip: 17644128 freq: 3
rob stalling non-critical load ip: 17644276 freq: 192
rob stalling non-critical load ip: 17668288 freq: 2
rob stalling non-critical load ip: 17682804 freq: 8
rob stalling non-critical load ip: 17682824 freq: 4
rob stalling non-critical load ip: 17683040 freq: 5
rob stalling non-critical load ip: 17683092 freq: 2
rob stalling non-critical load ip: 17683164 freq: 3
rob stalling non-critical load ip: 17683248 freq: 1
rob stalling non-critical load ip: 17683252 freq: 2
rob stalling non-critical load ip: 17683576 freq: 3
rob stalling non-critical load ip: 17692512 freq: 10
rob stalling non-critical load ip: 17692516 freq: 6
rob stalling non-critical load ip: 17692592 freq: 34
rob stalling non-critical load ip: 17692596 freq: 19
rob stalling non-critical load ip: 17782316 freq: 55
rob stalling non-critical load ip: 17782380 freq: 27
rob stalling non-critical load ip: 17782416 freq: 3
rob stalling non-critical load ip: 17782476 freq: 24
rob stalling non-critical load ip: 17782496 freq: 1
rob stalling non-critical load ip: 17782536 freq: 7
rob stalling non-critical load ip: 17782600 freq: 4
rob stalling non-critical load ip: 17782928 freq: 21
rob stalling non-critical load ip: 17782984 freq: 5
rob stalling non-critical load ip: 17783272 freq: 17
rob stalling non-critical load ip: 17784996 freq: 8
rob stalling non-critical load ip: 17785020 freq: 1
rob stalling non-critical load ip: 17785056 freq: 16
rob stalling non-critical load ip: 17785228 freq: 13
rob stalling non-critical load ip: 17785400 freq: 4
rob stalling non-critical load ip: 17795512 freq: 7
rob stalling non-critical load ip: 17795560 freq: 2
rob stalling non-critical load ip: 17795608 freq: 2
rob stalling non-critical load ip: 17825316 freq: 3
rob stalling non-critical load ip: 17878120 freq: 1
rob stalling non-critical load ip: 17905336 freq: 1
rob stalling non-critical load ip: 17905356 freq: 10
rob stalling non-critical load ip: 17905412 freq: 6
rob stalling non-critical load ip: 17905436 freq: 24
rob stalling non-critical load ip: 17905520 freq: 9
rob stalling non-critical load ip: 17905544 freq: 18
rob stalling non-critical load ip: 17906156 freq: 9
rob stalling non-critical load ip: 17906336 freq: 16
rob stalling non-critical load ip: 17906384 freq: 12
rob stalling non-critical load ip: 17906400 freq: 11
rob stalling non-critical load ip: 17906620 freq: 4
rob stalling non-critical load ip: 17906844 freq: 51
rob stalling non-critical load ip: 17906888 freq: 4
rob stalling non-critical load ip: 17906980 freq: 1
rob stalling non-critical load ip: 17907064 freq: 46
rob stalling non-critical load ip: 17908136 freq: 4
rob stalling non-critical load ip: 17908272 freq: 64
rob stalling non-critical load ip: 17908968 freq: 5
rob stalling non-critical load ip: 17909124 freq: 5
rob stalling non-critical load ip: 17909160 freq: 9
rob stalling non-critical load ip: 17909216 freq: 2
rob stalling non-critical load ip: 18022900 freq: 11
rob stalling non-critical load ip: 18022944 freq: 11
rob stalling non-critical load ip: 18025240 freq: 3
rob stalling non-critical load ip: 18025248 freq: 6
rob stalling non-critical load ip: 18025276 freq: 4
rob stalling non-critical load ip: 18025296 freq: 14
rob stalling non-critical load ip: 18025304 freq: 4
rob stalling non-critical load ip: 18025576 freq: 4
rob stalling non-critical load ip: 18025804 freq: 1
rob stalling non-critical load ip: 18026080 freq: 1
rob stalling non-critical load ip: 18026640 freq: 10
rob stalling non-critical load ip: 18026908 freq: 4
rob stalling non-critical load ip: 18026928 freq: 18
rob stalling non-critical load ip: 18026960 freq: 2
rob stalling non-critical load ip: 18027120 freq: 8
rob stalling non-critical load ip: 18027156 freq: 19
rob stalling non-critical load ip: 18027236 freq: 2
rob stalling non-critical load ip: 18027924 freq: 7
rob stalling non-critical load ip: 18027932 freq: 6
rob stalling non-critical load ip: 18049648 freq: 5
rob stalling non-critical load ip: 18049664 freq: 39
rob stalling non-critical load ip: 18049728 freq: 5
rob stalling non-critical load ip: 18049736 freq: 4
rob stalling non-critical load ip: 18049920 freq: 37
rob stalling non-critical load ip: 18049936 freq: 4
rob stalling non-critical load ip: 18049996 freq: 16
rob stalling non-critical load ip: 18050004 freq: 4
rob stalling non-critical load ip: 18050036 freq: 8
rob stalling non-critical load ip: 18064428 freq: 10
rob stalling non-critical load ip: 18064772 freq: 3
rob stalling non-critical load ip: 18064792 freq: 1
rob stalling non-critical load ip: 18065108 freq: 18
rob stalling non-critical load ip: 18065564 freq: 49
rob stalling non-critical load ip: 18086804 freq: 10
rob stalling non-critical load ip: 18086944 freq: 3
rob stalling non-critical load ip: 18088656 freq: 6
rob stalling non-critical load ip: 18088676 freq: 10
rob stalling non-critical load ip: 18088772 freq: 5
rob stalling non-critical load ip: 18093444 freq: 1
rob stalling non-critical load ip: 18093648 freq: 6
rob stalling non-critical load ip: 18093688 freq: 3
rob stalling non-critical load ip: 18093732 freq: 2
rob stalling non-critical load ip: 18093808 freq: 2
rob stalling non-critical load ip: 18094604 freq: 2
rob stalling non-critical load ip: 18094696 freq: 14
rob stalling non-critical load ip: 18094784 freq: 2
rob stalling non-critical load ip: 18094816 freq: 1
rob stalling non-critical load ip: 18094956 freq: 5
rob stalling non-critical load ip: 18095488 freq: 2
rob stalling non-critical load ip: 18095580 freq: 4
rob stalling non-critical load ip: 18095592 freq: 6
rob stalling non-critical load ip: 18095596 freq: 11
rob stalling non-critical load ip: 18095816 freq: 2
rob stalling non-critical load ip: 18095824 freq: 2
rob stalling non-critical load ip: 18095872 freq: 1
rob stalling non-critical load ip: 18095928 freq: 6
rob stalling non-critical load ip: 18096056 freq: 1
rob stalling non-critical load ip: 18096076 freq: 1
rob stalling non-critical load ip: 18096088 freq: 2
rob stalling non-critical load ip: 18096840 freq: 2
rob stalling non-critical load ip: 18097068 freq: 1
rob stalling non-critical load ip: 18128468 freq: 33
rob stalling non-critical load ip: 18128484 freq: 6
rob stalling non-critical load ip: 18128640 freq: 1
rob stalling non-critical load ip: 18128744 freq: 9
rob stalling non-critical load ip: 18132144 freq: 1
rob stalling non-critical load ip: 18132720 freq: 118
rob stalling non-critical load ip: 18132760 freq: 67
rob stalling non-critical load ip: 18132804 freq: 8
rob stalling non-critical load ip: 18132832 freq: 18
rob stalling non-critical load ip: 18132872 freq: 10
rob stalling non-critical load ip: 18132896 freq: 28
rob stalling non-critical load ip: 18132908 freq: 20
rob stalling non-critical load ip: 18132980 freq: 28
rob stalling non-critical load ip: 18132996 freq: 59
rob stalling non-critical load ip: 18133012 freq: 2
rob stalling non-critical load ip: 18133080 freq: 179
rob stalling non-critical load ip: 18133112 freq: 21
rob stalling non-critical load ip: 18133368 freq: 110
rob stalling non-critical load ip: 18133388 freq: 25
rob stalling non-critical load ip: 18133392 freq: 44
rob stalling non-critical load ip: 18133404 freq: 22
rob stalling non-critical load ip: 18133408 freq: 54
rob stalling non-critical load ip: 18133456 freq: 1
rob stalling non-critical load ip: 18133528 freq: 8
rob stalling non-critical load ip: 18133592 freq: 29
rob stalling non-critical load ip: 18133608 freq: 32
rob stalling non-critical load ip: 18133724 freq: 6
rob stalling non-critical load ip: 18133736 freq: 5
rob stalling non-critical load ip: 18133936 freq: 16
rob stalling non-critical load ip: 18133940 freq: 3
rob stalling non-critical load ip: 18133964 freq: 25
rob stalling non-critical load ip: 18133996 freq: 11
rob stalling non-critical load ip: 18134000 freq: 3
rob stalling non-critical load ip: 18134012 freq: 4
rob stalling non-critical load ip: 18134084 freq: 18
rob stalling non-critical load ip: 18134192 freq: 21
rob stalling non-critical load ip: 18134276 freq: 8
rob stalling non-critical load ip: 18134316 freq: 13
rob stalling non-critical load ip: 18134344 freq: 10
rob stalling non-critical load ip: 18134356 freq: 8
rob stalling non-critical load ip: 18134420 freq: 4
rob stalling non-critical load ip: 18134436 freq: 3
rob stalling non-critical load ip: 18180252 freq: 10
rob stalling non-critical load ip: 18181084 freq: 13
rob stalling non-critical load ip: 18181104 freq: 31
rob stalling non-critical load ip: 18181332 freq: 16
rob stalling non-critical load ip: 18302756 freq: 4
rob stalling non-critical load ip: 18303116 freq: 5
rob stalling non-critical load ip: 18303272 freq: 5
rob stalling non-critical load ip: 18303300 freq: 1
rob stalling non-critical load ip: 18303304 freq: 3
rob stalling non-critical load ip: 18303328 freq: 1
rob stalling non-critical load ip: 18310948 freq: 2
rob stalling non-critical load ip: 18310964 freq: 2
rob stalling non-critical load ip: 18311824 freq: 1
rob stalling non-critical load ip: 18311956 freq: 8
rob stalling non-critical load ip: 18317984 freq: 2
rob stalling non-critical load ip: 18386140 freq: 3
rob stalling non-critical load ip: 18386368 freq: 2
rob stalling non-critical load ip: 18457504 freq: 23
rob stalling non-critical load ip: 18457572 freq: 8
rob stalling non-critical load ip: 18457592 freq: 13
rob stalling non-critical load ip: 18466760 freq: 7
rob stalling non-critical load ip: 18466768 freq: 36
rob stalling non-critical load ip: 18466784 freq: 2
rob stalling non-critical load ip: 18466824 freq: 13
rob stalling non-critical load ip: 18466852 freq: 2
rob stalling non-critical load ip: 18466888 freq: 3
rob stalling non-critical load ip: 18466952 freq: 2
rob stalling non-critical load ip: 18466988 freq: 1
rob stalling non-critical load ip: 18467084 freq: 13
rob stalling non-critical load ip: 18467160 freq: 3
rob stalling non-critical load ip: 18467308 freq: 14
rob stalling non-critical load ip: 18467324 freq: 7
rob stalling non-critical load ip: 18467388 freq: 6
rob stalling non-critical load ip: 18467404 freq: 3
rob stalling non-critical load ip: 18467416 freq: 1
rob stalling non-critical load ip: 18469308 freq: 2
rob stalling non-critical load ip: 18469516 freq: 1
rob stalling non-critical load ip: 18469560 freq: 3
rob stalling non-critical load ip: 18469592 freq: 4
rob stalling non-critical load ip: 18469756 freq: 8
rob stalling non-critical load ip: 18469772 freq: 1
rob stalling non-critical load ip: 18481788 freq: 4
rob stalling non-critical load ip: 18481820 freq: 1
rob stalling non-critical load ip: 18482232 freq: 21
rob stalling non-critical load ip: 18482236 freq: 54
rob stalling non-critical load ip: 18482280 freq: 3
rob stalling non-critical load ip: 18482352 freq: 4
rob stalling non-critical load ip: 18482800 freq: 7
rob stalling non-critical load ip: 18482896 freq: 1
rob stalling non-critical load ip: 18482956 freq: 6
rob stalling non-critical load ip: 18482972 freq: 3
rob stalling non-critical load ip: 18483004 freq: 7
rob stalling non-critical load ip: 18483052 freq: 4
rob stalling non-critical load ip: 18488312 freq: 4
rob stalling non-critical load ip: 18488568 freq: 1
rob stalling non-critical load ip: 18488592 freq: 2
rob stalling non-critical load ip: 18488652 freq: 4
rob stalling non-critical load ip: 18488692 freq: 2
rob stalling non-critical load ip: 18489448 freq: 1
rob stalling non-critical load ip: 18489604 freq: 15
rob stalling non-critical load ip: 18489608 freq: 4
rob stalling non-critical load ip: 18489624 freq: 1
rob stalling non-critical load ip: 18489728 freq: 1
rob stalling non-critical load ip: 18489732 freq: 1
rob stalling non-critical load ip: 18489896 freq: 1
rob stalling non-critical load ip: 18490828 freq: 2
rob stalling non-critical load ip: 18493784 freq: 21
rob stalling non-critical load ip: 18493816 freq: 8
rob stalling non-critical load ip: 18494112 freq: 11
rob stalling non-critical load ip: 18494708 freq: 7
rob stalling non-critical load ip: 18494716 freq: 2
rob stalling non-critical load ip: 18494728 freq: 4
rob stalling non-critical load ip: 18494872 freq: 4
rob stalling non-critical load ip: 18510112 freq: 9
rob stalling non-critical load ip: 18510548 freq: 11
rob stalling non-critical load ip: 18510948 freq: 13
rob stalling non-critical load ip: 18510952 freq: 1
rob stalling non-critical load ip: 18510968 freq: 2
rob stalling non-critical load ip: 18510984 freq: 1
rob stalling non-critical load ip: 18511016 freq: 3
rob stalling non-critical load ip: 18513524 freq: 1
rob stalling non-critical load ip: 18514352 freq: 7
rob stalling non-critical load ip: 18514412 freq: 13
rob stalling non-critical load ip: 18514688 freq: 21
rob stalling non-critical load ip: 18514792 freq: 20
rob stalling non-critical load ip: 18514816 freq: 4
rob stalling non-critical load ip: 18514864 freq: 6
rob stalling non-critical load ip: 18550640 freq: 6
rob stalling non-critical load ip: 18550676 freq: 2
rob stalling non-critical load ip: 18550808 freq: 1
rob stalling non-critical load ip: 18551032 freq: 5
rob stalling non-critical load ip: 18551932 freq: 3
rob stalling non-critical load ip: 18552128 freq: 1
rob stalling non-critical load ip: 18552272 freq: 6
rob stalling non-critical load ip: 18552508 freq: 6
rob stalling non-critical load ip: 18552516 freq: 5
rob stalling non-critical load ip: 18552572 freq: 1
rob stalling non-critical load ip: 18553272 freq: 4
rob stalling non-critical load ip: 18553752 freq: 4
rob stalling non-critical load ip: 18553908 freq: 9
rob stalling non-critical load ip: 18554056 freq: 9
rob stalling non-critical load ip: 18554184 freq: 6
rob stalling non-critical load ip: 18554200 freq: 2
rob stalling non-critical load ip: 18599992 freq: 35
rob stalling non-critical load ip: 18604344 freq: 6
rob stalling non-critical load ip: 18625668 freq: 3
rob stalling non-critical load ip: 18631116 freq: 4
rob stalling non-critical load ip: 18634180 freq: 5
rob stalling non-critical load ip: 18634432 freq: 3
rob stalling non-critical load ip: 18757352 freq: 1
rob stalling non-critical load ip: 18757520 freq: 9
rob stalling non-critical load ip: 18757540 freq: 3
rob stalling non-critical load ip: 18757776 freq: 2
rob stalling non-critical load ip: 18757996 freq: 1
rob stalling non-critical load ip: 18759664 freq: 10
rob stalling non-critical load ip: 18759748 freq: 2
rob stalling non-critical load ip: 18760628 freq: 2
rob stalling non-critical load ip: 18760672 freq: 1
rob stalling non-critical load ip: 18777480 freq: 2
rob stalling non-critical load ip: 18783856 freq: 27
rob stalling non-critical load ip: 18783872 freq: 4
rob stalling non-critical load ip: 18783924 freq: 5
rob stalling non-critical load ip: 18783940 freq: 8
rob stalling non-critical load ip: 18784552 freq: 6
rob stalling non-critical load ip: 18786052 freq: 34
rob stalling non-critical load ip: 18786216 freq: 9
rob stalling non-critical load ip: 18786240 freq: 2
rob stalling non-critical load ip: 18786264 freq: 20
rob stalling non-critical load ip: 18790068 freq: 6
rob stalling non-critical load ip: 18790284 freq: 5
rob stalling non-critical load ip: 18790324 freq: 2
rob stalling non-critical load ip: 18790364 freq: 15
rob stalling non-critical load ip: 18790388 freq: 2
rob stalling non-critical load ip: 18790500 freq: 9
rob stalling non-critical load ip: 18790984 freq: 3
rob stalling non-critical load ip: 18791368 freq: 6
rob stalling non-critical load ip: 18791472 freq: 10
rob stalling non-critical load ip: 18791568 freq: 1
rob stalling non-critical load ip: 18791756 freq: 3
rob stalling non-critical load ip: 18791760 freq: 7
rob stalling non-critical load ip: 18791796 freq: 7
rob stalling non-critical load ip: 18791860 freq: 2
rob stalling non-critical load ip: 18791864 freq: 3
rob stalling non-critical load ip: 18791880 freq: 3
rob stalling non-critical load ip: 18792112 freq: 3
rob stalling non-critical load ip: 18792888 freq: 8
rob stalling non-critical load ip: 18793196 freq: 4
rob stalling non-critical load ip: 18793236 freq: 4
rob stalling non-critical load ip: 18847852 freq: 4
rob stalling non-critical load ip: 18848172 freq: 6
rob stalling non-critical load ip: 18848564 freq: 2
rob stalling non-critical load ip: 18848928 freq: 7
rob stalling non-critical load ip: 18848936 freq: 6
rob stalling non-critical load ip: 18848996 freq: 5
rob stalling non-critical load ip: 18850924 freq: 5
rob stalling non-critical load ip: 18850996 freq: 1
rob stalling non-critical load ip: 18851080 freq: 4
rob stalling non-critical load ip: 18854632 freq: 3
rob stalling non-critical load ip: 18879816 freq: 3
rob stalling non-critical load ip: 18880020 freq: 4
rob stalling non-critical load ip: 18946100 freq: 1
rob stalling non-critical load ip: 18946188 freq: 7
rob stalling non-critical load ip: 18947388 freq: 7
rob stalling non-critical load ip: 18947596 freq: 5
rob stalling non-critical load ip: 18951600 freq: 1
rob stalling non-critical load ip: 18951656 freq: 3
rob stalling non-critical load ip: 18951880 freq: 8
rob stalling non-critical load ip: 18952028 freq: 7
rob stalling non-critical load ip: 18954108 freq: 6
rob stalling non-critical load ip: 18955848 freq: 7
rob stalling non-critical load ip: 18955980 freq: 8
rob stalling non-critical load ip: 18956512 freq: 2
rob stalling non-critical load ip: 18956528 freq: 2
rob stalling non-critical load ip: 18956564 freq: 1
rob stalling non-critical load ip: 18956604 freq: 2
rob stalling non-critical load ip: 18956636 freq: 3
rob stalling non-critical load ip: 18956724 freq: 10
rob stalling non-critical load ip: 18956760 freq: 7
rob stalling non-critical load ip: 18956808 freq: 5
rob stalling non-critical load ip: 18956864 freq: 3
rob stalling non-critical load ip: 18956900 freq: 4
rob stalling non-critical load ip: 18957516 freq: 7
rob stalling non-critical load ip: 18957576 freq: 1
rob stalling non-critical load ip: 18957624 freq: 1
rob stalling non-critical load ip: 18958028 freq: 67
rob stalling non-critical load ip: 18958052 freq: 72
rob stalling non-critical load ip: 18958056 freq: 1
rob stalling non-critical load ip: 18958080 freq: 4
rob stalling non-critical load ip: 18958128 freq: 1
rob stalling non-critical load ip: 18958172 freq: 5
rob stalling non-critical load ip: 18958220 freq: 26
rob stalling non-critical load ip: 18960512 freq: 6
rob stalling non-critical load ip: 18960552 freq: 4
rob stalling non-critical load ip: 18960568 freq: 1
rob stalling non-critical load ip: 18960584 freq: 11
rob stalling non-critical load ip: 18960616 freq: 9
rob stalling non-critical load ip: 18960632 freq: 1
rob stalling non-critical load ip: 18960676 freq: 4
rob stalling non-critical load ip: 18960688 freq: 2
rob stalling non-critical load ip: 18960700 freq: 10
rob stalling non-critical load ip: 18960780 freq: 2
rob stalling non-critical load ip: 18960812 freq: 3
rob stalling non-critical load ip: 18960908 freq: 7
rob stalling non-critical load ip: 18960952 freq: 1
rob stalling non-critical load ip: 18980028 freq: 25
rob stalling non-critical load ip: 19454556 freq: 18
rob stalling non-critical load ip: 19454592 freq: 1
rob stalling non-critical load ip: 19472760 freq: 4
rob stalling non-critical load ip: 19489264 freq: 3
rob stalling non-critical load ip: 19489332 freq: 2
rob stalling non-critical load ip: 19489396 freq: 2
rob stalling non-critical load ip: 19489544 freq: 4
rob stalling non-critical load ip: 19489780 freq: 14
rob stalling non-critical load ip: 19489840 freq: 1
rob stalling non-critical load ip: 19489948 freq: 3
rob stalling non-critical load ip: 19492860 freq: 7
rob stalling non-critical load ip: 19492892 freq: 3
rob stalling non-critical load ip: 19493148 freq: 41
rob stalling non-critical load ip: 19493164 freq: 4
rob stalling non-critical load ip: 19493176 freq: 137
rob stalling non-critical load ip: 19493328 freq: 7
rob stalling non-critical load ip: 19493360 freq: 6
rob stalling non-critical load ip: 19493372 freq: 1
rob stalling non-critical load ip: 19493400 freq: 6
rob stalling non-critical load ip: 19493820 freq: 5
rob stalling non-critical load ip: 19493844 freq: 3
rob stalling non-critical load ip: 19493916 freq: 13
rob stalling non-critical load ip: 19493924 freq: 10
rob stalling non-critical load ip: 19493948 freq: 3
rob stalling non-critical load ip: 19493956 freq: 6
rob stalling non-critical load ip: 19493960 freq: 7
rob stalling non-critical load ip: 19494000 freq: 1
rob stalling non-critical load ip: 19494032 freq: 57
rob stalling non-critical load ip: 19494040 freq: 23
rob stalling non-critical load ip: 19494052 freq: 46
rob stalling non-critical load ip: 19494060 freq: 26
rob stalling non-critical load ip: 19494068 freq: 23
rob stalling non-critical load ip: 19494076 freq: 2795
rob stalling non-critical load ip: 19494084 freq: 26
rob stalling non-critical load ip: 19494096 freq: 67
rob stalling non-critical load ip: 19494104 freq: 6159
rob stalling non-critical load ip: 19494112 freq: 69
rob stalling non-critical load ip: 19494212 freq: 1
rob stalling non-critical load ip: 19494292 freq: 36
rob stalling non-critical load ip: 19494412 freq: 4
rob stalling non-critical load ip: 19494452 freq: 1
rob stalling non-critical load ip: 19495484 freq: 35
rob stalling non-critical load ip: 19495740 freq: 4
rob stalling non-critical load ip: 19495816 freq: 7
rob stalling non-critical load ip: 19496020 freq: 36
rob stalling non-critical load ip: 19496036 freq: 22
rob stalling non-critical load ip: 19496052 freq: 22
rob stalling non-critical load ip: 19496064 freq: 15
rob stalling non-critical load ip: 19496700 freq: 6
rob stalling non-critical load ip: 19496880 freq: 6
rob stalling non-critical load ip: 19496888 freq: 1
rob stalling non-critical load ip: 19496900 freq: 7
rob stalling non-critical load ip: 19496916 freq: 2
rob stalling non-critical load ip: 19496924 freq: 3
rob stalling non-critical load ip: 19496952 freq: 28
rob stalling non-critical load ip: 19497140 freq: 7
rob stalling non-critical load ip: 19499140 freq: 2
rob stalling non-critical load ip: 19499152 freq: 2
rob stalling non-critical load ip: 19499172 freq: 3
rob stalling non-critical load ip: 19499416 freq: 13
rob stalling non-critical load ip: 19499512 freq: 1
rob stalling non-critical load ip: 19500044 freq: 1
rob stalling non-critical load ip: 19500756 freq: 2
rob stalling non-critical load ip: 19501012 freq: 13
rob stalling non-critical load ip: 19501032 freq: 5
rob stalling non-critical load ip: 19501068 freq: 7
rob stalling non-critical load ip: 19502280 freq: 20
rob stalling non-critical load ip: 19688432 freq: 12
rob stalling non-critical load ip: 19688460 freq: 1
rob stalling non-critical load ip: 19689456 freq: 7
rob stalling non-critical load ip: 19689532 freq: 10
rob stalling non-critical load ip: 19692680 freq: 43
rob stalling non-critical load ip: 19692684 freq: 6
rob stalling non-critical load ip: 19692692 freq: 11
rob stalling non-critical load ip: 19692736 freq: 1
rob stalling non-critical load ip: 19692820 freq: 6
rob stalling non-critical load ip: 19692824 freq: 5
rob stalling non-critical load ip: 19693100 freq: 4
rob stalling non-critical load ip: 19693144 freq: 1
rob stalling non-critical load ip: 19695740 freq: 11
rob stalling non-critical load ip: 19695780 freq: 5
rob stalling non-critical load ip: 19695796 freq: 8
rob stalling non-critical load ip: 19695888 freq: 5
rob stalling non-critical load ip: 19695924 freq: 9
rob stalling non-critical load ip: 19695928 freq: 3
rob stalling non-critical load ip: 19695944 freq: 8
rob stalling non-critical load ip: 19696032 freq: 3
rob stalling non-critical load ip: 19696312 freq: 1
rob stalling non-critical load ip: 19696424 freq: 3
rob stalling non-critical load ip: 19696464 freq: 2
rob stalling non-critical load ip: 19696484 freq: 1
rob stalling non-critical load ip: 19698128 freq: 3
rob stalling non-critical load ip: 19698204 freq: 14
rob stalling non-critical load ip: 19698228 freq: 4
rob stalling non-critical load ip: 19698324 freq: 1
rob stalling non-critical load ip: 19698472 freq: 1
rob stalling non-critical load ip: 19698488 freq: 1
rob stalling non-critical load ip: 19698848 freq: 1
rob stalling non-critical load ip: 19698884 freq: 3
rob stalling non-critical load ip: 19701420 freq: 2
rob stalling non-critical load ip: 19701440 freq: 6
rob stalling non-critical load ip: 19701456 freq: 13
rob stalling non-critical load ip: 19701772 freq: 1
rob stalling non-critical load ip: 19702148 freq: 4
rob stalling non-critical load ip: 19702404 freq: 6
rob stalling non-critical load ip: 19702608 freq: 1
rob stalling non-critical load ip: 19702672 freq: 5
rob stalling non-critical load ip: 19702724 freq: 3
rob stalling non-critical load ip: 19702808 freq: 2
rob stalling non-critical load ip: 19702888 freq: 3
rob stalling non-critical load ip: 19702988 freq: 3
rob stalling non-critical load ip: 19703020 freq: 3
rob stalling non-critical load ip: 19703108 freq: 1
rob stalling non-critical load ip: 19705608 freq: 3
rob stalling non-critical load ip: 19706504 freq: 2
rob stalling non-critical load ip: 19706524 freq: 2
rob stalling non-critical load ip: 19706616 freq: 2
rob stalling non-critical load ip: 19706912 freq: 6
rob stalling non-critical load ip: 19707028 freq: 7
rob stalling non-critical load ip: 19707756 freq: 8
rob stalling non-critical load ip: 19707776 freq: 2
rob stalling non-critical load ip: 19707784 freq: 4
rob stalling non-critical load ip: 19707796 freq: 2
rob stalling non-critical load ip: 19707844 freq: 6
rob stalling non-critical load ip: 19708324 freq: 3
rob stalling non-critical load ip: 19711940 freq: 9
rob stalling non-critical load ip: 19711948 freq: 2
rob stalling non-critical load ip: 19723200 freq: 9
rob stalling non-critical load ip: 19723236 freq: 299
rob stalling non-critical load ip: 19723248 freq: 5
rob stalling non-critical load ip: 19723284 freq: 12
rob stalling non-critical load ip: 19723312 freq: 6
rob stalling non-critical load ip: 19723320 freq: 169
rob stalling non-critical load ip: 19723336 freq: 241
rob stalling non-critical load ip: 19723352 freq: 15
rob stalling non-critical load ip: 19723368 freq: 13
rob stalling non-critical load ip: 19723384 freq: 6
rob stalling non-critical load ip: 19723408 freq: 11
rob stalling non-critical load ip: 19723456 freq: 2
rob stalling non-critical load ip: 19724432 freq: 15
rob stalling non-critical load ip: 19724576 freq: 12
rob stalling non-critical load ip: 19724872 freq: 6
rob stalling non-critical load ip: 19725040 freq: 4
rob stalling non-critical load ip: 19725616 freq: 35
rob stalling non-critical load ip: 19725644 freq: 1
rob stalling non-critical load ip: 19725660 freq: 15
rob stalling non-critical load ip: 19725704 freq: 16
rob stalling non-critical load ip: 19725720 freq: 13
rob stalling non-critical load ip: 19725876 freq: 3
rob stalling non-critical load ip: 19725904 freq: 2
rob stalling non-critical load ip: 19730884 freq: 7
rob stalling non-critical load ip: 19731752 freq: 27
rob stalling non-critical load ip: 19731836 freq: 3
rob stalling non-critical load ip: 19731852 freq: 2
rob stalling non-critical load ip: 19732288 freq: 7
rob stalling non-critical load ip: 19732304 freq: 6
rob stalling non-critical load ip: 19732644 freq: 6
rob stalling non-critical load ip: 19732912 freq: 10
rob stalling non-critical load ip: 19732928 freq: 4
rob stalling non-critical load ip: 19732940 freq: 9
rob stalling non-critical load ip: 19732956 freq: 4
rob stalling non-critical load ip: 19732968 freq: 9
rob stalling non-critical load ip: 19733000 freq: 1
rob stalling non-critical load ip: 19733500 freq: 21
rob stalling non-critical load ip: 19745436 freq: 4
rob stalling non-critical load ip: 19745500 freq: 1
rob stalling non-critical load ip: 19745660 freq: 1
rob stalling non-critical load ip: 19745684 freq: 4
rob stalling non-critical load ip: 19746060 freq: 2
rob stalling non-critical load ip: 19746212 freq: 3
rob stalling non-critical load ip: 19746244 freq: 22
rob stalling non-critical load ip: 19746296 freq: 10
rob stalling non-critical load ip: 19746308 freq: 12
rob stalling non-critical load ip: 19746344 freq: 3
rob stalling non-critical load ip: 19748964 freq: 22
rob stalling non-critical load ip: 19749004 freq: 13
rob stalling non-critical load ip: 19749068 freq: 2
rob stalling non-critical load ip: 19749112 freq: 11
rob stalling non-critical load ip: 19752548 freq: 6
rob stalling non-critical load ip: 19752684 freq: 5
rob stalling non-critical load ip: 19752708 freq: 4
rob stalling non-critical load ip: 19752844 freq: 3
rob stalling non-critical load ip: 19752860 freq: 8
rob stalling non-critical load ip: 19752864 freq: 1
rob stalling non-critical load ip: 19791508 freq: 1
rob stalling non-critical load ip: 19791796 freq: 12
rob stalling non-critical load ip: 19791900 freq: 2
rob stalling non-critical load ip: 19795528 freq: 54
rob stalling non-critical load ip: 19795540 freq: 9
rob stalling non-critical load ip: 19795568 freq: 5
rob stalling non-critical load ip: 19795660 freq: 15
rob stalling non-critical load ip: 19837224 freq: 1
rob stalling non-critical load ip: 19850508 freq: 3
rob stalling non-critical load ip: 19850568 freq: 12
rob stalling non-critical load ip: 19850992 freq: 7
rob stalling non-critical load ip: 19851160 freq: 19
rob stalling non-critical load ip: 19851292 freq: 6
rob stalling non-critical load ip: 19852960 freq: 1
rob stalling non-critical load ip: 19853208 freq: 1
rob stalling non-critical load ip: 19853236 freq: 1
rob stalling non-critical load ip: 19867220 freq: 2
rob stalling non-critical load ip: 19867252 freq: 109673
rob stalling non-critical load ip: 19932180 freq: 10
rob stalling non-critical load ip: 19932304 freq: 2
rob stalling non-critical load ip: 19933376 freq: 1
rob stalling non-critical load ip: 19957160 freq: 3
rob stalling non-critical load ip: 19957192 freq: 1
rob stalling non-critical load ip: 19957256 freq: 4
rob stalling non-critical load ip: 19957964 freq: 44
rob stalling non-critical load ip: 19957976 freq: 2
rob stalling non-critical load ip: 19961896 freq: 7
rob stalling non-critical load ip: 19961904 freq: 6
rob stalling non-critical load ip: 19973888 freq: 2
rob stalling non-critical load ip: 19974244 freq: 6
rob stalling non-critical load ip: 19975132 freq: 2
rob stalling non-critical load ip: 19975160 freq: 5
rob stalling non-critical load ip: 19975316 freq: 1
rob stalling non-critical load ip: 19975432 freq: 4
rob stalling non-critical load ip: 19976536 freq: 6
rob stalling non-critical load ip: 19976712 freq: 6
rob stalling non-critical load ip: 19976772 freq: 7
rob stalling non-critical load ip: 19976808 freq: 6
rob stalling non-critical load ip: 20024224 freq: 8
rob stalling non-critical load ip: 20024236 freq: 4
rob stalling non-critical load ip: 20024256 freq: 21
rob stalling non-critical load ip: 20031752 freq: 1
rob stalling non-critical load ip: 20047492 freq: 59
rob stalling non-critical load ip: 20047552 freq: 3
rob stalling non-critical load ip: 20047980 freq: 7
rob stalling non-critical load ip: 20048080 freq: 197
rob stalling non-critical load ip: 20048096 freq: 14
rob stalling non-critical load ip: 20048140 freq: 2
rob stalling non-critical load ip: 20048244 freq: 12
rob stalling non-critical load ip: 20048260 freq: 8
rob stalling non-critical load ip: 20048380 freq: 5
rob stalling non-critical load ip: 20048388 freq: 2
rob stalling non-critical load ip: 20048408 freq: 6
rob stalling non-critical load ip: 20048424 freq: 4
rob stalling non-critical load ip: 20048660 freq: 28
rob stalling non-critical load ip: 20048684 freq: 40
rob stalling non-critical load ip: 20048752 freq: 1
rob stalling non-critical load ip: 20048792 freq: 2
rob stalling non-critical load ip: 20048856 freq: 8
rob stalling non-critical load ip: 20048920 freq: 13
rob stalling non-critical load ip: 20049224 freq: 1
rob stalling non-critical load ip: 20050724 freq: 6
rob stalling non-critical load ip: 20050828 freq: 2
rob stalling non-critical load ip: 20051180 freq: 3
rob stalling non-critical load ip: 20052736 freq: 1
rob stalling non-critical load ip: 20052892 freq: 24
rob stalling non-critical load ip: 20052924 freq: 31
rob stalling non-critical load ip: 20053048 freq: 2
rob stalling non-critical load ip: 20053068 freq: 14
rob stalling non-critical load ip: 20053164 freq: 25
rob stalling non-critical load ip: 20053192 freq: 8
rob stalling non-critical load ip: 20054744 freq: 32
rob stalling non-critical load ip: 20059568 freq: 7
rob stalling non-critical load ip: 20059624 freq: 1
rob stalling non-critical load ip: 20059876 freq: 6
rob stalling non-critical load ip: 20060056 freq: 5
rob stalling non-critical load ip: 20060072 freq: 1
rob stalling non-critical load ip: 20060168 freq: 9
rob stalling non-critical load ip: 20060336 freq: 7
rob stalling non-critical load ip: 20061160 freq: 8
rob stalling non-critical load ip: 20061440 freq: 6
rob stalling non-critical load ip: 20061492 freq: 28
rob stalling non-critical load ip: 20061560 freq: 12
rob stalling non-critical load ip: 20061676 freq: 7
rob stalling non-critical load ip: 20061832 freq: 4
rob stalling non-critical load ip: 20061856 freq: 14
rob stalling non-critical load ip: 20061860 freq: 7
rob stalling non-critical load ip: 20062008 freq: 16
rob stalling non-critical load ip: 20062272 freq: 12
rob stalling non-critical load ip: 20062680 freq: 1
rob stalling non-critical load ip: 20062784 freq: 31
rob stalling non-critical load ip: 20062836 freq: 5
rob stalling non-critical load ip: 20062904 freq: 25
rob stalling non-critical load ip: 20063036 freq: 11
rob stalling non-critical load ip: 20064480 freq: 8
rob stalling non-critical load ip: 20079476 freq: 4
rob stalling non-critical load ip: 20082308 freq: 5
rob stalling non-critical load ip: 20083200 freq: 4
rob stalling non-critical load ip: 20083212 freq: 6
rob stalling non-critical load ip: 20083228 freq: 5
rob stalling non-critical load ip: 20083440 freq: 12
rob stalling non-critical load ip: 20084492 freq: 1
rob stalling non-critical load ip: 20084544 freq: 9
rob stalling non-critical load ip: 20084628 freq: 2
rob stalling non-critical load ip: 20084644 freq: 2
rob stalling non-critical load ip: 20084756 freq: 3
rob stalling non-critical load ip: 20087336 freq: 7
rob stalling non-critical load ip: 20096104 freq: 8
rob stalling non-critical load ip: 20096284 freq: 10
rob stalling non-critical load ip: 20096312 freq: 1
rob stalling non-critical load ip: 20096324 freq: 1
rob stalling non-critical load ip: 20096364 freq: 4
rob stalling non-critical load ip: 20096416 freq: 6
rob stalling non-critical load ip: 20096608 freq: 6
rob stalling non-critical load ip: 20096612 freq: 4
rob stalling non-critical load ip: 20096680 freq: 9
rob stalling non-critical load ip: 20096732 freq: 6
rob stalling non-critical load ip: 20096772 freq: 8
rob stalling non-critical load ip: 20097340 freq: 23
rob stalling non-critical load ip: 20097868 freq: 6
rob stalling non-critical load ip: 20097876 freq: 4
rob stalling non-critical load ip: 20155144 freq: 5
rob stalling non-critical load ip: 20155176 freq: 15
rob stalling non-critical load ip: 20155452 freq: 5
rob stalling non-critical load ip: 20165604 freq: 3
rob stalling non-critical load ip: 20165628 freq: 2
rob stalling non-critical load ip: 20168600 freq: 5
rob stalling non-critical load ip: 20168796 freq: 2
rob stalling non-critical load ip: 20169020 freq: 1
rob stalling non-critical load ip: 20169220 freq: 4
rob stalling non-critical load ip: 20170580 freq: 21
rob stalling non-critical load ip: 20170616 freq: 24
rob stalling non-critical load ip: 20170968 freq: 11
rob stalling non-critical load ip: 20171040 freq: 1
rob stalling non-critical load ip: 20171204 freq: 13
rob stalling non-critical load ip: 20171208 freq: 4
rob stalling non-critical load ip: 20174004 freq: 8
rob stalling non-critical load ip: 20174020 freq: 6
rob stalling non-critical load ip: 20174220 freq: 8
rob stalling non-critical load ip: 20174332 freq: 9
rob stalling non-critical load ip: 20174344 freq: 9
rob stalling non-critical load ip: 20174372 freq: 34
rob stalling non-critical load ip: 20174376 freq: 10
rob stalling non-critical load ip: 20174416 freq: 1
rob stalling non-critical load ip: 20182888 freq: 12
rob stalling non-critical load ip: 20182900 freq: 7
rob stalling non-critical load ip: 20182980 freq: 5
rob stalling non-critical load ip: 20183184 freq: 38
rob stalling non-critical load ip: 20183192 freq: 3
rob stalling non-critical load ip: 20183340 freq: 9
rob stalling non-critical load ip: 20184960 freq: 4
rob stalling non-critical load ip: 20201964 freq: 7
rob stalling non-critical load ip: 20432196 freq: 5
rob stalling non-critical load ip: 20432220 freq: 4
rob stalling non-critical load ip: 20432264 freq: 4
rob stalling non-critical load ip: 20457876 freq: 5
rob stalling non-critical load ip: 20560968 freq: 7
rob stalling non-critical load ip: 20595932 freq: 1
rob stalling non-critical load ip: 20632600 freq: 2
rob stalling non-critical load ip: 20632776 freq: 4
rob stalling non-critical load ip: 20632780 freq: 2
rob stalling non-critical load ip: 20632856 freq: 1
rob stalling non-critical load ip: 20633040 freq: 4
rob stalling non-critical load ip: 20633396 freq: 1
rob stalling non-critical load ip: 20634644 freq: 2
rob stalling non-critical load ip: 20634756 freq: 4
rob stalling non-critical load ip: 20637384 freq: 7
rob stalling non-critical load ip: 20637632 freq: 4
rob stalling non-critical load ip: 20637644 freq: 4
rob stalling non-critical load ip: 20637796 freq: 1
rob stalling non-critical load ip: 20638412 freq: 3
rob stalling non-critical load ip: 20638472 freq: 4
rob stalling non-critical load ip: 20638864 freq: 6
rob stalling non-critical load ip: 20638876 freq: 1
rob stalling non-critical load ip: 20638900 freq: 4
rob stalling non-critical load ip: 20639048 freq: 3
rob stalling non-critical load ip: 20639492 freq: 6
rob stalling non-critical load ip: 20641736 freq: 4
rob stalling non-critical load ip: 20641928 freq: 5
rob stalling non-critical load ip: 20642004 freq: 3
rob stalling non-critical load ip: 20642056 freq: 6
rob stalling non-critical load ip: 20642656 freq: 2
rob stalling non-critical load ip: 20642820 freq: 5
rob stalling non-critical load ip: 20642908 freq: 5
rob stalling non-critical load ip: 20643900 freq: 5
rob stalling non-critical load ip: 20717636 freq: 4
rob stalling non-critical load ip: 20741432 freq: 6
rob stalling non-critical load ip: 20741572 freq: 6
rob stalling non-critical load ip: 20741692 freq: 2
rob stalling non-critical load ip: 20741944 freq: 3
rob stalling non-critical load ip: 20742556 freq: 4
rob stalling non-critical load ip: 20742676 freq: 5
rob stalling non-critical load ip: 20742824 freq: 1
rob stalling non-critical load ip: 20742848 freq: 1
rob stalling non-critical load ip: 20743684 freq: 7
rob stalling non-critical load ip: 20743844 freq: 5
rob stalling non-critical load ip: 20755876 freq: 5
rob stalling non-critical load ip: 20756208 freq: 2
rob stalling non-critical load ip: 20756348 freq: 4
rob stalling non-critical load ip: 20756784 freq: 6
rob stalling non-critical load ip: 20791736 freq: 4
rob stalling non-critical load ip: 20791768 freq: 2
rob stalling non-critical load ip: 20791776 freq: 5
rob stalling non-critical load ip: 20791976 freq: 6
rob stalling non-critical load ip: 20800376 freq: 1
rob stalling non-critical load ip: 20800420 freq: 1
rob stalling non-critical load ip: 20800456 freq: 5
rob stalling non-critical load ip: 20800492 freq: 6
rob stalling non-critical load ip: 20800584 freq: 9
rob stalling non-critical load ip: 20803148 freq: 4
rob stalling non-critical load ip: 20803300 freq: 5
rob stalling non-critical load ip: 20803760 freq: 2
rob stalling non-critical load ip: 20804304 freq: 3
rob stalling non-critical load ip: 20804540 freq: 3
rob stalling non-critical load ip: 20804656 freq: 5
rob stalling non-critical load ip: 20805024 freq: 25
rob stalling non-critical load ip: 20805316 freq: 6
rob stalling non-critical load ip: 20805380 freq: 2
rob stalling non-critical load ip: 20806212 freq: 6
rob stalling non-critical load ip: 20813444 freq: 3
rob stalling non-critical load ip: 20813448 freq: 1
rob stalling non-critical load ip: 20813512 freq: 3
rob stalling non-critical load ip: 20813524 freq: 15
rob stalling non-critical load ip: 20813576 freq: 3
rob stalling non-critical load ip: 20814148 freq: 1
rob stalling non-critical load ip: 20814180 freq: 2
rob stalling non-critical load ip: 20814188 freq: 2
rob stalling non-critical load ip: 20814192 freq: 3
rob stalling non-critical load ip: 20814208 freq: 1
rob stalling non-critical load ip: 20814264 freq: 5
rob stalling non-critical load ip: 20814436 freq: 2
rob stalling non-critical load ip: 20814440 freq: 6
rob stalling non-critical load ip: 20816344 freq: 5
rob stalling non-critical load ip: 20816400 freq: 20
rob stalling non-critical load ip: 20816452 freq: 10
rob stalling non-critical load ip: 20816700 freq: 1
rob stalling non-critical load ip: 20816720 freq: 6
rob stalling non-critical load ip: 20816752 freq: 3
rob stalling non-critical load ip: 20829656 freq: 2
rob stalling non-critical load ip: 20829664 freq: 8
rob stalling non-critical load ip: 20829868 freq: 9
rob stalling non-critical load ip: 20829896 freq: 13
rob stalling non-critical load ip: 20829932 freq: 2
rob stalling non-critical load ip: 20829952 freq: 22
rob stalling non-critical load ip: 20829956 freq: 28
rob stalling non-critical load ip: 20830036 freq: 8
rob stalling non-critical load ip: 20848732 freq: 2
rob stalling non-critical load ip: 2071812604 freq: 4
rob stalling non-critical load ip: 2071812620 freq: 1
rob stalling non-critical load ip: 2071812636 freq: 3
rob stalling non-critical load ip: 2071823900 freq: 1
rob stalling non-critical load ip: 2071824268 freq: 3
rob stalling non-critical load ip: 2071824328 freq: 4
rob stalling non-critical load ip: 2071825424 freq: 8
rob stalling non-critical load ip: 2071831684 freq: 5
rob stalling non-critical load ip: 2071831708 freq: 15
rob stalling non-critical load ip: 2071832376 freq: 9
rob stalling non-critical load ip: 2071832384 freq: 13
rob stalling non-critical load ip: 2071832404 freq: 9
rob stalling non-critical load ip: 2071832428 freq: 2
rob stalling non-critical load ip: 2071832560 freq: 75
rob stalling non-critical load ip: 2071832648 freq: 9
rob stalling non-critical load ip: 2071832664 freq: 6
rob stalling non-critical load ip: 2071832708 freq: 41
rob stalling non-critical load ip: 2071832768 freq: 2
rob stalling non-critical load ip: 2071832784 freq: 43
rob stalling non-critical load ip: 2071832968 freq: 2
rob stalling non-critical load ip: 2071833004 freq: 2
rob stalling non-critical load ip: 2071833100 freq: 48
rob stalling non-critical load ip: 2071833116 freq: 2
rob stalling non-critical load ip: 2071833160 freq: 61
rob stalling non-critical load ip: 2071833292 freq: 4
rob stalling non-critical load ip: 2071833544 freq: 3
rob stalling non-critical load ip: 2071838676 freq: 60
rob stalling non-critical load ip: 2071838728 freq: 55
rob stalling non-critical load ip: 2071838812 freq: 5
rob stalling non-critical load ip: 2071838908 freq: 27
rob stalling non-critical load ip: 2071838960 freq: 2
rob stalling non-critical load ip: 2071838972 freq: 4
rob stalling non-critical load ip: 2071839000 freq: 1
rob stalling non-critical load ip: 2071839008 freq: 2
rob stalling non-critical load ip: 2071839172 freq: 4
rob stalling non-critical load ip: 2071839404 freq: 2
rob stalling non-critical load ip: 2071839680 freq: 1
rob stalling non-critical load ip: 2071839684 freq: 3
rob stalling non-critical load ip: 2071839688 freq: 18
rob stalling non-critical load ip: 2071839840 freq: 5
rob stalling non-critical load ip: 2071839900 freq: 27
rob stalling non-critical load ip: 2071839936 freq: 4
rob stalling non-critical load ip: 2071839940 freq: 2
rob stalling non-critical load ip: 2074186608 freq: 12
rob stalling non-critical load ip: 2074186640 freq: 4
rob stalling non-critical load ip: 2074186648 freq: 2
rob stalling non-critical load ip: 2074186748 freq: 1
rob stalling non-critical load ip: 2074186756 freq: 1
rob stalling non-critical load ip: 2074186772 freq: 8
rob stalling non-critical load ip: 2074186808 freq: 1
rob stalling non-critical load ip: 2074186936 freq: 3
rob stalling non-critical load ip: 2074186940 freq: 1
rob stalling non-critical load ip: 2074187216 freq: 1
rob stalling non-critical load ip: 2074188696 freq: 16
rob stalling non-critical load ip: 2074188724 freq: 12
rob stalling non-critical load ip: 2074200840 freq: 7
rob stalling non-critical load ip: 2074200844 freq: 11
rob stalling non-critical load ip: 2074200848 freq: 3
rob stalling non-critical load ip: 2074201148 freq: 5
rob stalling non-critical load ip: 2074201184 freq: 5
rob stalling non-critical load ip: 2074201264 freq: 3
rob stalling non-critical load ip: 2074201284 freq: 9
rob stalling non-critical load ip: 2074201288 freq: 2
rob stalling non-critical load ip: 2074201304 freq: 2
rob stalling non-critical load ip: 2074201368 freq: 1
rob stalling non-critical load ip: 2074201384 freq: 1
rob stalling non-critical load ip: 2074201488 freq: 9
rob stalling non-critical load ip: 2074201496 freq: 5
rob stalling non-critical load ip: 2074201504 freq: 4
rob stalling non-critical load ip: 2074201512 freq: 6
rob stalling non-critical load ip: 2074201536 freq: 5
rob stalling non-critical load ip: 2074201960 freq: 2
rob stalling non-critical load ip: 2074202272 freq: 9
rob stalling non-critical load ip: 2074202424 freq: 4
rob stalling non-critical load ip: 2074202432 freq: 1
rob stalling non-critical load ip: 2074202436 freq: 7
rob stalling non-critical load ip: 2074202456 freq: 10
rob stalling non-critical load ip: 2074202564 freq: 3
rob stalling non-critical load ip: 2074202596 freq: 2
rob stalling non-critical load ip: 2074202628 freq: 7
rob stalling non-critical load ip: 2074203988 freq: 3
rob stalling non-critical load ip: 2074204044 freq: 1
rob stalling non-critical load ip: 2074204320 freq: 3
rob stalling non-critical load ip: 2074204336 freq: 3
rob stalling non-critical load ip: 2074452540 freq: 14
rob stalling non-critical load ip: 2074452548 freq: 5
rob stalling non-critical load ip: 2074452912 freq: 4
rob stalling non-critical load ip: 2074453008 freq: 2
rob stalling non-critical load ip: 2074453248 freq: 4
rob stalling non-critical load ip: 2074453348 freq: 1
rob stalling non-critical load ip: 2074589848 freq: 2
rob stalling non-critical load ip: 2074589852 freq: 5
rob stalling non-critical load ip: 2074605656 freq: 1
rob stalling non-critical load ip: 2074605688 freq: 1
rob stalling non-critical load ip: 2074798184 freq: 5
rob stalling non-critical load ip: 2074798204 freq: 3
rob stalling non-critical load ip: 2074798308 freq: 3
rob stalling non-critical load ip: 2074798340 freq: 5
rob stalling non-critical load ip: 2074798356 freq: 6
rob stalling non-critical load ip: 2074798392 freq: 6
rob stalling non-critical load ip: 2074815500 freq: 18
rob stalling non-critical load ip: 2074815512 freq: 1
rob stalling non-critical load ip: 2074816456 freq: 3
rob stalling non-critical load ip: 2074819848 freq: 1
rob stalling non-critical load ip: 2074908256 freq: 2
rob stalling non-critical load ip: 2074908372 freq: 9
rob stalling non-critical load ip: 2074908388 freq: 18
rob stalling non-critical load ip: 2074908396 freq: 34
rob stalling non-critical load ip: 2074912268 freq: 36
rob stalling non-critical load ip: 2074912272 freq: 11
rob stalling non-critical load ip: 2074912276 freq: 25
rob stalling non-critical load ip: 2074912328 freq: 1
rob stalling non-critical load ip: 2074912464 freq: 2
rob stalling non-critical load ip: 2074912600 freq: 1
rob stalling non-critical load ip: 2074912700 freq: 6
rob stalling non-critical load ip: 2074912704 freq: 7
rob stalling non-critical load ip: 2074914760 freq: 1
rob stalling non-critical load ip: 2074914784 freq: 24
rob stalling non-critical load ip: 2074914808 freq: 37
rob stalling non-critical load ip: 2074914844 freq: 18
rob stalling non-critical load ip: 2074914848 freq: 19
rob stalling non-critical load ip: 2074914852 freq: 12
rob stalling non-critical load ip: 2074915000 freq: 10
rob stalling non-critical load ip: 2074915644 freq: 3
rob stalling non-critical load ip: 2074916292 freq: 4
rob stalling non-critical load ip: 2074916480 freq: 7
rob stalling non-critical load ip: 2074916508 freq: 24
rob stalling non-critical load ip: 2074916572 freq: 7
rob stalling non-critical load ip: 2074916596 freq: 1
rob stalling non-critical load ip: 2074918212 freq: 13
rob stalling non-critical load ip: 2074919032 freq: 44
rob stalling non-critical load ip: 2074919332 freq: 33
rob stalling non-critical load ip: 2074920076 freq: 13
rob stalling non-critical load ip: 2074920248 freq: 2
rob stalling non-critical load ip: 2074920588 freq: 2
rob stalling non-critical load ip: 2074920608 freq: 5
rob stalling non-critical load ip: 2074920612 freq: 12
rob stalling non-critical load ip: 2074920652 freq: 2
rob stalling non-critical load ip: 2074920656 freq: 2
rob stalling non-critical load ip: 2074920660 freq: 6
rob stalling non-critical load ip: 2074921148 freq: 1
rob stalling non-critical load ip: 2074921288 freq: 7
rob stalling non-critical load ip: 2074921472 freq: 29
rob stalling non-critical load ip: 2074921492 freq: 2
rob stalling non-critical load ip: 2074921624 freq: 11
rob stalling non-critical load ip: 2074922020 freq: 6
rob stalling non-critical load ip: 2074922080 freq: 2
rob stalling non-critical load ip: 2074922404 freq: 2
rob stalling non-critical load ip: 2074922444 freq: 13
rob stalling non-critical load ip: 2074922448 freq: 14
rob stalling non-critical load ip: 2074923536 freq: 7
rob stalling non-critical load ip: 2074923604 freq: 4
rob stalling non-critical load ip: 2074923652 freq: 21
rob stalling non-critical load ip: 2074923764 freq: 25
rob stalling non-critical load ip: 2074923812 freq: 4
rob stalling non-critical load ip: 2074923816 freq: 3
rob stalling non-critical load ip: 2074923924 freq: 1
rob stalling non-critical load ip: 2074923940 freq: 2
rob stalling non-critical load ip: 2074923960 freq: 8
rob stalling non-critical load ip: 2074923964 freq: 3
rob stalling non-critical load ip: 2074924236 freq: 2
rob stalling non-critical load ip: 2074924252 freq: 1
rob stalling non-critical load ip: 2074924264 freq: 1
rob stalling non-critical load ip: 2074925684 freq: 4
rob stalling non-critical load ip: 2074926024 freq: 40
rob stalling non-critical load ip: 2074926064 freq: 41
rob stalling non-critical load ip: 2074926084 freq: 15
rob stalling non-critical load ip: 2074926180 freq: 37
rob stalling non-critical load ip: 2074941612 freq: 5
rob stalling non-critical load ip: 2074941620 freq: 6
rob stalling non-critical load ip: 2074941700 freq: 4
rob stalling non-critical load ip: 2074941744 freq: 6
rob stalling non-critical load ip: 2074941748 freq: 4
rob stalling non-critical load ip: 2074941800 freq: 4
rob stalling non-critical load ip: 2074941832 freq: 12
rob stalling non-critical load ip: 2074941920 freq: 5
rob stalling non-critical load ip: 2074941944 freq: 1
rob stalling non-critical load ip: 2074941960 freq: 6
rob stalling non-critical load ip: 2074942316 freq: 1
rob stalling non-critical load ip: 2074942396 freq: 2
rob stalling non-critical load ip: 2074942452 freq: 9
rob stalling non-critical load ip: 2074942608 freq: 1
rob stalling non-critical load ip: 2074942784 freq: 2
rob stalling non-critical load ip: 2074943044 freq: 2
rob stalling non-critical load ip: 2074943172 freq: 5
rob stalling non-critical load ip: 2074943200 freq: 4
rob stalling non-critical load ip: 2074946824 freq: 3
rob stalling non-critical load ip: 2074946856 freq: 4
rob stalling non-critical load ip: 2074948992 freq: 3
rob stalling non-critical load ip: 2074949060 freq: 1
rob stalling non-critical load ip: 2074949584 freq: 1
rob stalling non-critical load ip: 2074949692 freq: 2
rob stalling non-critical load ip: 2074949780 freq: 1
rob stalling non-critical load ip: 2074950016 freq: 1
rob stalling non-critical load ip: 2074950024 freq: 4
rob stalling non-critical load ip: 2074950112 freq: 3
rob stalling non-critical load ip: 2074950160 freq: 4
rob stalling non-critical load ip: 2074950176 freq: 4
rob stalling non-critical load ip: 2074950236 freq: 10
rob stalling non-critical load ip: 2074950312 freq: 1
rob stalling non-critical load ip: 2074950508 freq: 2
rob stalling non-critical load ip: 2074951236 freq: 14
rob stalling non-critical load ip: 2074951312 freq: 2
rob stalling non-critical load ip: 2074951368 freq: 8
rob stalling non-critical load ip: 2074951392 freq: 1
rob stalling non-critical load ip: 2074951648 freq: 1
rob stalling non-critical load ip: 2074951992 freq: 3
rob stalling non-critical load ip: 2074952012 freq: 2
rob stalling non-critical load ip: 2074998328 freq: 4
rob stalling non-critical load ip: 2074998332 freq: 1
rob stalling non-critical load ip: 2074998344 freq: 2
rob stalling non-critical load ip: 2074998412 freq: 4
rob stalling non-critical load ip: 2074998480 freq: 3
rob stalling non-critical load ip: 2074998612 freq: 16
rob stalling non-critical load ip: 2074998616 freq: 2
rob stalling non-critical load ip: 2074998668 freq: 2
[...]
Non-critical_ROB_Stalls_Percent_1_Bucket_6: 26587
Critical_ROB_Stalls_Percent_2_Bucket_0: 259280
Non-critical_ROB_Stalls_Percent_2_Bucket_0: 117958
Critical_ROB_Stalls_Percent_2_Bucket_1: 9763
Non-critical_ROB_Stalls_Percent_2_Bucket_1: 27699
Critical_ROB_Stalls_Percent_2_Bucket_2: 4371
Non-critical_ROB_Stalls_Percent_2_Bucket_2: 15081
Critical_ROB_Stalls_Percent_2_Bucket_3: 3494
Non-critical_ROB_Stalls_Percent_2_Bucket_3: 12434
Critical_ROB_Stalls_Percent_2_Bucket_4: 7859
Non-critical_ROB_Stalls_Percent_2_Bucket_4: 9931
Critical_ROB_Stalls_Percent_2_Bucket_5: 10811
Non-critical_ROB_Stalls_Percent_2_Bucket_5: 6355
Critical_ROB_Stalls_Percent_2_Bucket_6: 17541
Non-critical_ROB_Stalls_Percent_2_Bucket_6: 22724
Critical_ROB_Stalls_Percent_3_Bucket_0: 273929
Non-critical_ROB_Stalls_Percent_3_Bucket_0: 103309
Critical_ROB_Stalls_Percent_3_Bucket_1: 12884
Non-critical_ROB_Stalls_Percent_3_Bucket_1: 24578
Critical_ROB_Stalls_Percent_3_Bucket_2: 6204
Non-critical_ROB_Stalls_Percent_3_Bucket_2: 13248
Critical_ROB_Stalls_Percent_3_Bucket_3: 5025
Non-critical_ROB_Stalls_Percent_3_Bucket_3: 10903
Critical_ROB_Stalls_Percent_3_Bucket_4: 9512
Non-critical_ROB_Stalls_Percent_3_Bucket_4: 8278
Critical_ROB_Stalls_Percent_3_Bucket_5: 11443
Non-critical_ROB_Stalls_Percent_3_Bucket_5: 5723
Critical_ROB_Stalls_Percent_3_Bucket_6: 20742
Non-critical_ROB_Stalls_Percent_3_Bucket_6: 19523
Critical_ROB_Stalls_Percent_4_Bucket_0: 285736
Non-critical_ROB_Stalls_Percent_4_Bucket_0: 91502
Critical_ROB_Stalls_Percent_4_Bucket_1: 14083
Non-critical_ROB_Stalls_Percent_4_Bucket_1: 23379
Critical_ROB_Stalls_Percent_4_Bucket_2: 7136
Non-critical_ROB_Stalls_Percent_4_Bucket_2: 12316
Critical_ROB_Stalls_Percent_4_Bucket_3: 6067
Non-critical_ROB_Stalls_Percent_4_Bucket_3: 9861
Critical_ROB_Stalls_Percent_4_Bucket_4: 11989
Non-critical_ROB_Stalls_Percent_4_Bucket_4: 5801
Critical_ROB_Stalls_Percent_4_Bucket_5: 12250
Non-critical_ROB_Stalls_Percent_4_Bucket_5: 4916
Critical_ROB_Stalls_Percent_4_Bucket_6: 26413
Non-critical_ROB_Stalls_Percent_4_Bucket_6: 13852
Critical_ROB_Stalls_Percent_5_Bucket_0: 297822
Non-critical_ROB_Stalls_Percent_5_Bucket_0: 79416
Critical_ROB_Stalls_Percent_5_Bucket_1: 17699
Non-critical_ROB_Stalls_Percent_5_Bucket_1: 19763
Critical_ROB_Stalls_Percent_5_Bucket_2: 9533
Non-critical_ROB_Stalls_Percent_5_Bucket_2: 9919
Critical_ROB_Stalls_Percent_5_Bucket_3: 7599
Non-critical_ROB_Stalls_Percent_5_Bucket_3: 8329
Critical_ROB_Stalls_Percent_5_Bucket_4: 12801
Non-critical_ROB_Stalls_Percent_5_Bucket_4: 4989
Critical_ROB_Stalls_Percent_5_Bucket_5: 12738
Non-critical_ROB_Stalls_Percent_5_Bucket_5: 4428
Critical_ROB_Stalls_Percent_5_Bucket_6: 31704
Non-critical_ROB_Stalls_Percent_5_Bucket_6: 8561
Critical_ROB_Stalls_Percent_6_Bucket_0: 308501
Non-critical_ROB_Stalls_Percent_6_Bucket_0: 68737
Critical_ROB_Stalls_Percent_6_Bucket_1: 21446
Non-critical_ROB_Stalls_Percent_6_Bucket_1: 16016
Critical_ROB_Stalls_Percent_6_Bucket_2: 12524
Non-critical_ROB_Stalls_Percent_6_Bucket_2: 6928
Critical_ROB_Stalls_Percent_6_Bucket_3: 10735
Non-critical_ROB_Stalls_Percent_6_Bucket_3: 5193
Critical_ROB_Stalls_Percent_6_Bucket_4: 14241
Non-critical_ROB_Stalls_Percent_6_Bucket_4: 3549
Critical_ROB_Stalls_Percent_6_Bucket_5: 14027
Non-critical_ROB_Stalls_Percent_6_Bucket_5: 3139
Critical_ROB_Stalls_Percent_6_Bucket_6: 33800
Non-critical_ROB_Stalls_Percent_6_Bucket_6: 6465
Critical_ROB_Stalls_Percent_7_Bucket_0: 323269
Non-critical_ROB_Stalls_Percent_7_Bucket_0: 53969
Critical_ROB_Stalls_Percent_7_Bucket_1: 25714
Non-critical_ROB_Stalls_Percent_7_Bucket_1: 11748
Critical_ROB_Stalls_Percent_7_Bucket_2: 14157
Non-critical_ROB_Stalls_Percent_7_Bucket_2: 5295
Critical_ROB_Stalls_Percent_7_Bucket_3: 12203
Non-critical_ROB_Stalls_Percent_7_Bucket_3: 3725
Critical_ROB_Stalls_Percent_7_Bucket_4: 15226
Non-critical_ROB_Stalls_Percent_7_Bucket_4: 2564
Critical_ROB_Stalls_Percent_7_Bucket_5: 15058
Non-critical_ROB_Stalls_Percent_7_Bucket_5: 2108
Critical_ROB_Stalls_Percent_7_Bucket_6: 35398
Non-critical_ROB_Stalls_Percent_7_Bucket_6: 4867
Critical_ROB_Stalls_Percent_8_Bucket_0: 339619
Non-critical_ROB_Stalls_Percent_8_Bucket_0: 37619
Critical_ROB_Stalls_Percent_8_Bucket_1: 29174
Non-critical_ROB_Stalls_Percent_8_Bucket_1: 8288
Critical_ROB_Stalls_Percent_8_Bucket_2: 15604
Non-critical_ROB_Stalls_Percent_8_Bucket_2: 3848
Critical_ROB_Stalls_Percent_8_Bucket_3: 13382
Non-critical_ROB_Stalls_Percent_8_Bucket_3: 2546
Critical_ROB_Stalls_Percent_8_Bucket_4: 16199
Non-critical_ROB_Stalls_Percent_8_Bucket_4: 1591
Critical_ROB_Stalls_Percent_8_Bucket_5: 15852
Non-critical_ROB_Stalls_Percent_8_Bucket_5: 1314
Critical_ROB_Stalls_Percent_8_Bucket_6: 37084
Non-critical_ROB_Stalls_Percent_8_Bucket_6: 3181
Average ROB occupancy Load Stall Begin: 63.4192
Average ROB occupancy Load Stall End: 71.1006
Min ROB occupancy Load Stall Begin: 1
Max ROB occupancy Load Stall Begin: 351
Min ROB occupancy Load Stall End: 1
Max ROB occupancy Load Stall End: 352
Average ROB occupancy Critical Load Stall Begin: -nan
Average ROB occupancy Critical Load Stall End: -nan
Min ROB occupancy Critical Load Stall Begin: 400
Max ROB occupancy Critical Load Stall Begin: 0
Min ROB occupancy Critical Load Stall End: 400
Max ROB occupancy Critical Load Stall End: 0
 ROB Load Stall Begin Bucket Count 0: 384340
 ROB Load Stall End Bucket Count 0: 377238
 ROB Critical Load Stall Begin Bucket Count 0: 0
 ROB Critical Load Stall End Bucket Count 0: 0
 ROB Load Stall Begin Bucket Count 1: 38607
 ROB Load Stall End Bucket Count 1: 37462
 ROB Critical Load Stall Begin Bucket Count 1: 0
 ROB Critical Load Stall End Bucket Count 1: 0
 ROB Load Stall Begin Bucket Count 2: 20741
 ROB Load Stall End Bucket Count 2: 19452
 ROB Critical Load Stall Begin Bucket Count 2: 0
 ROB Critical Load Stall End Bucket Count 2: 0
 ROB Load Stall Begin Bucket Count 3: 15173
 ROB Load Stall End Bucket Count 3: 15928
 ROB Critical Load Stall Begin Bucket Count 3: 0
 ROB Critical Load Stall End Bucket Count 3: 0
 ROB Load Stall Begin Bucket Count 4: 14488
 ROB Load Stall End Bucket Count 4: 17790
 ROB Critical Load Stall Begin Bucket Count 4: 0
 ROB Critical Load Stall End Bucket Count 4: 0
 ROB Load Stall Begin Bucket Count 5: 15827
 ROB Load Stall End Bucket Count 5: 17166
 ROB Critical Load Stall Begin Bucket Count 5: 0
 ROB Critical Load Stall End Bucket Count 5: 0
 ROB Load Stall Begin Bucket Count 6: 36125
 ROB Load Stall End Bucket Count 6: 40265
 ROB Critical Load Stall Begin Bucket Count 6: 0
 ROB Critical Load Stall End Bucket Count 6: 0
PIST Tag Read Accesses: 121832
PIST Read Accesses: 60916
PIST Tag Write Accesses: 121832
PIST Write Accesses: 60916
Criticality detector called times: 76692
Max global_stall_cycles_count: 261012
Threshold Modified: 4 times, factor: -4
Sturdy critical IP cache stats: 
 Unused entries: 0
CIC Tag Read Accesses: 0
CIC Read Accesses: 0
CIC Tag Write Accesses: 0
CIC Write Accesses: 0
Wobbly critical IP cache stats: 
 Unused entries: 39
CIC Tag Read Accesses: 38392823
CIC Read Accesses: 0
CIC Tag Write Accesses: 139925
CIC Write Accesses: 0
ITLB TOTAL     ACCESS:    8158696  HIT:    7625868  MISS:     532828  HIT %:    93.4692  MISS %:     6.5308   MPKI: 10.6566
ITLB LOAD TRANSLATION ACCESS:    8158696  HIT:    7625868  MISS:     532828  HIT %:    93.4692  MISS %:     6.5308   MPKI: 10.6566
ITLB PREFETCH  REQUESTED:          0  ISSUED:          0  USEFUL:          0  USELESS:          0
ITLB USEFUL LOAD PREFETCHES:          0 PREFETCH ISSUED TO LOWER LEVEL:          0  ACCURACY: -nan
ITLB TIMELY PREFETCHES:          0 LATE PREFETCHES: 0 DROPPED PREFETCHES: 0
ITLB PREFETCHES SAME FILL-ORIGIN LEVEL: 0 DIFFERENT FILL-ORIGIN LEVEL: 0
ITLB AVERAGE MISS LATENCY: 36.9499 cycles
ITLB RQ	ACCESS:   10207128	FORWARD:          0	MERGED:    1736310	TO_CACHE:    8470818

DTLB TOTAL     ACCESS:    5299282  HIT:    3311398  MISS:    1987884  HIT %:    62.4877  MISS %:    37.5123   MPKI: 39.7577
DTLB LOAD TRANSLATION ACCESS:    5299282  HIT:    3311398  MISS:    1987884  HIT %:    62.4877  MISS %:    37.5123   MPKI: 39.7577
DTLB PREFETCH  REQUESTED:          0  ISSUED:          0  USEFUL:          0  USELESS:          0
DTLB USEFUL LOAD PREFETCHES:          0 PREFETCH ISSUED TO LOWER LEVEL:          0  ACCURACY: -nan
DTLB TIMELY PREFETCHES:          0 LATE PREFETCHES: 0 DROPPED PREFETCHES: 0
DTLB PREFETCHES SAME FILL-ORIGIN LEVEL: 0 DIFFERENT FILL-ORIGIN LEVEL: 0
DTLB AVERAGE MISS LATENCY: 28.9812 cycles
DTLB RQ	ACCESS:    6489135	FORWARD:          0	MERGED:     984319	TO_CACHE:    5504816

STLB TOTAL     ACCESS:    2520712  HIT:     944256  MISS:    1576456  HIT %:    37.4599  MISS %:    62.5401   MPKI: 31.5291
STLB LOAD TRANSLATION ACCESS:    2520712  HIT:     944256  MISS:    1576456  HIT %:    37.4599  MISS %:    62.5401   MPKI: 31.5291
STLB PREFETCH  REQUESTED:          0  ISSUED:          0  USEFUL:          0  USELESS:          0
STLB USEFUL LOAD PREFETCHES:          0 PREFETCH ISSUED TO LOWER LEVEL:          0  ACCURACY: -nan
STLB TIMELY PREFETCHES:          0 LATE PREFETCHES: 0 DROPPED PREFETCHES: 0
STLB PREFETCHES SAME FILL-ORIGIN LEVEL: 0 DIFFERENT FILL-ORIGIN LEVEL: 0
STLB AVERAGE MISS LATENCY: 34.4633 cycles
STLB RQ	ACCESS:    2520712	FORWARD:          0	MERGED:          0	TO_CACHE:    2520712

STLB Hit, L1D data hit: 0
STLB Hit, L2C data hit: 0
STLB Hit, LLC data hit: 0
STLB Hit, LLC data miss: 0
STLB STLB hints to L2: 0
L1D TOTAL     ACCESS:    6259517  HIT:    5712887  MISS:     546630  HIT %:    91.2672  MISS %:    8.73278   MPKI: 10.9326
L1D LOAD      ACCESS:    4351294  HIT:    3867495  MISS:     483799  HIT %:    88.8815  MISS %:    11.1185   MPKI: 9.67598
L1D RFO       ACCESS:    1908223  HIT:    1845392  MISS:      62831  HIT %:    96.7074  MISS %:    3.29264   MPKI: 1.25662
L1D PREFETCH  REQUESTED:          0  ISSUED:          0  USEFUL:          0  USELESS:          0
L1D USEFUL LOAD PREFETCHES:          0 PREFETCH ISSUED TO LOWER LEVEL:          0  ACCURACY: -nan
L1D TIMELY PREFETCHES:          0 LATE PREFETCHES: 0 DROPPED PREFETCHES: 0
L1D PREFETCHES SAME FILL-ORIGIN LEVEL: 0 DIFFERENT FILL-ORIGIN LEVEL: 0
L1D AVERAGE MISS LATENCY: 110.082 cycles
L1D RQ	ACCESS:    7163081	FORWARD:          0	MERGED:    2719879	TO_CACHE:    4388861
L1D WQ	ACCESS:    2254786	FORWARD:      54341	MERGED:     154512	TO_CACHE:    2100274

L1D UNIQUE REGIONS ACCESSED: 0
L1D REGIONS CONFLICTS: 0
L1D Cross Page Prefetch Requests: 0
L1D Same Page Prefetch Requests: 0
L1D ROI Sum of L1D PQ occupancy: 0
L1D PREFETCHES PUSHED FROM L2C: 0
L1I TOTAL     ACCESS:   10167327  HIT:   10053891  MISS:     113436  HIT %:    98.8843  MISS %:    1.11569   MPKI: 2.26872
L1I LOAD      ACCESS:   10167327  HIT:   10053891  MISS:     113436  HIT %:    98.8843  MISS %:    1.11569   MPKI: 2.26872
L1I PREFETCH  REQUESTED:          0  ISSUED:          0  USEFUL:          0  USELESS:          0
L1I USEFUL LOAD PREFETCHES:          0 PREFETCH ISSUED TO LOWER LEVEL:          0  ACCURACY: -nan
L1I TIMELY PREFETCHES:          0 LATE PREFETCHES: 0 DROPPED PREFETCHES: 0
L1I PREFETCHES SAME FILL-ORIGIN LEVEL: 0 DIFFERENT FILL-ORIGIN LEVEL: 0
L1I AVERAGE MISS LATENCY: 58.937 cycles
L1I RQ	ACCESS:   17038501	FORWARD:          0	MERGED:    6831373	TO_CACHE:   10207128

BTB BRANCH_DIRECT_JUMP	ACCESS:          0  HIT:          0  MISS:          0
BTB BRANCH_INDIRECT	ACCESS:          0  HIT:          0  MISS:          0
BTB BRANCH_CONDITIONAL	ACCESS:          0  HIT:          0  MISS:          0
BTB BRANCH_DIRECT_CALL	ACCESS:          0  HIT:          0  MISS:          0
BTB BRANCH_INDIRECT_CALL	ACCESS:          0  HIT:          0  MISS:          0
BTB BRANCH_RETURN	ACCESS:          0  HIT:          0  MISS:          0
BTB BRANCH_OTHER ACCESS:          0  HIT:          0  MISS:          0

L2C TOTAL     ACCESS:    2867115  HIT:    2120630  MISS:     746485  HIT %:    73.9639  MISS %:    26.0361   MPKI: 14.9297
L2C LOAD      ACCESS:     597233  HIT:     286693  MISS:     310540  HIT %:    48.0035  MISS %:    51.9965   MPKI: 6.2108
L2C DATA LOAD MPKI: 5.1107
L2C INSTRUCTION LOAD MPKI: 1.1001
L2C RFO       ACCESS:      62830  HIT:      15068  MISS:      47762  HIT %:    23.9822  MISS %:    76.0178   MPKI: 0.95524
L2C PREFETCH  ACCESS:     370710  HIT:      35211  MISS:     335499  HIT %:    9.49826  MISS %:    90.5017   MPKI: 6.70998
L2C DATA PREFETCH MPKI: 6.70998
L2C INSTRUCTION PREFETCH MPKI: 0
L2C WRITEBACK ACCESS:     176122  HIT:     171563  MISS:       4559  HIT %:    97.4115  MISS %:    2.58855   MPKI: 0.09118
L2C LOAD TRANSLATION ACCESS:    1660220  HIT:    1612095  MISS:      48125  HIT %:    97.1013  MISS %:    2.89871   MPKI: 0.9625
L2C PREFETCH  REQUESTED:     460404  ISSUED:     460404  USEFUL:     181277  USELESS:     154444
L2C USEFUL LOAD PREFETCHES:     181277 PREFETCH ISSUED TO LOWER LEVEL:     386811  ACCURACY: 46.8645
L2C TIMELY PREFETCHES:     181277 LATE PREFETCHES: 51312 DROPPED PREFETCHES: 0
L2C PREFETCHES SAME FILL-ORIGIN LEVEL: 386811 DIFFERENT FILL-ORIGIN LEVEL: 0
L2C AVERAGE MISS LATENCY: 177.016 cycles
L2C RQ	ACCESS:    2320286	FORWARD:          0	MERGED:          0	TO_CACHE:    2320285
L2C WQ	ACCESS:     176122	FORWARD:          1	MERGED:          0	TO_CACHE:     176122
L2C PQ	ACCESS:     460404	FORWARD:          0	MERGED:          0	TO_CACHE:     460404

L2C Instructions Evicting Data 41779
L2C Translations Evicting Data 38648
L2C Data Evicting Data 560307
L2C Instructions Evicting Instructions 7794
L2C Translations Evicting Instructions 4730
L2C Data Evicting Instructions 40548
L2C Instructions Evicting Translations 5432
L2C Translations Evicting Translations 4747
L2C Data Evicting Translations 37941
L2C Dense regions hint from L2: 0
PSCL5 TOTAL     ACCESS:    1576456  HIT:    1576456  MISS:          0  HIT %:        100  MISS %:          0   MPKI: 0
PSCL5 LOAD TRANSLATION ACCESS:    1576456  HIT:    1576456  MISS:          0  HIT %:        100  MISS %:          0   MPKI: 0
PSCL5 PREFETCH  REQUESTED:          0  ISSUED:          0  USEFUL:          0  USELESS:          0
PSCL5 USEFUL LOAD PREFETCHES:          0 PREFETCH ISSUED TO LOWER LEVEL:          0  ACCURACY: -nan
PSCL5 TIMELY PREFETCHES:          0 LATE PREFETCHES: 0 DROPPED PREFETCHES: 0
PSCL5 PREFETCHES SAME FILL-ORIGIN LEVEL: 0 DIFFERENT FILL-ORIGIN LEVEL: 0

PSCL4 TOTAL     ACCESS:    1563026  HIT:    1562927  MISS:         99  HIT %:    99.9937  MISS %: 0.00633387   MPKI: 0.00198
PSCL4 LOAD TRANSLATION ACCESS:    1563026  HIT:    1562927  MISS:         99  HIT %:    99.9937  MISS %: 0.00633387   MPKI: 0.00198
PSCL4 PREFETCH  REQUESTED:          0  ISSUED:          0  USEFUL:          0  USELESS:          0
PSCL4 USEFUL LOAD PREFETCHES:          0 PREFETCH ISSUED TO LOWER LEVEL:          0  ACCURACY: -nan
PSCL4 TIMELY PREFETCHES:          0 LATE PREFETCHES: 0 DROPPED PREFETCHES: 0
PSCL4 PREFETCHES SAME FILL-ORIGIN LEVEL: 0 DIFFERENT FILL-ORIGIN LEVEL: 0

PSCL3 TOTAL     ACCESS:    1572418  HIT:    1571064  MISS:       1354  HIT %:    99.9139  MISS %:  0.0861094   MPKI: 0.02708
PSCL3 LOAD TRANSLATION ACCESS:    1572418  HIT:    1571064  MISS:       1354  HIT %:    99.9139  MISS %:  0.0861094   MPKI: 0.02708
PSCL3 PREFETCH  REQUESTED:          0  ISSUED:          0  USEFUL:          0  USELESS:          0
PSCL3 USEFUL LOAD PREFETCHES:          0 PREFETCH ISSUED TO LOWER LEVEL:          0  ACCURACY: -nan
PSCL3 TIMELY PREFETCHES:          0 LATE PREFETCHES: 0 DROPPED PREFETCHES: 0
PSCL3 PREFETCHES SAME FILL-ORIGIN LEVEL: 0 DIFFERENT FILL-ORIGIN LEVEL: 0

PSCL2 TOTAL     ACCESS:    1576456  HIT:    1493788  MISS:      82668  HIT %:    94.7561  MISS %:    5.24391   MPKI: 1.65336
PSCL2 LOAD TRANSLATION ACCESS:    1576456  HIT:    1493788  MISS:      82668  HIT %:    94.7561  MISS %:    5.24391   MPKI: 1.65336
PSCL2 PREFETCH  REQUESTED:          0  ISSUED:          0  USEFUL:          0  USELESS:          0
PSCL2 USEFUL LOAD PREFETCHES:          0 PREFETCH ISSUED TO LOWER LEVEL:          0  ACCURACY: -nan
PSCL2 TIMELY PREFETCHES:          0 LATE PREFETCHES: 0 DROPPED PREFETCHES: 0
PSCL2 PREFETCHES SAME FILL-ORIGIN LEVEL: 0 DIFFERENT FILL-ORIGIN LEVEL: 0

LLC TOTAL     ACCESS:     896004  HIT:     265070  MISS:     630934  HIT %:    29.5836  MISS %:    70.4164   MPKI: 12.6187
LLC LOAD      ACCESS:     259252  HIT:      64281  MISS:     194971  HIT %:    24.7948  MISS %:    75.2052   MPKI: 3.89942
LLC RFO       ACCESS:      47738  HIT:       7787  MISS:      39951  HIT %:     16.312  MISS %:     83.688   MPKI: 0.79902
LLC PREFETCH  ACCESS:     386810  HIT:      27031  MISS:     359779  HIT %:    6.98819  MISS %:    93.0118   MPKI: 7.19558
LLC WRITEBACK ACCESS:     154079  HIT:     149538  MISS:       4541  HIT %:    97.0528  MISS %:    2.94719   MPKI: 0.09082
LLC LOAD TRANSLATION ACCESS:      48125  HIT:      16433  MISS:      31692  HIT %:    34.1465  MISS %:    65.8535   MPKI: 0.63384
LLC PREFETCH  REQUESTED:          0  ISSUED:          0  USEFUL:       5445  USELESS:     354191
LLC USEFUL LOAD PREFETCHES:       5445 PREFETCH ISSUED TO LOWER LEVEL:     359779  ACCURACY: 1.51343
LLC TIMELY PREFETCHES:       5445 LATE PREFETCHES: 0 DROPPED PREFETCHES: 0
LLC PREFETCHES SAME FILL-ORIGIN LEVEL: 0 DIFFERENT FILL-ORIGIN LEVEL: 0
LLC AVERAGE MISS LATENCY: 181.6 cycles
LLC RQ	ACCESS:     355115	FORWARD:          0	MERGED:          0	TO_CACHE:     355115
LLC WQ	ACCESS:     154079	FORWARD:          1	MERGED:          0	TO_CACHE:     154079
LLC PQ	ACCESS:     386811	FORWARD:          0	MERGED:          0	TO_CACHE:     386810

LLC Dense regions hint to LLC: 0

RAW hits: 502784
Loads Generated: 7665865
Loads sent to L1D: 7163081
Stores Generated: 2254780
Stores sent to L1D: 2254786
Major fault: 0 Minor fault: 52221
Allocated PAGES: 52221
[Bingo] PHT Access: 129124
[Bingo] PHT Hit PC+Addr: 14711
[Bingo] PHT Hit PC+Offs: 81864
[Bingo] PHT Miss: 32549
[Bingo] Prefetch PC+Addr: 0
[Bingo] Prefetch PC+Offs: 0
[Bingo] Useful PC+Addr: 0
[Bingo] Useful PC+Offs: 0
[Bingo] Useless PC+Addr: 0
[Bingo] Useless PC+Offs: 0
[Bingo] L1 Prefetch per Region: 0
[Bingo] L2 Prefetch per Region: 5.89741
[Bingo] L3 Prefetch per Region: 0
[Bingo] No Prefetch per Region: 26.1026
[Bingo] Number of Voters Mean: 10.4767
[Bingo] Number of Voters SD: 11.5453
PHT read accesses: 1869979
PHT write accesses: 54757
AT read accesses: 373809
AT write accesses: 408555
FT read accesses: 171587
FT write accesses: 129124
PS read accesses: 242728
PS write accesses: 96575
PHT tag read accesses: 3545967
PHT tag write accesses: 69468
AT tag read accesses: 22158425
AT tag write accesses: 428567
FT tag read accesses: 19408160
FT tag write accesses: 245075
PS tag read accesses: 11529535
PS tag write accesses: 339145

DRAM Statistics
 CHANNEL 0
 RQ ROW_BUFFER_HIT:     286518  ROW_BUFFER_MISS:     339868
 DBUS_CONGESTED:        349
 WQ ROW_BUFFER_HIT:      25246  ROW_BUFFER_MISS:     116055  FULL:          0

 AVG_CONGESTED_CYCLE: 4
 All warmup complete: 2
Channel 0 Bank busy for read cycles: 0
Channel 0 Bank busy for write cycles: 0
Channel 0
Rank 0
0banks busy for read cycles: 50823080
0banks busy for write cycles: 38009
1banks busy for read cycles: 14951737
1banks busy for write cycles: 5591865
2banks busy for read cycles: 5730409
2banks busy for write cycles: 2012101
3banks busy for read cycles: 2724966
3banks busy for write cycles: 1007549
4banks busy for read cycles: 1064675
4banks busy for write cycles: 636836
5banks busy for read cycles: 622601
5banks busy for write cycles: 445872
6banks busy for read cycles: 565822
6banks busy for write cycles: 371169
7banks busy for read cycles: 669936
7banks busy for write cycles: 418449
8banks busy for read cycles: 1929452
8banks busy for write cycles: 875338

CPU 0 Branch Prediction Accuracy: 98.7824% MPKI: 1.98668 Average ROB Occupancy at Mispredict: 49.0896
Branch types
NOT_BRANCH: 0 0%
BRANCH_DIRECT_JUMP: 0 0%
BRANCH_INDIRECT: 0 0%
BRANCH_CONDITIONAL: 0 0%
BRANCH_DIRECT_CALL: 0 0%
BRANCH_INDIRECT_CALL: 0 0%
BRANCH_RETURN: 0 0%
BRANCH_OTHER: 0 0%

DRAM PAGES: 1048576
Allocated PAGES: 52221
