
*** ChampSim Multicore Out-of-Order Simulator ***

Warmup Instructions: 50000000
Simulation Instructions: 50000000
Number of CPUs: 1
LLC sets: 2048
LLC ways: 16
Off-chip DRAM Size: 4096 MB Channels: 1 Width: 64-bit Data Rate: 6400 MT/s
CPU 0 runs ../cloudsuite_traces//cassandra_phase4_core1.trace.gz
.gz
BTB has LRU replacement policy
ITLB has LRU replacement policy
DTLB has LRU replacement policy
STLB has LRU replacement policy
L1I has LRU replacement policy
L1D has LRU replacement policy
Bingo PHT WAYS: 16 and PHT_SIZE: 16384
Initialize SRRIP state for L2C
Initialize DRRIP state for LLC
UNIQUE_ASID[0] = €
UNIQUE_ASID[1] = 
Heartbeat CPU 0 instructions: 10000002 cycles: 2806906 heartbeat IPC: 3.56264 cumulative IPC: 3.56264 (Simulation time: 0 hr 1 min 35 sec) 
Heartbeat CPU 0 instructions: 20000003 cycles: 5707980 heartbeat IPC: 3.447 cumulative IPC: 3.50387 (Simulation time: 0 hr 2 min 47 sec) 
Heartbeat CPU 0 instructions: 30000002 cycles: 8703539 heartbeat IPC: 3.33827 cumulative IPC: 3.44687 (Simulation time: 0 hr 3 min 53 sec) 
Heartbeat CPU 0 instructions: 40000002 cycles: 11832296 heartbeat IPC: 3.19616 cumulative IPC: 3.38058 (Simulation time: 0 hr 4 min 56 sec) 
Heartbeat CPU 0 instructions: 50000000 cycles: 14813662 heartbeat IPC: 3.35417 cumulative IPC: 3.37526 (Simulation time: 0 hr 5 min 57 sec) 

Warmup complete CPU 0 instructions: 50000004 cycles: 14813663 (Simulation time: 0 hr 5 min 57 sec) 

Heartbeat CPU 0 instructions: 60000000 cycles: 34699777 heartbeat IPC: 0.502863 cumulative IPC: 0.502863 (Simulation time: 0 hr 7 min 41 sec) 
Heartbeat CPU 0 instructions: 70000000 cycles: 51570485 heartbeat IPC: 0.592743 cumulative IPC: 0.544117 (Simulation time: 0 hr 9 min 20 sec) 
Heartbeat CPU 0 instructions: 80000001 cycles: 68772851 heartbeat IPC: 0.581315 cumulative IPC: 0.555976 (Simulation time: 0 hr 10 min 55 sec) 
Heartbeat CPU 0 instructions: 90000002 cycles: 88878316 heartbeat IPC: 0.497377 cumulative IPC: 0.540069 (Simulation time: 0 hr 12 min 5 sec) 
Heartbeat CPU 0 instructions: 100000002 cycles: 106631836 heartbeat IPC: 0.563269 cumulative IPC: 0.544554 (Simulation time: 0 hr 13 min 5 sec) 
Finished CPU 0 instructions: 50000002 cycles: 91818174 cumulative IPC: 0.544554 (Simulation time: 0 hr 13 min 5 sec) 

ChampSim completed all CPUs

Region of Interest Statistics

CPU 0 cumulative IPC: 0.544554 instructions: 50000002 cycles: 91818174

CPU 0 Average Load ROB stall cycles: 1.76234e+07
CPU 0 Fraction of times ROB stalled by Loads: 29.4858
CPU 0 Percentage of Load stall cycles in Total stall cycles: 1.55863e+08
Issued all: 36330465
Issued LT all: 30455604
rob_not_full_when_issued_lt_all: 21134939
Issued LT one: 25687689
rob_not_full_when_issued_lt_one: 17017619
FVP critical_dynamic_instances_0: 3349339
FVP unique_critical_ips_0: 5821
 Total stall cycles: 76982186
 Total load stall cycles: 119987036654345
Unique Load IPs: 16502
CPU 0 NUM of IPS identified critical: 0
CPU 0 Num of Load IPs stalling ROB: 0
Threshold modification factor: 0
Trouble in retire width: -nan
MaC = Marked as critical.
lt_50_percent_before_Mac: 0
gt_90_percent_before_Mac: 0
gt_75_percent_before_Mac: 0
gt_50_percent_before_Mac: 0
stall_proportion_bin_same_before_after: 0
stall_proportion_bin_lower_before_after: 0
stall_proportion_bin_upper_before_after: 0
average_stall_proportion_before: -nan
average_stall_proportion_after: -nan
Critical IP stalls, total frequency: 0
Non-critical IP stalls, total frequency: 0
Total Freq all stalling IPs: 0
Critical_IP_Detector_Accuracy_70: 0.000171792
Critical_IP_Detector_Accuracy_80: 0.000171792
Critical_IP_Detector_Accuracy_90: 0.000171792
Critical_IP_Detector_Coverage_70: 1
Critical_IP_Detector_Coverage_80: 1
Critical_IP_Detector_Coverage_90: 1
stat_90_percent_critical_ip_stalls_freq: 186478
stat_90_percent_non_critical_ip_stalls_freq: 18446744073709365138
AVERAGE_ROB_Occupancy_90_Percent_Critical_IP_Stalls: 13.2615
AVERAGE_ROB_Occupancy_90_Percent_Non_Critical_IP_Stalls: 9.80348e-12
Critical_IP_ROB_Stalls_Bucket_0: 0
Non-critical_IP_ROB_Stalls_Bucket_0: 1078436
Critical_IP_ROB_Stalls_Bucket_1: 0
Non-critical_IP_ROB_Stalls_Bucket_1: 324202
Critical_IP_ROB_Stalls_Bucket_2: 0
Non-critical_IP_ROB_Stalls_Bucket_2: 171409
Critical_IP_ROB_Stalls_Bucket_3: 0
Non-critical_IP_ROB_Stalls_Bucket_3: 111640
Critical_IP_ROB_Stalls_Bucket_4: 0
Non-critical_IP_ROB_Stalls_Bucket_4: 89498
Critical_IP_ROB_Stalls_Bucket_5: 0
Non-critical_IP_ROB_Stalls_Bucket_5: 69328
Critical_IP_ROB_Stalls_Bucket_6: 0
Non-critical_IP_ROB_Stalls_Bucket_6: 162999
0 => IPs accounting for >50 percent of stalls, 1 => 55, 2 => 60, 3 => 65 and so on till 90.
percent50: inf num IPs:  1
percent55: inf num IPs: 1
percent60: inf num IPs: 1
percent65: inf num IPs: 1
percent70: inf num IPs: 1
percent75: inf num IPs: 1
percent80: inf num IPs: 1
percent85: inf num IPs: 1
percent90: inf num IPs: 1
Critical_ROB_Stalls_Percent_0_Bucket_0: 183971
Non-critical_ROB_Stalls_Percent_0_Bucket_0: 894465
Critical_ROB_Stalls_Percent_0_Bucket_1: 1165
Non-critical_ROB_Stalls_Percent_0_Bucket_1: 323037
Critical_ROB_Stalls_Percent_0_Bucket_2: 411
Non-critical_ROB_Stalls_Percent_0_Bucket_2: 170998
Critical_ROB_Stalls_Percent_0_Bucket_3: 638
Non-critical_ROB_Stalls_Percent_0_Bucket_3: 111002
Critical_ROB_Stalls_Percent_0_Bucket_4: 87
Non-critical_ROB_Stalls_Percent_0_Bucket_4: 89411
Critical_ROB_Stalls_Percent_0_Bucket_5: 77
Non-critical_ROB_Stalls_Percent_0_Bucket_5: 69251
Critical_ROB_Stalls_Percent_0_Bucket_6: 129
Non-critical_ROB_Stalls_Percent_0_Bucket_6: 162870
Critical_ROB_Stalls_Percent_1_Bucket_0: 183971
Non-critical_ROB_Stalls_Percent_1_Bucket_0: 894465
Critical_ROB_Stalls_Percent_1_Bucket_1: 1165
Non-critical_ROB_Stalls_Percent_1_Bucket_1: 323037
Critical_ROB_Stalls_Percent_1_Bucket_2: 411
Non-critical_ROB_Stalls_Percent_1_Bucket_2: 170998
Critical_ROB_Stalls_Percent_1_Bucket_3: 638
Non-critical_ROB_Stalls_Percent_1_Bucket_3: 111002
Critical_ROB_Stalls_Percent_1_Bucket_4: 87
Non-critical_ROB_Stalls_Percent_1_Bucket_4: 89411
Critical_ROB_Stalls_Percent_1_Bucket_5: 77
Non-critical_ROB_Stalls_Percent_1_Bucket_5: 69251
Critical_ROB_Stalls_Percent_1_Bucket_6: 129
Non-critical_ROB_Stalls_Percent_1_Bucket_6: 162870
Critical_ROB_Stalls_Percent_2_Bucket_0: 183971
Non-critical_ROB_Stalls_Percent_2_Bucket_0: 894465
Critical_ROB_Stalls_Percent_2_Bucket_1: 1165
Non-critical_ROB_Stalls_Percent_2_Bucket_1: 323037
Critical_ROB_Stalls_Percent_2_Bucket_2: 411
Non-critical_ROB_Stalls_Percent_2_Bucket_2: 170998
Critical_ROB_Stalls_Percent_2_Bucket_3: 638
Non-critical_ROB_Stalls_Percent_2_Bucket_3: 111002
Critical_ROB_Stalls_Percent_2_Bucket_4: 87
Non-critical_ROB_Stalls_Percent_2_Bucket_4: 89411
Critical_ROB_Stalls_Percent_2_Bucket_5: 77
Non-critical_ROB_Stalls_Percent_2_Bucket_5: 69251
Critical_ROB_Stalls_Percent_2_Bucket_6: 129
Non-critical_ROB_Stalls_Percent_2_Bucket_6: 162870
Critical_ROB_Stalls_Percent_3_Bucket_0: 183971
Non-critical_ROB_Stalls_Percent_3_Bucket_0: 894465
Critical_ROB_Stalls_Percent_3_Bucket_1: 1165
Non-critical_ROB_Stalls_Percent_3_Bucket_1: 323037
Critical_ROB_Stalls_Percent_3_Bucket_2: 411
Non-critical_ROB_Stalls_Percent_3_Bucket_2: 170998
Critical_ROB_Stalls_Percent_3_Bucket_3: 638
Non-critical_ROB_Stalls_Percent_3_Bucket_3: 111002
Critical_ROB_Stalls_Percent_3_Bucket_4: 87
Non-critical_ROB_Stalls_Percent_3_Bucket_4: 89411
Critical_ROB_Stalls_Percent_3_Bucket_5: 77
Non-critical_ROB_Stalls_Percent_3_Bucket_5: 69251
Critical_ROB_Stalls_Percent_3_Bucket_6: 129
Non-critical_ROB_Stalls_Percent_3_Bucket_6: 162870
Critical_ROB_Stalls_Percent_4_Bucket_0: 183971
Non-critical_ROB_Stalls_Percent_4_Bucket_0: 894465
Critical_ROB_Stalls_Percent_4_Bucket_1: 1165
Non-critical_ROB_Stalls_Percent_4_Bucket_1: 323037
Critical_ROB_Stalls_Percent_4_Bucket_2: 411
Non-critical_ROB_Stalls_Percent_4_Bucket_2: 170998
Critical_ROB_Stalls_Percent_4_Bucket_3: 638
Non-critical_ROB_Stalls_Percent_4_Bucket_3: 111002
Critical_ROB_Stalls_Percent_4_Bucket_4: 87
Non-critical_ROB_Stalls_Percent_4_Bucket_4: 89411
Critical_ROB_Stalls_Percent_4_Bucket_5: 77
Non-critical_ROB_Stalls_Percent_4_Bucket_5: 69251
Critical_ROB_Stalls_Percent_4_Bucket_6: 129
Non-critical_ROB_Stalls_Percent_4_Bucket_6: 162870
Critical_ROB_Stalls_Percent_5_Bucket_0: 183971
Non-critical_ROB_Stalls_Percent_5_Bucket_0: 894465
Critical_ROB_Stalls_Percent_5_Bucket_1: 1165
Non-critical_ROB_Stalls_Percent_5_Bucket_1: 323037
Critical_ROB_Stalls_Percent_5_Bucket_2: 411
Non-critical_ROB_Stalls_Percent_5_Bucket_2: 170998
Critical_ROB_Stalls_Percent_5_Bucket_3: 638
Non-critical_ROB_Stalls_Percent_5_Bucket_3: 111002
Critical_ROB_Stalls_Percent_5_Bucket_4: 87
Non-critical_ROB_Stalls_Percent_5_Bucket_4: 89411
Critical_ROB_Stalls_Percent_5_Bucket_5: 77
Non-critical_ROB_Stalls_Percent_5_Bucket_5: 69251
Critical_ROB_Stalls_Percent_5_Bucket_6: 129
Non-critical_ROB_Stalls_Percent_5_Bucket_6: 162870
Critical_ROB_Stalls_Percent_6_Bucket_0: 183971
Non-critical_ROB_Stalls_Percent_6_Bucket_0: 894465
Critical_ROB_Stalls_Percent_6_Bucket_1: 1165
Non-critical_ROB_Stalls_Percent_6_Bucket_1: 323037
Critical_ROB_Stalls_Percent_6_Bucket_2: 411
Non-critical_ROB_Stalls_Percent_6_Bucket_2: 170998
Critical_ROB_Stalls_Percent_6_Bucket_3: 638
Non-critical_ROB_Stalls_Percent_6_Bucket_3: 111002
Critical_ROB_Stalls_Percent_6_Bucket_4: 87
Non-critical_ROB_Stalls_Percent_6_Bucket_4: 89411
Critical_ROB_Stalls_Percent_6_Bucket_5: 77
Non-critical_ROB_Stalls_Percent_6_Bucket_5: 69251
Critical_ROB_Stalls_Percent_6_Bucket_6: 129
Non-critical_ROB_Stalls_Percent_6_Bucket_6: 162870
Critical_ROB_Stalls_Percent_7_Bucket_0: 183971
Non-critical_ROB_Stalls_Percent_7_Bucket_0: 894465
Critical_ROB_Stalls_Percent_7_Bucket_1: 1165
Non-critical_ROB_Stalls_Percent_7_Bucket_1: 323037
Critical_ROB_Stalls_Percent_7_Bucket_2: 411
Non-critical_ROB_Stalls_Percent_7_Bucket_2: 170998
Critical_ROB_Stalls_Percent_7_Bucket_3: 638
Non-critical_ROB_Stalls_Percent_7_Bucket_3: 111002
Critical_ROB_Stalls_Percent_7_Bucket_4: 87
Non-critical_ROB_Stalls_Percent_7_Bucket_4: 89411
Critical_ROB_Stalls_Percent_7_Bucket_5: 77
Non-critical_ROB_Stalls_Percent_7_Bucket_5: 69251
Critical_ROB_Stalls_Percent_7_Bucket_6: 129
Non-critical_ROB_Stalls_Percent_7_Bucket_6: 162870
Critical_ROB_Stalls_Percent_8_Bucket_0: 183971
Non-critical_ROB_Stalls_Percent_8_Bucket_0: 894465
Critical_ROB_Stalls_Percent_8_Bucket_1: 1165
Non-critical_ROB_Stalls_Percent_8_Bucket_1: 323037
Critical_ROB_Stalls_Percent_8_Bucket_2: 411
Non-critical_ROB_Stalls_Percent_8_Bucket_2: 170998
Critical_ROB_Stalls_Percent_8_Bucket_3: 638
Non-critical_ROB_Stalls_Percent_8_Bucket_3: 111002
Critical_ROB_Stalls_Percent_8_Bucket_4: 87
Non-critical_ROB_Stalls_Percent_8_Bucket_4: 89411
Critical_ROB_Stalls_Percent_8_Bucket_5: 77
Non-critical_ROB_Stalls_Percent_8_Bucket_5: 69251
Critical_ROB_Stalls_Percent_8_Bucket_6: 129
Non-critical_ROB_Stalls_Percent_8_Bucket_6: 162870
Average ROB occupancy Load Stall Begin: 76.2055
Average ROB occupancy Load Stall End: 91.3147
Min ROB occupancy Load Stall Begin: 1
Max ROB occupancy Load Stall Begin: 352
Min ROB occupancy Load Stall End: 1
Max ROB occupancy Load Stall End: 352
Average ROB occupancy Critical Load Stall Begin: -nan
Average ROB occupancy Critical Load Stall End: -nan
Min ROB occupancy Critical Load Stall Begin: 400
Max ROB occupancy Critical Load Stall Begin: 0
Min ROB occupancy Critical Load Stall End: 400
Max ROB occupancy Critical Load Stall End: 0
 ROB Load Stall Begin Bucket Count 0: 1234543
 ROB Load Stall End Bucket Count 0: 1078436
 ROB Critical Load Stall Begin Bucket Count 0: 0
 ROB Critical Load Stall End Bucket Count 0: 0
 ROB Load Stall Begin Bucket Count 1: 272204
 ROB Load Stall End Bucket Count 1: 324202
 ROB Critical Load Stall Begin Bucket Count 1: 0
 ROB Critical Load Stall End Bucket Count 1: 0
 ROB Load Stall Begin Bucket Count 2: 142534
 ROB Load Stall End Bucket Count 2: 171409
 ROB Critical Load Stall Begin Bucket Count 2: 0
 ROB Critical Load Stall End Bucket Count 2: 0
 ROB Load Stall Begin Bucket Count 3: 94115
 ROB Load Stall End Bucket Count 3: 111640
 ROB Critical Load Stall Begin Bucket Count 3: 0
 ROB Critical Load Stall End Bucket Count 3: 0
 ROB Load Stall Begin Bucket Count 4: 73609
 ROB Load Stall End Bucket Count 4: 89498
 ROB Critical Load Stall Begin Bucket Count 4: 0
 ROB Critical Load Stall End Bucket Count 4: 0
 ROB Load Stall Begin Bucket Count 5: 61366
 ROB Load Stall End Bucket Count 5: 69328
 ROB Critical Load Stall Begin Bucket Count 5: 0
 ROB Critical Load Stall End Bucket Count 5: 0
 ROB Load Stall Begin Bucket Count 6: 129141
 ROB Load Stall End Bucket Count 6: 162999
 ROB Critical Load Stall Begin Bucket Count 6: 0
 ROB Critical Load Stall End Bucket Count 6: 0
PIST Tag Read Accesses: 0
PIST Read Accesses: 0
PIST Tag Write Accesses: 0
PIST Write Accesses: 0
Criticality detector called times: 0
Max global_stall_cycles_count: 0
Threshold Modified: 0 times, factor: 0
ITLB TOTAL     ACCESS:    8162404  HIT:    7629567  MISS:     532837  HIT %:    93.4721  MISS %:    6.52794   MPKI: 10.6567
ITLB LOAD TRANSLATION ACCESS:    8162404  HIT:    7629567  MISS:     532837  HIT %:    93.4721  MISS %:    6.52794   MPKI: 10.6567
ITLB PREFETCH  REQUESTED:          0  ISSUED:          0  USEFUL:          0  USELESS:          0
ITLB USEFUL LOAD PREFETCHES:          0 PREFETCH ISSUED TO LOWER LEVEL:          0  ACCURACY: -nan
ITLB TIMELY PREFETCHES:          0 LATE PREFETCHES: 0 DROPPED PREFETCHES: 0
ITLB PREFETCHES SAME FILL-ORIGIN LEVEL: 0 DIFFERENT FILL-ORIGIN LEVEL: 0
ITLB AVERAGE MISS LATENCY: 36.6205 cycles
ITLB RQ	ACCESS:   10209888	FORWARD:          0	MERGED:    1735500	TO_CACHE:    8474388

DTLB TOTAL     ACCESS:    5263550  HIT:    3276993  MISS:    1986557  HIT %:    62.2582  MISS %:    37.7418   MPKI: 39.7311
DTLB LOAD TRANSLATION ACCESS:    5263550  HIT:    3276993  MISS:    1986557  HIT %:    62.2582  MISS %:    37.7418   MPKI: 39.7311
DTLB PREFETCH  REQUESTED:          0  ISSUED:          0  USEFUL:          0  USELESS:          0
DTLB USEFUL LOAD PREFETCHES:          0 PREFETCH ISSUED TO LOWER LEVEL:          0  ACCURACY: -nan
DTLB TIMELY PREFETCHES:          0 LATE PREFETCHES: 0 DROPPED PREFETCHES: 0
DTLB PREFETCHES SAME FILL-ORIGIN LEVEL: 0 DIFFERENT FILL-ORIGIN LEVEL: 0
DTLB AVERAGE MISS LATENCY: 28.8477 cycles
DTLB RQ	ACCESS:    6463452	FORWARD:          0	MERGED:     989375	TO_CACHE:    5474077

STLB TOTAL     ACCESS:    2519394  HIT:     942045  MISS:    1577349  HIT %:    37.3917  MISS %:    62.6083   MPKI: 31.547
STLB LOAD TRANSLATION ACCESS:    2519394  HIT:     942045  MISS:    1577349  HIT %:    37.3917  MISS %:    62.6083   MPKI: 31.547
STLB PREFETCH  REQUESTED:          0  ISSUED:          0  USEFUL:          0  USELESS:          0
STLB USEFUL LOAD PREFETCHES:          0 PREFETCH ISSUED TO LOWER LEVEL:          0  ACCURACY: -nan
STLB TIMELY PREFETCHES:          0 LATE PREFETCHES: 0 DROPPED PREFETCHES: 0
STLB PREFETCHES SAME FILL-ORIGIN LEVEL: 0 DIFFERENT FILL-ORIGIN LEVEL: 0
STLB AVERAGE MISS LATENCY: 34.1452 cycles
STLB RQ	ACCESS:    2519394	FORWARD:          0	MERGED:          0	TO_CACHE:    2519394

STLB Hit, L1D data hit: 0
STLB Hit, L2C data hit: 0
STLB Hit, LLC data hit: 0
STLB Hit, LLC data miss: 0
STLB STLB hints to L2: 0
L1D TOTAL     ACCESS:    6224104  HIT:    5677476  MISS:     546628  HIT %:    91.2176  MISS %:    8.78244   MPKI: 10.9326
L1D LOAD      ACCESS:    4317678  HIT:    3833870  MISS:     483808  HIT %:    88.7947  MISS %:    11.2053   MPKI: 9.67616
L1D RFO       ACCESS:    1906426  HIT:    1843606  MISS:      62820  HIT %:    96.7048  MISS %:    3.29517   MPKI: 1.2564
L1D PREFETCH  REQUESTED:          0  ISSUED:          0  USEFUL:          0  USELESS:          0
L1D USEFUL LOAD PREFETCHES:          0 PREFETCH ISSUED TO LOWER LEVEL:          0  ACCURACY: -nan
L1D TIMELY PREFETCHES:          0 LATE PREFETCHES: 0 DROPPED PREFETCHES: 0
L1D PREFETCHES SAME FILL-ORIGIN LEVEL: 0 DIFFERENT FILL-ORIGIN LEVEL: 0
L1D AVERAGE MISS LATENCY: 121.902 cycles
L1D RQ	ACCESS:    7156686	FORWARD:          0	MERGED:    2737354	TO_CACHE:    4365943
L1D WQ	ACCESS:    2254786	FORWARD:      53389	MERGED:     157277	TO_CACHE:    2097509

L1D UNIQUE REGIONS ACCESSED: 0
L1D REGIONS CONFLICTS: 0
L1D Cross Page Prefetch Requests: 0
L1D Same Page Prefetch Requests: 0
L1D ROI Sum of L1D PQ occupancy: 0
L1D PREFETCHES PUSHED FROM L2C: 0
L1I TOTAL     ACCESS:   10170241  HIT:   10056805  MISS:     113436  HIT %:    98.8846  MISS %:    1.11537   MPKI: 2.26872
L1I LOAD      ACCESS:   10170241  HIT:   10056805  MISS:     113436  HIT %:    98.8846  MISS %:    1.11537   MPKI: 2.26872
L1I PREFETCH  REQUESTED:          0  ISSUED:          0  USEFUL:          0  USELESS:          0
L1I USEFUL LOAD PREFETCHES:          0 PREFETCH ISSUED TO LOWER LEVEL:          0  ACCURACY: -nan
L1I TIMELY PREFETCHES:          0 LATE PREFETCHES: 0 DROPPED PREFETCHES: 0
L1I PREFETCHES SAME FILL-ORIGIN LEVEL: 0 DIFFERENT FILL-ORIGIN LEVEL: 0
L1I AVERAGE MISS LATENCY: 56.6019 cycles
L1I RQ	ACCESS:   17046636	FORWARD:          0	MERGED:    6836748	TO_CACHE:   10209888

BTB BRANCH_DIRECT_JUMP	ACCESS:          0  HIT:          0  MISS:          0
BTB BRANCH_INDIRECT	ACCESS:          0  HIT:          0  MISS:          0
BTB BRANCH_CONDITIONAL	ACCESS:          0  HIT:          0  MISS:          0
BTB BRANCH_DIRECT_CALL	ACCESS:          0  HIT:          0  MISS:          0
BTB BRANCH_INDIRECT_CALL	ACCESS:          0  HIT:          0  MISS:          0
BTB BRANCH_RETURN	ACCESS:          0  HIT:          0  MISS:          0
BTB BRANCH_OTHER ACCESS:          0  HIT:          0  MISS:          0

L2C TOTAL     ACCESS:    2755717  HIT:    2072446  MISS:     683271  HIT %:    75.2053  MISS %:    24.7947   MPKI: 13.6654
L2C LOAD      ACCESS:     597241  HIT:     252800  MISS:     344441  HIT %:     42.328  MISS %:     57.672   MPKI: 6.88882
L2C DATA LOAD MPKI: 5.8214
L2C INSTRUCTION LOAD MPKI: 1.06742
L2C RFO       ACCESS:      62819  HIT:      15153  MISS:      47666  HIT %:    24.1217  MISS %:    75.8783   MPKI: 0.95332
L2C PREFETCH  ACCESS:     258437  HIT:      19498  MISS:     238939  HIT %:    7.54459  MISS %:    92.4554   MPKI: 4.77878
L2C DATA PREFETCH MPKI: 4.77878
L2C INSTRUCTION PREFETCH MPKI: 0
L2C WRITEBACK ACCESS:     176123  HIT:     171072  MISS:       5051  HIT %:    97.1321  MISS %:    2.86788   MPKI: 0.10102
L2C LOAD TRANSLATION ACCESS:    1661097  HIT:    1613923  MISS:      47174  HIT %:    97.1601  MISS %:    2.83993   MPKI: 0.94348
L2C PREFETCH  REQUESTED:     331601  ISSUED:     331601  USEFUL:     145475  USELESS:      93080
L2C USEFUL LOAD PREFETCHES:     145475 PREFETCH ISSUED TO LOWER LEVEL:     280554  ACCURACY: 51.8528
L2C TIMELY PREFETCHES:     145475 LATE PREFETCHES: 41615 DROPPED PREFETCHES: 0
L2C PREFETCHES SAME FILL-ORIGIN LEVEL: 280554 DIFFERENT FILL-ORIGIN LEVEL: 0
L2C AVERAGE MISS LATENCY: 177.273 cycles
L2C RQ	ACCESS:    2321161	FORWARD:          0	MERGED:          0	TO_CACHE:    2321160
L2C WQ	ACCESS:     176123	FORWARD:          1	MERGED:          0	TO_CACHE:     176123
L2C PQ	ACCESS:     331601	FORWARD:          0	MERGED:          0	TO_CACHE:     331601

L2C Instructions Evicting Data 39917
L2C Translations Evicting Data 37234
L2C Data Evicting Data 502165
L2C Instructions Evicting Instructions 7692
L2C Translations Evicting Instructions 4993
L2C Data Evicting Instructions 38761
L2C Instructions Evicting Translations 5762
L2C Translations Evicting Translations 4947
L2C Data Evicting Translations 36749
L2C Dense regions hint from L2: 0
PSCL5 TOTAL     ACCESS:    1577349  HIT:    1577349  MISS:          0  HIT %:        100  MISS %:          0   MPKI: 0
PSCL5 LOAD TRANSLATION ACCESS:    1577349  HIT:    1577349  MISS:          0  HIT %:        100  MISS %:          0   MPKI: 0
PSCL5 PREFETCH  REQUESTED:          0  ISSUED:          0  USEFUL:          0  USELESS:          0
PSCL5 USEFUL LOAD PREFETCHES:          0 PREFETCH ISSUED TO LOWER LEVEL:          0  ACCURACY: -nan
PSCL5 TIMELY PREFETCHES:          0 LATE PREFETCHES: 0 DROPPED PREFETCHES: 0
PSCL5 PREFETCHES SAME FILL-ORIGIN LEVEL: 0 DIFFERENT FILL-ORIGIN LEVEL: 0

PSCL4 TOTAL     ACCESS:    1563604  HIT:    1563500  MISS:        104  HIT %:    99.9933  MISS %:  0.0066513   MPKI: 0.00208
PSCL4 LOAD TRANSLATION ACCESS:    1563604  HIT:    1563500  MISS:        104  HIT %:    99.9933  MISS %:  0.0066513   MPKI: 0.00208
PSCL4 PREFETCH  REQUESTED:          0  ISSUED:          0  USEFUL:          0  USELESS:          0
PSCL4 USEFUL LOAD PREFETCHES:          0 PREFETCH ISSUED TO LOWER LEVEL:          0  ACCURACY: -nan
PSCL4 TIMELY PREFETCHES:          0 LATE PREFETCHES: 0 DROPPED PREFETCHES: 0
PSCL4 PREFETCHES SAME FILL-ORIGIN LEVEL: 0 DIFFERENT FILL-ORIGIN LEVEL: 0

PSCL3 TOTAL     ACCESS:    1572367  HIT:    1571022  MISS:       1345  HIT %:    99.9145  MISS %:  0.0855398   MPKI: 0.0269
PSCL3 LOAD TRANSLATION ACCESS:    1572367  HIT:    1571022  MISS:       1345  HIT %:    99.9145  MISS %:  0.0855398   MPKI: 0.0269
PSCL3 PREFETCH  REQUESTED:          0  ISSUED:          0  USEFUL:          0  USELESS:          0
PSCL3 USEFUL LOAD PREFETCHES:          0 PREFETCH ISSUED TO LOWER LEVEL:          0  ACCURACY: -nan
PSCL3 TIMELY PREFETCHES:          0 LATE PREFETCHES: 0 DROPPED PREFETCHES: 0
PSCL3 PREFETCHES SAME FILL-ORIGIN LEVEL: 0 DIFFERENT FILL-ORIGIN LEVEL: 0

PSCL2 TOTAL     ACCESS:    1577349  HIT:    1494693  MISS:      82656  HIT %:    94.7598  MISS %:    5.24018   MPKI: 1.65312
PSCL2 LOAD TRANSLATION ACCESS:    1577349  HIT:    1494693  MISS:      82656  HIT %:    94.7598  MISS %:    5.24018   MPKI: 1.65312
PSCL2 PREFETCH  REQUESTED:          0  ISSUED:          0  USEFUL:          0  USELESS:          0
PSCL2 USEFUL LOAD PREFETCHES:          0 PREFETCH ISSUED TO LOWER LEVEL:          0  ACCURACY: -nan
PSCL2 TIMELY PREFETCHES:          0 LATE PREFETCHES: 0 DROPPED PREFETCHES: 0
PSCL2 PREFETCHES SAME FILL-ORIGIN LEVEL: 0 DIFFERENT FILL-ORIGIN LEVEL: 0

LLC TOTAL     ACCESS:     831739  HIT:     258350  MISS:     573389  HIT %:    31.0614  MISS %:    68.9386   MPKI: 11.4678
LLC LOAD      ACCESS:     302835  HIT:      69778  MISS:     233057  HIT %:    23.0416  MISS %:    76.9584   MPKI: 4.66114
LLC RFO       ACCESS:      47657  HIT:       7612  MISS:      40045  HIT %:    15.9725  MISS %:    84.0275   MPKI: 0.8009
LLC PREFETCH  ACCESS:     280554  HIT:      15037  MISS:     265517  HIT %:    5.35975  MISS %:    94.6402   MPKI: 5.31034
LLC WRITEBACK ACCESS:     153519  HIT:     149096  MISS:       4423  HIT %:    97.1189  MISS %:    2.88108   MPKI: 0.08846
LLC LOAD TRANSLATION ACCESS:      47174  HIT:      16827  MISS:      30347  HIT %:    35.6701  MISS %:    64.3299   MPKI: 0.60694
LLC PREFETCH  REQUESTED:          0  ISSUED:          0  USEFUL:       4000  USELESS:     253048
LLC USEFUL LOAD PREFETCHES:       4000 PREFETCH ISSUED TO LOWER LEVEL:     265517  ACCURACY: 1.50649
LLC TIMELY PREFETCHES:       4000 LATE PREFETCHES: 0 DROPPED PREFETCHES: 0
LLC PREFETCHES SAME FILL-ORIGIN LEVEL: 0 DIFFERENT FILL-ORIGIN LEVEL: 0
LLC AVERAGE MISS LATENCY: 182.728 cycles
LLC RQ	ACCESS:     397666	FORWARD:          0	MERGED:          0	TO_CACHE:     397666
LLC WQ	ACCESS:     153519	FORWARD:          0	MERGED:          0	TO_CACHE:     153519
LLC PQ	ACCESS:     280554	FORWARD:          0	MERGED:          0	TO_CACHE:     280554

LLC Dense regions hint to LLC: 0

RAW hits: 509179
Loads Generated: 7665865
Loads sent to L1D: 7156686
Stores Generated: 2254780
Stores sent to L1D: 2254786
Major fault: 0 Minor fault: 52221
Allocated PAGES: 52221
[Bingo] PHT Access: 74102
[Bingo] PHT Hit PC+Addr: 3385
[Bingo] PHT Hit PC+Offs: 50592
[Bingo] PHT Miss: 20125
[Bingo] Prefetch PC+Addr: 0
[Bingo] Prefetch PC+Offs: 0
[Bingo] Useful PC+Addr: 0
[Bingo] Useful PC+Offs: 0
[Bingo] Useless PC+Addr: 0
[Bingo] Useless PC+Offs: 0
[Bingo] L1 Prefetch per Region: 0
[Bingo] L2 Prefetch per Region: 7.26454
[Bingo] L3 Prefetch per Region: 0
[Bingo] No Prefetch per Region: 24.7355
[Bingo] Number of Voters Mean: 10.751
[Bingo] Number of Voters SD: 5.82304
PHT read accesses: 912167
PHT write accesses: 36115
AT read accesses: 256400
AT write accesses: 272450
FT read accesses: 115452
FT write accesses: 74102
PS read accesses: 137651
PS write accesses: 53977
PHT tag read accesses: 2226652
PHT tag write accesses: 39500
AT tag read accesses: 17474972
AT tag write accesses: 292571
FT tag read accesses: 15286388
FT tag write accesses: 152938
PS tag read accesses: 7046276
PS tag write accesses: 191520

DRAM Statistics
 CHANNEL 0
 RQ ROW_BUFFER_HIT:     252011  ROW_BUFFER_MISS:     316951
 DBUS_CONGESTED:        316
 WQ ROW_BUFFER_HIT:      26055  ROW_BUFFER_MISS:     115284  FULL:          0

 AVG_CONGESTED_CYCLE: 4
 All warmup complete: 2
Channel 0 Bank busy for read cycles: 0
Channel 0 Bank busy for write cycles: 0
Channel 0
Rank 0
0banks busy for read cycles: 50423445
0banks busy for write cycles: 39137
1banks busy for read cycles: 17897658
1banks busy for write cycles: 6083275
2banks busy for read cycles: 5512431
2banks busy for write cycles: 2041360
3banks busy for read cycles: 2038303
3banks busy for write cycles: 994782
4banks busy for read cycles: 882794
4banks busy for write cycles: 613885
5banks busy for read cycles: 576921
5banks busy for write cycles: 416155
6banks busy for read cycles: 565845
6banks busy for write cycles: 359256
7banks busy for read cycles: 599587
7banks busy for write cycles: 415753
8banks busy for read cycles: 1411363
8banks busy for write cycles: 946225

CPU 0 Branch Prediction Accuracy: 98.7824% MPKI: 1.98668 Average ROB Occupancy at Mispredict: 51.622
Branch types
NOT_BRANCH: 0 0%
BRANCH_DIRECT_JUMP: 0 0%
BRANCH_INDIRECT: 0 0%
BRANCH_CONDITIONAL: 0 0%
BRANCH_DIRECT_CALL: 0 0%
BRANCH_INDIRECT_CALL: 0 0%
BRANCH_RETURN: 0 0%
BRANCH_OTHER: 0 0%

DRAM PAGES: 1048576
Allocated PAGES: 52221
