
*** ChampSim Multicore Out-of-Order Simulator ***

Warmup Instructions: 50000000
Simulation Instructions: 50000000
Number of CPUs: 1
LLC sets: 2048
LLC ways: 16
Off-chip DRAM Size: 4096 MB Channels: 1 Width: 64-bit Data Rate: 6400 MT/s
CPU 0 runs ../cloudsuite_traces//cassandra_phase3_core1.trace.gz
.gz
NUM_OF_IPS_IN_CRITICAL_IP_TRAINING: 64
NUM_OF_CRITICAL_IP_TRAINING_TABLE_WAYS: 2
NUM_OF_CRITICAL_IP_TRAINING_TABLE_SETS: 32
WOBBLY_CRITICAL_IP_CACHE_SETS: 32
WOBBLY_CRITICAL_IP_CACHE_WAYS: 4
BTB has LRU replacement policy
ITLB has LRU replacement policy
DTLB has LRU replacement policy
STLB has LRU replacement policy
L1I has LRU replacement policy
L1D has LRU replacement policy
Bingo PHT WAYS: 16 and PHT_SIZE: 16384
Initialize SRRIP state for L2C
Initialize DRRIP state for LLC
UNIQUE_ASID[0] = €
UNIQUE_ASID[1] = 
Heartbeat CPU 0 instructions: 10000000 cycles: 2750907 heartbeat IPC: 3.63516 cumulative IPC: 3.63516 (Simulation time: 0 hr 3 min 43 sec) 
Heartbeat CPU 0 instructions: 20000000 cycles: 5582585 heartbeat IPC: 3.53148 cumulative IPC: 3.58257 (Simulation time: 0 hr 6 min 54 sec) 
Heartbeat CPU 0 instructions: 30000003 cycles: 8477079 heartbeat IPC: 3.45484 cumulative IPC: 3.53896 (Simulation time: 0 hr 10 min 19 sec) 
Heartbeat CPU 0 instructions: 40000003 cycles: 11726587 heartbeat IPC: 3.07739 cumulative IPC: 3.41105 (Simulation time: 0 hr 13 min 37 sec) 
Heartbeat CPU 0 instructions: 50000002 cycles: 14730494 heartbeat IPC: 3.329 cumulative IPC: 3.39432 (Simulation time: 0 hr 16 min 46 sec) 

Warmup complete CPU 0 instructions: 50000002 cycles: 14730494 (Simulation time: 0 hr 16 min 46 sec) 

% increase in all ip prefetch 667.66
% increase in all ip prefetch -24.578
Heartbeat CPU 0 instructions: 60000002 cycles: 34946814 heartbeat IPC: 0.49465 cumulative IPC: 0.49465 (Simulation time: 0 hr 21 min 2 sec) 
Heartbeat CPU 0 instructions: 70000001 cycles: 52200972 heartbeat IPC: 0.57957 cumulative IPC: 0.533754 (Simulation time: 0 hr 24 min 54 sec) 
Heartbeat CPU 0 instructions: 80000000 cycles: 68940184 heartbeat IPC: 0.5974 cumulative IPC: 0.553407 (Simulation time: 0 hr 28 min 36 sec) 
Heartbeat CPU 0 instructions: 90000001 cycles: 86083579 heartbeat IPC: 0.583315 cumulative IPC: 0.560592 (Simulation time: 0 hr 32 min 24 sec) 
Heartbeat CPU 0 instructions: 100000002 cycles: 102830419 heartbeat IPC: 0.597128 cumulative IPC: 0.567537 (Simulation time: 0 hr 36 min 4 sec) 
Finished CPU 0 instructions: 50000000 cycles: 88099925 cumulative IPC: 0.567537 (Simulation time: 0 hr 36 min 4 sec) 

ChampSim completed all CPUs

Region of Interest Statistics

CPU 0 cumulative IPC: 0.567537 instructions: 50000000 cycles: 88099925

CPU 0 Average Load ROB stall cycles: 4.66121e+06
CPU 0 Fraction of times ROB stalled by Loads: 7.83632
CPU 0 Percentage of Load stall cycles in Total stall cycles: 4.9863e+07
 Total stall cycles: 57113984
 Total load stall cycles: 28478742896164
CPU 0 NUM of IPS identified critical: 0
CPU 0 Num of Load IPs stalling ROB: 3329
Threshold modification factor: -1
Max PIST entries: 64
Min PIST entries: 0
Avg PIST entries: 28.51
Critical IP stalls, total frequency: 0
rob stalling non-critical load ip: 16783620 freq: 16
rob stalling non-critical load ip: 16783660 freq: 77
rob stalling non-critical load ip: 16783672 freq: 34
rob stalling non-critical load ip: 16783684 freq: 11
rob stalling non-critical load ip: 16783692 freq: 106
rob stalling non-critical load ip: 16783700 freq: 84
rob stalling non-critical load ip: 16783876 freq: 31
rob stalling non-critical load ip: 16783908 freq: 13
rob stalling non-critical load ip: 16783916 freq: 219
rob stalling non-critical load ip: 16783928 freq: 178
rob stalling non-critical load ip: 16783936 freq: 59
rob stalling non-critical load ip: 16783940 freq: 25
rob stalling non-critical load ip: 16783948 freq: 172
rob stalling non-critical load ip: 16783956 freq: 192
rob stalling non-critical load ip: 16784128 freq: 266
rob stalling non-critical load ip: 16784136 freq: 35
rob stalling non-critical load ip: 16784148 freq: 68
rob stalling non-critical load ip: 16784152 freq: 271
rob stalling non-critical load ip: 16784160 freq: 22
rob stalling non-critical load ip: 16784168 freq: 172
rob stalling non-critical load ip: 16784176 freq: 36
rob stalling non-critical load ip: 16784184 freq: 15
rob stalling non-critical load ip: 16800260 freq: 4
rob stalling non-critical load ip: 16800536 freq: 24
rob stalling non-critical load ip: 16803568 freq: 3
rob stalling non-critical load ip: 16806692 freq: 25
rob stalling non-critical load ip: 16806724 freq: 5
rob stalling non-critical load ip: 16806728 freq: 6
rob stalling non-critical load ip: 16806732 freq: 4
rob stalling non-critical load ip: 16807120 freq: 210
rob stalling non-critical load ip: 16807124 freq: 5
rob stalling non-critical load ip: 16807128 freq: 7
rob stalling non-critical load ip: 16807136 freq: 12
rob stalling non-critical load ip: 16807188 freq: 3
rob stalling non-critical load ip: 16807200 freq: 8
rob stalling non-critical load ip: 16807208 freq: 6
rob stalling non-critical load ip: 16807220 freq: 9
rob stalling non-critical load ip: 16807228 freq: 18
rob stalling non-critical load ip: 16807244 freq: 6
rob stalling non-critical load ip: 16807256 freq: 3
rob stalling non-critical load ip: 16807260 freq: 2
rob stalling non-critical load ip: 16807264 freq: 4
rob stalling non-critical load ip: 16807268 freq: 41
rob stalling non-critical load ip: 16807344 freq: 24
rob stalling non-critical load ip: 16807352 freq: 38
rob stalling non-critical load ip: 16807392 freq: 193
rob stalling non-critical load ip: 16807812 freq: 14
rob stalling non-critical load ip: 16807864 freq: 3
rob stalling non-critical load ip: 16807956 freq: 26
rob stalling non-critical load ip: 16808000 freq: 4
rob stalling non-critical load ip: 16808020 freq: 14
rob stalling non-critical load ip: 16808024 freq: 15
rob stalling non-critical load ip: 16808028 freq: 39
rob stalling non-critical load ip: 16808032 freq: 5
rob stalling non-critical load ip: 16809368 freq: 2
rob stalling non-critical load ip: 16809664 freq: 2
rob stalling non-critical load ip: 16812528 freq: 6
rob stalling non-critical load ip: 16812716 freq: 536
rob stalling non-critical load ip: 16812908 freq: 54
rob stalling non-critical load ip: 16813176 freq: 13983
rob stalling non-critical load ip: 16813308 freq: 27456
rob stalling non-critical load ip: 16813444 freq: 168
rob stalling non-critical load ip: 16813448 freq: 2349
rob stalling non-critical load ip: 16813472 freq: 9
rob stalling non-critical load ip: 16813580 freq: 20
rob stalling non-critical load ip: 16813612 freq: 43
rob stalling non-critical load ip: 16813624 freq: 1
rob stalling non-critical load ip: 16813680 freq: 158
rob stalling non-critical load ip: 16813704 freq: 27
rob stalling non-critical load ip: 16813744 freq: 31
rob stalling non-critical load ip: 16813760 freq: 13
rob stalling non-critical load ip: 16813800 freq: 3
rob stalling non-critical load ip: 16813840 freq: 60
rob stalling non-critical load ip: 16814100 freq: 1812
rob stalling non-critical load ip: 16814132 freq: 83
rob stalling non-critical load ip: 16814148 freq: 60
rob stalling non-critical load ip: 16814200 freq: 954
rob stalling non-critical load ip: 16814216 freq: 10
rob stalling non-critical load ip: 16814224 freq: 697
rob stalling non-critical load ip: 16814264 freq: 24
rob stalling non-critical load ip: 16814280 freq: 148
rob stalling non-critical load ip: 16814324 freq: 10
rob stalling non-critical load ip: 16814340 freq: 40
rob stalling non-critical load ip: 16815252 freq: 3
rob stalling non-critical load ip: 16815372 freq: 266
rob stalling non-critical load ip: 16815392 freq: 121
rob stalling non-critical load ip: 16815412 freq: 97
rob stalling non-critical load ip: 16815436 freq: 31
rob stalling non-critical load ip: 16815860 freq: 9
rob stalling non-critical load ip: 16815912 freq: 2
rob stalling non-critical load ip: 16817700 freq: 7
rob stalling non-critical load ip: 16817756 freq: 6
rob stalling non-critical load ip: 16817820 freq: 21
rob stalling non-critical load ip: 16817836 freq: 16
rob stalling non-critical load ip: 16817844 freq: 14
rob stalling non-critical load ip: 16817900 freq: 29
rob stalling non-critical load ip: 16817940 freq: 3
rob stalling non-critical load ip: 16817960 freq: 1
rob stalling non-critical load ip: 16820672 freq: 1
rob stalling non-critical load ip: 16820676 freq: 2
rob stalling non-critical load ip: 16820708 freq: 7
rob stalling non-critical load ip: 16820732 freq: 1
rob stalling non-critical load ip: 16820736 freq: 3
rob stalling non-critical load ip: 16820768 freq: 1
rob stalling non-critical load ip: 16820772 freq: 3
rob stalling non-critical load ip: 16821280 freq: 3
rob stalling non-critical load ip: 16821296 freq: 13
rob stalling non-critical load ip: 16821308 freq: 13
rob stalling non-critical load ip: 16821340 freq: 13
rob stalling non-critical load ip: 16821452 freq: 40
rob stalling non-critical load ip: 16821464 freq: 8
rob stalling non-critical load ip: 16821628 freq: 4
rob stalling non-critical load ip: 16821664 freq: 6
rob stalling non-critical load ip: 16821732 freq: 4
rob stalling non-critical load ip: 16821800 freq: 6
rob stalling non-critical load ip: 16821840 freq: 11
rob stalling non-critical load ip: 16821912 freq: 115
rob stalling non-critical load ip: 16821924 freq: 3
rob stalling non-critical load ip: 16821956 freq: 14
rob stalling non-critical load ip: 16821980 freq: 1
rob stalling non-critical load ip: 16822004 freq: 109
rob stalling non-critical load ip: 16822020 freq: 2
rob stalling non-critical load ip: 16822032 freq: 1
rob stalling non-critical load ip: 16822116 freq: 11
rob stalling non-critical load ip: 16822212 freq: 2
rob stalling non-critical load ip: 16822264 freq: 15
rob stalling non-critical load ip: 16822276 freq: 20
rob stalling non-critical load ip: 16822308 freq: 5
rob stalling non-critical load ip: 16822320 freq: 1
rob stalling non-critical load ip: 16822732 freq: 1
rob stalling non-critical load ip: 16822788 freq: 4
rob stalling non-critical load ip: 16822888 freq: 7
rob stalling non-critical load ip: 16822900 freq: 2
rob stalling non-critical load ip: 16823180 freq: 13
rob stalling non-critical load ip: 16823192 freq: 13
rob stalling non-critical load ip: 16823220 freq: 2
rob stalling non-critical load ip: 16823232 freq: 1
rob stalling non-critical load ip: 16823844 freq: 3
rob stalling non-critical load ip: 16823852 freq: 39
rob stalling non-critical load ip: 16823932 freq: 4
rob stalling non-critical load ip: 16824088 freq: 2
rob stalling non-critical load ip: 16824200 freq: 15
rob stalling non-critical load ip: 16824340 freq: 4
rob stalling non-critical load ip: 16826292 freq: 161
rob stalling non-critical load ip: 16826296 freq: 207
rob stalling non-critical load ip: 16827588 freq: 3
rob stalling non-critical load ip: 16827788 freq: 3
rob stalling non-critical load ip: 16828860 freq: 16
rob stalling non-critical load ip: 16828932 freq: 81
rob stalling non-critical load ip: 16844852 freq: 1
rob stalling non-critical load ip: 16844988 freq: 12
rob stalling non-critical load ip: 16845068 freq: 1
rob stalling non-critical load ip: 16845328 freq: 4
rob stalling non-critical load ip: 16851080 freq: 76
rob stalling non-critical load ip: 16851160 freq: 72
rob stalling non-critical load ip: 16851208 freq: 22
rob stalling non-critical load ip: 16851340 freq: 55
rob stalling non-critical load ip: 16851388 freq: 136
rob stalling non-critical load ip: 16851436 freq: 23
rob stalling non-critical load ip: 16851472 freq: 13
rob stalling non-critical load ip: 16851576 freq: 1
rob stalling non-critical load ip: 16851588 freq: 31
rob stalling non-critical load ip: 16851624 freq: 1
rob stalling non-critical load ip: 16851632 freq: 6
rob stalling non-critical load ip: 16851652 freq: 36
rob stalling non-critical load ip: 16851728 freq: 78
rob stalling non-critical load ip: 16858176 freq: 3
rob stalling non-critical load ip: 16891192 freq: 4
rob stalling non-critical load ip: 16891612 freq: 9
rob stalling non-critical load ip: 16891620 freq: 29
rob stalling non-critical load ip: 16891628 freq: 25
rob stalling non-critical load ip: 16891648 freq: 1
rob stalling non-critical load ip: 16891964 freq: 7
rob stalling non-critical load ip: 16892028 freq: 1
rob stalling non-critical load ip: 16892172 freq: 2
rob stalling non-critical load ip: 16892324 freq: 11
rob stalling non-critical load ip: 16898936 freq: 6
rob stalling non-critical load ip: 16899252 freq: 3
rob stalling non-critical load ip: 16899312 freq: 8
rob stalling non-critical load ip: 16899320 freq: 5
rob stalling non-critical load ip: 16899340 freq: 5
rob stalling non-critical load ip: 16900600 freq: 7
rob stalling non-critical load ip: 16902320 freq: 2
rob stalling non-critical load ip: 16902396 freq: 10
rob stalling non-critical load ip: 16917068 freq: 6
rob stalling non-critical load ip: 16917116 freq: 94
rob stalling non-critical load ip: 16917124 freq: 61
rob stalling non-critical load ip: 16917760 freq: 11
rob stalling non-critical load ip: 16917772 freq: 17
rob stalling non-critical load ip: 16977308 freq: 4
rob stalling non-critical load ip: 16977404 freq: 9
rob stalling non-critical load ip: 16977424 freq: 3
rob stalling non-critical load ip: 16977480 freq: 2
rob stalling non-critical load ip: 17022708 freq: 10
rob stalling non-critical load ip: 17077560 freq: 6
rob stalling non-critical load ip: 17077572 freq: 38
rob stalling non-critical load ip: 17077620 freq: 4
rob stalling non-critical load ip: 17077640 freq: 21
rob stalling non-critical load ip: 17077684 freq: 5
rob stalling non-critical load ip: 17077688 freq: 8
rob stalling non-critical load ip: 17077812 freq: 12
rob stalling non-critical load ip: 17077844 freq: 1
rob stalling non-critical load ip: 17077916 freq: 3
rob stalling non-critical load ip: 17077968 freq: 2
rob stalling non-critical load ip: 17078012 freq: 4
rob stalling non-critical load ip: 17078100 freq: 4
rob stalling non-critical load ip: 17078104 freq: 10
rob stalling non-critical load ip: 17078120 freq: 1
rob stalling non-critical load ip: 17078420 freq: 12
rob stalling non-critical load ip: 17079616 freq: 41
rob stalling non-critical load ip: 17079636 freq: 9
rob stalling non-critical load ip: 17079680 freq: 3
rob stalling non-critical load ip: 17079744 freq: 6
rob stalling non-critical load ip: 17080064 freq: 2
rob stalling non-critical load ip: 17084036 freq: 2
rob stalling non-critical load ip: 17084128 freq: 23
rob stalling non-critical load ip: 17084192 freq: 20
rob stalling non-critical load ip: 17084300 freq: 18
rob stalling non-critical load ip: 17084332 freq: 28
rob stalling non-critical load ip: 17084340 freq: 7
rob stalling non-critical load ip: 17084388 freq: 349
rob stalling non-critical load ip: 17084544 freq: 297
rob stalling non-critical load ip: 17084652 freq: 162
rob stalling non-critical load ip: 17084656 freq: 163
rob stalling non-critical load ip: 17084692 freq: 9
rob stalling non-critical load ip: 17084752 freq: 27
rob stalling non-critical load ip: 17084772 freq: 11
rob stalling non-critical load ip: 17084780 freq: 38
rob stalling non-critical load ip: 17087348 freq: 2
rob stalling non-critical load ip: 17088808 freq: 3
rob stalling non-critical load ip: 17089552 freq: 1
rob stalling non-critical load ip: 17089576 freq: 1
rob stalling non-critical load ip: 17089608 freq: 154
rob stalling non-critical load ip: 17089628 freq: 4
rob stalling non-critical load ip: 17089780 freq: 12
rob stalling non-critical load ip: 17089784 freq: 58
rob stalling non-critical load ip: 17105460 freq: 6
rob stalling non-critical load ip: 17109104 freq: 2
rob stalling non-critical load ip: 17109496 freq: 3
rob stalling non-critical load ip: 17109616 freq: 8
rob stalling non-critical load ip: 17147696 freq: 5
rob stalling non-critical load ip: 17147700 freq: 1
rob stalling non-critical load ip: 17148832 freq: 41
rob stalling non-critical load ip: 17148868 freq: 6
rob stalling non-critical load ip: 17148904 freq: 6
rob stalling non-critical load ip: 17148972 freq: 34
rob stalling non-critical load ip: 17148988 freq: 1
rob stalling non-critical load ip: 17149168 freq: 1
rob stalling non-critical load ip: 17149204 freq: 2
rob stalling non-critical load ip: 17149344 freq: 1
rob stalling non-critical load ip: 17149516 freq: 3
rob stalling non-critical load ip: 17149600 freq: 8
rob stalling non-critical load ip: 17149604 freq: 1
rob stalling non-critical load ip: 17183032 freq: 1
rob stalling non-critical load ip: 17183048 freq: 3
rob stalling non-critical load ip: 17183060 freq: 16
rob stalling non-critical load ip: 17183108 freq: 17
rob stalling non-critical load ip: 17183120 freq: 1
rob stalling non-critical load ip: 17183140 freq: 12
rob stalling non-critical load ip: 17183188 freq: 7
rob stalling non-critical load ip: 17183232 freq: 3
rob stalling non-critical load ip: 17183244 freq: 2
rob stalling non-critical load ip: 17183248 freq: 17
rob stalling non-critical load ip: 17183252 freq: 1
rob stalling non-critical load ip: 17183380 freq: 5
rob stalling non-critical load ip: 17183436 freq: 7
rob stalling non-critical load ip: 17183560 freq: 12
rob stalling non-critical load ip: 17183812 freq: 51
rob stalling non-critical load ip: 17183860 freq: 10
rob stalling non-critical load ip: 17183892 freq: 1
rob stalling non-critical load ip: 17183952 freq: 6
rob stalling non-critical load ip: 17183960 freq: 57
rob stalling non-critical load ip: 17184072 freq: 16
rob stalling non-critical load ip: 17184084 freq: 13
rob stalling non-critical load ip: 17184100 freq: 12
rob stalling non-critical load ip: 17184740 freq: 10
rob stalling non-critical load ip: 17184792 freq: 2
rob stalling non-critical load ip: 17184968 freq: 4
rob stalling non-critical load ip: 17184988 freq: 4
rob stalling non-critical load ip: 17185060 freq: 1
rob stalling non-critical load ip: 17185064 freq: 3
rob stalling non-critical load ip: 17185080 freq: 1
rob stalling non-critical load ip: 17185296 freq: 2
rob stalling non-critical load ip: 17185632 freq: 3
rob stalling non-critical load ip: 17185652 freq: 1
rob stalling non-critical load ip: 17185704 freq: 3
rob stalling non-critical load ip: 17185764 freq: 5
rob stalling non-critical load ip: 17185856 freq: 2
rob stalling non-critical load ip: 17185872 freq: 1
rob stalling non-critical load ip: 17185908 freq: 7
rob stalling non-critical load ip: 17185984 freq: 2
rob stalling non-critical load ip: 17185988 freq: 4
rob stalling non-critical load ip: 17186016 freq: 2
rob stalling non-critical load ip: 17186044 freq: 2
rob stalling non-critical load ip: 17186048 freq: 17
rob stalling non-critical load ip: 17186072 freq: 8
rob stalling non-critical load ip: 17186076 freq: 4
rob stalling non-critical load ip: 17186080 freq: 4
rob stalling non-critical load ip: 17186116 freq: 2
rob stalling non-critical load ip: 17186488 freq: 3
rob stalling non-critical load ip: 17186496 freq: 2
rob stalling non-critical load ip: 17186520 freq: 6
rob stalling non-critical load ip: 17186588 freq: 18
rob stalling non-critical load ip: 17186596 freq: 1
rob stalling non-critical load ip: 17186680 freq: 2
rob stalling non-critical load ip: 17187196 freq: 1
rob stalling non-critical load ip: 17187276 freq: 1
rob stalling non-critical load ip: 17188224 freq: 10
rob stalling non-critical load ip: 17188264 freq: 6
rob stalling non-critical load ip: 17188292 freq: 33
rob stalling non-critical load ip: 17188316 freq: 4
rob stalling non-critical load ip: 17188436 freq: 3
rob stalling non-critical load ip: 17188568 freq: 3
rob stalling non-critical load ip: 17188652 freq: 2
rob stalling non-critical load ip: 17188768 freq: 1
rob stalling non-critical load ip: 17188808 freq: 1
rob stalling non-critical load ip: 17188864 freq: 1
rob stalling non-critical load ip: 17188904 freq: 1
rob stalling non-critical load ip: 17189448 freq: 1
rob stalling non-critical load ip: 17189616 freq: 2
rob stalling non-critical load ip: 17190268 freq: 3
rob stalling non-critical load ip: 17190288 freq: 3
rob stalling non-critical load ip: 17190300 freq: 3
rob stalling non-critical load ip: 17190504 freq: 3
rob stalling non-critical load ip: 17190516 freq: 13
rob stalling non-critical load ip: 17225220 freq: 39
rob stalling non-critical load ip: 17225500 freq: 7
rob stalling non-critical load ip: 17225876 freq: 3
rob stalling non-critical load ip: 17225984 freq: 2
rob stalling non-critical load ip: 17226532 freq: 20
rob stalling non-critical load ip: 17226772 freq: 1
rob stalling non-critical load ip: 17226796 freq: 8
rob stalling non-critical load ip: 17226812 freq: 12
rob stalling non-critical load ip: 17226872 freq: 4
rob stalling non-critical load ip: 17226948 freq: 119
rob stalling non-critical load ip: 17245100 freq: 72
rob stalling non-critical load ip: 17245104 freq: 6
rob stalling non-critical load ip: 17247576 freq: 27
rob stalling non-critical load ip: 17247588 freq: 3
rob stalling non-critical load ip: 17247664 freq: 2
rob stalling non-critical load ip: 17247668 freq: 35
rob stalling non-critical load ip: 17247672 freq: 34
rob stalling non-critical load ip: 17247676 freq: 20
rob stalling non-critical load ip: 17247840 freq: 3
rob stalling non-critical load ip: 17247888 freq: 4
rob stalling non-critical load ip: 17247896 freq: 14
rob stalling non-critical load ip: 17247988 freq: 18
rob stalling non-critical load ip: 17248008 freq: 8
rob stalling non-critical load ip: 17248120 freq: 38
rob stalling non-critical load ip: 17248652 freq: 1
rob stalling non-critical load ip: 17254328 freq: 7
rob stalling non-critical load ip: 17267896 freq: 2
rob stalling non-critical load ip: 17267924 freq: 4
rob stalling non-critical load ip: 17410380 freq: 2
rob stalling non-critical load ip: 17504256 freq: 2
rob stalling non-critical load ip: 17504760 freq: 4
rob stalling non-critical load ip: 17506076 freq: 5
rob stalling non-critical load ip: 17506192 freq: 3
rob stalling non-critical load ip: 17506356 freq: 4
rob stalling non-critical load ip: 17506584 freq: 5
rob stalling non-critical load ip: 17506884 freq: 3
rob stalling non-critical load ip: 17507044 freq: 15
rob stalling non-critical load ip: 17507160 freq: 1
rob stalling non-critical load ip: 17507396 freq: 1
rob stalling non-critical load ip: 17507428 freq: 2
rob stalling non-critical load ip: 17507476 freq: 1
rob stalling non-critical load ip: 17511888 freq: 4
rob stalling non-critical load ip: 17545664 freq: 4
rob stalling non-critical load ip: 17545908 freq: 13
rob stalling non-critical load ip: 17546088 freq: 295
rob stalling non-critical load ip: 17546104 freq: 5
rob stalling non-critical load ip: 17546120 freq: 3
rob stalling non-critical load ip: 17546260 freq: 1
rob stalling non-critical load ip: 17546416 freq: 1
rob stalling non-critical load ip: 17546908 freq: 10
rob stalling non-critical load ip: 17546920 freq: 1
rob stalling non-critical load ip: 17546944 freq: 7
rob stalling non-critical load ip: 17547352 freq: 44
rob stalling non-critical load ip: 17547736 freq: 1
rob stalling non-critical load ip: 17548040 freq: 25
rob stalling non-critical load ip: 17555508 freq: 2
rob stalling non-critical load ip: 17560656 freq: 6
rob stalling non-critical load ip: 17612428 freq: 6
rob stalling non-critical load ip: 17612436 freq: 6
rob stalling non-critical load ip: 17612468 freq: 5
rob stalling non-critical load ip: 17614016 freq: 1
rob stalling non-critical load ip: 17614068 freq: 1
rob stalling non-critical load ip: 17614160 freq: 3
rob stalling non-critical load ip: 17614240 freq: 6
rob stalling non-critical load ip: 17614256 freq: 4
rob stalling non-critical load ip: 17614300 freq: 6
rob stalling non-critical load ip: 17614460 freq: 4
rob stalling non-critical load ip: 17614660 freq: 1
rob stalling non-critical load ip: 17616192 freq: 7
rob stalling non-critical load ip: 17616396 freq: 4
rob stalling non-critical load ip: 17616612 freq: 2
rob stalling non-critical load ip: 17616908 freq: 1
rob stalling non-critical load ip: 17616996 freq: 12
rob stalling non-critical load ip: 17617580 freq: 10
rob stalling non-critical load ip: 17617600 freq: 3
rob stalling non-critical load ip: 17617684 freq: 2
rob stalling non-critical load ip: 17617720 freq: 1
rob stalling non-critical load ip: 17617788 freq: 2
rob stalling non-critical load ip: 17617840 freq: 3
rob stalling non-critical load ip: 17617868 freq: 4
rob stalling non-critical load ip: 17617884 freq: 5
rob stalling non-critical load ip: 17617900 freq: 5
rob stalling non-critical load ip: 17618556 freq: 6
rob stalling non-critical load ip: 17641524 freq: 5
rob stalling non-critical load ip: 17641540 freq: 17
rob stalling non-critical load ip: 17641560 freq: 1
rob stalling non-critical load ip: 17641616 freq: 4
rob stalling non-critical load ip: 17642272 freq: 3
rob stalling non-critical load ip: 17642396 freq: 2
rob stalling non-critical load ip: 17642528 freq: 1
rob stalling non-critical load ip: 17642640 freq: 4
rob stalling non-critical load ip: 17644128 freq: 6
rob stalling non-critical load ip: 17644276 freq: 284
rob stalling non-critical load ip: 17682552 freq: 3
rob stalling non-critical load ip: 17682628 freq: 3
rob stalling non-critical load ip: 17682804 freq: 9
rob stalling non-critical load ip: 17682900 freq: 2
rob stalling non-critical load ip: 17683040 freq: 4
rob stalling non-critical load ip: 17683164 freq: 4
rob stalling non-critical load ip: 17683252 freq: 3
rob stalling non-critical load ip: 17683456 freq: 8
rob stalling non-critical load ip: 17683576 freq: 3
rob stalling non-critical load ip: 17683908 freq: 3
rob stalling non-critical load ip: 17692512 freq: 13
rob stalling non-critical load ip: 17692516 freq: 6
rob stalling non-critical load ip: 17692588 freq: 2
rob stalling non-critical load ip: 17692592 freq: 38
rob stalling non-critical load ip: 17692596 freq: 24
rob stalling non-critical load ip: 17782316 freq: 52
rob stalling non-critical load ip: 17782320 freq: 6
rob stalling non-critical load ip: 17782380 freq: 23
rob stalling non-critical load ip: 17782384 freq: 9
rob stalling non-critical load ip: 17782416 freq: 18
rob stalling non-critical load ip: 17782428 freq: 1
rob stalling non-critical load ip: 17782476 freq: 20
rob stalling non-critical load ip: 17782548 freq: 3
rob stalling non-critical load ip: 17782600 freq: 4
rob stalling non-critical load ip: 17782928 freq: 17
rob stalling non-critical load ip: 17782984 freq: 5
rob stalling non-critical load ip: 17783272 freq: 14
rob stalling non-critical load ip: 17784996 freq: 31
rob stalling non-critical load ip: 17785056 freq: 42
rob stalling non-critical load ip: 17785084 freq: 22
rob stalling non-critical load ip: 17785140 freq: 5
rob stalling non-critical load ip: 17785228 freq: 23
rob stalling non-critical load ip: 17785296 freq: 1
rob stalling non-critical load ip: 17785400 freq: 10
rob stalling non-critical load ip: 17785412 freq: 9
rob stalling non-critical load ip: 17795408 freq: 1
rob stalling non-critical load ip: 17795512 freq: 10
rob stalling non-critical load ip: 17825288 freq: 4
rob stalling non-critical load ip: 17905336 freq: 3
rob stalling non-critical load ip: 17905356 freq: 23
rob stalling non-critical load ip: 17905412 freq: 9
rob stalling non-critical load ip: 17905436 freq: 33
rob stalling non-critical load ip: 17905520 freq: 7
rob stalling non-critical load ip: 17905544 freq: 32
rob stalling non-critical load ip: 17905564 freq: 12
rob stalling non-critical load ip: 17905596 freq: 19
rob stalling non-critical load ip: 17906156 freq: 4
rob stalling non-critical load ip: 17906336 freq: 23
rob stalling non-critical load ip: 17906400 freq: 17
rob stalling non-critical load ip: 17906620 freq: 6
rob stalling non-critical load ip: 17906644 freq: 4
rob stalling non-critical load ip: 17906844 freq: 83
rob stalling non-critical load ip: 17906888 freq: 4
rob stalling non-critical load ip: 17906912 freq: 4
rob stalling non-critical load ip: 17906980 freq: 1
rob stalling non-critical load ip: 17907064 freq: 97
rob stalling non-critical load ip: 17907116 freq: 23
rob stalling non-critical load ip: 17907660 freq: 2
rob stalling non-critical load ip: 17908272 freq: 95
rob stalling non-critical load ip: 17908296 freq: 1
rob stalling non-critical load ip: 17908368 freq: 1
rob stalling non-critical load ip: 17908968 freq: 18
rob stalling non-critical load ip: 17909132 freq: 4
rob stalling non-critical load ip: 17909160 freq: 21
rob stalling non-critical load ip: 17909216 freq: 6
rob stalling non-critical load ip: 17909384 freq: 2
rob stalling non-critical load ip: 17923724 freq: 2
rob stalling non-critical load ip: 18022900 freq: 19
rob stalling non-critical load ip: 18022940 freq: 14
rob stalling non-critical load ip: 18022944 freq: 11
rob stalling non-critical load ip: 18023308 freq: 2
rob stalling non-critical load ip: 18025240 freq: 3
rob stalling non-critical load ip: 18025248 freq: 8
rob stalling non-critical load ip: 18025276 freq: 3
rob stalling non-critical load ip: 18025296 freq: 14
rob stalling non-critical load ip: 18025304 freq: 5
rob stalling non-critical load ip: 18025320 freq: 3
rob stalling non-critical load ip: 18025340 freq: 6
rob stalling non-critical load ip: 18025576 freq: 6
rob stalling non-critical load ip: 18025596 freq: 4
rob stalling non-critical load ip: 18026640 freq: 14
rob stalling non-critical load ip: 18026656 freq: 6
rob stalling non-critical load ip: 18026668 freq: 7
rob stalling non-critical load ip: 18026928 freq: 28
rob stalling non-critical load ip: 18026960 freq: 4
rob stalling non-critical load ip: 18027120 freq: 14
rob stalling non-critical load ip: 18027156 freq: 27
rob stalling non-critical load ip: 18027212 freq: 3
rob stalling non-critical load ip: 18027488 freq: 1
rob stalling non-critical load ip: 18027924 freq: 14
rob stalling non-critical load ip: 18027932 freq: 4
rob stalling non-critical load ip: 18049648 freq: 9
rob stalling non-critical load ip: 18049664 freq: 70
rob stalling non-critical load ip: 18049728 freq: 10
rob stalling non-critical load ip: 18049736 freq: 4
rob stalling non-critical load ip: 18049744 freq: 6
rob stalling non-critical load ip: 18049920 freq: 71
rob stalling non-critical load ip: 18049936 freq: 10
rob stalling non-critical load ip: 18049956 freq: 5
rob stalling non-critical load ip: 18049996 freq: 31
rob stalling non-critical load ip: 18050004 freq: 9
rob stalling non-critical load ip: 18050036 freq: 11
rob stalling non-critical load ip: 18050048 freq: 13
rob stalling non-critical load ip: 18064428 freq: 22
rob stalling non-critical load ip: 18064772 freq: 1
rob stalling non-critical load ip: 18064816 freq: 1
rob stalling non-critical load ip: 18065108 freq: 48
rob stalling non-critical load ip: 18065564 freq: 110
rob stalling non-critical load ip: 18065676 freq: 5
rob stalling non-critical load ip: 18066592 freq: 4
rob stalling non-critical load ip: 18066652 freq: 1
rob stalling non-critical load ip: 18066764 freq: 1
rob stalling non-critical load ip: 18067804 freq: 11
rob stalling non-critical load ip: 18088656 freq: 3
rob stalling non-critical load ip: 18088772 freq: 1
rob stalling non-critical load ip: 18093688 freq: 1
rob stalling non-critical load ip: 18094548 freq: 1
rob stalling non-critical load ip: 18095596 freq: 4
rob stalling non-critical load ip: 18095816 freq: 3
rob stalling non-critical load ip: 18095824 freq: 1
rob stalling non-critical load ip: 18096056 freq: 1
rob stalling non-critical load ip: 18096840 freq: 1
rob stalling non-critical load ip: 18097092 freq: 4
rob stalling non-critical load ip: 18107224 freq: 1
rob stalling non-critical load ip: 18128468 freq: 56
rob stalling non-critical load ip: 18128484 freq: 3
rob stalling non-critical load ip: 18128640 freq: 4
rob stalling non-critical load ip: 18128744 freq: 13
rob stalling non-critical load ip: 18132720 freq: 197
rob stalling non-critical load ip: 18132760 freq: 124
rob stalling non-critical load ip: 18132804 freq: 6
rob stalling non-critical load ip: 18132832 freq: 32
rob stalling non-critical load ip: 18132856 freq: 3
rob stalling non-critical load ip: 18132872 freq: 11
rob stalling non-critical load ip: 18132896 freq: 23
rob stalling non-critical load ip: 18132908 freq: 27
rob stalling non-critical load ip: 18132980 freq: 14
rob stalling non-critical load ip: 18132996 freq: 54
rob stalling non-critical load ip: 18133012 freq: 3
rob stalling non-critical load ip: 18133080 freq: 272
rob stalling non-critical load ip: 18133112 freq: 27
rob stalling non-critical load ip: 18133280 freq: 9
rob stalling non-critical load ip: 18133368 freq: 89
rob stalling non-critical load ip: 18133388 freq: 31
rob stalling non-critical load ip: 18133392 freq: 29
rob stalling non-critical load ip: 18133404 freq: 20
rob stalling non-critical load ip: 18133408 freq: 28
rob stalling non-critical load ip: 18133456 freq: 5
rob stalling non-critical load ip: 18133528 freq: 9
rob stalling non-critical load ip: 18133608 freq: 12
rob stalling non-critical load ip: 18133724 freq: 6
rob stalling non-critical load ip: 18133936 freq: 17
rob stalling non-critical load ip: 18133940 freq: 3
rob stalling non-critical load ip: 18133964 freq: 12
rob stalling non-critical load ip: 18134012 freq: 3
rob stalling non-critical load ip: 18134084 freq: 6
rob stalling non-critical load ip: 18134192 freq: 25
rob stalling non-critical load ip: 18134276 freq: 10
rob stalling non-critical load ip: 18134316 freq: 19
rob stalling non-critical load ip: 18134356 freq: 3
rob stalling non-critical load ip: 18134420 freq: 6
rob stalling non-critical load ip: 18134436 freq: 6
rob stalling non-critical load ip: 18177772 freq: 1
rob stalling non-critical load ip: 18177816 freq: 1
rob stalling non-critical load ip: 18180252 freq: 22
rob stalling non-critical load ip: 18181104 freq: 78
rob stalling non-critical load ip: 18181332 freq: 35
rob stalling non-critical load ip: 18181336 freq: 22
rob stalling non-critical load ip: 18302756 freq: 41
rob stalling non-critical load ip: 18303116 freq: 11
rob stalling non-critical load ip: 18303272 freq: 3
rob stalling non-critical load ip: 18303328 freq: 2
rob stalling non-critical load ip: 18310948 freq: 5
rob stalling non-critical load ip: 18311956 freq: 14
rob stalling non-critical load ip: 18457504 freq: 14
rob stalling non-critical load ip: 18457520 freq: 1
rob stalling non-critical load ip: 18457572 freq: 9
rob stalling non-critical load ip: 18457588 freq: 5
rob stalling non-critical load ip: 18466760 freq: 15
rob stalling non-critical load ip: 18466768 freq: 43
rob stalling non-critical load ip: 18466784 freq: 6
rob stalling non-critical load ip: 18466824 freq: 14
rob stalling non-critical load ip: 18466940 freq: 1
rob stalling non-critical load ip: 18466988 freq: 2
rob stalling non-critical load ip: 18467084 freq: 12
rob stalling non-critical load ip: 18467104 freq: 4
rob stalling non-critical load ip: 18467160 freq: 4
rob stalling non-critical load ip: 18467180 freq: 2
rob stalling non-critical load ip: 18467360 freq: 5
rob stalling non-critical load ip: 18467372 freq: 5
rob stalling non-critical load ip: 18467388 freq: 17
rob stalling non-critical load ip: 18467404 freq: 6
rob stalling non-critical load ip: 18469328 freq: 6
rob stalling non-critical load ip: 18469516 freq: 1
rob stalling non-critical load ip: 18469560 freq: 3
rob stalling non-critical load ip: 18469584 freq: 4
rob stalling non-critical load ip: 18469640 freq: 5
rob stalling non-critical load ip: 18469676 freq: 3
rob stalling non-critical load ip: 18469740 freq: 4
rob stalling non-critical load ip: 18469756 freq: 17
rob stalling non-critical load ip: 18481624 freq: 3
rob stalling non-critical load ip: 18481788 freq: 4
rob stalling non-critical load ip: 18481820 freq: 3
rob stalling non-critical load ip: 18482232 freq: 17
rob stalling non-critical load ip: 18482236 freq: 56
rob stalling non-critical load ip: 18482240 freq: 3
rob stalling non-critical load ip: 18482352 freq: 6
rob stalling non-critical load ip: 18482800 freq: 10
rob stalling non-critical load ip: 18482812 freq: 3
rob stalling non-critical load ip: 18482856 freq: 2
rob stalling non-critical load ip: 18482956 freq: 3
rob stalling non-critical load ip: 18482972 freq: 5
rob stalling non-critical load ip: 18488312 freq: 3
rob stalling non-critical load ip: 18488372 freq: 2
rob stalling non-critical load ip: 18488568 freq: 3
rob stalling non-critical load ip: 18488592 freq: 2
rob stalling non-critical load ip: 18489604 freq: 16
rob stalling non-critical load ip: 18489608 freq: 2
rob stalling non-critical load ip: 18489624 freq: 1
rob stalling non-critical load ip: 18489728 freq: 4
rob stalling non-critical load ip: 18489772 freq: 1
rob stalling non-critical load ip: 18490392 freq: 5
rob stalling non-critical load ip: 18490424 freq: 2
rob stalling non-critical load ip: 18490828 freq: 2
rob stalling non-critical load ip: 18493784 freq: 44
rob stalling non-critical load ip: 18493788 freq: 5
rob stalling non-critical load ip: 18494112 freq: 11
rob stalling non-critical load ip: 18494708 freq: 8
rob stalling non-critical load ip: 18510112 freq: 17
rob stalling non-critical load ip: 18510548 freq: 11
rob stalling non-critical load ip: 18510948 freq: 8
rob stalling non-critical load ip: 18510952 freq: 1
rob stalling non-critical load ip: 18511016 freq: 4
rob stalling non-critical load ip: 18511088 freq: 3
rob stalling non-critical load ip: 18513508 freq: 6
rob stalling non-critical load ip: 18513556 freq: 1
rob stalling non-critical load ip: 18514352 freq: 13
rob stalling non-critical load ip: 18514412 freq: 12
rob stalling non-critical load ip: 18514424 freq: 4
rob stalling non-critical load ip: 18514592 freq: 5
rob stalling non-critical load ip: 18514740 freq: 15
rob stalling non-critical load ip: 18514792 freq: 34
rob stalling non-critical load ip: 18550640 freq: 9
rob stalling non-critical load ip: 18551032 freq: 9
rob stalling non-critical load ip: 18551120 freq: 1
rob stalling non-critical load ip: 18551144 freq: 1
rob stalling non-critical load ip: 18551148 freq: 1
rob stalling non-critical load ip: 18551932 freq: 2
rob stalling non-critical load ip: 18552128 freq: 2
rob stalling non-critical load ip: 18552272 freq: 6
rob stalling non-critical load ip: 18552508 freq: 4
rob stalling non-critical load ip: 18552516 freq: 4
rob stalling non-critical load ip: 18552740 freq: 7
rob stalling non-critical load ip: 18553272 freq: 3
rob stalling non-critical load ip: 18553752 freq: 3
rob stalling non-critical load ip: 18553756 freq: 1
rob stalling non-critical load ip: 18553908 freq: 7
rob stalling non-critical load ip: 18554040 freq: 2
rob stalling non-critical load ip: 18554056 freq: 7
rob stalling non-critical load ip: 18554096 freq: 1
rob stalling non-critical load ip: 18554200 freq: 2
rob stalling non-critical load ip: 18572720 freq: 4
rob stalling non-critical load ip: 18573372 freq: 1
rob stalling non-critical load ip: 18599992 freq: 47
rob stalling non-critical load ip: 18604280 freq: 5
rob stalling non-critical load ip: 18627524 freq: 1
rob stalling non-critical load ip: 18631072 freq: 6
rob stalling non-critical load ip: 18631092 freq: 6
rob stalling non-critical load ip: 18631116 freq: 2
rob stalling non-critical load ip: 18634180 freq: 11
rob stalling non-critical load ip: 18634208 freq: 11
rob stalling non-critical load ip: 18634276 freq: 4
rob stalling non-critical load ip: 18634432 freq: 6
rob stalling non-critical load ip: 18757332 freq: 3
rob stalling non-critical load ip: 18757520 freq: 15
rob stalling non-critical load ip: 18757776 freq: 2
rob stalling non-critical load ip: 18759664 freq: 14
rob stalling non-critical load ip: 18760628 freq: 4
rob stalling non-critical load ip: 18760692 freq: 3
rob stalling non-critical load ip: 18760808 freq: 6
rob stalling non-critical load ip: 18783856 freq: 18
rob stalling non-critical load ip: 18783896 freq: 1
rob stalling non-critical load ip: 18783924 freq: 6
rob stalling non-critical load ip: 18783940 freq: 7
rob stalling non-critical load ip: 18783964 freq: 1
rob stalling non-critical load ip: 18784388 freq: 1
rob stalling non-critical load ip: 18784552 freq: 7
rob stalling non-critical load ip: 18786052 freq: 52
rob stalling non-critical load ip: 18786216 freq: 8
rob stalling non-critical load ip: 18786264 freq: 22
rob stalling non-critical load ip: 18790068 freq: 6
rob stalling non-critical load ip: 18790284 freq: 4
rob stalling non-critical load ip: 18790324 freq: 4
rob stalling non-critical load ip: 18790364 freq: 15
rob stalling non-critical load ip: 18790500 freq: 9
rob stalling non-critical load ip: 18790984 freq: 3
rob stalling non-critical load ip: 18791368 freq: 3
rob stalling non-critical load ip: 18791472 freq: 9
rob stalling non-critical load ip: 18791480 freq: 4
rob stalling non-critical load ip: 18791500 freq: 1
rob stalling non-critical load ip: 18791568 freq: 2
rob stalling non-critical load ip: 18791796 freq: 8
rob stalling non-critical load ip: 18792888 freq: 3
rob stalling non-critical load ip: 18793048 freq: 2
rob stalling non-critical load ip: 18793196 freq: 4
rob stalling non-critical load ip: 18793236 freq: 5
rob stalling non-critical load ip: 18793512 freq: 1
rob stalling non-critical load ip: 18847852 freq: 4
rob stalling non-critical load ip: 18847888 freq: 3
rob stalling non-critical load ip: 18847948 freq: 3
rob stalling non-critical load ip: 18848072 freq: 2
rob stalling non-critical load ip: 18848172 freq: 5
rob stalling non-critical load ip: 18848564 freq: 3
rob stalling non-critical load ip: 18848928 freq: 13
rob stalling non-critical load ip: 18848936 freq: 13
rob stalling non-critical load ip: 18848996 freq: 6
rob stalling non-critical load ip: 18850924 freq: 4
rob stalling non-critical load ip: 18850996 freq: 1
rob stalling non-critical load ip: 18851080 freq: 6
rob stalling non-critical load ip: 18851432 freq: 6
rob stalling non-critical load ip: 18851664 freq: 2
rob stalling non-critical load ip: 18851816 freq: 9
rob stalling non-critical load ip: 18853284 freq: 1
rob stalling non-critical load ip: 18854636 freq: 13
rob stalling non-critical load ip: 18945652 freq: 5
rob stalling non-critical load ip: 18946188 freq: 15
rob stalling non-critical load ip: 18946532 freq: 8
rob stalling non-critical load ip: 18947388 freq: 8
rob stalling non-critical load ip: 18951656 freq: 6
rob stalling non-critical load ip: 18951880 freq: 18
rob stalling non-critical load ip: 18951952 freq: 3
rob stalling non-critical load ip: 18952028 freq: 19
rob stalling non-critical load ip: 18954108 freq: 12
rob stalling non-critical load ip: 18955848 freq: 13
rob stalling non-critical load ip: 18955980 freq: 18
rob stalling non-critical load ip: 18956224 freq: 1
rob stalling non-critical load ip: 18956492 freq: 8
rob stalling non-critical load ip: 18956512 freq: 7
rob stalling non-critical load ip: 18956528 freq: 3
rob stalling non-critical load ip: 18956564 freq: 1
rob stalling non-critical load ip: 18956604 freq: 6
rob stalling non-critical load ip: 18956620 freq: 2
rob stalling non-critical load ip: 18956636 freq: 10
rob stalling non-critical load ip: 18956724 freq: 18
rob stalling non-critical load ip: 18956760 freq: 4
rob stalling non-critical load ip: 18956808 freq: 6
rob stalling non-critical load ip: 18956848 freq: 2
rob stalling non-critical load ip: 18956864 freq: 5
rob stalling non-critical load ip: 18956900 freq: 7
rob stalling non-critical load ip: 18957516 freq: 13
rob stalling non-critical load ip: 18957532 freq: 2
rob stalling non-critical load ip: 18957576 freq: 4
rob stalling non-critical load ip: 18958028 freq: 148
rob stalling non-critical load ip: 18958052 freq: 152
rob stalling non-critical load ip: 18958056 freq: 1
rob stalling non-critical load ip: 18958080 freq: 1
rob stalling non-critical load ip: 18958096 freq: 2
rob stalling non-critical load ip: 18958112 freq: 1
rob stalling non-critical load ip: 18958144 freq: 1
rob stalling non-critical load ip: 18958172 freq: 7
rob stalling non-critical load ip: 18958204 freq: 5
rob stalling non-critical load ip: 18958220 freq: 25
rob stalling non-critical load ip: 18960512 freq: 7
rob stalling non-critical load ip: 18960552 freq: 6
rob stalling non-critical load ip: 18960584 freq: 11
rob stalling non-critical load ip: 18960616 freq: 14
rob stalling non-critical load ip: 18960688 freq: 2
rob stalling non-critical load ip: 18960700 freq: 14
rob stalling non-critical load ip: 18960812 freq: 4
rob stalling non-critical load ip: 18960860 freq: 9
rob stalling non-critical load ip: 18960908 freq: 8
rob stalling non-critical load ip: 18960972 freq: 5
rob stalling non-critical load ip: 18970396 freq: 2
rob stalling non-critical load ip: 18980028 freq: 8
rob stalling non-critical load ip: 19454556 freq: 7
rob stalling non-critical load ip: 19489264 freq: 2
rob stalling non-critical load ip: 19489332 freq: 6
rob stalling non-critical load ip: 19489408 freq: 2
rob stalling non-critical load ip: 19489476 freq: 1
rob stalling non-critical load ip: 19489544 freq: 6
rob stalling non-critical load ip: 19489580 freq: 4
rob stalling non-critical load ip: 19489780 freq: 10
rob stalling non-critical load ip: 19489840 freq: 1
rob stalling non-critical load ip: 19489948 freq: 5
rob stalling non-critical load ip: 19492860 freq: 7
rob stalling non-critical load ip: 19492892 freq: 4
rob stalling non-critical load ip: 19493148 freq: 75
rob stalling non-critical load ip: 19493164 freq: 5
rob stalling non-critical load ip: 19493176 freq: 237
rob stalling non-critical load ip: 19493188 freq: 34
rob stalling non-critical load ip: 19493220 freq: 3
rob stalling non-critical load ip: 19493328 freq: 5
rob stalling non-critical load ip: 19493344 freq: 1
rob stalling non-critical load ip: 19493360 freq: 5
rob stalling non-critical load ip: 19493372 freq: 4
rob stalling non-critical load ip: 19493400 freq: 9
rob stalling non-critical load ip: 19493820 freq: 9
rob stalling non-critical load ip: 19493832 freq: 5
rob stalling non-critical load ip: 19493856 freq: 1
rob stalling non-critical load ip: 19493880 freq: 1
rob stalling non-critical load ip: 19493916 freq: 21
rob stalling non-critical load ip: 19493920 freq: 18
rob stalling non-critical load ip: 19493924 freq: 20
rob stalling non-critical load ip: 19493928 freq: 1
rob stalling non-critical load ip: 19493932 freq: 21
rob stalling non-critical load ip: 19493940 freq: 5
rob stalling non-critical load ip: 19493944 freq: 1
rob stalling non-critical load ip: 19493948 freq: 5
rob stalling non-critical load ip: 19493956 freq: 1
rob stalling non-critical load ip: 19493960 freq: 3
rob stalling non-critical load ip: 19493984 freq: 5
rob stalling non-critical load ip: 19494000 freq: 2
rob stalling non-critical load ip: 19494032 freq: 130
rob stalling non-critical load ip: 19494040 freq: 78
rob stalling non-critical load ip: 19494052 freq: 91
rob stalling non-critical load ip: 19494060 freq: 47
rob stalling non-critical load ip: 19494068 freq: 49
rob stalling non-critical load ip: 19494076 freq: 3587
rob stalling non-critical load ip: 19494084 freq: 70
rob stalling non-critical load ip: 19494096 freq: 111
rob stalling non-critical load ip: 19494104 freq: 11005
rob stalling non-critical load ip: 19494112 freq: 143
rob stalling non-critical load ip: 19494212 freq: 2
rob stalling non-critical load ip: 19494292 freq: 82
rob stalling non-critical load ip: 19494380 freq: 6
rob stalling non-critical load ip: 19494412 freq: 11
rob stalling non-critical load ip: 19495484 freq: 7
rob stalling non-critical load ip: 19495680 freq: 3
rob stalling non-critical load ip: 19495700 freq: 13
rob stalling non-critical load ip: 19495740 freq: 13
rob stalling non-critical load ip: 19495816 freq: 5
rob stalling non-critical load ip: 19496020 freq: 7
rob stalling non-critical load ip: 19496036 freq: 5
rob stalling non-critical load ip: 19496064 freq: 4
rob stalling non-critical load ip: 19499172 freq: 4
rob stalling non-critical load ip: 19499416 freq: 14
rob stalling non-critical load ip: 19499480 freq: 1
rob stalling non-critical load ip: 19499492 freq: 1
rob stalling non-critical load ip: 19500756 freq: 16
rob stalling non-critical load ip: 19500948 freq: 4
rob stalling non-critical load ip: 19500968 freq: 2
rob stalling non-critical load ip: 19501012 freq: 18
rob stalling non-critical load ip: 19501032 freq: 2
rob stalling non-critical load ip: 19501068 freq: 17
rob stalling non-critical load ip: 19501420 freq: 1
rob stalling non-critical load ip: 19688432 freq: 11
rob stalling non-critical load ip: 19688460 freq: 2
rob stalling non-critical load ip: 19689420 freq: 9
rob stalling non-critical load ip: 19689456 freq: 3
rob stalling non-critical load ip: 19689532 freq: 8
rob stalling non-critical load ip: 19692680 freq: 67
rob stalling non-critical load ip: 19692684 freq: 3
rob stalling non-critical load ip: 19692692 freq: 11
rob stalling non-critical load ip: 19692736 freq: 2
rob stalling non-critical load ip: 19692820 freq: 4
rob stalling non-critical load ip: 19692824 freq: 1
rob stalling non-critical load ip: 19693096 freq: 3
rob stalling non-critical load ip: 19693100 freq: 3
rob stalling non-critical load ip: 19695740 freq: 22
rob stalling non-critical load ip: 19695780 freq: 17
rob stalling non-critical load ip: 19695796 freq: 15
rob stalling non-critical load ip: 19695888 freq: 4
rob stalling non-critical load ip: 19695924 freq: 6
rob stalling non-critical load ip: 19695944 freq: 5
rob stalling non-critical load ip: 19696032 freq: 7
rob stalling non-critical load ip: 19696424 freq: 6
rob stalling non-critical load ip: 19696448 freq: 1
rob stalling non-critical load ip: 19696464 freq: 4
rob stalling non-critical load ip: 19696484 freq: 3
rob stalling non-critical load ip: 19696568 freq: 2
rob stalling non-critical load ip: 19698132 freq: 1
rob stalling non-critical load ip: 19698148 freq: 1
rob stalling non-critical load ip: 19698228 freq: 4
rob stalling non-critical load ip: 19698324 freq: 5
rob stalling non-critical load ip: 19698420 freq: 1
rob stalling non-critical load ip: 19698464 freq: 2
rob stalling non-critical load ip: 19698480 freq: 1
rob stalling non-critical load ip: 19698540 freq: 1
rob stalling non-critical load ip: 19698952 freq: 2
rob stalling non-critical load ip: 19699952 freq: 2
rob stalling non-critical load ip: 19699968 freq: 5
rob stalling non-critical load ip: 19699980 freq: 1
rob stalling non-critical load ip: 19701420 freq: 3
rob stalling non-critical load ip: 19701436 freq: 1
rob stalling non-critical load ip: 19701440 freq: 8
rob stalling non-critical load ip: 19701456 freq: 18
rob stalling non-critical load ip: 19701708 freq: 1
rob stalling non-critical load ip: 19701852 freq: 1
rob stalling non-critical load ip: 19702132 freq: 2
rob stalling non-critical load ip: 19702148 freq: 1
rob stalling non-critical load ip: 19702152 freq: 2
rob stalling non-critical load ip: 19702280 freq: 5
rob stalling non-critical load ip: 19702392 freq: 5
rob stalling non-critical load ip: 19702608 freq: 5
rob stalling non-critical load ip: 19702672 freq: 2
rob stalling non-critical load ip: 19702688 freq: 2
rob stalling non-critical load ip: 19702724 freq: 5
rob stalling non-critical load ip: 19702772 freq: 3
rob stalling non-critical load ip: 19702808 freq: 3
rob stalling non-critical load ip: 19702988 freq: 7
rob stalling non-critical load ip: 19703020 freq: 12
rob stalling non-critical load ip: 19703108 freq: 5
rob stalling non-critical load ip: 19704804 freq: 5
rob stalling non-critical load ip: 19705616 freq: 8
rob stalling non-critical load ip: 19706616 freq: 3
rob stalling non-critical load ip: 19706632 freq: 3
rob stalling non-critical load ip: 19706912 freq: 7
rob stalling non-critical load ip: 19707028 freq: 12
rob stalling non-critical load ip: 19707188 freq: 1
rob stalling non-critical load ip: 19707268 freq: 12
rob stalling non-critical load ip: 19707756 freq: 16
rob stalling non-critical load ip: 19707776 freq: 2
rob stalling non-critical load ip: 19707780 freq: 4
rob stalling non-critical load ip: 19707784 freq: 10
rob stalling non-critical load ip: 19707796 freq: 4
rob stalling non-critical load ip: 19707844 freq: 4
rob stalling non-critical load ip: 19708048 freq: 8
rob stalling non-critical load ip: 19708324 freq: 6
rob stalling non-critical load ip: 19708460 freq: 1
rob stalling non-critical load ip: 19709324 freq: 1
rob stalling non-critical load ip: 19711940 freq: 11
rob stalling non-critical load ip: 19711948 freq: 3
rob stalling non-critical load ip: 19715664 freq: 1
rob stalling non-critical load ip: 19723060 freq: 2
rob stalling non-critical load ip: 19723236 freq: 318
rob stalling non-critical load ip: 19723248 freq: 3
rob stalling non-critical load ip: 19723284 freq: 12
rob stalling non-critical load ip: 19723312 freq: 5
rob stalling non-critical load ip: 19723320 freq: 83
rob stalling non-critical load ip: 19723336 freq: 110
rob stalling non-critical load ip: 19723352 freq: 18
rob stalling non-critical load ip: 19723368 freq: 14
rob stalling non-critical load ip: 19723384 freq: 10
rob stalling non-critical load ip: 19723408 freq: 4
rob stalling non-critical load ip: 19723492 freq: 2
rob stalling non-critical load ip: 19723524 freq: 2
rob stalling non-critical load ip: 19723748 freq: 6
rob stalling non-critical load ip: 19724416 freq: 4
rob stalling non-critical load ip: 19724432 freq: 23
rob stalling non-critical load ip: 19724480 freq: 5
rob stalling non-critical load ip: 19724576 freq: 26
rob stalling non-critical load ip: 19724636 freq: 6
rob stalling non-critical load ip: 19724872 freq: 6
rob stalling non-critical load ip: 19725040 freq: 2
rob stalling non-critical load ip: 19725396 freq: 1
rob stalling non-critical load ip: 19725432 freq: 1
rob stalling non-critical load ip: 19725616 freq: 59
rob stalling non-critical load ip: 19725644 freq: 3
rob stalling non-critical load ip: 19725656 freq: 4
rob stalling non-critical load ip: 19725660 freq: 31
rob stalling non-critical load ip: 19725672 freq: 2
rob stalling non-critical load ip: 19725688 freq: 7
rob stalling non-critical load ip: 19725704 freq: 22
rob stalling non-critical load ip: 19725720 freq: 15
rob stalling non-critical load ip: 19725740 freq: 1
rob stalling non-critical load ip: 19725876 freq: 4
rob stalling non-critical load ip: 19725904 freq: 3
rob stalling non-critical load ip: 19730884 freq: 8
rob stalling non-critical load ip: 19731752 freq: 17
rob stalling non-critical load ip: 19731852 freq: 2
rob stalling non-critical load ip: 19732288 freq: 12
rob stalling non-critical load ip: 19732304 freq: 6
rob stalling non-critical load ip: 19732408 freq: 1
rob stalling non-critical load ip: 19732644 freq: 12
rob stalling non-critical load ip: 19732928 freq: 9
rob stalling non-critical load ip: 19732940 freq: 22
rob stalling non-critical load ip: 19732956 freq: 4
rob stalling non-critical load ip: 19732968 freq: 9
rob stalling non-critical load ip: 19732984 freq: 1
rob stalling non-critical load ip: 19733048 freq: 2
rob stalling non-critical load ip: 19733500 freq: 32
rob stalling non-critical load ip: 19745196 freq: 3
rob stalling non-critical load ip: 19745684 freq: 2
rob stalling non-critical load ip: 19746212 freq: 2
rob stalling non-critical load ip: 19746244 freq: 42
rob stalling non-critical load ip: 19746296 freq: 19
rob stalling non-critical load ip: 19746308 freq: 12
rob stalling non-critical load ip: 19746344 freq: 2
rob stalling non-critical load ip: 19748964 freq: 45
rob stalling non-critical load ip: 19749000 freq: 14
rob stalling non-critical load ip: 19749004 freq: 6
rob stalling non-critical load ip: 19749068 freq: 3
rob stalling non-critical load ip: 19749112 freq: 14
rob stalling non-critical load ip: 19752644 freq: 5
rob stalling non-critical load ip: 19752708 freq: 10
rob stalling non-critical load ip: 19752844 freq: 5
rob stalling non-critical load ip: 19752860 freq: 16
rob stalling non-critical load ip: 19752876 freq: 2
rob stalling non-critical load ip: 19791796 freq: 16
rob stalling non-critical load ip: 19791900 freq: 1
rob stalling non-critical load ip: 19795528 freq: 62
rob stalling non-critical load ip: 19795540 freq: 10
rob stalling non-critical load ip: 19795568 freq: 1
rob stalling non-critical load ip: 19795660 freq: 9
rob stalling non-critical load ip: 19850568 freq: 7
rob stalling non-critical load ip: 19850992 freq: 4
rob stalling non-critical load ip: 19851160 freq: 23
rob stalling non-critical load ip: 19851292 freq: 8
rob stalling non-critical load ip: 19851312 freq: 8
rob stalling non-critical load ip: 19852960 freq: 5
rob stalling non-critical load ip: 19853224 freq: 2
rob stalling non-critical load ip: 19853236 freq: 2
rob stalling non-critical load ip: 19867220 freq: 6
rob stalling non-critical load ip: 19867252 freq: 206613
rob stalling non-critical load ip: 19927076 freq: 5
rob stalling non-critical load ip: 19927204 freq: 1
rob stalling non-critical load ip: 19932180 freq: 9
rob stalling non-critical load ip: 19932304 freq: 3
rob stalling non-critical load ip: 19957192 freq: 5
rob stalling non-critical load ip: 19957256 freq: 10
rob stalling non-critical load ip: 19957484 freq: 5
rob stalling non-critical load ip: 19957516 freq: 1
rob stalling non-critical load ip: 19957964 freq: 83
rob stalling non-critical load ip: 19957976 freq: 5
rob stalling non-critical load ip: 19957992 freq: 2
rob stalling non-critical load ip: 19958148 freq: 3
rob stalling non-critical load ip: 19961896 freq: 9
rob stalling non-critical load ip: 19961904 freq: 13
rob stalling non-critical load ip: 19971860 freq: 11
rob stalling non-critical load ip: 19972868 freq: 1
rob stalling non-critical load ip: 19973888 freq: 7
rob stalling non-critical load ip: 19973996 freq: 4
rob stalling non-critical load ip: 19975132 freq: 6
rob stalling non-critical load ip: 19975160 freq: 13
rob stalling non-critical load ip: 19975316 freq: 4
rob stalling non-critical load ip: 19975432 freq: 8
rob stalling non-critical load ip: 19975608 freq: 1
rob stalling non-critical load ip: 19976536 freq: 13
rob stalling non-critical load ip: 19976640 freq: 1
rob stalling non-critical load ip: 19976712 freq: 8
rob stalling non-critical load ip: 19976772 freq: 9
rob stalling non-critical load ip: 19976808 freq: 3
rob stalling non-critical load ip: 20024224 freq: 18
rob stalling non-critical load ip: 20024236 freq: 9
rob stalling non-critical load ip: 20024256 freq: 34
rob stalling non-critical load ip: 20031848 freq: 2
rob stalling non-critical load ip: 20047492 freq: 118
rob stalling non-critical load ip: 20047552 freq: 6
rob stalling non-critical load ip: 20047816 freq: 9
rob stalling non-critical load ip: 20047884 freq: 1
rob stalling non-critical load ip: 20047896 freq: 2
rob stalling non-critical load ip: 20047980 freq: 3
rob stalling non-critical load ip: 20047992 freq: 2
rob stalling non-critical load ip: 20048080 freq: 364
rob stalling non-critical load ip: 20048096 freq: 16
rob stalling non-critical load ip: 20048140 freq: 2
rob stalling non-critical load ip: 20048244 freq: 16
rob stalling non-critical load ip: 20048260 freq: 12
rob stalling non-critical load ip: 20048380 freq: 11
rob stalling non-critical load ip: 20048388 freq: 3
rob stalling non-critical load ip: 20048408 freq: 8
rob stalling non-critical load ip: 20048424 freq: 7
rob stalling non-critical load ip: 20048660 freq: 55
rob stalling non-critical load ip: 20048684 freq: 82
rob stalling non-critical load ip: 20048792 freq: 5
rob stalling non-critical load ip: 20048856 freq: 18
rob stalling non-critical load ip: 20048920 freq: 23
rob stalling non-critical load ip: 20048960 freq: 13
rob stalling non-critical load ip: 20049224 freq: 2
rob stalling non-critical load ip: 20050724 freq: 12
rob stalling non-critical load ip: 20050808 freq: 1
rob stalling non-critical load ip: 20050828 freq: 10
rob stalling non-critical load ip: 20051180 freq: 3
rob stalling non-critical load ip: 20052576 freq: 2
rob stalling non-critical load ip: 20052736 freq: 4
rob stalling non-critical load ip: 20052892 freq: 30
rob stalling non-critical load ip: 20052924 freq: 33
rob stalling non-critical load ip: 20053048 freq: 6
rob stalling non-critical load ip: 20053068 freq: 29
rob stalling non-critical load ip: 20053164 freq: 42
rob stalling non-critical load ip: 20053192 freq: 12
rob stalling non-critical load ip: 20054744 freq: 56
rob stalling non-critical load ip: 20059568 freq: 7
rob stalling non-critical load ip: 20059876 freq: 7
rob stalling non-critical load ip: 20060056 freq: 6
rob stalling non-critical load ip: 20060072 freq: 4
rob stalling non-critical load ip: 20060168 freq: 10
rob stalling non-critical load ip: 20060336 freq: 6
rob stalling non-critical load ip: 20060524 freq: 9
rob stalling non-critical load ip: 20060604 freq: 15
rob stalling non-critical load ip: 20061160 freq: 15
rob stalling non-critical load ip: 20061440 freq: 13
rob stalling non-critical load ip: 20061492 freq: 55
rob stalling non-critical load ip: 20061560 freq: 32
rob stalling non-critical load ip: 20061676 freq: 7
rob stalling non-critical load ip: 20061844 freq: 3
rob stalling non-critical load ip: 20061856 freq: 23
rob stalling non-critical load ip: 20061860 freq: 5
rob stalling non-critical load ip: 20062008 freq: 29
rob stalling non-critical load ip: 20062088 freq: 2
rob stalling non-critical load ip: 20062104 freq: 13
rob stalling non-critical load ip: 20062272 freq: 12
rob stalling non-critical load ip: 20062784 freq: 66
rob stalling non-critical load ip: 20062792 freq: 1
rob stalling non-critical load ip: 20062836 freq: 7
rob stalling non-critical load ip: 20062904 freq: 51
rob stalling non-critical load ip: 20063876 freq: 14
rob stalling non-critical load ip: 20064076 freq: 1
rob stalling non-critical load ip: 20064080 freq: 2
rob stalling non-critical load ip: 20064396 freq: 1
rob stalling non-critical load ip: 20064440 freq: 5
rob stalling non-critical load ip: 20064480 freq: 10
rob stalling non-critical load ip: 20079096 freq: 1
rob stalling non-critical load ip: 20079460 freq: 5
rob stalling non-critical load ip: 20079476 freq: 3
rob stalling non-critical load ip: 20081736 freq: 1
rob stalling non-critical load ip: 20081856 freq: 1
rob stalling non-critical load ip: 20082268 freq: 8
rob stalling non-critical load ip: 20082308 freq: 5
rob stalling non-critical load ip: 20082372 freq: 5
rob stalling non-critical load ip: 20083200 freq: 4
rob stalling non-critical load ip: 20083212 freq: 8
rob stalling non-critical load ip: 20083228 freq: 13
rob stalling non-critical load ip: 20083236 freq: 7
rob stalling non-critical load ip: 20083440 freq: 5
rob stalling non-critical load ip: 20083492 freq: 1
rob stalling non-critical load ip: 20084520 freq: 2
rob stalling non-critical load ip: 20084544 freq: 18
rob stalling non-critical load ip: 20084628 freq: 8
rob stalling non-critical load ip: 20084644 freq: 5
rob stalling non-critical load ip: 20084652 freq: 1
rob stalling non-critical load ip: 20084712 freq: 4
rob stalling non-critical load ip: 20084744 freq: 16
rob stalling non-critical load ip: 20084756 freq: 2
rob stalling non-critical load ip: 20087336 freq: 7
rob stalling non-critical load ip: 20096104 freq: 11
rob stalling non-critical load ip: 20096244 freq: 1
rob stalling non-critical load ip: 20096284 freq: 16
rob stalling non-critical load ip: 20096312 freq: 5
rob stalling non-critical load ip: 20096324 freq: 3
rob stalling non-critical load ip: 20096416 freq: 7
rob stalling non-critical load ip: 20096608 freq: 5
rob stalling non-critical load ip: 20096612 freq: 4
rob stalling non-critical load ip: 20096680 freq: 6
rob stalling non-critical load ip: 20096732 freq: 9
rob stalling non-critical load ip: 20096772 freq: 15
rob stalling non-critical load ip: 20097336 freq: 7
rob stalling non-critical load ip: 20097340 freq: 38
rob stalling non-critical load ip: 20097868 freq: 7
rob stalling non-critical load ip: 20097876 freq: 7
rob stalling non-critical load ip: 20155144 freq: 5
rob stalling non-critical load ip: 20155176 freq: 35
rob stalling non-critical load ip: 20155452 freq: 4
rob stalling non-critical load ip: 20165628 freq: 6
rob stalling non-critical load ip: 20168600 freq: 16
rob stalling non-critical load ip: 20168612 freq: 2
rob stalling non-critical load ip: 20168796 freq: 4
rob stalling non-critical load ip: 20169008 freq: 5
rob stalling non-critical load ip: 20169080 freq: 14
rob stalling non-critical load ip: 20169124 freq: 1
rob stalling non-critical load ip: 20169208 freq: 2
rob stalling non-critical load ip: 20169220 freq: 12
rob stalling non-critical load ip: 20170580 freq: 41
rob stalling non-critical load ip: 20170616 freq: 52
rob stalling non-critical load ip: 20170792 freq: 2
rob stalling non-critical load ip: 20170968 freq: 15
rob stalling non-critical load ip: 20171036 freq: 12
rob stalling non-critical load ip: 20171040 freq: 2
rob stalling non-critical load ip: 20171208 freq: 3
rob stalling non-critical load ip: 20174004 freq: 6
rob stalling non-critical load ip: 20174020 freq: 12
rob stalling non-critical load ip: 20174084 freq: 4
rob stalling non-critical load ip: 20174220 freq: 5
rob stalling non-critical load ip: 20174224 freq: 11
rob stalling non-critical load ip: 20174332 freq: 17
rob stalling non-critical load ip: 20174344 freq: 18
rob stalling non-critical load ip: 20174372 freq: 96
rob stalling non-critical load ip: 20174376 freq: 19
rob stalling non-critical load ip: 20174388 freq: 1
rob stalling non-critical load ip: 20174416 freq: 4
rob stalling non-critical load ip: 20174444 freq: 3
rob stalling non-critical load ip: 20182888 freq: 19
rob stalling non-critical load ip: 20182900 freq: 16
rob stalling non-critical load ip: 20182940 freq: 8
rob stalling non-critical load ip: 20182980 freq: 3
rob stalling non-critical load ip: 20183184 freq: 67
rob stalling non-critical load ip: 20183340 freq: 14
rob stalling non-critical load ip: 20184960 freq: 4
rob stalling non-critical load ip: 20185016 freq: 3
rob stalling non-critical load ip: 20197540 freq: 2
rob stalling non-critical load ip: 20201692 freq: 7
rob stalling non-critical load ip: 20201964 freq: 10
rob stalling non-critical load ip: 20432220 freq: 7
rob stalling non-critical load ip: 20432264 freq: 4
rob stalling non-critical load ip: 20432436 freq: 2
rob stalling non-critical load ip: 20457780 freq: 3
rob stalling non-critical load ip: 20457876 freq: 4
rob stalling non-critical load ip: 20560968 freq: 9
rob stalling non-critical load ip: 20561052 freq: 4
rob stalling non-critical load ip: 20585828 freq: 1
rob stalling non-critical load ip: 20595892 freq: 1
rob stalling non-critical load ip: 20632600 freq: 1
rob stalling non-critical load ip: 20632612 freq: 1
rob stalling non-critical load ip: 20632776 freq: 5
rob stalling non-critical load ip: 20633040 freq: 6
rob stalling non-critical load ip: 20633396 freq: 2
rob stalling non-critical load ip: 20634564 freq: 2
rob stalling non-critical load ip: 20634584 freq: 3
rob stalling non-critical load ip: 20634788 freq: 1
rob stalling non-critical load ip: 20634792 freq: 1
rob stalling non-critical load ip: 20637384 freq: 9
rob stalling non-critical load ip: 20637392 freq: 11
rob stalling non-critical load ip: 20637608 freq: 2
rob stalling non-critical load ip: 20637612 freq: 4
rob stalling non-critical load ip: 20637632 freq: 7
rob stalling non-critical load ip: 20637644 freq: 3
rob stalling non-critical load ip: 20637796 freq: 4
rob stalling non-critical load ip: 20637948 freq: 1
rob stalling non-critical load ip: 20638412 freq: 4
rob stalling non-critical load ip: 20638420 freq: 1
rob stalling non-critical load ip: 20638472 freq: 3
rob stalling non-critical load ip: 20638596 freq: 4
rob stalling non-critical load ip: 20638824 freq: 6
rob stalling non-critical load ip: 20638864 freq: 5
rob stalling non-critical load ip: 20638900 freq: 4
rob stalling non-critical load ip: 20638996 freq: 2
rob stalling non-critical load ip: 20639492 freq: 7
rob stalling non-critical load ip: 20641736 freq: 11
rob stalling non-critical load ip: 20641908 freq: 2
rob stalling non-critical load ip: 20641928 freq: 2
rob stalling non-critical load ip: 20642004 freq: 2
rob stalling non-critical load ip: 20642056 freq: 5
rob stalling non-critical load ip: 20642656 freq: 6
rob stalling non-critical load ip: 20642820 freq: 6
rob stalling non-critical load ip: 20642908 freq: 10
rob stalling non-critical load ip: 20643900 freq: 7
rob stalling non-critical load ip: 20644212 freq: 2
rob stalling non-critical load ip: 20644424 freq: 2
rob stalling non-critical load ip: 20644464 freq: 1
rob stalling non-critical load ip: 20644492 freq: 2
rob stalling non-critical load ip: 20644548 freq: 1
rob stalling non-critical load ip: 20644612 freq: 1
rob stalling non-critical load ip: 20649556 freq: 3
rob stalling non-critical load ip: 20649560 freq: 2
rob stalling non-critical load ip: 20717132 freq: 1
rob stalling non-critical load ip: 20717636 freq: 5
rob stalling non-critical load ip: 20717772 freq: 1
rob stalling non-critical load ip: 20717804 freq: 3
rob stalling non-critical load ip: 20741432 freq: 6
rob stalling non-critical load ip: 20741572 freq: 7
rob stalling non-critical load ip: 20741692 freq: 2
rob stalling non-critical load ip: 20741944 freq: 7
rob stalling non-critical load ip: 20742556 freq: 4
rob stalling non-critical load ip: 20742584 freq: 4
rob stalling non-critical load ip: 20742616 freq: 2
rob stalling non-critical load ip: 20742676 freq: 5
rob stalling non-critical load ip: 20742752 freq: 3
rob stalling non-critical load ip: 20742824 freq: 1
rob stalling non-critical load ip: 20742848 freq: 2
rob stalling non-critical load ip: 20743284 freq: 8
rob stalling non-critical load ip: 20743684 freq: 12
rob stalling non-critical load ip: 20743864 freq: 5
rob stalling non-critical load ip: 20745860 freq: 3
rob stalling non-critical load ip: 20746604 freq: 3
rob stalling non-critical load ip: 20746928 freq: 1
rob stalling non-critical load ip: 20748964 freq: 3
rob stalling non-critical load ip: 20749248 freq: 2
rob stalling non-critical load ip: 20750080 freq: 2
rob stalling non-critical load ip: 20755876 freq: 8
rob stalling non-critical load ip: 20756208 freq: 4
rob stalling non-critical load ip: 20756300 freq: 6
rob stalling non-critical load ip: 20756432 freq: 5
rob stalling non-critical load ip: 20760372 freq: 1
rob stalling non-critical load ip: 20791736 freq: 3
rob stalling non-critical load ip: 20791776 freq: 3
rob stalling non-critical load ip: 20792104 freq: 1
rob stalling non-critical load ip: 20792420 freq: 1
rob stalling non-critical load ip: 20800304 freq: 3
rob stalling non-critical load ip: 20800320 freq: 2
rob stalling non-critical load ip: 20800420 freq: 5
rob stalling non-critical load ip: 20800456 freq: 4
rob stalling non-critical load ip: 20800492 freq: 5
rob stalling non-critical load ip: 20800584 freq: 8
rob stalling non-critical load ip: 20800688 freq: 2
rob stalling non-critical load ip: 20800788 freq: 1
rob stalling non-critical load ip: 20800816 freq: 1
rob stalling non-critical load ip: 20801052 freq: 2
rob stalling non-critical load ip: 20803148 freq: 4
rob stalling non-critical load ip: 20803240 freq: 3
rob stalling non-critical load ip: 20804304 freq: 5
rob stalling non-critical load ip: 20804540 freq: 4
rob stalling non-critical load ip: 20804656 freq: 7
rob stalling non-critical load ip: 20804804 freq: 4
rob stalling non-critical load ip: 20805024 freq: 43
rob stalling non-critical load ip: 20805104 freq: 8
rob stalling non-critical load ip: 20805316 freq: 13
rob stalling non-critical load ip: 20806212 freq: 4
rob stalling non-critical load ip: 20806248 freq: 2
rob stalling non-critical load ip: 20806956 freq: 3
rob stalling non-critical load ip: 20813440 freq: 1
rob stalling non-critical load ip: 20813456 freq: 1
rob stalling non-critical load ip: 20813512 freq: 4
rob stalling non-critical load ip: 20813524 freq: 20
rob stalling non-critical load ip: 20813576 freq: 3
rob stalling non-critical load ip: 20813772 freq: 1
rob stalling non-critical load ip: 20813952 freq: 12
rob stalling non-critical load ip: 20813960 freq: 1
rob stalling non-critical load ip: 20814148 freq: 6
rob stalling non-critical load ip: 20814180 freq: 3
rob stalling non-critical load ip: 20814192 freq: 5
rob stalling non-critical load ip: 20814208 freq: 3
rob stalling non-critical load ip: 20814244 freq: 3
rob stalling non-critical load ip: 20814264 freq: 7
rob stalling non-critical load ip: 20814316 freq: 3
rob stalling non-critical load ip: 20814440 freq: 2
rob stalling non-critical load ip: 20814452 freq: 1
rob stalling non-critical load ip: 20816344 freq: 7
rob stalling non-critical load ip: 20816384 freq: 14
rob stalling non-critical load ip: 20816400 freq: 39
rob stalling non-critical load ip: 20816452 freq: 8
rob stalling non-critical load ip: 20816460 freq: 3
rob stalling non-critical load ip: 20816700 freq: 1
rob stalling non-critical load ip: 20816720 freq: 13
rob stalling non-critical load ip: 20816752 freq: 6
rob stalling non-critical load ip: 20816868 freq: 1
rob stalling non-critical load ip: 20816876 freq: 1
rob stalling non-critical load ip: 20816904 freq: 12
rob stalling non-critical load ip: 20816912 freq: 3
rob stalling non-critical load ip: 20816960 freq: 1
rob stalling non-critical load ip: 20829656 freq: 3
rob stalling non-critical load ip: 20829704 freq: 1
rob stalling non-critical load ip: 20829868 freq: 12
rob stalling non-critical load ip: 20829932 freq: 2
rob stalling non-critical load ip: 20829936 freq: 2
rob stalling non-critical load ip: 20829952 freq: 21
rob stalling non-critical load ip: 20829956 freq: 38
rob stalling non-critical load ip: 20829984 freq: 2
rob stalling non-critical load ip: 20830036 freq: 10
rob stalling non-critical load ip: 2071812604 freq: 6
rob stalling non-critical load ip: 2071812636 freq: 3
rob stalling non-critical load ip: 2071823844 freq: 6
rob stalling non-critical load ip: 2071823900 freq: 1
rob stalling non-critical load ip: 2071824268 freq: 7
rob stalling non-critical load ip: 2071824296 freq: 2
rob stalling non-critical load ip: 2071824328 freq: 3
rob stalling non-critical load ip: 2071824400 freq: 8
rob stalling non-critical load ip: 2071825424 freq: 10
rob stalling non-critical load ip: 2071831684 freq: 6
rob stalling non-critical load ip: 2071831708 freq: 13
rob stalling non-critical load ip: 2071832376 freq: 13
rob stalling non-critical load ip: 2071832384 freq: 26
rob stalling non-critical load ip: 2071832404 freq: 5
rob stalling non-critical load ip: 2071832428 freq: 3
rob stalling non-critical load ip: 2071832560 freq: 85
rob stalling non-critical load ip: 2071832648 freq: 8
rob stalling non-critical load ip: 2071832664 freq: 2
rob stalling non-critical load ip: 2071832708 freq: 54
rob stalling non-critical load ip: 2071832768 freq: 5
rob stalling non-critical load ip: 2071832784 freq: 51
rob stalling non-critical load ip: 2071832968 freq: 2
rob stalling non-critical load ip: 2071833004 freq: 1
rob stalling non-critical load ip: 2071833100 freq: 69
rob stalling non-critical load ip: 2071833116 freq: 8
rob stalling non-critical load ip: 2071833160 freq: 91
rob stalling non-critical load ip: 2071833292 freq: 8
rob stalling non-critical load ip: 2071833564 freq: 3
rob stalling non-critical load ip: 2071838604 freq: 3
rob stalling non-critical load ip: 2071838628 freq: 1
rob stalling non-critical load ip: 2071838640 freq: 4
rob stalling non-critical load ip: 2071838676 freq: 74
rob stalling non-critical load ip: 2071838728 freq: 59
rob stalling non-critical load ip: 2071838812 freq: 4
rob stalling non-critical load ip: 2071838908 freq: 23
rob stalling non-critical load ip: 2071838928 freq: 2
rob stalling non-critical load ip: 2071838972 freq: 6
rob stalling non-critical load ip: 2071839236 freq: 1
rob stalling non-critical load ip: 2071839332 freq: 2
rob stalling non-critical load ip: 2071839404 freq: 4
rob stalling non-critical load ip: 2071839688 freq: 13
rob stalling non-critical load ip: 2071839792 freq: 1
rob stalling non-critical load ip: 2071839840 freq: 1
rob stalling non-critical load ip: 2071839900 freq: 35
rob stalling non-critical load ip: 2071839940 freq: 5
rob stalling non-critical load ip: 2074186608 freq: 10
rob stalling non-critical load ip: 2074186640 freq: 5
rob stalling non-critical load ip: 2074186648 freq: 4
rob stalling non-critical load ip: 2074186748 freq: 2
rob stalling non-critical load ip: 2074186756 freq: 1
rob stalling non-critical load ip: 2074186792 freq: 1
rob stalling non-critical load ip: 2074186800 freq: 5
rob stalling non-critical load ip: 2074186936 freq: 4
rob stalling non-critical load ip: 2074187060 freq: 2
rob stalling non-critical load ip: 2074187388 freq: 1
rob stalling non-critical load ip: 2074188696 freq: 26
rob stalling non-critical load ip: 2074188724 freq: 12
rob stalling non-critical load ip: 2074188820 freq: 3
rob stalling non-critical load ip: 2074200840 freq: 4
rob stalling non-critical load ip: 2074200844 freq: 9
rob stalling non-critical load ip: 2074200848 freq: 5
rob stalling non-critical load ip: 2074201148 freq: 8
rob stalling non-critical load ip: 2074201184 freq: 4
rob stalling non-critical load ip: 2074201264 freq: 3
rob stalling non-critical load ip: 2074201288 freq: 2
rob stalling non-critical load ip: 2074201384 freq: 1
rob stalling non-critical load ip: 2074201488 freq: 3
rob stalling non-critical load ip: 2074201496 freq: 13
rob stalling non-critical load ip: 2074201504 freq: 4
rob stalling non-critical load ip: 2074201512 freq: 3
rob stalling non-critical load ip: 2074201536 freq: 9
rob stalling non-critical load ip: 2074201960 freq: 6
rob stalling non-critical load ip: 2074202272 freq: 9
rob stalling non-critical load ip: 2074202424 freq: 4
rob stalling non-critical load ip: 2074202456 freq: 10
rob stalling non-critical load ip: 2074202504 freq: 1
rob stalling non-critical load ip: 2074202528 freq: 4
rob stalling non-critical load ip: 2074202532 freq: 7
rob stalling non-critical load ip: 2074202564 freq: 2
rob stalling non-critical load ip: 2074202628 freq: 4
rob stalling non-critical load ip: 2074203804 freq: 13
rob stalling non-critical load ip: 2074204044 freq: 3
rob stalling non-critical load ip: 2074452540 freq: 15
rob stalling non-critical load ip: 2074452548 freq: 9
rob stalling non-critical load ip: 2074452912 freq: 6
rob stalling non-critical load ip: 2074453008 freq: 5
rob stalling non-critical load ip: 2074453248 freq: 6
rob stalling non-critical load ip: 2074605584 freq: 4
rob stalling non-critical load ip: 2074605616 freq: 7
rob stalling non-critical load ip: 2074605672 freq: 3
rob stalling non-critical load ip: 2074605688 freq: 2
rob stalling non-critical load ip: 2074798012 freq: 2
rob stalling non-critical load ip: 2074798184 freq: 3
rob stalling non-critical load ip: 2074798204 freq: 2
rob stalling non-critical load ip: 2074798240 freq: 5
rob stalling non-critical load ip: 2074798256 freq: 1
rob stalling non-critical load ip: 2074798288 freq: 1
rob stalling non-critical load ip: 2074798340 freq: 4
rob stalling non-critical load ip: 2074798356 freq: 12
rob stalling non-critical load ip: 2074798392 freq: 10
rob stalling non-critical load ip: 2074815500 freq: 32
rob stalling non-critical load ip: 2074816324 freq: 3
rob stalling non-critical load ip: 2074816724 freq: 2
rob stalling non-critical load ip: 2074819848 freq: 4
rob stalling non-critical load ip: 2074820008 freq: 2
rob stalling non-critical load ip: 2074820024 freq: 1
rob stalling non-critical load ip: 2074820780 freq: 1
rob stalling non-critical load ip: 2074908236 freq: 7
rob stalling non-critical load ip: 2074908256 freq: 3
rob stalling non-critical load ip: 2074908372 freq: 16
rob stalling non-critical load ip: 2074908388 freq: 19
rob stalling non-critical load ip: 2074908396 freq: 45
rob stalling non-critical load ip: 2074912268 freq: 39
rob stalling non-critical load ip: 2074912272 freq: 17
rob stalling non-critical load ip: 2074912276 freq: 29
rob stalling non-critical load ip: 2074912456 freq: 1
rob stalling non-critical load ip: 2074912464 freq: 5
[...]
Non-critical_ROB_Stalls_Percent_1_Bucket_6: 9999
Critical_ROB_Stalls_Percent_2_Bucket_0: 254642
Non-critical_ROB_Stalls_Percent_2_Bucket_0: 114031
Critical_ROB_Stalls_Percent_2_Bucket_1: 8430
Non-critical_ROB_Stalls_Percent_2_Bucket_1: 13996
Critical_ROB_Stalls_Percent_2_Bucket_2: 5003
Non-critical_ROB_Stalls_Percent_2_Bucket_2: 10787
Critical_ROB_Stalls_Percent_2_Bucket_3: 3495
Non-critical_ROB_Stalls_Percent_2_Bucket_3: 12248
Critical_ROB_Stalls_Percent_2_Bucket_4: 10930
Non-critical_ROB_Stalls_Percent_2_Bucket_4: 13694
Critical_ROB_Stalls_Percent_2_Bucket_5: 5872
Non-critical_ROB_Stalls_Percent_2_Bucket_5: 14391
Critical_ROB_Stalls_Percent_2_Bucket_6: 2874
Non-critical_ROB_Stalls_Percent_2_Bucket_6: 8385
Critical_ROB_Stalls_Percent_3_Bucket_0: 264422
Non-critical_ROB_Stalls_Percent_3_Bucket_0: 104251
Critical_ROB_Stalls_Percent_3_Bucket_1: 8651
Non-critical_ROB_Stalls_Percent_3_Bucket_1: 13775
Critical_ROB_Stalls_Percent_3_Bucket_2: 5167
Non-critical_ROB_Stalls_Percent_3_Bucket_2: 10623
Critical_ROB_Stalls_Percent_3_Bucket_3: 3669
Non-critical_ROB_Stalls_Percent_3_Bucket_3: 12074
Critical_ROB_Stalls_Percent_3_Bucket_4: 11421
Non-critical_ROB_Stalls_Percent_3_Bucket_4: 13203
Critical_ROB_Stalls_Percent_3_Bucket_5: 14683
Non-critical_ROB_Stalls_Percent_3_Bucket_5: 5580
Critical_ROB_Stalls_Percent_3_Bucket_6: 2879
Non-critical_ROB_Stalls_Percent_3_Bucket_6: 8380
Critical_ROB_Stalls_Percent_4_Bucket_0: 272580
Non-critical_ROB_Stalls_Percent_4_Bucket_0: 96093
Critical_ROB_Stalls_Percent_4_Bucket_1: 10086
Non-critical_ROB_Stalls_Percent_4_Bucket_1: 12340
Critical_ROB_Stalls_Percent_4_Bucket_2: 5824
Non-critical_ROB_Stalls_Percent_4_Bucket_2: 9966
Critical_ROB_Stalls_Percent_4_Bucket_3: 5670
Non-critical_ROB_Stalls_Percent_4_Bucket_3: 10073
Critical_ROB_Stalls_Percent_4_Bucket_4: 18383
Non-critical_ROB_Stalls_Percent_4_Bucket_4: 6241
Critical_ROB_Stalls_Percent_4_Bucket_5: 16182
Non-critical_ROB_Stalls_Percent_4_Bucket_5: 4081
Critical_ROB_Stalls_Percent_4_Bucket_6: 4685
Non-critical_ROB_Stalls_Percent_4_Bucket_6: 6574
Critical_ROB_Stalls_Percent_5_Bucket_0: 283650
Non-critical_ROB_Stalls_Percent_5_Bucket_0: 85023
Critical_ROB_Stalls_Percent_5_Bucket_1: 10618
Non-critical_ROB_Stalls_Percent_5_Bucket_1: 11808
Critical_ROB_Stalls_Percent_5_Bucket_2: 7236
Non-critical_ROB_Stalls_Percent_5_Bucket_2: 8554
Critical_ROB_Stalls_Percent_5_Bucket_3: 9801
Non-critical_ROB_Stalls_Percent_5_Bucket_3: 5942
Critical_ROB_Stalls_Percent_5_Bucket_4: 20688
Non-critical_ROB_Stalls_Percent_5_Bucket_4: 3936
Critical_ROB_Stalls_Percent_5_Bucket_5: 16728
Non-critical_ROB_Stalls_Percent_5_Bucket_5: 3535
Critical_ROB_Stalls_Percent_5_Bucket_6: 7063
Non-critical_ROB_Stalls_Percent_5_Bucket_6: 4196
Critical_ROB_Stalls_Percent_6_Bucket_0: 294719
Non-critical_ROB_Stalls_Percent_6_Bucket_0: 73954
Critical_ROB_Stalls_Percent_6_Bucket_1: 12874
Non-critical_ROB_Stalls_Percent_6_Bucket_1: 9552
Critical_ROB_Stalls_Percent_6_Bucket_2: 10732
Non-critical_ROB_Stalls_Percent_6_Bucket_2: 5058
Critical_ROB_Stalls_Percent_6_Bucket_3: 12115
Non-critical_ROB_Stalls_Percent_6_Bucket_3: 3628
Critical_ROB_Stalls_Percent_6_Bucket_4: 21552
Non-critical_ROB_Stalls_Percent_6_Bucket_4: 3072
Critical_ROB_Stalls_Percent_6_Bucket_5: 17919
Non-critical_ROB_Stalls_Percent_6_Bucket_5: 2344
Critical_ROB_Stalls_Percent_6_Bucket_6: 9029
Non-critical_ROB_Stalls_Percent_6_Bucket_6: 2230
Critical_ROB_Stalls_Percent_7_Bucket_0: 312608
Non-critical_ROB_Stalls_Percent_7_Bucket_0: 56065
Critical_ROB_Stalls_Percent_7_Bucket_1: 14469
Non-critical_ROB_Stalls_Percent_7_Bucket_1: 7957
Critical_ROB_Stalls_Percent_7_Bucket_2: 12059
Non-critical_ROB_Stalls_Percent_7_Bucket_2: 3731
Critical_ROB_Stalls_Percent_7_Bucket_3: 13046
Non-critical_ROB_Stalls_Percent_7_Bucket_3: 2697
Critical_ROB_Stalls_Percent_7_Bucket_4: 22344
Non-critical_ROB_Stalls_Percent_7_Bucket_4: 2280
Critical_ROB_Stalls_Percent_7_Bucket_5: 18041
Non-critical_ROB_Stalls_Percent_7_Bucket_5: 2222
Critical_ROB_Stalls_Percent_7_Bucket_6: 9031
Non-critical_ROB_Stalls_Percent_7_Bucket_6: 2228
Critical_ROB_Stalls_Percent_8_Bucket_0: 329360
Non-critical_ROB_Stalls_Percent_8_Bucket_0: 39313
Critical_ROB_Stalls_Percent_8_Bucket_1: 16665
Non-critical_ROB_Stalls_Percent_8_Bucket_1: 5761
Critical_ROB_Stalls_Percent_8_Bucket_2: 13149
Non-critical_ROB_Stalls_Percent_8_Bucket_2: 2641
Critical_ROB_Stalls_Percent_8_Bucket_3: 14054
Non-critical_ROB_Stalls_Percent_8_Bucket_3: 1689
Critical_ROB_Stalls_Percent_8_Bucket_4: 23451
Non-critical_ROB_Stalls_Percent_8_Bucket_4: 1173
Critical_ROB_Stalls_Percent_8_Bucket_5: 19191
Non-critical_ROB_Stalls_Percent_8_Bucket_5: 1072
Critical_ROB_Stalls_Percent_8_Bucket_6: 9346
Non-critical_ROB_Stalls_Percent_8_Bucket_6: 1913
Average ROB occupancy Load Stall Begin: 49.4811
Average ROB occupancy Load Stall End: 56.7744
Min ROB occupancy Load Stall Begin: 1
Max ROB occupancy Load Stall Begin: 351
Min ROB occupancy Load Stall End: 1
Max ROB occupancy Load Stall End: 352
Average ROB occupancy Critical Load Stall Begin: -nan
Average ROB occupancy Critical Load Stall End: -nan
Min ROB occupancy Critical Load Stall Begin: 400
Max ROB occupancy Critical Load Stall Begin: 0
Min ROB occupancy Critical Load Stall End: 400
Max ROB occupancy Critical Load Stall End: 0
 ROB Load Stall Begin Bucket Count 0: 375503
 ROB Load Stall End Bucket Count 0: 368673
 ROB Critical Load Stall Begin Bucket Count 0: 0
 ROB Critical Load Stall End Bucket Count 0: 0
 ROB Load Stall Begin Bucket Count 1: 24367
 ROB Load Stall End Bucket Count 1: 22426
 ROB Critical Load Stall Begin Bucket Count 1: 0
 ROB Critical Load Stall End Bucket Count 1: 0
 ROB Load Stall Begin Bucket Count 2: 17561
 ROB Load Stall End Bucket Count 2: 15790
 ROB Critical Load Stall Begin Bucket Count 2: 0
 ROB Critical Load Stall End Bucket Count 2: 0
 ROB Load Stall Begin Bucket Count 3: 15971
 ROB Load Stall End Bucket Count 3: 15743
 ROB Critical Load Stall Begin Bucket Count 3: 0
 ROB Critical Load Stall End Bucket Count 3: 0
 ROB Load Stall Begin Bucket Count 4: 19550
 ROB Load Stall End Bucket Count 4: 24624
 ROB Critical Load Stall Begin Bucket Count 4: 0
 ROB Critical Load Stall End Bucket Count 4: 0
 ROB Load Stall Begin Bucket Count 5: 17881
 ROB Load Stall End Bucket Count 5: 20263
 ROB Critical Load Stall Begin Bucket Count 5: 0
 ROB Critical Load Stall End Bucket Count 5: 0
 ROB Load Stall Begin Bucket Count 6: 7945
 ROB Load Stall End Bucket Count 6: 11259
 ROB Critical Load Stall Begin Bucket Count 6: 0
 ROB Critical Load Stall End Bucket Count 6: 0
PIST Tag Read Accesses: 71086
PIST Read Accesses: 35543
PIST Tag Write Accesses: 71086
PIST Write Accesses: 35543
Criticality detector called times: 167812
Max global_stall_cycles_count: 240659
Threshold Modified: 1 times, factor: -1
Sturdy critical IP cache stats: 
 Unused entries: 0
CIC Tag Read Accesses: 0
CIC Read Accesses: 0
CIC Tag Write Accesses: 0
CIC Write Accesses: 0
Wobbly critical IP cache stats: 
 Unused entries: 119
CIC Tag Read Accesses: 31090958
CIC Read Accesses: 0
CIC Tag Write Accesses: 9
CIC Write Accesses: 0
ITLB TOTAL     ACCESS:    7219891  HIT:    6941322  MISS:     278569  HIT %:    96.1416  MISS %:    3.85835   MPKI: 5.57138
ITLB LOAD TRANSLATION ACCESS:    7219891  HIT:    6941322  MISS:     278569  HIT %:    96.1416  MISS %:    3.85835   MPKI: 5.57138
ITLB PREFETCH  REQUESTED:          0  ISSUED:          0  USEFUL:          0  USELESS:          0
ITLB USEFUL LOAD PREFETCHES:          0 PREFETCH ISSUED TO LOWER LEVEL:          0  ACCURACY: -nan
ITLB TIMELY PREFETCHES:          0 LATE PREFETCHES: 0 DROPPED PREFETCHES: 0
ITLB PREFETCHES SAME FILL-ORIGIN LEVEL: 0 DIFFERENT FILL-ORIGIN LEVEL: 0
ITLB AVERAGE MISS LATENCY: 43.455 cycles
ITLB RQ	ACCESS:    9353616	FORWARD:          0	MERGED:    2047636	TO_CACHE:    7305980

DTLB TOTAL     ACCESS:    4226721  HIT:    3024160  MISS:    1202561  HIT %:    71.5486  MISS %:    28.4514   MPKI: 24.0512
DTLB LOAD TRANSLATION ACCESS:    4226721  HIT:    3024160  MISS:    1202561  HIT %:    71.5486  MISS %:    28.4514   MPKI: 24.0512
DTLB PREFETCH  REQUESTED:          0  ISSUED:          0  USEFUL:          0  USELESS:          0
DTLB USEFUL LOAD PREFETCHES:          0 PREFETCH ISSUED TO LOWER LEVEL:          0  ACCURACY: -nan
DTLB TIMELY PREFETCHES:          0 LATE PREFETCHES: 0 DROPPED PREFETCHES: 0
DTLB PREFETCHES SAME FILL-ORIGIN LEVEL: 0 DIFFERENT FILL-ORIGIN LEVEL: 0
DTLB AVERAGE MISS LATENCY: 34.1904 cycles
DTLB RQ	ACCESS:    5218363	FORWARD:          0	MERGED:     888521	TO_CACHE:    4329842

STLB TOTAL     ACCESS:    1481130  HIT:     506092  MISS:     975038  HIT %:    34.1693  MISS %:    65.8307   MPKI: 19.5008
STLB LOAD TRANSLATION ACCESS:    1481130  HIT:     506092  MISS:     975038  HIT %:    34.1693  MISS %:    65.8307   MPKI: 19.5008
STLB PREFETCH  REQUESTED:          0  ISSUED:          0  USEFUL:          0  USELESS:          0
STLB USEFUL LOAD PREFETCHES:          0 PREFETCH ISSUED TO LOWER LEVEL:          0  ACCURACY: -nan
STLB TIMELY PREFETCHES:          0 LATE PREFETCHES: 0 DROPPED PREFETCHES: 0
STLB PREFETCHES SAME FILL-ORIGIN LEVEL: 0 DIFFERENT FILL-ORIGIN LEVEL: 0
STLB AVERAGE MISS LATENCY: 40.7751 cycles
STLB RQ	ACCESS:    1481132	FORWARD:          0	MERGED:          0	TO_CACHE:    1481132

STLB Hit, L1D data hit: 0
STLB Hit, L2C data hit: 0
STLB Hit, LLC data hit: 0
STLB Hit, LLC data miss: 0
STLB STLB hints to L2: 0
L1D TOTAL     ACCESS:    5063597  HIT:    4629953  MISS:     433644  HIT %:     91.436  MISS %:    8.56395   MPKI: 8.67288
L1D LOAD      ACCESS:    3423092  HIT:    3034612  MISS:     388480  HIT %:    88.6512  MISS %:    11.3488   MPKI: 7.7696
L1D RFO       ACCESS:    1640505  HIT:    1595341  MISS:      45164  HIT %:    97.2469  MISS %:    2.75305   MPKI: 0.90328
L1D PREFETCH  REQUESTED:          0  ISSUED:          0  USEFUL:          0  USELESS:          0
L1D USEFUL LOAD PREFETCHES:          0 PREFETCH ISSUED TO LOWER LEVEL:          0  ACCURACY: -nan
L1D TIMELY PREFETCHES:          0 LATE PREFETCHES: 0 DROPPED PREFETCHES: 0
L1D PREFETCHES SAME FILL-ORIGIN LEVEL: 0 DIFFERENT FILL-ORIGIN LEVEL: 0
L1D AVERAGE MISS LATENCY: 91.5142 cycles
L1D RQ	ACCESS:    5943644	FORWARD:          0	MERGED:    2472552	TO_CACHE:    3439460
L1D WQ	ACCESS:    1870083	FORWARD:      31632	MERGED:      91180	TO_CACHE:    1778903

L1D UNIQUE REGIONS ACCESSED: 0
L1D REGIONS CONFLICTS: 0
L1D Cross Page Prefetch Requests: 0
L1D Same Page Prefetch Requests: 0
L1D ROI Sum of L1D PQ occupancy: 0
L1D PREFETCHES PUSHED FROM L2C: 0
L1I TOTAL     ACCESS:    9300331  HIT:    9152557  MISS:     147774  HIT %:    98.4111  MISS %:    1.58891   MPKI: 2.95548
L1I LOAD      ACCESS:    9300331  HIT:    9152557  MISS:     147774  HIT %:    98.4111  MISS %:    1.58891   MPKI: 2.95548
L1I PREFETCH  REQUESTED:          0  ISSUED:          0  USEFUL:          0  USELESS:          0
L1I USEFUL LOAD PREFETCHES:          0 PREFETCH ISSUED TO LOWER LEVEL:          0  ACCURACY: -nan
L1I TIMELY PREFETCHES:          0 LATE PREFETCHES: 0 DROPPED PREFETCHES: 0
L1I PREFETCHES SAME FILL-ORIGIN LEVEL: 0 DIFFERENT FILL-ORIGIN LEVEL: 0
L1I AVERAGE MISS LATENCY: 50.5671 cycles
L1I RQ	ACCESS:   13656269	FORWARD:          0	MERGED:    4302653	TO_CACHE:    9353616

BTB BRANCH_DIRECT_JUMP	ACCESS:          0  HIT:          0  MISS:          0
BTB BRANCH_INDIRECT	ACCESS:          0  HIT:          0  MISS:          0
BTB BRANCH_CONDITIONAL	ACCESS:          0  HIT:          0  MISS:          0
BTB BRANCH_DIRECT_CALL	ACCESS:          0  HIT:          0  MISS:          0
BTB BRANCH_INDIRECT_CALL	ACCESS:          0  HIT:          0  MISS:          0
BTB BRANCH_RETURN	ACCESS:          0  HIT:          0  MISS:          0
BTB BRANCH_OTHER ACCESS:          0  HIT:          0  MISS:          0

L2C TOTAL     ACCESS:    2096098  HIT:    1490241  MISS:     605857  HIT %:     71.096  MISS %:     28.904   MPKI: 12.1171
L2C LOAD      ACCESS:     536252  HIT:     284800  MISS:     251452  HIT %:    53.1094  MISS %:    46.8906   MPKI: 5.02904
L2C DATA LOAD MPKI: 3.64556
L2C INSTRUCTION LOAD MPKI: 1.38348
L2C RFO       ACCESS:      45160  HIT:      18342  MISS:      26818  HIT %:    40.6156  MISS %:    59.3844   MPKI: 0.53636
L2C PREFETCH  ACCESS:     303690  HIT:      43081  MISS:     260609  HIT %:    14.1858  MISS %:    85.8142   MPKI: 5.21218
L2C DATA PREFETCH MPKI: 5.21218
L2C INSTRUCTION PREFETCH MPKI: 0
L2C WRITEBACK ACCESS:     123560  HIT:     120199  MISS:       3361  HIT %:    97.2799  MISS %:    2.72014   MPKI: 0.06722
L2C LOAD TRANSLATION ACCESS:    1087436  HIT:    1023819  MISS:      63617  HIT %:    94.1498  MISS %:    5.85018   MPKI: 1.27234
L2C PREFETCH  REQUESTED:     316899  ISSUED:     316899  USEFUL:     151064  USELESS:     109807
L2C USEFUL LOAD PREFETCHES:     151064 PREFETCH ISSUED TO LOWER LEVEL:     265385  ACCURACY: 56.9226
L2C TIMELY PREFETCHES:     151064 LATE PREFETCHES: 4776 DROPPED PREFETCHES: 0
L2C PREFETCHES SAME FILL-ORIGIN LEVEL: 265385 DIFFERENT FILL-ORIGIN LEVEL: 0
L2C AVERAGE MISS LATENCY: 156.005 cycles
L2C RQ	ACCESS:    1668855	FORWARD:          0	MERGED:          0	TO_CACHE:    1668854
L2C WQ	ACCESS:     123560	FORWARD:          1	MERGED:          0	TO_CACHE:     123560
L2C PQ	ACCESS:     316899	FORWARD:          0	MERGED:          0	TO_CACHE:     316899

L2C Instructions Evicting Data 51659
L2C Translations Evicting Data 50503
L2C Data Evicting Data 368300
L2C Instructions Evicting Instructions 10947
L2C Translations Evicting Instructions 6569
L2C Data Evicting Instructions 51562
L2C Instructions Evicting Translations 6568
L2C Translations Evicting Translations 6545
L2C Data Evicting Translations 49843
L2C Dense regions hint from L2: 0
PSCL5 TOTAL     ACCESS:     975040  HIT:     975040  MISS:          0  HIT %:        100  MISS %:          0   MPKI: 0
PSCL5 LOAD TRANSLATION ACCESS:     975040  HIT:     975040  MISS:          0  HIT %:        100  MISS %:          0   MPKI: 0
PSCL5 PREFETCH  REQUESTED:          0  ISSUED:          0  USEFUL:          0  USELESS:          0
PSCL5 USEFUL LOAD PREFETCHES:          0 PREFETCH ISSUED TO LOWER LEVEL:          0  ACCURACY: -nan
PSCL5 TIMELY PREFETCHES:          0 LATE PREFETCHES: 0 DROPPED PREFETCHES: 0
PSCL5 PREFETCHES SAME FILL-ORIGIN LEVEL: 0 DIFFERENT FILL-ORIGIN LEVEL: 0

PSCL4 TOTAL     ACCESS:     954449  HIT:     954274  MISS:        175  HIT %:    99.9817  MISS %:  0.0183352   MPKI: 0.0035
PSCL4 LOAD TRANSLATION ACCESS:     954449  HIT:     954274  MISS:        175  HIT %:    99.9817  MISS %:  0.0183352   MPKI: 0.0035
PSCL4 PREFETCH  REQUESTED:          0  ISSUED:          0  USEFUL:          0  USELESS:          0
PSCL4 USEFUL LOAD PREFETCHES:          0 PREFETCH ISSUED TO LOWER LEVEL:          0  ACCURACY: -nan
PSCL4 TIMELY PREFETCHES:          0 LATE PREFETCHES: 0 DROPPED PREFETCHES: 0
PSCL4 PREFETCHES SAME FILL-ORIGIN LEVEL: 0 DIFFERENT FILL-ORIGIN LEVEL: 0

PSCL3 TOTAL     ACCESS:     970476  HIT:     968938  MISS:       1538  HIT %:    99.8415  MISS %:   0.158479   MPKI: 0.03076
PSCL3 LOAD TRANSLATION ACCESS:     970476  HIT:     968938  MISS:       1538  HIT %:    99.8415  MISS %:   0.158479   MPKI: 0.03076
PSCL3 PREFETCH  REQUESTED:          0  ISSUED:          0  USEFUL:          0  USELESS:          0
PSCL3 USEFUL LOAD PREFETCHES:          0 PREFETCH ISSUED TO LOWER LEVEL:          0  ACCURACY: -nan
PSCL3 TIMELY PREFETCHES:          0 LATE PREFETCHES: 0 DROPPED PREFETCHES: 0
PSCL3 PREFETCHES SAME FILL-ORIGIN LEVEL: 0 DIFFERENT FILL-ORIGIN LEVEL: 0

PSCL2 TOTAL     ACCESS:     975039  HIT:     864223  MISS:     110816  HIT %:    88.6347  MISS %:    11.3653   MPKI: 2.21632
PSCL2 LOAD TRANSLATION ACCESS:     975039  HIT:     864223  MISS:     110816  HIT %:    88.6347  MISS %:    11.3653   MPKI: 2.21632
PSCL2 PREFETCH  REQUESTED:          0  ISSUED:          0  USEFUL:          0  USELESS:          0
PSCL2 USEFUL LOAD PREFETCHES:          0 PREFETCH ISSUED TO LOWER LEVEL:          0  ACCURACY: -nan
PSCL2 TIMELY PREFETCHES:          0 LATE PREFETCHES: 0 DROPPED PREFETCHES: 0
PSCL2 PREFETCHES SAME FILL-ORIGIN LEVEL: 0 DIFFERENT FILL-ORIGIN LEVEL: 0

LLC TOTAL     ACCESS:     701544  HIT:     240240  MISS:     461304  HIT %:    34.2445  MISS %:    65.7555   MPKI: 9.22608
LLC LOAD      ACCESS:     246682  HIT:      80580  MISS:     166102  HIT %:    32.6655  MISS %:    67.3345   MPKI: 3.32204
LLC RFO       ACCESS:      26812  HIT:      11277  MISS:      15535  HIT %:    42.0595  MISS %:    57.9405   MPKI: 0.3107
LLC PREFETCH  ACCESS:     265385  HIT:      25749  MISS:     239636  HIT %:    9.70251  MISS %:    90.2975   MPKI: 4.79272
LLC WRITEBACK ACCESS:      99048  HIT:      95840  MISS:       3208  HIT %:    96.7612  MISS %:    3.23883   MPKI: 0.06416
LLC LOAD TRANSLATION ACCESS:      63617  HIT:      26794  MISS:      36823  HIT %:    42.1177  MISS %:    57.8823   MPKI: 0.73646
LLC PREFETCH  REQUESTED:          0  ISSUED:          0  USEFUL:       7773  USELESS:     236456
LLC USEFUL LOAD PREFETCHES:       7773 PREFETCH ISSUED TO LOWER LEVEL:     239636  ACCURACY: 3.24367
LLC TIMELY PREFETCHES:       7773 LATE PREFETCHES: 0 DROPPED PREFETCHES: 0
LLC PREFETCHES SAME FILL-ORIGIN LEVEL: 0 DIFFERENT FILL-ORIGIN LEVEL: 0
LLC AVERAGE MISS LATENCY: 166.486 cycles
LLC RQ	ACCESS:     337111	FORWARD:          0	MERGED:          0	TO_CACHE:     337111
LLC WQ	ACCESS:      99048	FORWARD:          0	MERGED:          0	TO_CACHE:      99048
LLC PQ	ACCESS:     265385	FORWARD:          0	MERGED:          0	TO_CACHE:     265385

LLC Dense regions hint to LLC: 0

RAW hits: 166442
Loads Generated: 6110086
Loads sent to L1D: 5943644
Stores Generated: 1870074
Stores sent to L1D: 1870083
Major fault: 0 Minor fault: 49658
Allocated PAGES: 49658
[Bingo] PHT Access: 165070
[Bingo] PHT Hit PC+Addr: 22696
[Bingo] PHT Hit PC+Offs: 102894
[Bingo] PHT Miss: 39480
[Bingo] Prefetch PC+Addr: 0
[Bingo] Prefetch PC+Offs: 0
[Bingo] Useful PC+Addr: 0
[Bingo] Useful PC+Offs: 0
[Bingo] Useless PC+Addr: 0
[Bingo] Useless PC+Offs: 0
[Bingo] L1 Prefetch per Region: 0
[Bingo] L2 Prefetch per Region: 3.54504
[Bingo] L3 Prefetch per Region: 0
[Bingo] No Prefetch per Region: 28.455
[Bingo] Number of Voters Mean: 10.2434
[Bingo] Number of Voters SD: 10.4474
PHT read accesses: 2308319
PHT write accesses: 52640
AT read accesses: 238143
AT write accesses: 275575
FT read accesses: 162587
FT write accesses: 165070
PS read accesses: 259083
PS write accesses: 125590
PHT tag read accesses: 3923726
PHT tag write accesses: 75336
AT tag read accesses: 18321588
AT tag write accesses: 290784
FT tag read accesses: 18880800
FT tag write accesses: 274540
PS tag read accesses: 10963910
PS tag write accesses: 384459

DRAM Statistics
 CHANNEL 0
 RQ ROW_BUFFER_HIT:     140037  ROW_BUFFER_MISS:     318049
 DBUS_CONGESTED:         64
 WQ ROW_BUFFER_HIT:      14262  ROW_BUFFER_MISS:      74188  FULL:          0

 AVG_CONGESTED_CYCLE: 5
 All warmup complete: 2
Channel 0 Bank busy for read cycles: 0
Channel 0 Bank busy for write cycles: 0
Channel 0
Rank 0
0banks busy for read cycles: 49555156
0banks busy for write cycles: 42935
1banks busy for read cycles: 15353640
1banks busy for write cycles: 6622660
2banks busy for read cycles: 7336228
2banks busy for write cycles: 2057192
3banks busy for read cycles: 2854716
3banks busy for write cycles: 757425
4banks busy for read cycles: 835481
4banks busy for write cycles: 370436
5banks busy for read cycles: 338922
5banks busy for write cycles: 223124
6banks busy for read cycles: 222653
6banks busy for write cycles: 109347
7banks busy for read cycles: 302021
7banks busy for write cycles: 66854
8banks busy for read cycles: 958364
8banks busy for write cycles: 92772

CPU 0 Branch Prediction Accuracy: 98.7063% MPKI: 1.61116 Average ROB Occupancy at Mispredict: 44.6291
Branch types
NOT_BRANCH: 0 0%
BRANCH_DIRECT_JUMP: 0 0%
BRANCH_INDIRECT: 0 0%
BRANCH_CONDITIONAL: 0 0%
BRANCH_DIRECT_CALL: 0 0%
BRANCH_INDIRECT_CALL: 0 0%
BRANCH_RETURN: 0 0%
BRANCH_OTHER: 0 0%

DRAM PAGES: 1048576
Allocated PAGES: 49658
