
*** ChampSim Multicore Out-of-Order Simulator ***

Warmup Instructions: 50000000
Simulation Instructions: 50000000
Number of CPUs: 1
LLC sets: 2048
LLC ways: 16
Off-chip DRAM Size: 4096 MB Channels: 1 Width: 64-bit Data Rate: 6400 MT/s
CPU 0 runs ../cloudsuite_traces//cassandra_phase4_core1.trace.gz
.gz
NUM_OF_IPS_IN_CRITICAL_IP_TRAINING: 64
NUM_OF_CRITICAL_IP_TRAINING_TABLE_WAYS: 2
NUM_OF_CRITICAL_IP_TRAINING_TABLE_SETS: 32
WOBBLY_CRITICAL_IP_CACHE_SETS: 32
WOBBLY_CRITICAL_IP_CACHE_WAYS: 4
BTB has LRU replacement policy
ITLB has LRU replacement policy
DTLB has LRU replacement policy
STLB has LRU replacement policy
L1I has LRU replacement policy
IP Table Entries: 64
L1D has LRU replacement policy
Initialize SRRIP state for L2C
Initialize DRRIP state for LLC
UNIQUE_ASID[0] = €
UNIQUE_ASID[1] = 
Heartbeat CPU 0 instructions: 10000002 cycles: 2807996 heartbeat IPC: 3.56126 cumulative IPC: 3.56126 (Simulation time: 0 hr 5 min 13 sec) 
Heartbeat CPU 0 instructions: 20000003 cycles: 5712795 heartbeat IPC: 3.44258 cumulative IPC: 3.50091 (Simulation time: 0 hr 10 min 18 sec) 
Heartbeat CPU 0 instructions: 30000002 cycles: 8709711 heartbeat IPC: 3.33676 cumulative IPC: 3.44443 (Simulation time: 0 hr 15 min 39 sec) 
Heartbeat CPU 0 instructions: 40000002 cycles: 11846985 heartbeat IPC: 3.18748 cumulative IPC: 3.37639 (Simulation time: 0 hr 21 min 8 sec) 
Heartbeat CPU 0 instructions: 50000000 cycles: 14833051 heartbeat IPC: 3.34889 cumulative IPC: 3.37085 (Simulation time: 0 hr 25 min 51 sec) 

Warmup complete CPU 0 instructions: 50000004 cycles: 14833052 (Simulation time: 0 hr 25 min 51 sec) 

% increase in all ip prefetch 380.484
% increase in all ip prefetch 16.0009
% increase in all ip prefetch 15.1265
% increase in all ip prefetch 59.4489
% increase in all ip prefetch -40.4917
Heartbeat CPU 0 instructions: 60000000 cycles: 35335998 heartbeat IPC: 0.487735 cumulative IPC: 0.487735 (Simulation time: 0 hr 32 min 45 sec) 
Heartbeat CPU 0 instructions: 70000000 cycles: 52477356 heartbeat IPC: 0.583384 cumulative IPC: 0.531289 (Simulation time: 0 hr 39 min 53 sec) 
Heartbeat CPU 0 instructions: 80000001 cycles: 71405262 heartbeat IPC: 0.52832 cumulative IPC: 0.530296 (Simulation time: 0 hr 46 min 7 sec) 
Heartbeat CPU 0 instructions: 90000002 cycles: 92392368 heartbeat IPC: 0.476483 cumulative IPC: 0.515734 (Simulation time: 0 hr 51 min 17 sec) 
Heartbeat CPU 0 instructions: 100000002 cycles: 111297651 heartbeat IPC: 0.528953 cumulative IPC: 0.518325 (Simulation time: 0 hr 55 min 52 sec) 
Finished CPU 0 instructions: 50000002 cycles: 96464600 cumulative IPC: 0.518325 (Simulation time: 0 hr 55 min 52 sec) 

ChampSim completed all CPUs

Region of Interest Statistics

CPU 0 cumulative IPC: 0.518325 instructions: 50000002 cycles: 96464600

CPU 0 Average Load ROB stall cycles: 1.80898e+07
CPU 0 Fraction of times ROB stalled by Loads: 29.5625
CPU 0 Percentage of Load stall cycles in Total stall cycles: 1.50125e+08
Issued all: 40276754
Issued LT all: 34408937
rob_not_full_when_issued_lt_all: 21152536
Issued LT one: 29620169
rob_not_full_when_issued_lt_one: 17025129
 Total stall cycles: 81632923
 Total load stall cycles: 122551339316213
CPU 0 NUM of IPS identified critical: 0
CPU 0 Num of Load IPs stalling ROB: 13003
Threshold modification factor: -4
Max PIST entries: 64
Min PIST entries: 0
Avg PIST entries: 31.73
Trouble in retire width: 0.887549
MaC = Marked as critical.
lt_50_percent_before_Mac: 0
gt_90_percent_before_Mac: 0
gt_75_percent_before_Mac: 0
gt_50_percent_before_Mac: 0
stall_proportion_bin_same_before_after: 0
stall_proportion_bin_lower_before_after: 0
stall_proportion_bin_upper_before_after: 0
average_stall_proportion_before: -nan
average_stall_proportion_after: -nan
Critical IP stalls, total frequency: 0
Non-critical IP stalls, total frequency: 2002750
Total Freq all stalling IPs: 2002750
stat_90_percent_critical_ip_stalls_freq: 1802727
stat_90_percent_non_critical_ip_stalls_freq: 200023
Critical_IP_ROB_Stalls_Bucket_0: 0
Non-critical_IP_ROB_Stalls_Bucket_0: 1057493
Critical_IP_ROB_Stalls_Bucket_1: 0
Non-critical_IP_ROB_Stalls_Bucket_1: 283922
Critical_IP_ROB_Stalls_Bucket_2: 0
Non-critical_IP_ROB_Stalls_Bucket_2: 171787
Critical_IP_ROB_Stalls_Bucket_3: 0
Non-critical_IP_ROB_Stalls_Bucket_3: 126109
Critical_IP_ROB_Stalls_Bucket_4: 0
Non-critical_IP_ROB_Stalls_Bucket_4: 101797
Critical_IP_ROB_Stalls_Bucket_5: 0
Non-critical_IP_ROB_Stalls_Bucket_5: 75572
Critical_IP_ROB_Stalls_Bucket_6: 0
Non-critical_IP_ROB_Stalls_Bucket_6: 186070
0 => IPs accounting for >50 percent of stalls, 1 => 55, 2 => 60, 3 => 65 and so on till 90.
percent50: 50.2258 num IPs:  56
percent55: 55.3492 num IPs: 69
percent60: 60.2911 num IPs: 84
percent65: 65.1502 num IPs: 102
percent70: 70.1014 num IPs: 126
percent75: 75.1078 num IPs: 162
percent80: 80.0447 num IPs: 223
percent85: 85.0068 num IPs: 330
percent90: 90.0126 num IPs: 551
Critical_ROB_Stalls_Percent_0_Bucket_0: 575900
Non-critical_ROB_Stalls_Percent_0_Bucket_0: 481593
Critical_ROB_Stalls_Percent_0_Bucket_1: 97832
Non-critical_ROB_Stalls_Percent_0_Bucket_1: 186090
Critical_ROB_Stalls_Percent_0_Bucket_2: 79822
Non-critical_ROB_Stalls_Percent_0_Bucket_2: 91965
Critical_ROB_Stalls_Percent_0_Bucket_3: 60787
Non-critical_ROB_Stalls_Percent_0_Bucket_3: 65322
Critical_ROB_Stalls_Percent_0_Bucket_4: 57909
Non-critical_ROB_Stalls_Percent_0_Bucket_4: 43888
Critical_ROB_Stalls_Percent_0_Bucket_5: 40908
Non-critical_ROB_Stalls_Percent_0_Bucket_5: 34664
Critical_ROB_Stalls_Percent_0_Bucket_6: 92739
Non-critical_ROB_Stalls_Percent_0_Bucket_6: 93331
Critical_ROB_Stalls_Percent_1_Bucket_0: 621679
Non-critical_ROB_Stalls_Percent_1_Bucket_0: 435814
Critical_ROB_Stalls_Percent_1_Bucket_1: 118821
Non-critical_ROB_Stalls_Percent_1_Bucket_1: 165101
Critical_ROB_Stalls_Percent_1_Bucket_2: 89115
Non-critical_ROB_Stalls_Percent_1_Bucket_2: 82672
Critical_ROB_Stalls_Percent_1_Bucket_3: 68481
Non-critical_ROB_Stalls_Percent_1_Bucket_3: 57628
Critical_ROB_Stalls_Percent_1_Bucket_4: 64159
Non-critical_ROB_Stalls_Percent_1_Bucket_4: 37638
Critical_ROB_Stalls_Percent_1_Bucket_5: 45796
Non-critical_ROB_Stalls_Percent_1_Bucket_5: 29776
Critical_ROB_Stalls_Percent_1_Bucket_6: 100456
Non-critical_ROB_Stalls_Percent_1_Bucket_6: 85614
Critical_ROB_Stalls_Percent_2_Bucket_0: 656613
Non-critical_ROB_Stalls_Percent_2_Bucket_0: 400880
Critical_ROB_Stalls_Percent_2_Bucket_1: 140815
Non-critical_ROB_Stalls_Percent_2_Bucket_1: 143107
Critical_ROB_Stalls_Percent_2_Bucket_2: 98683
Non-critical_ROB_Stalls_Percent_2_Bucket_2: 73104
Critical_ROB_Stalls_Percent_2_Bucket_3: 75350
Non-critical_ROB_Stalls_Percent_2_Bucket_3: 50759
Critical_ROB_Stalls_Percent_2_Bucket_4: 68022
Non-critical_ROB_Stalls_Percent_2_Bucket_4: 33775
Critical_ROB_Stalls_Percent_2_Bucket_5: 49395
Non-critical_ROB_Stalls_Percent_2_Bucket_5: 26177
Critical_ROB_Stalls_Percent_2_Bucket_6: 118602
Non-critical_ROB_Stalls_Percent_2_Bucket_6: 67468
Critical_ROB_Stalls_Percent_3_Bucket_0: 714054
Non-critical_ROB_Stalls_Percent_3_Bucket_0: 343439
Critical_ROB_Stalls_Percent_3_Bucket_1: 154872
Non-critical_ROB_Stalls_Percent_3_Bucket_1: 129050
Critical_ROB_Stalls_Percent_3_Bucket_2: 107506
Non-critical_ROB_Stalls_Percent_3_Bucket_2: 64281
Critical_ROB_Stalls_Percent_3_Bucket_3: 80961
Non-critical_ROB_Stalls_Percent_3_Bucket_3: 45148
Critical_ROB_Stalls_Percent_3_Bucket_4: 72363
Non-critical_ROB_Stalls_Percent_3_Bucket_4: 29434
Critical_ROB_Stalls_Percent_3_Bucket_5: 52110
Non-critical_ROB_Stalls_Percent_3_Bucket_5: 23462
Critical_ROB_Stalls_Percent_3_Bucket_6: 122929
Non-critical_ROB_Stalls_Percent_3_Bucket_6: 63141
Critical_ROB_Stalls_Percent_4_Bucket_0: 768623
Non-critical_ROB_Stalls_Percent_4_Bucket_0: 288870
Critical_ROB_Stalls_Percent_4_Bucket_1: 170049
Non-critical_ROB_Stalls_Percent_4_Bucket_1: 113873
Critical_ROB_Stalls_Percent_4_Bucket_2: 116926
Non-critical_ROB_Stalls_Percent_4_Bucket_2: 54861
Critical_ROB_Stalls_Percent_4_Bucket_3: 87753
Non-critical_ROB_Stalls_Percent_4_Bucket_3: 38356
Critical_ROB_Stalls_Percent_4_Bucket_4: 76745
Non-critical_ROB_Stalls_Percent_4_Bucket_4: 25052
Critical_ROB_Stalls_Percent_4_Bucket_5: 55046
Non-critical_ROB_Stalls_Percent_4_Bucket_5: 20526
Critical_ROB_Stalls_Percent_4_Bucket_6: 128815
Non-critical_ROB_Stalls_Percent_4_Bucket_6: 57255
Critical_ROB_Stalls_Percent_5_Bucket_0: 805585
Non-critical_ROB_Stalls_Percent_5_Bucket_0: 251908
Critical_ROB_Stalls_Percent_5_Bucket_1: 188899
Non-critical_ROB_Stalls_Percent_5_Bucket_1: 95023
Critical_ROB_Stalls_Percent_5_Bucket_2: 126417
Non-critical_ROB_Stalls_Percent_5_Bucket_2: 45370
Critical_ROB_Stalls_Percent_5_Bucket_3: 95325
Non-critical_ROB_Stalls_Percent_5_Bucket_3: 30784
Critical_ROB_Stalls_Percent_5_Bucket_4: 82403
Non-critical_ROB_Stalls_Percent_5_Bucket_4: 19394
Critical_ROB_Stalls_Percent_5_Bucket_5: 59334
Non-critical_ROB_Stalls_Percent_5_Bucket_5: 16238
Critical_ROB_Stalls_Percent_5_Bucket_6: 146259
Non-critical_ROB_Stalls_Percent_5_Bucket_6: 39811
Critical_ROB_Stalls_Percent_6_Bucket_0: 838501
Non-critical_ROB_Stalls_Percent_6_Bucket_0: 218992
Critical_ROB_Stalls_Percent_6_Bucket_1: 212213
Non-critical_ROB_Stalls_Percent_6_Bucket_1: 71709
Critical_ROB_Stalls_Percent_6_Bucket_2: 136915
Non-critical_ROB_Stalls_Percent_6_Bucket_2: 34872
Critical_ROB_Stalls_Percent_6_Bucket_3: 106470
Non-critical_ROB_Stalls_Percent_6_Bucket_3: 19639
Critical_ROB_Stalls_Percent_6_Bucket_4: 88410
Non-critical_ROB_Stalls_Percent_6_Bucket_4: 13387
Critical_ROB_Stalls_Percent_6_Bucket_5: 62834
Non-critical_ROB_Stalls_Percent_6_Bucket_5: 12738
Critical_ROB_Stalls_Percent_6_Bucket_6: 157752
Non-critical_ROB_Stalls_Percent_6_Bucket_6: 28318
Critical_ROB_Stalls_Percent_7_Bucket_0: 879952
Non-critical_ROB_Stalls_Percent_7_Bucket_0: 177541
Critical_ROB_Stalls_Percent_7_Bucket_1: 233228
Non-critical_ROB_Stalls_Percent_7_Bucket_1: 50694
Critical_ROB_Stalls_Percent_7_Bucket_2: 147714
Non-critical_ROB_Stalls_Percent_7_Bucket_2: 24073
Critical_ROB_Stalls_Percent_7_Bucket_3: 111528
Non-critical_ROB_Stalls_Percent_7_Bucket_3: 14581
Critical_ROB_Stalls_Percent_7_Bucket_4: 92530
Non-critical_ROB_Stalls_Percent_7_Bucket_4: 9267
Critical_ROB_Stalls_Percent_7_Bucket_5: 68527
Non-critical_ROB_Stalls_Percent_7_Bucket_5: 7045
Critical_ROB_Stalls_Percent_7_Bucket_6: 168994
Non-critical_ROB_Stalls_Percent_7_Bucket_6: 17076
Critical_ROB_Stalls_Percent_8_Bucket_0: 933716
Non-critical_ROB_Stalls_Percent_8_Bucket_0: 123777
Critical_ROB_Stalls_Percent_8_Bucket_1: 253636
Non-critical_ROB_Stalls_Percent_8_Bucket_1: 30286
Critical_ROB_Stalls_Percent_8_Bucket_2: 157302
Non-critical_ROB_Stalls_Percent_8_Bucket_2: 14485
Critical_ROB_Stalls_Percent_8_Bucket_3: 116915
Non-critical_ROB_Stalls_Percent_8_Bucket_3: 9194
Critical_ROB_Stalls_Percent_8_Bucket_4: 95634
Non-critical_ROB_Stalls_Percent_8_Bucket_4: 6163
Critical_ROB_Stalls_Percent_8_Bucket_5: 70972
Non-critical_ROB_Stalls_Percent_8_Bucket_5: 4600
Critical_ROB_Stalls_Percent_8_Bucket_6: 174552
Non-critical_ROB_Stalls_Percent_8_Bucket_6: 11518
Average ROB occupancy Load Stall Begin: 81.8124
Average ROB occupancy Load Stall End: 96.9012
Min ROB occupancy Load Stall Begin: 1
Max ROB occupancy Load Stall Begin: 352
Min ROB occupancy Load Stall End: 1
Max ROB occupancy Load Stall End: 352
Average ROB occupancy Critical Load Stall Begin: -nan
Average ROB occupancy Critical Load Stall End: -nan
Min ROB occupancy Critical Load Stall Begin: 400
Max ROB occupancy Critical Load Stall Begin: 0
Min ROB occupancy Critical Load Stall End: 400
Max ROB occupancy Critical Load Stall End: 0
 ROB Load Stall Begin Bucket Count 0: 1194412
 ROB Load Stall End Bucket Count 0: 1057493
 ROB Critical Load Stall Begin Bucket Count 0: 0
 ROB Critical Load Stall End Bucket Count 0: 0
 ROB Load Stall Begin Bucket Count 1: 244168
 ROB Load Stall End Bucket Count 1: 283922
 ROB Critical Load Stall Begin Bucket Count 1: 0
 ROB Critical Load Stall End Bucket Count 1: 0
 ROB Load Stall Begin Bucket Count 2: 156369
 ROB Load Stall End Bucket Count 2: 171787
 ROB Critical Load Stall Begin Bucket Count 2: 0
 ROB Critical Load Stall End Bucket Count 2: 0
 ROB Load Stall Begin Bucket Count 3: 111012
 ROB Load Stall End Bucket Count 3: 126109
 ROB Critical Load Stall Begin Bucket Count 3: 0
 ROB Critical Load Stall End Bucket Count 3: 0
 ROB Load Stall Begin Bucket Count 4: 83576
 ROB Load Stall End Bucket Count 4: 101797
 ROB Critical Load Stall Begin Bucket Count 4: 0
 ROB Critical Load Stall End Bucket Count 4: 0
 ROB Load Stall Begin Bucket Count 5: 66386
 ROB Load Stall End Bucket Count 5: 75572
 ROB Critical Load Stall Begin Bucket Count 5: 0
 ROB Critical Load Stall End Bucket Count 5: 0
 ROB Load Stall Begin Bucket Count 6: 146827
 ROB Load Stall End Bucket Count 6: 186070
 ROB Critical Load Stall Begin Bucket Count 6: 0
 ROB Critical Load Stall End Bucket Count 6: 0
PIST Tag Read Accesses: 1475192
PIST Read Accesses: 737596
PIST Tag Write Accesses: 1475192
PIST Write Accesses: 737596
Criticality detector called times: 883251
Max global_stall_cycles_count: 4827978
Threshold Modified: 4 times, factor: -4
Sturdy critical IP cache stats: 
 Unused entries: 0
CIC Tag Read Accesses: 0
CIC Read Accesses: 0
CIC Tag Write Accesses: 0
CIC Write Accesses: 0
Wobbly critical IP cache stats: 
 Unused entries: 5
CIC Tag Read Accesses: 50804115
CIC Read Accesses: 0
CIC Tag Write Accesses: 925195
CIC Write Accesses: 0
ITLB TOTAL     ACCESS:    8183292  HIT:    7650426  MISS:     532866  HIT %:    93.4884  MISS %:    6.51163   MPKI: 10.6573
ITLB LOAD TRANSLATION ACCESS:    8183292  HIT:    7650426  MISS:     532866  HIT %:    93.4884  MISS %:    6.51163   MPKI: 10.6573
ITLB PREFETCH  REQUESTED:          0  ISSUED:          0  USEFUL:          0  USELESS:          0
ITLB USEFUL LOAD PREFETCHES:          0 PREFETCH ISSUED TO LOWER LEVEL:          0  ACCURACY: -nan
ITLB TIMELY PREFETCHES:          0 LATE PREFETCHES: 0 DROPPED PREFETCHES: 0
ITLB PREFETCHES SAME FILL-ORIGIN LEVEL: 0 DIFFERENT FILL-ORIGIN LEVEL: 0
ITLB AVERAGE MISS LATENCY: 36.0272 cycles
ITLB RQ	ACCESS:   10219805	FORWARD:          0	MERGED:    1724655	TO_CACHE:    8495150

DTLB TOTAL     ACCESS:    5229692  HIT:    3250546  MISS:    1979146  HIT %:    62.1556  MISS %:    37.8444   MPKI: 39.5829
DTLB LOAD TRANSLATION ACCESS:    5229692  HIT:    3250546  MISS:    1979146  HIT %:    62.1556  MISS %:    37.8444   MPKI: 39.5829
DTLB PREFETCH  REQUESTED:          0  ISSUED:          0  USEFUL:          0  USELESS:          0
DTLB USEFUL LOAD PREFETCHES:          0 PREFETCH ISSUED TO LOWER LEVEL:          0  ACCURACY: -nan
DTLB TIMELY PREFETCHES:          0 LATE PREFETCHES: 0 DROPPED PREFETCHES: 0
DTLB PREFETCHES SAME FILL-ORIGIN LEVEL: 0 DIFFERENT FILL-ORIGIN LEVEL: 0
DTLB AVERAGE MISS LATENCY: 28.7421 cycles
DTLB RQ	ACCESS:    6440070	FORWARD:          0	MERGED:     991981	TO_CACHE:    5448089

STLB TOTAL     ACCESS:    2730515  HIT:    1100147  MISS:    1630368  HIT %:    40.2908  MISS %:    59.7092   MPKI: 32.6074
STLB LOAD TRANSLATION ACCESS:    2512012  HIT:     936360  MISS:    1575652  HIT %:    37.2753  MISS %:    62.7247   MPKI: 31.513
STLB TRANSLATION FROM L1D PREFETCHER ACCESS:     218503  HIT:     163787  MISS:      54716  HIT %:    74.9587  MISS %:    25.0413   MPKI: 1.09432
STLB PREFETCH  REQUESTED:          0  ISSUED:          0  USEFUL:      16214  USELESS:      38502
STLB USEFUL LOAD PREFETCHES:      16214 PREFETCH ISSUED TO LOWER LEVEL:          0  ACCURACY: inf
STLB TIMELY PREFETCHES:      16214 LATE PREFETCHES: 0 DROPPED PREFETCHES: 0
STLB PREFETCHES SAME FILL-ORIGIN LEVEL: 0 DIFFERENT FILL-ORIGIN LEVEL: 0
STLB AVERAGE MISS LATENCY: 33.6895 cycles
STLB RQ	ACCESS:    2830999	FORWARD:          0	MERGED:      99388	TO_CACHE:    2731611

STLB Hit, L1D data hit: 0
STLB Hit, L2C data hit: 0
STLB Hit, LLC data hit: 0
STLB Hit, LLC data miss: 0
STLB STLB hints to L2: 0
L1D TOTAL     ACCESS:    6456310  HIT:    5824442  MISS:     631868  HIT %:    90.2132  MISS %:    9.78683   MPKI: 12.6374
L1D LOAD      ACCESS:    4314576  HIT:    3887085  MISS:     427491  HIT %:    90.0919  MISS %:    9.90807   MPKI: 8.54982
L1D RFO       ACCESS:    1911640  HIT:    1853219  MISS:      58421  HIT %:    96.9439  MISS %:    3.05607   MPKI: 1.16842
L1D PREFETCH  ACCESS:     230094  HIT:      84138  MISS:     145956  HIT %:    36.5668  MISS %:    63.4332   MPKI: 2.91912
L1D PREFETCH  REQUESTED:     654378  ISSUED:     638067  USEFUL:      66020  USELESS:      79950
L1D USEFUL LOAD PREFETCHES:      66020 PREFETCH ISSUED TO LOWER LEVEL:     178395  ACCURACY: 37.0078
L1D TIMELY PREFETCHES:      66020 LATE PREFETCHES: 31614 DROPPED PREFETCHES: 0
L1D PREFETCHES SAME FILL-ORIGIN LEVEL: 178395 DIFFERENT FILL-ORIGIN LEVEL: 0
L1D AVERAGE MISS LATENCY: 2.43923e+06 cycles
L1D RQ	ACCESS:    7162939	FORWARD:          0	MERGED:    2748141	TO_CACHE:    4362943
L1D WQ	ACCESS:    2254786	FORWARD:      51948	MERGED:     177659	TO_CACHE:    2077127
L1D PQ	ACCESS:     319080	FORWARD:          0	MERGED:          0	TO_CACHE:     318987

L1D UNIQUE REGIONS ACCESSED: 0
L1D REGIONS CONFLICTS: 0
L1D Cross Page Prefetch Requests: 0
L1D Same Page Prefetch Requests: 579589
L1D ROI Sum of L1D PQ occupancy: 16802384
L1D PREFETCHES PUSHED FROM L2C: 0
L1I TOTAL     ACCESS:   10180237  HIT:   10066801  MISS:     113436  HIT %:    98.8857  MISS %:    1.11428   MPKI: 2.26872
L1I LOAD      ACCESS:   10180237  HIT:   10066801  MISS:     113436  HIT %:    98.8857  MISS %:    1.11428   MPKI: 2.26872
L1I PREFETCH  REQUESTED:          0  ISSUED:          0  USEFUL:          0  USELESS:          0
L1I USEFUL LOAD PREFETCHES:          0 PREFETCH ISSUED TO LOWER LEVEL:          0  ACCURACY: -nan
L1I TIMELY PREFETCHES:          0 LATE PREFETCHES: 0 DROPPED PREFETCHES: 0
L1I PREFETCHES SAME FILL-ORIGIN LEVEL: 0 DIFFERENT FILL-ORIGIN LEVEL: 0
L1I AVERAGE MISS LATENCY: 56.2242 cycles
L1I RQ	ACCESS:   17092267	FORWARD:          0	MERGED:    6872462	TO_CACHE:   10219805

BTB BRANCH_DIRECT_JUMP	ACCESS:          0  HIT:          0  MISS:          0
BTB BRANCH_INDIRECT	ACCESS:          0  HIT:          0  MISS:          0
BTB BRANCH_CONDITIONAL	ACCESS:          0  HIT:          0  MISS:          0
BTB BRANCH_DIRECT_CALL	ACCESS:          0  HIT:          0  MISS:          0
BTB BRANCH_INDIRECT_CALL	ACCESS:          0  HIT:          0  MISS:          0
BTB BRANCH_RETURN	ACCESS:          0  HIT:          0  MISS:          0
BTB BRANCH_OTHER ACCESS:          0  HIT:          0  MISS:          0

L2C TOTAL     ACCESS:    2637208  HIT:    1990528  MISS:     646680  HIT %:    75.4786  MISS %:    24.5214   MPKI: 12.9336
L2C LOAD      ACCESS:     509308  HIT:     106412  MISS:     402896  HIT %:    20.8934  MISS %:    79.1066   MPKI: 8.05792
L2C DATA LOAD MPKI: 7.02498
L2C INSTRUCTION LOAD MPKI: 1.03294
L2C RFO       ACCESS:      57596  HIT:      16127  MISS:      41469  HIT %:    28.0002  MISS %:    71.9998   MPKI: 0.82938
L2C PREFETCH  ACCESS:     178395  HIT:      26511  MISS:     151884  HIT %:    14.8608  MISS %:    85.1392   MPKI: 3.03768
L2C DATA PREFETCH MPKI: 3.03768
L2C INSTRUCTION PREFETCH MPKI: 0
L2C WRITEBACK ACCESS:     177068  HIT:     172322  MISS:       4746  HIT %:    97.3197  MISS %:    2.68033   MPKI: 0.09492
L2C LOAD TRANSLATION ACCESS:    1658935  HIT:    1613353  MISS:      45582  HIT %:    97.2523  MISS %:    2.74767   MPKI: 0.91164
L2C TRANSLATION FROM L1D PREFETCHER ACCESS:      55906  HIT:      55803  MISS:        103  HIT %:    99.8158  MISS %:   0.184238   MPKI: 0.00206
L2C PREFETCH  REQUESTED:          0  ISSUED:          0  USEFUL:       5456  USELESS:     146680
L2C USEFUL LOAD PREFETCHES:       5456 PREFETCH ISSUED TO LOWER LEVEL:     151884  ACCURACY: 3.59222
L2C TIMELY PREFETCHES:       5456 LATE PREFETCHES: 0 DROPPED PREFETCHES: 0
L2C PREFETCHES SAME FILL-ORIGIN LEVEL: 0 DIFFERENT FILL-ORIGIN LEVEL: 0
L2C AVERAGE MISS LATENCY: 170.831 cycles
L2C RQ	ACCESS:    2281750	FORWARD:          0	MERGED:          0	TO_CACHE:    2281747
L2C WQ	ACCESS:     177068	FORWARD:          3	MERGED:          0	TO_CACHE:     177068
L2C PQ	ACCESS:     178395	FORWARD:          0	MERGED:          0	TO_CACHE:     178395

L2C Instructions Evicting Data 38710
L2C Translations Evicting Data 35836
L2C Data Evicting Data 471988
L2C Instructions Evicting Instructions 7286
L2C Translations Evicting Instructions 4858
L2C Data Evicting Instructions 37592
L2C Instructions Evicting Translations 5651
L2C Translations Evicting Translations 4991
L2C Data Evicting Translations 35022
L2C Dense regions hint from L2: 0
PSCL5 TOTAL     ACCESS:    1630368  HIT:    1630368  MISS:          0  HIT %:        100  MISS %:          0   MPKI: 0
PSCL5 LOAD TRANSLATION ACCESS:    1575652  HIT:    1575652  MISS:          0  HIT %:        100  MISS %:          0   MPKI: 0
PSCL5 TRANSLATION FROM L1D PREFETCHER ACCESS:      54716  HIT:      54716  MISS:          0  HIT %:        100  MISS %:          0   MPKI: 0
PSCL5 PREFETCH  REQUESTED:          0  ISSUED:          0  USEFUL:          0  USELESS:          0
PSCL5 USEFUL LOAD PREFETCHES:          0 PREFETCH ISSUED TO LOWER LEVEL:          0  ACCURACY: -nan
PSCL5 TIMELY PREFETCHES:          0 LATE PREFETCHES: 0 DROPPED PREFETCHES: 0
PSCL5 PREFETCHES SAME FILL-ORIGIN LEVEL: 0 DIFFERENT FILL-ORIGIN LEVEL: 0

PSCL4 TOTAL     ACCESS:    1605906  HIT:    1605807  MISS:         99  HIT %:    99.9938  MISS %: 0.00616474   MPKI: 0.00198
PSCL4 LOAD TRANSLATION ACCESS:    1560603  HIT:    1560504  MISS:         99  HIT %:    99.9937  MISS %:  0.0063437   MPKI: 0.00198
PSCL4 TRANSLATION FROM L1D PREFETCHER ACCESS:      45303  HIT:      45303  MISS:          0  HIT %:        100  MISS %:          0   MPKI: 0
PSCL4 PREFETCH  REQUESTED:          0  ISSUED:          0  USEFUL:          0  USELESS:          0
PSCL4 USEFUL LOAD PREFETCHES:          0 PREFETCH ISSUED TO LOWER LEVEL:          0  ACCURACY: -nan
PSCL4 TIMELY PREFETCHES:          0 LATE PREFETCHES: 0 DROPPED PREFETCHES: 0
PSCL4 PREFETCHES SAME FILL-ORIGIN LEVEL: 0 DIFFERENT FILL-ORIGIN LEVEL: 0

PSCL3 TOTAL     ACCESS:    1625431  HIT:    1624059  MISS:       1372  HIT %:    99.9156  MISS %:  0.0844084   MPKI: 0.02744
PSCL3 LOAD TRANSLATION ACCESS:    1570969  HIT:    1569597  MISS:       1372  HIT %:    99.9127  MISS %:  0.0873346   MPKI: 0.02744
PSCL3 TRANSLATION FROM L1D PREFETCHER ACCESS:      54462  HIT:      54462  MISS:          0  HIT %:        100  MISS %:          0   MPKI: 0
PSCL3 PREFETCH  REQUESTED:          0  ISSUED:          0  USEFUL:          0  USELESS:          0
PSCL3 USEFUL LOAD PREFETCHES:          0 PREFETCH ISSUED TO LOWER LEVEL:          0  ACCURACY: -nan
PSCL3 TIMELY PREFETCHES:          0 LATE PREFETCHES: 0 DROPPED PREFETCHES: 0
PSCL3 PREFETCHES SAME FILL-ORIGIN LEVEL: 0 DIFFERENT FILL-ORIGIN LEVEL: 0

PSCL2 TOTAL     ACCESS:    1630368  HIT:    1547009  MISS:      83359  HIT %:    94.8871  MISS %:    5.11289   MPKI: 1.66718
PSCL2 LOAD TRANSLATION ACCESS:    1576822  HIT:    1493463  MISS:      83359  HIT %:    94.7135  MISS %:    5.28652   MPKI: 1.66718
PSCL2 TRANSLATION FROM L1D PREFETCHER ACCESS:      53546  HIT:      53546  MISS:          0  HIT %:        100  MISS %:          0   MPKI: 0
PSCL2 PREFETCH  REQUESTED:          0  ISSUED:          0  USEFUL:          0  USELESS:          0
PSCL2 USEFUL LOAD PREFETCHES:          0 PREFETCH ISSUED TO LOWER LEVEL:          0  ACCURACY: -nan
PSCL2 TIMELY PREFETCHES:          0 LATE PREFETCHES: 0 DROPPED PREFETCHES: 0
PSCL2 PREFETCHES SAME FILL-ORIGIN LEVEL: 0 DIFFERENT FILL-ORIGIN LEVEL: 0

LLC TOTAL     ACCESS:     793408  HIT:     248956  MISS:     544452  HIT %:    31.3781  MISS %:    68.6219   MPKI: 10.889
LLC LOAD      ACCESS:     402896  HIT:      69096  MISS:     333800  HIT %:    17.1498  MISS %:    82.8502   MPKI: 6.676
LLC RFO       ACCESS:      41469  HIT:       6778  MISS:      34691  HIT %:    16.3447  MISS %:    83.6553   MPKI: 0.69382
LLC PREFETCH  ACCESS:     151884  HIT:      12013  MISS:     139871  HIT %:    7.90933  MISS %:    92.0907   MPKI: 2.79742
LLC WRITEBACK ACCESS:     151474  HIT:     145546  MISS:       5928  HIT %:    96.0865  MISS %:    3.91354   MPKI: 0.11856
LLC LOAD TRANSLATION ACCESS:      45582  HIT:      15510  MISS:      30072  HIT %:    34.0266  MISS %:    65.9734   MPKI: 0.60144
LLC TRANSLATION FROM L1D PREFETCHER ACCESS:        103  HIT:         13  MISS:         90  HIT %:    12.6214  MISS %:    87.3786   MPKI: 0.0018
LLC PREFETCH  REQUESTED:          0  ISSUED:          0  USEFUL:       2837  USELESS:     138523
LLC USEFUL LOAD PREFETCHES:       2837 PREFETCH ISSUED TO LOWER LEVEL:     139871  ACCURACY: 2.0283
LLC TIMELY PREFETCHES:       2837 LATE PREFETCHES: 0 DROPPED PREFETCHES: 0
LLC PREFETCHES SAME FILL-ORIGIN LEVEL: 0 DIFFERENT FILL-ORIGIN LEVEL: 0
LLC AVERAGE MISS LATENCY: 166.685 cycles
LLC RQ	ACCESS:     490050	FORWARD:          0	MERGED:          0	TO_CACHE:     490050
LLC WQ	ACCESS:     151474	FORWARD:          0	MERGED:          0	TO_CACHE:     151474
LLC PQ	ACCESS:     151884	FORWARD:          0	MERGED:          0	TO_CACHE:     151884

LLC Dense regions hint to LLC: 0

RAW hits: 502926
Loads Generated: 7665865
Loads sent to L1D: 7162939
Stores Generated: 2254780
Stores sent to L1D: 2254786
Major fault: 0 Minor fault: 52221
Allocated PAGES: 52221

stream: 
stream:times selected: 1083635
stream:pref_filled: 131810
stream:pref_useful: 25182
stream:pref_late: 11192
stream:misses: 30494
stream:misses_by_poll: 0

CS: 
CS:times selected: 285505
CS:pref_filled: 125013
CS:pref_useful: 116821
CS:pref_late: 7879
CS:misses: 23459
CS:misses_by_poll: 81

CPLX: 
CPLX:times selected: 786773
CPLX:pref_filled: 35655
CPLX:pref_useful: 9007
CPLX:pref_late: 12950
CPLX:misses: 153187
CPLX:misses_by_poll: 30

NL_L1: 
NL:times selected: 2700
NL:pref_filled: 940
NL:pref_useful: 231
NL:pref_late: 60
NL:misses: 686
NL:misses_by_poll: 0

total selections: 2158613
total_filled: 145956
total_useful: 66020
total_late: 32632
total_polluted: 111
total_misses_after_warmup: 475858
conflicts: 1342305
Degree Incremented Times: 12056
Degree Decremented Times: 95100

L1 IP Table Write Accesses: 2760629
L1 IP Table Read Accesses: 1418324
L1 RST Write Accesses: 558697
L1 RST Read Accesses: 1117394
L1 CSPT Write Accesses: 558697
L1 CSPT Read Accesses: 988716
L1 RR Filter Tag Write Accesses: 335391
L1 RR Filter Tag Read Accesses: 23148760
L1 IP Table Tag Write Accesses: 4362943
L1 IP Table Tag Read Accesses: 4362943
L1 RST Tag Write Accesses: 0
L1 RST Tag Read Accesses: 5239220
L1 RR Filter Write Accesses: 0
L1 RR Filter Read Accesses: 834011
test: 298685

DRAM Statistics
 CHANNEL 0
 RQ ROW_BUFFER_HIT:     188131  ROW_BUFFER_MISS:     350389
 DBUS_CONGESTED:        422
 WQ ROW_BUFFER_HIT:      35777  ROW_BUFFER_MISS:     104182  FULL:          0

 AVG_CONGESTED_CYCLE: 3
 All warmup complete: 2
Channel 0 Bank busy for read cycles: 0
Channel 0 Bank busy for write cycles: 0
Channel 0
Rank 0
0banks busy for read cycles: 47063349
0banks busy for write cycles: 43498
1banks busy for read cycles: 23838221
1banks busy for write cycles: 7343849
2banks busy for read cycles: 6004336
2banks busy for write cycles: 2261232
3banks busy for read cycles: 2795282
3banks busy for write cycles: 972586
4banks busy for read cycles: 1244370
4banks busy for write cycles: 500584
5banks busy for read cycles: 703625
5banks busy for write cycles: 282301
6banks busy for read cycles: 471216
6banks busy for write cycles: 213162
7banks busy for read cycles: 368861
7banks busy for write cycles: 346033
8banks busy for read cycles: 510808
8banks busy for write cycles: 1501288

CPU 0 Branch Prediction Accuracy: 98.7824% MPKI: 1.98668 Average ROB Occupancy at Mispredict: 52.3319
Branch types
NOT_BRANCH: 0 0%
BRANCH_DIRECT_JUMP: 0 0%
BRANCH_INDIRECT: 0 0%
BRANCH_CONDITIONAL: 0 0%
BRANCH_DIRECT_CALL: 0 0%
BRANCH_INDIRECT_CALL: 0 0%
BRANCH_RETURN: 0 0%
BRANCH_OTHER: 0 0%

DRAM PAGES: 1048576
Allocated PAGES: 52221
