
*** ChampSim Multicore Out-of-Order Simulator ***

Warmup Instructions: 50000000
Simulation Instructions: 50000000
Number of CPUs: 1
LLC sets: 2048
LLC ways: 16
Off-chip DRAM Size: 4096 MB Channels: 1 Width: 64-bit Data Rate: 6400 MT/s
CPU 0 runs ../cloudsuite_traces//cassandra_phase4_core1.trace.gz
.gz
NUM_OF_IPS_IN_CRITICAL_IP_TRAINING: 64
NUM_OF_CRITICAL_IP_TRAINING_TABLE_WAYS: 2
NUM_OF_CRITICAL_IP_TRAINING_TABLE_SETS: 32
WOBBLY_CRITICAL_IP_CACHE_SETS: 32
WOBBLY_CRITICAL_IP_CACHE_WAYS: 4
BTB has LRU replacement policy
ITLB has LRU replacement policy
DTLB has LRU replacement policy
STLB has LRU replacement policy
L1I has LRU replacement policy
IP Table Entries: 64
L1D has LRU replacement policy
Initialize SRRIP state for L2C
Initialize DRRIP state for LLC
UNIQUE_ASID[0] = €
UNIQUE_ASID[1] = 
Heartbeat CPU 0 instructions: 10000002 cycles: 2807520 heartbeat IPC: 3.56186 cumulative IPC: 3.56186 (Simulation time: 0 hr 2 min 55 sec) 
Heartbeat CPU 0 instructions: 20000003 cycles: 5714487 heartbeat IPC: 3.44001 cumulative IPC: 3.49988 (Simulation time: 0 hr 5 min 17 sec) 
Heartbeat CPU 0 instructions: 30000002 cycles: 8711935 heartbeat IPC: 3.33617 cumulative IPC: 3.44355 (Simulation time: 0 hr 7 min 40 sec) 
Heartbeat CPU 0 instructions: 40000002 cycles: 11853770 heartbeat IPC: 3.18285 cumulative IPC: 3.37445 (Simulation time: 0 hr 10 min 11 sec) 
Heartbeat CPU 0 instructions: 50000000 cycles: 14842859 heartbeat IPC: 3.3455 cumulative IPC: 3.36862 (Simulation time: 0 hr 12 min 21 sec) 

Warmup complete CPU 0 instructions: 50000004 cycles: 14842860 (Simulation time: 0 hr 12 min 21 sec) 

% increase in all ip prefetch 379.95
% increase in all ip prefetch 15.3514
% increase in all ip prefetch 17.6293
% increase in all ip prefetch 58.5251
% increase in all ip prefetch -39.8544
Heartbeat CPU 0 instructions: 60000000 cycles: 35198203 heartbeat IPC: 0.491271 cumulative IPC: 0.491271 (Simulation time: 0 hr 15 min 24 sec) 
Heartbeat CPU 0 instructions: 70000000 cycles: 52134927 heartbeat IPC: 0.590433 cumulative IPC: 0.536307 (Simulation time: 0 hr 18 min 13 sec) 
Heartbeat CPU 0 instructions: 80000001 cycles: 70628095 heartbeat IPC: 0.54074 cumulative IPC: 0.537777 (Simulation time: 0 hr 20 min 31 sec) 
Heartbeat CPU 0 instructions: 90000002 cycles: 91033549 heartbeat IPC: 0.490065 cumulative IPC: 0.524998 (Simulation time: 0 hr 22 min 14 sec) 
Heartbeat CPU 0 instructions: 100000002 cycles: 109351572 heartbeat IPC: 0.54591 cumulative IPC: 0.529052 (Simulation time: 0 hr 23 min 28 sec) 
Finished CPU 0 instructions: 50000002 cycles: 94508713 cumulative IPC: 0.529052 (Simulation time: 0 hr 23 min 28 sec) 

ChampSim completed all CPUs

Region of Interest Statistics

CPU 0 cumulative IPC: 0.529052 instructions: 50000002 cycles: 94508713

CPU 0 Average Load ROB stall cycles: 1.79467e+07
CPU 0 Fraction of times ROB stalled by Loads: 29.6974
CPU 0 Percentage of Load stall cycles in Total stall cycles: 1.56824e+08
Issued all: 38885528
Issued LT all: 32997975
rob_not_full_when_issued_lt_all: 21208296
Issued LT one: 28251842
rob_not_full_when_issued_lt_one: 17068499
 Total stall cycles: 79613600
 Total load stall cycles: 124853287793657
CPU 0 NUM of IPS identified critical: 0
CPU 0 Num of Load IPs stalling ROB: 13040
Threshold modification factor: -4
Max PIST entries: 64
Min PIST entries: 0
Avg PIST entries: 31.71
Trouble in retire width: 0.885791
MaC = Marked as critical.
lt_50_percent_before_Mac: 0
gt_90_percent_before_Mac: 0
gt_75_percent_before_Mac: 0
gt_50_percent_before_Mac: 0
stall_proportion_bin_same_before_after: 0
stall_proportion_bin_lower_before_after: 0
stall_proportion_bin_upper_before_after: 0
average_stall_proportion_before: -nan
average_stall_proportion_after: -nan
Critical IP stalls, total frequency: 0
Non-critical IP stalls, total frequency: 2066019
Total Freq all stalling IPs: 2066019
stat_90_percent_critical_ip_stalls_freq: 1859486
stat_90_percent_non_critical_ip_stalls_freq: 206533
Critical_IP_ROB_Stalls_Bucket_0: 0
Non-critical_IP_ROB_Stalls_Bucket_0: 1144399
Critical_IP_ROB_Stalls_Bucket_1: 0
Non-critical_IP_ROB_Stalls_Bucket_1: 347592
Critical_IP_ROB_Stalls_Bucket_2: 0
Non-critical_IP_ROB_Stalls_Bucket_2: 167989
Critical_IP_ROB_Stalls_Bucket_3: 0
Non-critical_IP_ROB_Stalls_Bucket_3: 101685
Critical_IP_ROB_Stalls_Bucket_4: 0
Non-critical_IP_ROB_Stalls_Bucket_4: 77445
Critical_IP_ROB_Stalls_Bucket_5: 0
Non-critical_IP_ROB_Stalls_Bucket_5: 62636
Critical_IP_ROB_Stalls_Bucket_6: 0
Non-critical_IP_ROB_Stalls_Bucket_6: 164273
0 => IPs accounting for >50 percent of stalls, 1 => 55, 2 => 60, 3 => 65 and so on till 90.
percent50: 50.401 num IPs:  57
percent55: 55.2987 num IPs: 69
percent60: 60.2864 num IPs: 83
percent65: 65.255 num IPs: 101
percent70: 70.1217 num IPs: 123
percent75: 75.0611 num IPs: 157
percent80: 80.0324 num IPs: 218
percent85: 85.0094 num IPs: 324
percent90: 90.0033 num IPs: 540
Critical_ROB_Stalls_Percent_0_Bucket_0: 624837
Non-critical_ROB_Stalls_Percent_0_Bucket_0: 519562
Critical_ROB_Stalls_Percent_0_Bucket_1: 138043
Non-critical_ROB_Stalls_Percent_0_Bucket_1: 209549
Critical_ROB_Stalls_Percent_0_Bucket_2: 81386
Non-critical_ROB_Stalls_Percent_0_Bucket_2: 86603
Critical_ROB_Stalls_Percent_0_Bucket_3: 47708
Non-critical_ROB_Stalls_Percent_0_Bucket_3: 53977
Critical_ROB_Stalls_Percent_0_Bucket_4: 39231
Non-critical_ROB_Stalls_Percent_0_Bucket_4: 38214
Critical_ROB_Stalls_Percent_0_Bucket_5: 31918
Non-critical_ROB_Stalls_Percent_0_Bucket_5: 30718
Critical_ROB_Stalls_Percent_0_Bucket_6: 78172
Non-critical_ROB_Stalls_Percent_0_Bucket_6: 86101
Critical_ROB_Stalls_Percent_1_Bucket_0: 670319
Non-critical_ROB_Stalls_Percent_1_Bucket_0: 474080
Critical_ROB_Stalls_Percent_1_Bucket_1: 162397
Non-critical_ROB_Stalls_Percent_1_Bucket_1: 185195
Critical_ROB_Stalls_Percent_1_Bucket_2: 89266
Non-critical_ROB_Stalls_Percent_1_Bucket_2: 78723
Critical_ROB_Stalls_Percent_1_Bucket_3: 53774
Non-critical_ROB_Stalls_Percent_1_Bucket_3: 47911
Critical_ROB_Stalls_Percent_1_Bucket_4: 44526
Non-critical_ROB_Stalls_Percent_1_Bucket_4: 32919
Critical_ROB_Stalls_Percent_1_Bucket_5: 36130
Non-critical_ROB_Stalls_Percent_1_Bucket_5: 26506
Critical_ROB_Stalls_Percent_1_Bucket_6: 86070
Non-critical_ROB_Stalls_Percent_1_Bucket_6: 78203
Critical_ROB_Stalls_Percent_2_Bucket_0: 711632
Non-critical_ROB_Stalls_Percent_2_Bucket_0: 432767
Critical_ROB_Stalls_Percent_2_Bucket_1: 192346
Non-critical_ROB_Stalls_Percent_2_Bucket_1: 155246
Critical_ROB_Stalls_Percent_2_Bucket_2: 96092
Non-critical_ROB_Stalls_Percent_2_Bucket_2: 71897
Critical_ROB_Stalls_Percent_2_Bucket_3: 57964
Non-critical_ROB_Stalls_Percent_2_Bucket_3: 43721
Critical_ROB_Stalls_Percent_2_Bucket_4: 49153
Non-critical_ROB_Stalls_Percent_2_Bucket_4: 28292
Critical_ROB_Stalls_Percent_2_Bucket_5: 39661
Non-critical_ROB_Stalls_Percent_2_Bucket_5: 22975
Critical_ROB_Stalls_Percent_2_Bucket_6: 98680
Non-critical_ROB_Stalls_Percent_2_Bucket_6: 65593
Critical_ROB_Stalls_Percent_3_Bucket_0: 778463
Non-critical_ROB_Stalls_Percent_3_Bucket_0: 365936
Critical_ROB_Stalls_Percent_3_Bucket_1: 204419
Non-critical_ROB_Stalls_Percent_3_Bucket_1: 143173
Critical_ROB_Stalls_Percent_3_Bucket_2: 103443
Non-critical_ROB_Stalls_Percent_3_Bucket_2: 64546
Critical_ROB_Stalls_Percent_3_Bucket_3: 62832
Non-critical_ROB_Stalls_Percent_3_Bucket_3: 38853
Critical_ROB_Stalls_Percent_3_Bucket_4: 52189
Non-critical_ROB_Stalls_Percent_3_Bucket_4: 25256
Critical_ROB_Stalls_Percent_3_Bucket_5: 41719
Non-critical_ROB_Stalls_Percent_3_Bucket_5: 20917
Critical_ROB_Stalls_Percent_3_Bucket_6: 105116
Non-critical_ROB_Stalls_Percent_3_Bucket_6: 59157
Critical_ROB_Stalls_Percent_4_Bucket_0: 834501
Non-critical_ROB_Stalls_Percent_4_Bucket_0: 309898
Critical_ROB_Stalls_Percent_4_Bucket_1: 219430
Non-critical_ROB_Stalls_Percent_4_Bucket_1: 128162
Critical_ROB_Stalls_Percent_4_Bucket_2: 114906
Non-critical_ROB_Stalls_Percent_4_Bucket_2: 53083
Critical_ROB_Stalls_Percent_4_Bucket_3: 69260
Non-critical_ROB_Stalls_Percent_4_Bucket_3: 32425
Critical_ROB_Stalls_Percent_4_Bucket_4: 56740
Non-critical_ROB_Stalls_Percent_4_Bucket_4: 20705
Critical_ROB_Stalls_Percent_4_Bucket_5: 44596
Non-critical_ROB_Stalls_Percent_4_Bucket_5: 18040
Critical_ROB_Stalls_Percent_4_Bucket_6: 109294
Non-critical_ROB_Stalls_Percent_4_Bucket_6: 54979
Critical_ROB_Stalls_Percent_5_Bucket_0: 874391
Non-critical_ROB_Stalls_Percent_5_Bucket_0: 270008
Critical_ROB_Stalls_Percent_5_Bucket_1: 246211
Non-critical_ROB_Stalls_Percent_5_Bucket_1: 101381
Critical_ROB_Stalls_Percent_5_Bucket_2: 123722
Non-critical_ROB_Stalls_Percent_5_Bucket_2: 44267
Critical_ROB_Stalls_Percent_5_Bucket_3: 73882
Non-critical_ROB_Stalls_Percent_5_Bucket_3: 27803
Critical_ROB_Stalls_Percent_5_Bucket_4: 60181
Non-critical_ROB_Stalls_Percent_5_Bucket_4: 17264
Critical_ROB_Stalls_Percent_5_Bucket_5: 47443
Non-critical_ROB_Stalls_Percent_5_Bucket_5: 15193
Critical_ROB_Stalls_Percent_5_Bucket_6: 124946
Non-critical_ROB_Stalls_Percent_5_Bucket_6: 39327
Critical_ROB_Stalls_Percent_6_Bucket_0: 912309
Non-critical_ROB_Stalls_Percent_6_Bucket_0: 232090
Critical_ROB_Stalls_Percent_6_Bucket_1: 271600
Non-critical_ROB_Stalls_Percent_6_Bucket_1: 75992
Critical_ROB_Stalls_Percent_6_Bucket_2: 133548
Non-critical_ROB_Stalls_Percent_6_Bucket_2: 34441
Critical_ROB_Stalls_Percent_6_Bucket_3: 83082
Non-critical_ROB_Stalls_Percent_6_Bucket_3: 18603
Critical_ROB_Stalls_Percent_6_Bucket_4: 64868
Non-critical_ROB_Stalls_Percent_6_Bucket_4: 12577
Critical_ROB_Stalls_Percent_6_Bucket_5: 50519
Non-critical_ROB_Stalls_Percent_6_Bucket_5: 12117
Critical_ROB_Stalls_Percent_6_Bucket_6: 137558
Non-critical_ROB_Stalls_Percent_6_Bucket_6: 26715
Critical_ROB_Stalls_Percent_7_Bucket_0: 959784
Non-critical_ROB_Stalls_Percent_7_Bucket_0: 184615
Critical_ROB_Stalls_Percent_7_Bucket_1: 292082
Non-critical_ROB_Stalls_Percent_7_Bucket_1: 55510
Critical_ROB_Stalls_Percent_7_Bucket_2: 144082
Non-critical_ROB_Stalls_Percent_7_Bucket_2: 23907
Critical_ROB_Stalls_Percent_7_Bucket_3: 88488
Non-critical_ROB_Stalls_Percent_7_Bucket_3: 13197
Critical_ROB_Stalls_Percent_7_Bucket_4: 69009
Non-critical_ROB_Stalls_Percent_7_Bucket_4: 8436
Critical_ROB_Stalls_Percent_7_Bucket_5: 55883
Non-critical_ROB_Stalls_Percent_7_Bucket_5: 6753
Critical_ROB_Stalls_Percent_7_Bucket_6: 146983
Non-critical_ROB_Stalls_Percent_7_Bucket_6: 17290
Critical_ROB_Stalls_Percent_8_Bucket_0: 1014560
Non-critical_ROB_Stalls_Percent_8_Bucket_0: 129839
Critical_ROB_Stalls_Percent_8_Bucket_1: 314902
Non-critical_ROB_Stalls_Percent_8_Bucket_1: 32690
Critical_ROB_Stalls_Percent_8_Bucket_2: 153500
Non-critical_ROB_Stalls_Percent_8_Bucket_2: 14489
Critical_ROB_Stalls_Percent_8_Bucket_3: 93213
Non-critical_ROB_Stalls_Percent_8_Bucket_3: 8472
Critical_ROB_Stalls_Percent_8_Bucket_4: 71897
Non-critical_ROB_Stalls_Percent_8_Bucket_4: 5548
Critical_ROB_Stalls_Percent_8_Bucket_5: 58358
Non-critical_ROB_Stalls_Percent_8_Bucket_5: 4278
Critical_ROB_Stalls_Percent_8_Bucket_6: 153056
Non-critical_ROB_Stalls_Percent_8_Bucket_6: 11217
Average ROB occupancy Load Stall Begin: 72.5962
Average ROB occupancy Load Stall End: 87.0853
Min ROB occupancy Load Stall Begin: 1
Max ROB occupancy Load Stall Begin: 352
Min ROB occupancy Load Stall End: 1
Max ROB occupancy Load Stall End: 352
Average ROB occupancy Critical Load Stall Begin: -nan
Average ROB occupancy Critical Load Stall End: -nan
Min ROB occupancy Critical Load Stall Begin: 400
Max ROB occupancy Critical Load Stall Begin: 0
Min ROB occupancy Critical Load Stall End: 400
Max ROB occupancy Critical Load Stall End: 0
 ROB Load Stall Begin Bucket Count 0: 1309263
 ROB Load Stall End Bucket Count 0: 1144399
 ROB Critical Load Stall Begin Bucket Count 0: 0
 ROB Critical Load Stall End Bucket Count 0: 0
 ROB Load Stall Begin Bucket Count 1: 285201
 ROB Load Stall End Bucket Count 1: 347592
 ROB Critical Load Stall Begin Bucket Count 1: 0
 ROB Critical Load Stall End Bucket Count 1: 0
 ROB Load Stall Begin Bucket Count 2: 136989
 ROB Load Stall End Bucket Count 2: 167989
 ROB Critical Load Stall Begin Bucket Count 2: 0
 ROB Critical Load Stall End Bucket Count 2: 0
 ROB Load Stall Begin Bucket Count 3: 84712
 ROB Load Stall End Bucket Count 3: 101685
 ROB Critical Load Stall Begin Bucket Count 3: 0
 ROB Critical Load Stall End Bucket Count 3: 0
 ROB Load Stall Begin Bucket Count 4: 62764
 ROB Load Stall End Bucket Count 4: 77445
 ROB Critical Load Stall Begin Bucket Count 4: 0
 ROB Critical Load Stall End Bucket Count 4: 0
 ROB Load Stall Begin Bucket Count 5: 55765
 ROB Load Stall End Bucket Count 5: 62636
 ROB Critical Load Stall Begin Bucket Count 5: 0
 ROB Critical Load Stall End Bucket Count 5: 0
 ROB Load Stall Begin Bucket Count 6: 131325
 ROB Load Stall End Bucket Count 6: 164273
 ROB Critical Load Stall Begin Bucket Count 6: 0
 ROB Critical Load Stall End Bucket Count 6: 0
PIST Tag Read Accesses: 1605516
PIST Read Accesses: 802758
PIST Tag Write Accesses: 1605516
PIST Write Accesses: 802758
Criticality detector called times: 955257
Max global_stall_cycles_count: 4835850
Threshold Modified: 4 times, factor: -4
Sturdy critical IP cache stats: 
 Unused entries: 0
CIC Tag Read Accesses: 0
CIC Read Accesses: 0
CIC Tag Write Accesses: 0
CIC Write Accesses: 0
Wobbly critical IP cache stats: 
 Unused entries: 5
CIC Tag Read Accesses: 50134034
CIC Read Accesses: 0
CIC Tag Write Accesses: 757660
CIC Write Accesses: 0
ITLB TOTAL     ACCESS:    8174309  HIT:    7641438  MISS:     532871  HIT %:    93.4811  MISS %:    6.51885   MPKI: 10.6574
ITLB LOAD TRANSLATION ACCESS:    8174309  HIT:    7641438  MISS:     532871  HIT %:    93.4811  MISS %:    6.51885   MPKI: 10.6574
ITLB PREFETCH  REQUESTED:          0  ISSUED:          0  USEFUL:          0  USELESS:          0
ITLB USEFUL LOAD PREFETCHES:          0 PREFETCH ISSUED TO LOWER LEVEL:          0  ACCURACY: -nan
ITLB TIMELY PREFETCHES:          0 LATE PREFETCHES: 0 DROPPED PREFETCHES: 0
ITLB PREFETCHES SAME FILL-ORIGIN LEVEL: 0 DIFFERENT FILL-ORIGIN LEVEL: 0
ITLB AVERAGE MISS LATENCY: 36.4676 cycles
ITLB RQ	ACCESS:   10211946	FORWARD:          0	MERGED:    1725611	TO_CACHE:    8486335

DTLB TOTAL     ACCESS:    5302267  HIT:    3321512  MISS:    1980755  HIT %:    62.6432  MISS %:    37.3568   MPKI: 39.6151
DTLB LOAD TRANSLATION ACCESS:    5302267  HIT:    3321512  MISS:    1980755  HIT %:    62.6432  MISS %:    37.3568   MPKI: 39.6151
DTLB PREFETCH  REQUESTED:          0  ISSUED:          0  USEFUL:          0  USELESS:          0
DTLB USEFUL LOAD PREFETCHES:          0 PREFETCH ISSUED TO LOWER LEVEL:          0  ACCURACY: -nan
DTLB TIMELY PREFETCHES:          0 LATE PREFETCHES: 0 DROPPED PREFETCHES: 0
DTLB PREFETCHES SAME FILL-ORIGIN LEVEL: 0 DIFFERENT FILL-ORIGIN LEVEL: 0
DTLB AVERAGE MISS LATENCY: 28.8837 cycles
DTLB RQ	ACCESS:    6489207	FORWARD:          0	MERGED:     983980	TO_CACHE:    5505227

STLB TOTAL     ACCESS:    2798329  HIT:    1140117  MISS:    1658212  HIT %:    40.7428  MISS %:    59.2572   MPKI: 33.1642
STLB LOAD TRANSLATION ACCESS:    2513626  HIT:     939758  MISS:    1573868  HIT %:    37.3865  MISS %:    62.6135   MPKI: 31.4774
STLB TRANSLATION FROM L1D PREFETCHER ACCESS:     284703  HIT:     200359  MISS:      84344  HIT %:    70.3747  MISS %:    29.6253   MPKI: 1.68688
STLB PREFETCH  REQUESTED:          0  ISSUED:          0  USEFUL:      25883  USELESS:      58460
STLB USEFUL LOAD PREFETCHES:      25883 PREFETCH ISSUED TO LOWER LEVEL:          0  ACCURACY: inf
STLB TIMELY PREFETCHES:      25883 LATE PREFETCHES: 0 DROPPED PREFETCHES: 0
STLB PREFETCHES SAME FILL-ORIGIN LEVEL: 0 DIFFERENT FILL-ORIGIN LEVEL: 0
STLB AVERAGE MISS LATENCY: 34.108 cycles
STLB RQ	ACCESS:    2909910	FORWARD:          0	MERGED:     110346	TO_CACHE:    2799564

STLB Hit, L1D data hit: 0
STLB Hit, L2C data hit: 0
STLB Hit, LLC data hit: 0
STLB Hit, LLC data miss: 0
STLB STLB hints to L2: 0
L1D TOTAL     ACCESS:    6600002  HIT:    5946516  MISS:     653486  HIT %:    90.0987  MISS %:     9.9013   MPKI: 13.0697
L1D LOAD      ACCESS:    4358413  HIT:    3952187  MISS:     406226  HIT %:    90.6795  MISS %:     9.3205   MPKI: 8.12452
L1D RFO       ACCESS:    1934149  HIT:    1878430  MISS:      55719  HIT %:    97.1192  MISS %:     2.8808   MPKI: 1.11438
L1D PREFETCH  ACCESS:     307440  HIT:     115899  MISS:     191541  HIT %:    37.6981  MISS %:    62.3019   MPKI: 3.83082
L1D PREFETCH  REQUESTED:     808729  ISSUED:     792647  USEFUL:      91037  USELESS:     100475
L1D USEFUL LOAD PREFETCHES:      91037 PREFETCH ISSUED TO LOWER LEVEL:     223496  ACCURACY: 40.7332
L1D TIMELY PREFETCHES:      91037 LATE PREFETCHES: 31177 DROPPED PREFETCHES: 0
L1D PREFETCHES SAME FILL-ORIGIN LEVEL: 223496 DIFFERENT FILL-ORIGIN LEVEL: 0
L1D AVERAGE MISS LATENCY: 2.2435e+06 cycles
L1D RQ	ACCESS:    7174362	FORWARD:          0	MERGED:    2721863	TO_CACHE:    4396098
L1D WQ	ACCESS:    2254786	FORWARD:      56480	MERGED:     161677	TO_CACHE:    2093109
L1D PQ	ACCESS:     396363	FORWARD:          0	MERGED:          0	TO_CACHE:     396284

L1D UNIQUE REGIONS ACCESSED: 0
L1D REGIONS CONFLICTS: 0
L1D Cross Page Prefetch Requests: 0
L1D Same Page Prefetch Requests: 657637
L1D ROI Sum of L1D PQ occupancy: 18987116
L1D PREFETCHES PUSHED FROM L2C: 0
L1I TOTAL     ACCESS:   10172306  HIT:   10058870  MISS:     113436  HIT %:    98.8849  MISS %:    1.11515   MPKI: 2.26872
L1I LOAD      ACCESS:   10172306  HIT:   10058870  MISS:     113436  HIT %:    98.8849  MISS %:    1.11515   MPKI: 2.26872
L1I PREFETCH  REQUESTED:          0  ISSUED:          0  USEFUL:          0  USELESS:          0
L1I USEFUL LOAD PREFETCHES:          0 PREFETCH ISSUED TO LOWER LEVEL:          0  ACCURACY: -nan
L1I TIMELY PREFETCHES:          0 LATE PREFETCHES: 0 DROPPED PREFETCHES: 0
L1I PREFETCHES SAME FILL-ORIGIN LEVEL: 0 DIFFERENT FILL-ORIGIN LEVEL: 0
L1I AVERAGE MISS LATENCY: 57.4319 cycles
L1I RQ	ACCESS:   17078365	FORWARD:          0	MERGED:    6866419	TO_CACHE:   10211946

BTB BRANCH_DIRECT_JUMP	ACCESS:          0  HIT:          0  MISS:          0
BTB BRANCH_INDIRECT	ACCESS:          0  HIT:          0  MISS:          0
BTB BRANCH_CONDITIONAL	ACCESS:          0  HIT:          0  MISS:          0
BTB BRANCH_DIRECT_CALL	ACCESS:          0  HIT:          0  MISS:          0
BTB BRANCH_INDIRECT_CALL	ACCESS:          0  HIT:          0  MISS:          0
BTB BRANCH_RETURN	ACCESS:          0  HIT:          0  MISS:          0
BTB BRANCH_OTHER ACCESS:          0  HIT:          0  MISS:          0

L2C TOTAL     ACCESS:    2855239  HIT:    2169920  MISS:     685319  HIT %:    75.9978  MISS %:    24.0022   MPKI: 13.7064
L2C LOAD      ACCESS:     488478  HIT:     117344  MISS:     371134  HIT %:    24.0224  MISS %:    75.9776   MPKI: 7.42268
L2C DATA LOAD MPKI: 6.35472
L2C INSTRUCTION LOAD MPKI: 1.06796
L2C RFO       ACCESS:      54941  HIT:      15844  MISS:      39097  HIT %:    28.8382  MISS %:    71.1618   MPKI: 0.78194
L2C PREFETCH  ACCESS:     391229  HIT:     167674  MISS:     223555  HIT %:    42.8583  MISS %:    57.1417   MPKI: 4.4711
L2C DATA PREFETCH MPKI: 4.4711
L2C INSTRUCTION PREFETCH MPKI: 0
L2C WRITEBACK ACCESS:     177529  HIT:     172146  MISS:       5383  HIT %:    96.9678  MISS %:    3.03218   MPKI: 0.10766
L2C LOAD TRANSLATION ACCESS:    1657254  HIT:    1611265  MISS:      45989  HIT %:     97.225  MISS %:    2.77501   MPKI: 0.91978
L2C TRANSLATION FROM L1D PREFETCHER ACCESS:      85808  HIT:      85647  MISS:        161  HIT %:    99.8124  MISS %:   0.187628   MPKI: 0.00322
L2C PREFETCH  REQUESTED:     251586  ISSUED:     251528  USEFUL:      20444  USELESS:     203011
L2C USEFUL LOAD PREFETCHES:      20444 PREFETCH ISSUED TO LOWER LEVEL:     228900  ACCURACY: 8.93141
L2C TIMELY PREFETCHES:      20444 LATE PREFETCHES: 5345 DROPPED PREFETCHES: 0
L2C PREFETCHES SAME FILL-ORIGIN LEVEL: 91933 DIFFERENT FILL-ORIGIN LEVEL: 0
L2C AVERAGE MISS LATENCY: 169.401 cycles
L2C RQ	ACCESS:    2286489	FORWARD:          0	MERGED:          0	TO_CACHE:    2286483
L2C WQ	ACCESS:     177529	FORWARD:          6	MERGED:          0	TO_CACHE:     177529
L2C PQ	ACCESS:     475023	FORWARD:          0	MERGED:      32316	TO_CACHE:     442707

L2C Instructions Evicting Data 40161
L2C Translations Evicting Data 36652
L2C Data Evicting Data 505754
L2C Instructions Evicting Instructions 7677
L2C Translations Evicting Instructions 4840
L2C Data Evicting Instructions 38931
L2C Instructions Evicting Translations 5560
L2C Translations Evicting Translations 4658
L2C Data Evicting Translations 35703
L2C Dense regions hint from L2: 0
PSCL5 TOTAL     ACCESS:    1658212  HIT:    1658212  MISS:          0  HIT %:        100  MISS %:          0   MPKI: 0
PSCL5 LOAD TRANSLATION ACCESS:    1573868  HIT:    1573868  MISS:          0  HIT %:        100  MISS %:          0   MPKI: 0
PSCL5 TRANSLATION FROM L1D PREFETCHER ACCESS:      84344  HIT:      84344  MISS:          0  HIT %:        100  MISS %:          0   MPKI: 0
PSCL5 PREFETCH  REQUESTED:          0  ISSUED:          0  USEFUL:          0  USELESS:          0
PSCL5 USEFUL LOAD PREFETCHES:          0 PREFETCH ISSUED TO LOWER LEVEL:          0  ACCURACY: -nan
PSCL5 TIMELY PREFETCHES:          0 LATE PREFETCHES: 0 DROPPED PREFETCHES: 0
PSCL5 PREFETCHES SAME FILL-ORIGIN LEVEL: 0 DIFFERENT FILL-ORIGIN LEVEL: 0

PSCL4 TOTAL     ACCESS:    1636057  HIT:    1635948  MISS:        109  HIT %:    99.9933  MISS %: 0.00666236   MPKI: 0.00218
PSCL4 LOAD TRANSLATION ACCESS:    1560112  HIT:    1560003  MISS:        109  HIT %:     99.993  MISS %: 0.00698668   MPKI: 0.00218
PSCL4 TRANSLATION FROM L1D PREFETCHER ACCESS:      75945  HIT:      75945  MISS:          0  HIT %:        100  MISS %:          0   MPKI: 0
PSCL4 PREFETCH  REQUESTED:          0  ISSUED:          0  USEFUL:          0  USELESS:          0
PSCL4 USEFUL LOAD PREFETCHES:          0 PREFETCH ISSUED TO LOWER LEVEL:          0  ACCURACY: -nan
PSCL4 TIMELY PREFETCHES:          0 LATE PREFETCHES: 0 DROPPED PREFETCHES: 0
PSCL4 PREFETCHES SAME FILL-ORIGIN LEVEL: 0 DIFFERENT FILL-ORIGIN LEVEL: 0

PSCL3 TOTAL     ACCESS:    1653508  HIT:    1652126  MISS:       1382  HIT %:    99.9164  MISS %:  0.0835799   MPKI: 0.02764
PSCL3 LOAD TRANSLATION ACCESS:    1569618  HIT:    1568236  MISS:       1382  HIT %:     99.912  MISS %:  0.0880469   MPKI: 0.02764
PSCL3 TRANSLATION FROM L1D PREFETCHER ACCESS:      83890  HIT:      83890  MISS:          0  HIT %:        100  MISS %:          0   MPKI: 0
PSCL3 PREFETCH  REQUESTED:          0  ISSUED:          0  USEFUL:          0  USELESS:          0
PSCL3 USEFUL LOAD PREFETCHES:          0 PREFETCH ISSUED TO LOWER LEVEL:          0  ACCURACY: -nan
PSCL3 TIMELY PREFETCHES:          0 LATE PREFETCHES: 0 DROPPED PREFETCHES: 0
PSCL3 PREFETCHES SAME FILL-ORIGIN LEVEL: 0 DIFFERENT FILL-ORIGIN LEVEL: 0

PSCL2 TOTAL     ACCESS:    1658212  HIT:    1574496  MISS:      83716  HIT %:    94.9514  MISS %:    5.04857   MPKI: 1.67432
PSCL2 LOAD TRANSLATION ACCESS:    1575307  HIT:    1491591  MISS:      83716  HIT %:    94.6857  MISS %:    5.31427   MPKI: 1.67432
PSCL2 TRANSLATION FROM L1D PREFETCHER ACCESS:      82905  HIT:      82905  MISS:          0  HIT %:        100  MISS %:          0   MPKI: 0
PSCL2 PREFETCH  REQUESTED:          0  ISSUED:          0  USEFUL:          0  USELESS:          0
PSCL2 USEFUL LOAD PREFETCHES:          0 PREFETCH ISSUED TO LOWER LEVEL:          0  ACCURACY: -nan
PSCL2 TIMELY PREFETCHES:          0 LATE PREFETCHES: 0 DROPPED PREFETCHES: 0
PSCL2 PREFETCHES SAME FILL-ORIGIN LEVEL: 0 DIFFERENT FILL-ORIGIN LEVEL: 0

LLC TOTAL     ACCESS:     832736  HIT:     258805  MISS:     573931  HIT %:    31.0789  MISS %:    68.9211   MPKI: 11.4786
LLC LOAD      ACCESS:     365814  HIT:      69599  MISS:     296215  HIT %:    19.0258  MISS %:    80.9742   MPKI: 5.9243
LLC RFO       ACCESS:      39072  HIT:       7121  MISS:      31951  HIT %:    18.2253  MISS %:    81.7747   MPKI: 0.63902
LLC PREFETCH  ACCESS:     228900  HIT:      19134  MISS:     209766  HIT %:    8.35911  MISS %:    91.6409   MPKI: 4.19532
LLC WRITEBACK ACCESS:     152800  HIT:     147893  MISS:       4907  HIT %:    96.7886  MISS %:    3.21139   MPKI: 0.09814
LLC LOAD TRANSLATION ACCESS:      45989  HIT:      15041  MISS:      30948  HIT %:    32.7056  MISS %:    67.2944   MPKI: 0.61896
LLC TRANSLATION FROM L1D PREFETCHER ACCESS:        161  HIT:         17  MISS:        144  HIT %:     10.559  MISS %:     89.441   MPKI: 0.00288
LLC PREFETCH  REQUESTED:          0  ISSUED:          0  USEFUL:       4497  USELESS:     205467
LLC USEFUL LOAD PREFETCHES:       4497 PREFETCH ISSUED TO LOWER LEVEL:     209766  ACCURACY: 2.14382
LLC TIMELY PREFETCHES:       4497 LATE PREFETCHES: 0 DROPPED PREFETCHES: 0
LLC PREFETCHES SAME FILL-ORIGIN LEVEL: 0 DIFFERENT FILL-ORIGIN LEVEL: 0
LLC AVERAGE MISS LATENCY: 166.229 cycles
LLC RQ	ACCESS:     451036	FORWARD:          0	MERGED:          0	TO_CACHE:     451036
LLC WQ	ACCESS:     152800	FORWARD:          0	MERGED:          0	TO_CACHE:     152800
LLC PQ	ACCESS:     228900	FORWARD:          0	MERGED:          0	TO_CACHE:     228900

LLC Dense regions hint to LLC: 0

RAW hits: 491503
Loads Generated: 7665865
Loads sent to L1D: 7174362
Stores Generated: 2254780
Stores sent to L1D: 2254786
Major fault: 0 Minor fault: 52221
Allocated PAGES: 52221

stream: 
stream:times selected: 1084384
stream:pref_filled: 155110
stream:pref_useful: 31371
stream:pref_late: 10348
stream:misses: 33296
stream:misses_by_poll: 0

CS: 
CS:times selected: 283048
CS:pref_filled: 142946
CS:pref_useful: 133380
CS:pref_late: 7693
CS:misses: 17843
CS:misses_by_poll: 415

CPLX: 
CPLX:times selected: 787322
CPLX:pref_filled: 37180
CPLX:pref_useful: 9667
CPLX:pref_late: 12012
CPLX:misses: 158719
CPLX:misses_by_poll: 46

NL_L1: 
NL:times selected: 2709
NL:pref_filled: 1169
NL:pref_useful: 310
NL:pref_late: 64
NL:misses: 919
NL:misses_by_poll: 0

total selections: 2157463
total_filled: 191541
total_useful: 91037
total_late: 32496
total_polluted: 461
total_misses_after_warmup: 328590
conflicts: 308534
Degree Incremented Times: 14757
Degree Decremented Times: 60530

L1 IP Table Write Accesses: 1642140
L1 IP Table Read Accesses: 1333606
L1 RST Write Accesses: 559707
L1 RST Read Accesses: 1119414
L1 CSPT Write Accesses: 559707
L1 CSPT Read Accesses: 990671
L1 RR Filter Tag Write Accesses: 412445
L1 RR Filter Tag Read Accesses: 28135668
L1 IP Table Tag Write Accesses: 2135017
L1 IP Table Tag Read Accesses: 2135017
L1 RST Tag Write Accesses: 0
L1 RST Tag Read Accesses: 5271740
L1 RR Filter Write Accesses: 0
L1 RR Filter Read Accesses: 1018146
test: 329159
L2 IP Table Read Accesses: 899786
L2 IP Table Write Accesses: 712220
L2 IP Table Tag Read Accesses: 482782
L2 IP Table Tag Write Accesses: 482782

DRAM Statistics
 CHANNEL 0
 RQ ROW_BUFFER_HIT:     200149  ROW_BUFFER_MISS:     368869
 DBUS_CONGESTED:        371
 WQ ROW_BUFFER_HIT:      33982  ROW_BUFFER_MISS:     106471  FULL:          0

 AVG_CONGESTED_CYCLE: 4
 All warmup complete: 2
Channel 0 Bank busy for read cycles: 0
Channel 0 Bank busy for write cycles: 0
Channel 0
Rank 0
0banks busy for read cycles: 45952608
0banks busy for write cycles: 42633
1banks busy for read cycles: 21166102
1banks busy for write cycles: 6817380
2banks busy for read cycles: 7460704
2banks busy for write cycles: 2335601
3banks busy for read cycles: 3040164
3banks busy for write cycles: 1052796
4banks busy for read cycles: 1544126
4banks busy for write cycles: 528052
5banks busy for read cycles: 809645
5banks busy for write cycles: 311301
6banks busy for read cycles: 521223
6banks busy for write cycles: 223664
7banks busy for read cycles: 374615
7banks busy for write cycles: 317125
8banks busy for read cycles: 553170
8banks busy for write cycles: 1457805

CPU 0 Branch Prediction Accuracy: 98.7824% MPKI: 1.98668 Average ROB Occupancy at Mispredict: 49.9917
Branch types
NOT_BRANCH: 0 0%
BRANCH_DIRECT_JUMP: 0 0%
BRANCH_INDIRECT: 0 0%
BRANCH_CONDITIONAL: 0 0%
BRANCH_DIRECT_CALL: 0 0%
BRANCH_INDIRECT_CALL: 0 0%
BRANCH_RETURN: 0 0%
BRANCH_OTHER: 0 0%

DRAM PAGES: 1048576
Allocated PAGES: 52221
