
*** ChampSim Multicore Out-of-Order Simulator ***

Warmup Instructions: 50000000
Simulation Instructions: 50000000
Number of CPUs: 1
LLC sets: 2048
LLC ways: 16
Off-chip DRAM Size: 4096 MB Channels: 1 Width: 64-bit Data Rate: 6400 MT/s
CPU 0 runs ../cloudsuite_traces//cassandra_phase4_core1.trace.gz
.gz
NUM_OF_IPS_IN_CRITICAL_IP_TRAINING: 64
NUM_OF_CRITICAL_IP_TRAINING_TABLE_WAYS: 2
NUM_OF_CRITICAL_IP_TRAINING_TABLE_SETS: 32
WOBBLY_CRITICAL_IP_CACHE_SETS: 32
WOBBLY_CRITICAL_IP_CACHE_WAYS: 4
BTB has LRU replacement policy
ITLB has LRU replacement policy
DTLB has LRU replacement policy
STLB has LRU replacement policy
L1I has LRU replacement policy
IP Table Entries: 64
L1D has LRU replacement policy
Initialize SRRIP state for L2C
Initialize DRRIP state for LLC
UNIQUE_ASID[0] = €
UNIQUE_ASID[1] = 
Heartbeat CPU 0 instructions: 10000002 cycles: 2807996 heartbeat IPC: 3.56126 cumulative IPC: 3.56126 (Simulation time: 0 hr 6 min 24 sec) 
Heartbeat CPU 0 instructions: 20000003 cycles: 5712795 heartbeat IPC: 3.44258 cumulative IPC: 3.50091 (Simulation time: 0 hr 12 min 32 sec) 
Heartbeat CPU 0 instructions: 30000002 cycles: 8709711 heartbeat IPC: 3.33676 cumulative IPC: 3.44443 (Simulation time: 0 hr 17 min 32 sec) 
Heartbeat CPU 0 instructions: 40000002 cycles: 11846985 heartbeat IPC: 3.18748 cumulative IPC: 3.37639 (Simulation time: 0 hr 22 min 33 sec) 
Heartbeat CPU 0 instructions: 50000000 cycles: 14833051 heartbeat IPC: 3.34889 cumulative IPC: 3.37085 (Simulation time: 0 hr 26 min 49 sec) 

Warmup complete CPU 0 instructions: 50000004 cycles: 14833052 (Simulation time: 0 hr 26 min 49 sec) 

% increase in all ip prefetch 381.346
% increase in all ip prefetch 16.2858
% increase in all ip prefetch 15.1956
% increase in all ip prefetch 56.9689
% increase in all ip prefetch -41.4304
Heartbeat CPU 0 instructions: 60000002 cycles: 35349599 heartbeat IPC: 0.487412 cumulative IPC: 0.487411 (Simulation time: 0 hr 32 min 0 sec) 
Heartbeat CPU 0 instructions: 70000000 cycles: 52415355 heartbeat IPC: 0.585969 cumulative IPC: 0.532165 (Simulation time: 0 hr 37 min 38 sec) 
Heartbeat CPU 0 instructions: 80000001 cycles: 71017466 heartbeat IPC: 0.537573 cumulative IPC: 0.533956 (Simulation time: 0 hr 43 min 0 sec) 
Heartbeat CPU 0 instructions: 90000002 cycles: 92000325 heartbeat IPC: 0.47658 cumulative IPC: 0.518354 (Simulation time: 0 hr 50 min 3 sec) 
Heartbeat CPU 0 instructions: 100000002 cycles: 110892819 heartbeat IPC: 0.529311 cumulative IPC: 0.520509 (Simulation time: 0 hr 57 min 35 sec) 
Finished CPU 0 instructions: 50000002 cycles: 96059768 cumulative IPC: 0.520509 (Simulation time: 0 hr 57 min 35 sec) 

ChampSim completed all CPUs

Region of Interest Statistics

CPU 0 cumulative IPC: 0.520509 instructions: 50000002 cycles: 96059768

CPU 0 Average Load ROB stall cycles: 5.51042e+06
CPU 0 Fraction of times ROB stalled by Loads: 9.02345
CPU 0 Percentage of Load stall cycles in Total stall cycles: 5.42912e+07
 Total stall cycles: 57234513
 Total load stall cycles: 31073283989837
CPU 0 NUM of IPS identified critical: 121
CPU 0 Num of Load IPs stalling ROB: 3984
Threshold modification factor: -4
Max PIST entries: 64
Min PIST entries: 0
Avg PIST entries: 29.91
Trouble in retire width: 0.761654
MaC = Marked as critical.
lt_50_percent_before_Mac: 90
gt_90_percent_before_Mac: 1
gt_75_percent_before_Mac: 5
gt_50_percent_before_Mac: 24
stall_proportion_bin_same_before_after: 0
stall_proportion_bin_lower_before_after: 0
stall_proportion_bin_upper_before_after: 0
average_stall_proportion_before: 0.132885
average_stall_proportion_after: 0.124734
Critical IP stalls, total frequency: 385061
Non-critical IP stalls, total frequency: 117613
Critical_IP_ROB_Stalls_Bucket_0: 277118
Non-critical_IP_ROB_Stalls_Bucket_0: 80208
Critical_IP_ROB_Stalls_Bucket_1: 19002
Non-critical_IP_ROB_Stalls_Bucket_1: 13161
Critical_IP_ROB_Stalls_Bucket_2: 13057
Non-critical_IP_ROB_Stalls_Bucket_2: 8417
Critical_IP_ROB_Stalls_Bucket_3: 13051
Non-critical_IP_ROB_Stalls_Bucket_3: 6832
Critical_IP_ROB_Stalls_Bucket_4: 17385
Non-critical_IP_ROB_Stalls_Bucket_4: 3740
Critical_IP_ROB_Stalls_Bucket_5: 12199
Non-critical_IP_ROB_Stalls_Bucket_5: 7884
Critical_IP_ROB_Stalls_Bucket_6: 33249
Non-critical_IP_ROB_Stalls_Bucket_6: 3530
0 => IPs accounting for >50 percent of stalls, 1 => 55, 2 => 60, 3 => 65 and so on till 90.
percent50: 50.8765 num IPs:6
percent55: 55.9028 num IPs:10
percent60: 60.3095 num IPs:14
percent65: 65.1502 num IPs:20
percent70: 70.2161 num IPs:30
percent75: 75.0871 num IPs:47
percent80: 80.0026 num IPs:75
percent85: 85.049 num IPs:129
percent90: 90.0075 num IPs:227
Critical_ROB_Stalls_Percent_0_Bucket_0: 234945
Non-critical_ROB_Stalls_Percent_0_Bucket_0: 122381
Critical_ROB_Stalls_Percent_0_Bucket_1: 2894
Non-critical_ROB_Stalls_Percent_0_Bucket_1: 29269
Critical_ROB_Stalls_Percent_0_Bucket_2: 901
Non-critical_ROB_Stalls_Percent_0_Bucket_2: 20573
Critical_ROB_Stalls_Percent_0_Bucket_3: 2001
Non-critical_ROB_Stalls_Percent_0_Bucket_3: 17882
Critical_ROB_Stalls_Percent_0_Bucket_4: 8328
Non-critical_ROB_Stalls_Percent_0_Bucket_4: 12797
Critical_ROB_Stalls_Percent_0_Bucket_5: 5060
Non-critical_ROB_Stalls_Percent_0_Bucket_5: 15023
Critical_ROB_Stalls_Percent_0_Bucket_6: 1614
Non-critical_ROB_Stalls_Percent_0_Bucket_6: 35165
Critical_ROB_Stalls_Percent_1_Bucket_0: 241091
Non-critical_ROB_Stalls_Percent_1_Bucket_0: 116235
Critical_ROB_Stalls_Percent_1_Bucket_1: 6458
Non-critical_ROB_Stalls_Percent_1_Bucket_1: 25705
Critical_ROB_Stalls_Percent_1_Bucket_2: 3324
Non-critical_ROB_Stalls_Percent_1_Bucket_2: 18150
Critical_ROB_Stalls_Percent_1_Bucket_3: 3750
Non-critical_ROB_Stalls_Percent_1_Bucket_3: 16133
Critical_ROB_Stalls_Percent_1_Bucket_4: 10418
Non-critical_ROB_Stalls_Percent_1_Bucket_4: 10707
Critical_ROB_Stalls_Percent_1_Bucket_5: 6904
Non-critical_ROB_Stalls_Percent_1_Bucket_5: 13179
Critical_ROB_Stalls_Percent_1_Bucket_6: 9064
Non-critical_ROB_Stalls_Percent_1_Bucket_6: 27715
Critical_ROB_Stalls_Percent_2_Bucket_0: 248905
Non-critical_ROB_Stalls_Percent_2_Bucket_0: 108421
Critical_ROB_Stalls_Percent_2_Bucket_1: 8701
Non-critical_ROB_Stalls_Percent_2_Bucket_1: 23462
Critical_ROB_Stalls_Percent_2_Bucket_2: 4721
Non-critical_ROB_Stalls_Percent_2_Bucket_2: 16753
Critical_ROB_Stalls_Percent_2_Bucket_3: 4982
Non-critical_ROB_Stalls_Percent_2_Bucket_3: 14901
Critical_ROB_Stalls_Percent_2_Bucket_4: 11161
Non-critical_ROB_Stalls_Percent_2_Bucket_4: 9964
Critical_ROB_Stalls_Percent_2_Bucket_5: 12613
Non-critical_ROB_Stalls_Percent_2_Bucket_5: 7470
Critical_ROB_Stalls_Percent_2_Bucket_6: 12077
Non-critical_ROB_Stalls_Percent_2_Bucket_6: 24702
Critical_ROB_Stalls_Percent_3_Bucket_0: 264448
Non-critical_ROB_Stalls_Percent_3_Bucket_0: 92878
Critical_ROB_Stalls_Percent_3_Bucket_1: 9275
Non-critical_ROB_Stalls_Percent_3_Bucket_1: 22888
Critical_ROB_Stalls_Percent_3_Bucket_2: 6142
Non-critical_ROB_Stalls_Percent_3_Bucket_2: 15332
Critical_ROB_Stalls_Percent_3_Bucket_3: 6623
Non-critical_ROB_Stalls_Percent_3_Bucket_3: 13260
Critical_ROB_Stalls_Percent_3_Bucket_4: 12006
Non-critical_ROB_Stalls_Percent_3_Bucket_4: 9119
Critical_ROB_Stalls_Percent_3_Bucket_5: 13904
Non-critical_ROB_Stalls_Percent_3_Bucket_5: 6179
Critical_ROB_Stalls_Percent_3_Bucket_6: 15095
Non-critical_ROB_Stalls_Percent_3_Bucket_6: 21684
Critical_ROB_Stalls_Percent_4_Bucket_0: 273246
Non-critical_ROB_Stalls_Percent_4_Bucket_0: 84080
Critical_ROB_Stalls_Percent_4_Bucket_1: 12795
Non-critical_ROB_Stalls_Percent_4_Bucket_1: 19368
Critical_ROB_Stalls_Percent_4_Bucket_2: 7607
Non-critical_ROB_Stalls_Percent_4_Bucket_2: 13867
Critical_ROB_Stalls_Percent_4_Bucket_3: 7859
Non-critical_ROB_Stalls_Percent_4_Bucket_3: 12024
Critical_ROB_Stalls_Percent_4_Bucket_4: 13499
Non-critical_ROB_Stalls_Percent_4_Bucket_4: 7626
Critical_ROB_Stalls_Percent_4_Bucket_5: 14585
Non-critical_ROB_Stalls_Percent_4_Bucket_5: 5498
Critical_ROB_Stalls_Percent_4_Bucket_6: 23367
Non-critical_ROB_Stalls_Percent_4_Bucket_6: 13412
Critical_ROB_Stalls_Percent_5_Bucket_0: 284996
Non-critical_ROB_Stalls_Percent_5_Bucket_0: 72330
Critical_ROB_Stalls_Percent_5_Bucket_1: 15723
Non-critical_ROB_Stalls_Percent_5_Bucket_1: 16440
Critical_ROB_Stalls_Percent_5_Bucket_2: 9442
Non-critical_ROB_Stalls_Percent_5_Bucket_2: 12032
Critical_ROB_Stalls_Percent_5_Bucket_3: 9845
Non-critical_ROB_Stalls_Percent_5_Bucket_3: 10038
Critical_ROB_Stalls_Percent_5_Bucket_4: 14501
Non-critical_ROB_Stalls_Percent_5_Bucket_4: 6624
Critical_ROB_Stalls_Percent_5_Bucket_5: 15784
Non-critical_ROB_Stalls_Percent_5_Bucket_5: 4299
Critical_ROB_Stalls_Percent_5_Bucket_6: 27152
Non-critical_ROB_Stalls_Percent_5_Bucket_6: 9627
Critical_ROB_Stalls_Percent_6_Bucket_0: 295842
Non-critical_ROB_Stalls_Percent_6_Bucket_0: 61484
Critical_ROB_Stalls_Percent_6_Bucket_1: 17755
Non-critical_ROB_Stalls_Percent_6_Bucket_1: 14408
Critical_ROB_Stalls_Percent_6_Bucket_2: 13307
Non-critical_ROB_Stalls_Percent_6_Bucket_2: 8167
Critical_ROB_Stalls_Percent_6_Bucket_3: 13551
Non-critical_ROB_Stalls_Percent_6_Bucket_3: 6332
Critical_ROB_Stalls_Percent_6_Bucket_4: 16537
Non-critical_ROB_Stalls_Percent_6_Bucket_4: 4588
Critical_ROB_Stalls_Percent_6_Bucket_5: 16463
Non-critical_ROB_Stalls_Percent_6_Bucket_5: 3620
Critical_ROB_Stalls_Percent_6_Bucket_6: 28697
Non-critical_ROB_Stalls_Percent_6_Bucket_6: 8082
Critical_ROB_Stalls_Percent_7_Bucket_0: 310242
Non-critical_ROB_Stalls_Percent_7_Bucket_0: 47084
Critical_ROB_Stalls_Percent_7_Bucket_1: 20634
Non-critical_ROB_Stalls_Percent_7_Bucket_1: 11529
Critical_ROB_Stalls_Percent_7_Bucket_2: 14948
Non-critical_ROB_Stalls_Percent_7_Bucket_2: 6526
Critical_ROB_Stalls_Percent_7_Bucket_3: 15065
Non-critical_ROB_Stalls_Percent_7_Bucket_3: 4818
Critical_ROB_Stalls_Percent_7_Bucket_4: 17753
Non-critical_ROB_Stalls_Percent_7_Bucket_4: 3372
Critical_ROB_Stalls_Percent_7_Bucket_5: 17749
Non-critical_ROB_Stalls_Percent_7_Bucket_5: 2334
Critical_ROB_Stalls_Percent_7_Bucket_6: 31128
Non-critical_ROB_Stalls_Percent_7_Bucket_6: 5651
Critical_ROB_Stalls_Percent_8_Bucket_0: 323072
Non-critical_ROB_Stalls_Percent_8_Bucket_0: 34254
Critical_ROB_Stalls_Percent_8_Bucket_1: 24297
Non-critical_ROB_Stalls_Percent_8_Bucket_1: 7866
Critical_ROB_Stalls_Percent_8_Bucket_2: 17185
Non-critical_ROB_Stalls_Percent_8_Bucket_2: 4289
Critical_ROB_Stalls_Percent_8_Bucket_3: 16886
Non-critical_ROB_Stalls_Percent_8_Bucket_3: 2997
Critical_ROB_Stalls_Percent_8_Bucket_4: 19302
Non-critical_ROB_Stalls_Percent_8_Bucket_4: 1823
Critical_ROB_Stalls_Percent_8_Bucket_5: 18666
Non-critical_ROB_Stalls_Percent_8_Bucket_5: 1417
Critical_ROB_Stalls_Percent_8_Bucket_6: 33036
Non-critical_ROB_Stalls_Percent_8_Bucket_6: 3743
Average ROB occupancy Load Stall Begin: 64.1997
Average ROB occupancy Load Stall End: 73.6422
Min ROB occupancy Load Stall Begin: 1
Max ROB occupancy Load Stall Begin: 351
Min ROB occupancy Load Stall End: 1
Max ROB occupancy Load Stall End: 352
Average ROB occupancy Critical Load Stall Begin: 67.0526
Average ROB occupancy Critical Load Stall End: 78.662
Min ROB occupancy Critical Load Stall Begin: 2
Max ROB occupancy Critical Load Stall Begin: 351
Min ROB occupancy Critical Load Stall End: 2
Max ROB occupancy Critical Load Stall End: 352
 ROB Load Stall Begin Bucket Count 0: 365547
 ROB Load Stall End Bucket Count 0: 357326
 ROB Critical Load Stall Begin Bucket Count 0: 229384
 ROB Critical Load Stall End Bucket Count 0: 224613
 ROB Load Stall Begin Bucket Count 1: 34878
 ROB Load Stall End Bucket Count 1: 32163
 ROB Critical Load Stall Begin Bucket Count 1: 18122
 ROB Critical Load Stall End Bucket Count 1: 15239
 ROB Load Stall Begin Bucket Count 2: 25488
 ROB Load Stall End Bucket Count 2: 21474
 ROB Critical Load Stall Begin Bucket Count 2: 14515
 ROB Critical Load Stall End Bucket Count 2: 10269
 ROB Load Stall Begin Bucket Count 3: 19000
 ROB Load Stall End Bucket Count 3: 19883
 ROB Critical Load Stall Begin Bucket Count 3: 10795
 ROB Critical Load Stall End Bucket Count 3: 10954
 ROB Load Stall Begin Bucket Count 4: 16401
 ROB Load Stall End Bucket Count 4: 21125
 ROB Critical Load Stall Begin Bucket Count 4: 11419
 ROB Critical Load Stall End Bucket Count 4: 15324
 ROB Load Stall Begin Bucket Count 5: 17666
 ROB Load Stall End Bucket Count 5: 20083
 ROB Critical Load Stall Begin Bucket Count 5: 8995
 ROB Critical Load Stall End Bucket Count 5: 11091
 ROB Load Stall Begin Bucket Count 6: 29853
 ROB Load Stall End Bucket Count 6: 36779
 ROB Critical Load Stall Begin Bucket Count 6: 24595
 ROB Critical Load Stall End Bucket Count 6: 30335
PIST Tag Read Accesses: 119628
PIST Read Accesses: 59814
PIST Tag Write Accesses: 119628
PIST Write Accesses: 59814
Criticality detector called times: 73567
Max global_stall_cycles_count: 285794
Threshold Modified: 4 times, factor: -4
ITLB TOTAL     ACCESS:    8182205  HIT:    7649335  MISS:     532870  HIT %:    93.4875  MISS %:    6.51255   MPKI: 10.6574
ITLB LOAD TRANSLATION ACCESS:    8182205  HIT:    7649335  MISS:     532870  HIT %:    93.4875  MISS %:    6.51255   MPKI: 10.6574
ITLB PREFETCH  REQUESTED:          0  ISSUED:          0  USEFUL:          0  USELESS:          0
ITLB USEFUL LOAD PREFETCHES:          0 PREFETCH ISSUED TO LOWER LEVEL:          0  ACCURACY: -nan
ITLB TIMELY PREFETCHES:          0 LATE PREFETCHES: 0 DROPPED PREFETCHES: 0
ITLB PREFETCHES SAME FILL-ORIGIN LEVEL: 0 DIFFERENT FILL-ORIGIN LEVEL: 0
ITLB AVERAGE MISS LATENCY: 36.0912 cycles
ITLB RQ	ACCESS:   10218735	FORWARD:          0	MERGED:    1724460	TO_CACHE:    8494275

DTLB TOTAL     ACCESS:    5238634  HIT:    3259053  MISS:    1979581  HIT %:    62.2119  MISS %:    37.7881   MPKI: 39.5916
DTLB LOAD TRANSLATION ACCESS:    5238634  HIT:    3259053  MISS:    1979581  HIT %:    62.2119  MISS %:    37.7881   MPKI: 39.5916
DTLB PREFETCH  REQUESTED:          0  ISSUED:          0  USEFUL:          0  USELESS:          0
DTLB USEFUL LOAD PREFETCHES:          0 PREFETCH ISSUED TO LOWER LEVEL:          0  ACCURACY: -nan
DTLB TIMELY PREFETCHES:          0 LATE PREFETCHES: 0 DROPPED PREFETCHES: 0
DTLB PREFETCHES SAME FILL-ORIGIN LEVEL: 0 DIFFERENT FILL-ORIGIN LEVEL: 0
DTLB AVERAGE MISS LATENCY: 28.7504 cycles
DTLB RQ	ACCESS:    6446022	FORWARD:          0	MERGED:     990715	TO_CACHE:    5455307

STLB TOTAL     ACCESS:    2780197  HIT:    1131590  MISS:    1648607  HIT %:    40.7018  MISS %:    59.2982   MPKI: 32.9721
STLB LOAD TRANSLATION ACCESS:    2512451  HIT:     936990  MISS:    1575461  HIT %:    37.2939  MISS %:    62.7061   MPKI: 31.5092
STLB TRANSLATION FROM L1D PREFETCHER ACCESS:     267746  HIT:     194600  MISS:      73146  HIT %:    72.6808  MISS %:    27.3192   MPKI: 1.46292
STLB PREFETCH  REQUESTED:          0  ISSUED:          0  USEFUL:      22935  USELESS:      50212
STLB USEFUL LOAD PREFETCHES:      22935 PREFETCH ISSUED TO LOWER LEVEL:          0  ACCURACY: inf
STLB TIMELY PREFETCHES:      22935 LATE PREFETCHES: 0 DROPPED PREFETCHES: 0
STLB PREFETCHES SAME FILL-ORIGIN LEVEL: 0 DIFFERENT FILL-ORIGIN LEVEL: 0
STLB AVERAGE MISS LATENCY: 33.708 cycles
STLB RQ	ACCESS:    2896284	FORWARD:          0	MERGED:     114511	TO_CACHE:    2781773

STLB Hit, L1D data hit: 0
STLB Hit, L2C data hit: 0
STLB Hit, LLC data hit: 0
STLB Hit, LLC data miss: 0
STLB STLB hints to L2: 0
L1D TOTAL     ACCESS:    6528233  HIT:    5881430  MISS:     646803  HIT %:    90.0922  MISS %:    9.90778   MPKI: 12.9361
L1D LOAD      ACCESS:    4323148  HIT:    3900643  MISS:     422505  HIT %:    90.2269  MISS %:    9.77309   MPKI: 8.4501
L1D RFO       ACCESS:    1916508  HIT:    1859527  MISS:      56981  HIT %:    97.0268  MISS %:    2.97317   MPKI: 1.13962
L1D PREFETCH  ACCESS:     288577  HIT:     121260  MISS:     167317  HIT %:      42.02  MISS %:      57.98   MPKI: 3.34634
L1D PREFETCH  REQUESTED:     783996  ISSUED:     767770  USEFUL:      74197  USELESS:      93131
L1D USEFUL LOAD PREFETCHES:      74197 PREFETCH ISSUED TO LOWER LEVEL:     201442  ACCURACY: 36.8329
L1D TIMELY PREFETCHES:      74197 LATE PREFETCHES: 33062 DROPPED PREFETCHES: 0
L1D PREFETCHES SAME FILL-ORIGIN LEVEL: 201442 DIFFERENT FILL-ORIGIN LEVEL: 0
L1D AVERAGE MISS LATENCY: 2.47738e+06 cycles
L1D RQ	ACCESS:    7163860	FORWARD:          0	MERGED:    2743885	TO_CACHE:    4367738
L1D WQ	ACCESS:    2254786	FORWARD:      52341	MERGED:     176502	TO_CACHE:    2078284
L1D PQ	ACCESS:     383937	FORWARD:          0	MERGED:          0	TO_CACHE:     383833

L1D UNIQUE REGIONS ACCESSED: 0
L1D REGIONS CONFLICTS: 0
L1D Cross Page Prefetch Requests: 0
L1D Same Page Prefetch Requests: 644446
L1D ROI Sum of L1D PQ occupancy: 18444966
L1D PREFETCHES PUSHED FROM L2C: 0
L1I TOTAL     ACCESS:   10179094  HIT:   10065658  MISS:     113436  HIT %:    98.8856  MISS %:     1.1144   MPKI: 2.26872
L1I LOAD      ACCESS:   10179094  HIT:   10065658  MISS:     113436  HIT %:    98.8856  MISS %:     1.1144   MPKI: 2.26872
L1I PREFETCH  REQUESTED:          0  ISSUED:          0  USEFUL:          0  USELESS:          0
L1I USEFUL LOAD PREFETCHES:          0 PREFETCH ISSUED TO LOWER LEVEL:          0  ACCURACY: -nan
L1I TIMELY PREFETCHES:          0 LATE PREFETCHES: 0 DROPPED PREFETCHES: 0
L1I PREFETCHES SAME FILL-ORIGIN LEVEL: 0 DIFFERENT FILL-ORIGIN LEVEL: 0
L1I AVERAGE MISS LATENCY: 56.5648 cycles
L1I RQ	ACCESS:   17090318	FORWARD:          0	MERGED:    6871583	TO_CACHE:   10218735

BTB BRANCH_DIRECT_JUMP	ACCESS:          0  HIT:          0  MISS:          0
BTB BRANCH_INDIRECT	ACCESS:          0  HIT:          0  MISS:          0
BTB BRANCH_CONDITIONAL	ACCESS:          0  HIT:          0  MISS:          0
BTB BRANCH_DIRECT_CALL	ACCESS:          0  HIT:          0  MISS:          0
BTB BRANCH_INDIRECT_CALL	ACCESS:          0  HIT:          0  MISS:          0
BTB BRANCH_RETURN	ACCESS:          0  HIT:          0  MISS:          0
BTB BRANCH_OTHER ACCESS:          0  HIT:          0  MISS:          0

L2C TOTAL     ACCESS:    2671311  HIT:    2015786  MISS:     655525  HIT %:    75.4606  MISS %:    24.5394   MPKI: 13.1105
L2C LOAD      ACCESS:     502874  HIT:     106552  MISS:     396322  HIT %:    21.1886  MISS %:    78.8114   MPKI: 7.92644
L2C DATA LOAD MPKI: 6.8874
L2C INSTRUCTION LOAD MPKI: 1.03904
L2C RFO       ACCESS:      55917  HIT:      16027  MISS:      39890  HIT %:    28.6621  MISS %:    71.3379   MPKI: 0.7978
L2C PREFETCH  ACCESS:     201441  HIT:      32482  MISS:     168959  HIT %:    16.1248  MISS %:    83.8752   MPKI: 3.37918
L2C DATA PREFETCH MPKI: 3.37918
L2C INSTRUCTION PREFETCH MPKI: 0
L2C WRITEBACK ACCESS:     177548  HIT:     172951  MISS:       4597  HIT %:    97.4108  MISS %:    2.58916   MPKI: 0.09194
L2C LOAD TRANSLATION ACCESS:    1658787  HIT:    1613191  MISS:      45596  HIT %:    97.2512  MISS %:    2.74876   MPKI: 0.91192
L2C TRANSLATION FROM L1D PREFETCHER ACCESS:      74744  HIT:      74583  MISS:        161  HIT %:    99.7846  MISS %:   0.215402   MPKI: 0.00322
L2C PREFETCH  REQUESTED:          0  ISSUED:          0  USEFUL:       5775  USELESS:     163422
L2C USEFUL LOAD PREFETCHES:       5775 PREFETCH ISSUED TO LOWER LEVEL:     168959  ACCURACY: 3.41799
L2C TIMELY PREFETCHES:       5775 LATE PREFETCHES: 0 DROPPED PREFETCHES: 0
L2C PREFETCHES SAME FILL-ORIGIN LEVEL: 0 DIFFERENT FILL-ORIGIN LEVEL: 0
L2C AVERAGE MISS LATENCY: 170.64 cycles
L2C RQ	ACCESS:    2292328	FORWARD:          0	MERGED:          0	TO_CACHE:    2292324
L2C WQ	ACCESS:     177548	FORWARD:          4	MERGED:          0	TO_CACHE:     177548
L2C PQ	ACCESS:     201442	FORWARD:          0	MERGED:          0	TO_CACHE:     201442

L2C Instructions Evicting Data 38909
L2C Translations Evicting Data 36050
L2C Data Evicting Data 480133
L2C Instructions Evicting Instructions 7395
L2C Translations Evicting Instructions 4806
L2C Data Evicting Instructions 37868
L2C Instructions Evicting Translations 5648
L2C Translations Evicting Translations 4901
L2C Data Evicting Translations 35218
L2C Dense regions hint from L2: 0
PSCL5 TOTAL     ACCESS:    1648607  HIT:    1648607  MISS:          0  HIT %:        100  MISS %:          0   MPKI: 0
PSCL5 LOAD TRANSLATION ACCESS:    1575461  HIT:    1575461  MISS:          0  HIT %:        100  MISS %:          0   MPKI: 0
PSCL5 TRANSLATION FROM L1D PREFETCHER ACCESS:      73146  HIT:      73146  MISS:          0  HIT %:        100  MISS %:          0   MPKI: 0
PSCL5 PREFETCH  REQUESTED:          0  ISSUED:          0  USEFUL:          0  USELESS:          0
PSCL5 USEFUL LOAD PREFETCHES:          0 PREFETCH ISSUED TO LOWER LEVEL:          0  ACCURACY: -nan
PSCL5 TIMELY PREFETCHES:          0 LATE PREFETCHES: 0 DROPPED PREFETCHES: 0
PSCL5 PREFETCHES SAME FILL-ORIGIN LEVEL: 0 DIFFERENT FILL-ORIGIN LEVEL: 0

PSCL4 TOTAL     ACCESS:    1624578  HIT:    1624469  MISS:        109  HIT %:    99.9933  MISS %: 0.00670943   MPKI: 0.00218
PSCL4 LOAD TRANSLATION ACCESS:    1560317  HIT:    1560208  MISS:        109  HIT %:     99.993  MISS %: 0.00698576   MPKI: 0.00218
PSCL4 TRANSLATION FROM L1D PREFETCHER ACCESS:      64261  HIT:      64261  MISS:          0  HIT %:        100  MISS %:          0   MPKI: 0
PSCL4 PREFETCH  REQUESTED:          0  ISSUED:          0  USEFUL:          0  USELESS:          0
PSCL4 USEFUL LOAD PREFETCHES:          0 PREFETCH ISSUED TO LOWER LEVEL:          0  ACCURACY: -nan
PSCL4 TIMELY PREFETCHES:          0 LATE PREFETCHES: 0 DROPPED PREFETCHES: 0
PSCL4 PREFETCHES SAME FILL-ORIGIN LEVEL: 0 DIFFERENT FILL-ORIGIN LEVEL: 0

PSCL3 TOTAL     ACCESS:    1643098  HIT:    1641721  MISS:       1377  HIT %:    99.9162  MISS %:  0.0838051   MPKI: 0.02754
PSCL3 LOAD TRANSLATION ACCESS:    1570752  HIT:    1569375  MISS:       1377  HIT %:    99.9123  MISS %:   0.087665   MPKI: 0.02754
PSCL3 TRANSLATION FROM L1D PREFETCHER ACCESS:      72346  HIT:      72346  MISS:          0  HIT %:        100  MISS %:          0   MPKI: 0
PSCL3 PREFETCH  REQUESTED:          0  ISSUED:          0  USEFUL:          0  USELESS:          0
PSCL3 USEFUL LOAD PREFETCHES:          0 PREFETCH ISSUED TO LOWER LEVEL:          0  ACCURACY: -nan
PSCL3 TIMELY PREFETCHES:          0 LATE PREFETCHES: 0 DROPPED PREFETCHES: 0
PSCL3 PREFETCHES SAME FILL-ORIGIN LEVEL: 0 DIFFERENT FILL-ORIGIN LEVEL: 0

PSCL2 TOTAL     ACCESS:    1648607  HIT:    1564812  MISS:      83795  HIT %:    94.9172  MISS %:    5.08278   MPKI: 1.6759
PSCL2 LOAD TRANSLATION ACCESS:    1577013  HIT:    1493218  MISS:      83795  HIT %:    94.6865  MISS %:    5.31353   MPKI: 1.6759
PSCL2 TRANSLATION FROM L1D PREFETCHER ACCESS:      71594  HIT:      71594  MISS:          0  HIT %:        100  MISS %:          0   MPKI: 0
PSCL2 PREFETCH  REQUESTED:          0  ISSUED:          0  USEFUL:          0  USELESS:          0
PSCL2 USEFUL LOAD PREFETCHES:          0 PREFETCH ISSUED TO LOWER LEVEL:          0  ACCURACY: -nan
PSCL2 TIMELY PREFETCHES:          0 LATE PREFETCHES: 0 DROPPED PREFETCHES: 0
PSCL2 PREFETCHES SAME FILL-ORIGIN LEVEL: 0 DIFFERENT FILL-ORIGIN LEVEL: 0

LLC TOTAL     ACCESS:     802515  HIT:     251308  MISS:     551207  HIT %:    31.3151  MISS %:    68.6849   MPKI: 11.0241
LLC LOAD      ACCESS:     396322  HIT:      68555  MISS:     327767  HIT %:    17.2978  MISS %:    82.7022   MPKI: 6.55534
LLC RFO       ACCESS:      39890  HIT:       6761  MISS:      33129  HIT %:    16.9491  MISS %:    83.0509   MPKI: 0.66258
LLC PREFETCH  ACCESS:     168959  HIT:      14847  MISS:     154112  HIT %:    8.78734  MISS %:    91.2127   MPKI: 3.08224
LLC WRITEBACK ACCESS:     151587  HIT:     145648  MISS:       5939  HIT %:    96.0821  MISS %:    3.91788   MPKI: 0.11878
LLC LOAD TRANSLATION ACCESS:      45596  HIT:      15482  MISS:      30114  HIT %:    33.9547  MISS %:    66.0453   MPKI: 0.60228
LLC TRANSLATION FROM L1D PREFETCHER ACCESS:        161  HIT:         15  MISS:        146  HIT %:    9.31677  MISS %:    90.6832   MPKI: 0.00292
LLC PREFETCH  REQUESTED:          0  ISSUED:          0  USEFUL:       3127  USELESS:     152433
LLC USEFUL LOAD PREFETCHES:       3127 PREFETCH ISSUED TO LOWER LEVEL:     154112  ACCURACY: 2.02904
LLC TIMELY PREFETCHES:       3127 LATE PREFETCHES: 0 DROPPED PREFETCHES: 0
LLC PREFETCHES SAME FILL-ORIGIN LEVEL: 0 DIFFERENT FILL-ORIGIN LEVEL: 0
LLC AVERAGE MISS LATENCY: 166.62 cycles
LLC RQ	ACCESS:     481969	FORWARD:          0	MERGED:          0	TO_CACHE:     481969
LLC WQ	ACCESS:     151587	FORWARD:          0	MERGED:          0	TO_CACHE:     151587
LLC PQ	ACCESS:     168959	FORWARD:          0	MERGED:          0	TO_CACHE:     168959

LLC Dense regions hint to LLC: 0

RAW hits: 502005
Loads Generated: 7665865
Loads sent to L1D: 7163860
Stores Generated: 2254780
Stores sent to L1D: 2254786
Major fault: 0 Minor fault: 52221
Allocated PAGES: 52221

stream: 
stream:times selected: 1083613
stream:pref_filled: 144099
stream:pref_useful: 28809
stream:pref_late: 11839
stream:misses: 30492
stream:misses_by_poll: 0

CS: 
CS:times selected: 285437
CS:pref_filled: 128966
CS:pref_useful: 119949
CS:pref_late: 8100
CS:misses: 19525
CS:misses_by_poll: 96

CPLX: 
CPLX:times selected: 786801
CPLX:pref_filled: 40631
CPLX:pref_useful: 10397
CPLX:pref_late: 13486
CPLX:misses: 151257
CPLX:misses_by_poll: 20

NL_L1: 
NL:times selected: 2772
NL:pref_filled: 1082
NL:pref_useful: 263
NL:pref_late: 58
NL:misses: 703
NL:misses_by_poll: 0

total selections: 2158623
total_filled: 167317
total_useful: 74197
total_late: 34080
total_polluted: 116
total_misses_after_warmup: 467095
conflicts: 1344743
Degree Incremented Times: 16826
Degree Decremented Times: 131868

L1 IP Table Write Accesses: 2763596
L1 IP Table Read Accesses: 1418853
L1 RST Write Accesses: 558675
L1 RST Read Accesses: 1117350
L1 CSPT Write Accesses: 558675
L1 CSPT Read Accesses: 988722
L1 RR Filter Tag Write Accesses: 400163
L1 RR Filter Tag Read Accesses: 28862271
L1 IP Table Tag Write Accesses: 4367738
L1 IP Table Tag Read Accesses: 4367738
L1 RST Tag Write Accesses: 0
L1 RST Tag Read Accesses: 5238855
L1 RR Filter Write Accesses: 0
L1 RR Filter Read Accesses: 1047009
test: 298707

DRAM Statistics
 CHANNEL 0
 RQ ROW_BUFFER_HIT:     189191  ROW_BUFFER_MISS:     356074
 DBUS_CONGESTED:        439
 WQ ROW_BUFFER_HIT:      36082  ROW_BUFFER_MISS:     103937  FULL:          0

 AVG_CONGESTED_CYCLE: 3
 All warmup complete: 2
Channel 0 Bank busy for read cycles: 0
Channel 0 Bank busy for write cycles: 0
Channel 0
Rank 0
0banks busy for read cycles: 46583035
0banks busy for write cycles: 42661
1banks busy for read cycles: 23611651
1banks busy for write cycles: 7156961
2banks busy for read cycles: 6222822
2banks busy for write cycles: 2276419
3banks busy for read cycles: 2905582
3banks busy for write cycles: 1001407
4banks busy for read cycles: 1296134
4banks busy for write cycles: 493372
5banks busy for read cycles: 705040
5banks busy for write cycles: 278628
6banks busy for read cycles: 474464
6banks busy for write cycles: 217630
7banks busy for read cycles: 377310
7banks busy for write cycles: 350618
8banks busy for read cycles: 519152
8banks busy for write cycles: 1546883

CPU 0 Branch Prediction Accuracy: 98.7824% MPKI: 1.98668 Average ROB Occupancy at Mispredict: 51.6919
Branch types
NOT_BRANCH: 0 0%
BRANCH_DIRECT_JUMP: 0 0%
BRANCH_INDIRECT: 0 0%
BRANCH_CONDITIONAL: 0 0%
BRANCH_DIRECT_CALL: 0 0%
BRANCH_INDIRECT_CALL: 0 0%
BRANCH_RETURN: 0 0%
BRANCH_OTHER: 0 0%

DRAM PAGES: 1048576
Allocated PAGES: 52221
