Initialize SIGNATURE TABLE
ST_SET: 1
ST_WAY: 256
ST_TAG_BIT: 16
ST_TAG_MASK: ffff

Initialize PATTERN TABLE
PT_SET: 512
PT_WAY: 4
SIG_DELTA_BIT: 7
C_SIG_BIT: 4
C_DELTA_BIT: 4

Initialize PREFETCH FILTER
FILTER_SET: 1024

*** ChampSim Multicore Out-of-Order Simulator ***

Warmup Instructions: 50000000
Simulation Instructions: 50000000
Number of CPUs: 1
LLC sets: 2048
LLC ways: 16
Off-chip DRAM Size: 4096 MB Channels: 1 Width: 64-bit Data Rate: 6400 MT/s
CPU 0 runs ../cloudsuite_traces//classification_phase1_core1.trace.gz
.gz
NUM_OF_IPS_IN_CRITICAL_IP_TRAINING: 64
NUM_OF_CRITICAL_IP_TRAINING_TABLE_WAYS: 2
NUM_OF_CRITICAL_IP_TRAINING_TABLE_SETS: 32
WOBBLY_CRITICAL_IP_CACHE_SETS: 32
WOBBLY_CRITICAL_IP_CACHE_WAYS: 4
BTB has LRU replacement policy
ITLB has LRU replacement policy
DTLB has LRU replacement policy
STLB has LRU replacement policy
L1I has LRU replacement policy
L1D has LRU replacement policy
Initialize SRRIP state for L2C
Initialize DRRIP state for LLC
UNIQUE_ASID[0] = 
UNIQUE_ASID[1] = €
Heartbeat CPU 0 instructions: 10000000 cycles: 2639932 heartbeat IPC: 3.78798 cumulative IPC: 3.78798 (Simulation time: 0 hr 3 min 32 sec) 
Heartbeat CPU 0 instructions: 20000000 cycles: 5277111 heartbeat IPC: 3.79193 cumulative IPC: 3.78995 (Simulation time: 0 hr 7 min 16 sec) 
Heartbeat CPU 0 instructions: 30000003 cycles: 7915492 heartbeat IPC: 3.7902 cumulative IPC: 3.79004 (Simulation time: 0 hr 11 min 17 sec) 
Heartbeat CPU 0 instructions: 40000001 cycles: 10552630 heartbeat IPC: 3.79199 cumulative IPC: 3.79052 (Simulation time: 0 hr 15 min 48 sec) 
Heartbeat CPU 0 instructions: 50000003 cycles: 13191844 heartbeat IPC: 3.78901 cumulative IPC: 3.79022 (Simulation time: 0 hr 20 min 10 sec) 

Warmup complete CPU 0 instructions: 50000003 cycles: 13191844 (Simulation time: 0 hr 20 min 10 sec) 

% increase in all ip prefetch 368.161
% increase in all ip prefetch -3.23518
Heartbeat CPU 0 instructions: 60000003 cycles: 28950451 heartbeat IPC: 0.634574 cumulative IPC: 0.634574 (Simulation time: 0 hr 25 min 44 sec) 
Heartbeat CPU 0 instructions: 70000001 cycles: 44650052 heartbeat IPC: 0.636959 cumulative IPC: 0.635764 (Simulation time: 0 hr 31 min 7 sec) 
Heartbeat CPU 0 instructions: 80000000 cycles: 60384808 heartbeat IPC: 0.635536 cumulative IPC: 0.635688 (Simulation time: 0 hr 36 min 9 sec) 
Heartbeat CPU 0 instructions: 90000003 cycles: 76070062 heartbeat IPC: 0.637542 cumulative IPC: 0.63615 (Simulation time: 0 hr 40 min 58 sec) 
Heartbeat CPU 0 instructions: 100000000 cycles: 90554415 heartbeat IPC: 0.6904 cumulative IPC: 0.646307 (Simulation time: 0 hr 45 min 13 sec) 
Finished CPU 0 instructions: 50000001 cycles: 77362572 cumulative IPC: 0.646307 (Simulation time: 0 hr 45 min 13 sec) 

ChampSim completed all CPUs

Region of Interest Statistics

CPU 0 cumulative IPC: 0.646307 instructions: 50000001 cycles: 77362572

CPU 0 Average Load ROB stall cycles: 1.85881e+07
CPU 0 Fraction of times ROB stalled by Loads: 35.3247
CPU 0 Percentage of Load stall cycles in Total stall cycles: 1.41007e+08
Issued all: 37484589
Issued LT all: 31185352
rob_not_full_when_issued_lt_all: 19804901
Issued LT one: 27315878
rob_not_full_when_issued_lt_one: 16408319
 Total stall cycles: 64919485
 Total load stall cycles: 91541292929439
CPU 0 NUM of IPS identified critical: 0
CPU 0 Num of Load IPs stalling ROB: 1164
Threshold modification factor: -1
Max PIST entries: 64
Min PIST entries: 0
Avg PIST entries: 29.57
Trouble in retire width: 0.883246
MaC = Marked as critical.
lt_50_percent_before_Mac: 0
gt_90_percent_before_Mac: 0
gt_75_percent_before_Mac: 0
gt_50_percent_before_Mac: 0
stall_proportion_bin_same_before_after: 0
stall_proportion_bin_lower_before_after: 0
stall_proportion_bin_upper_before_after: 0
average_stall_proportion_before: -nan
average_stall_proportion_after: -nan
Critical IP stalls, total frequency: 0
Non-critical IP stalls, total frequency: 1739642
Total Freq all stalling IPs: 1739642
stat_90_percent_critical_ip_stalls_freq: 1570201
stat_90_percent_non_critical_ip_stalls_freq: 169441
Critical_IP_ROB_Stalls_Bucket_0: 0
Non-critical_IP_ROB_Stalls_Bucket_0: 850837
Critical_IP_ROB_Stalls_Bucket_1: 0
Non-critical_IP_ROB_Stalls_Bucket_1: 419053
Critical_IP_ROB_Stalls_Bucket_2: 0
Non-critical_IP_ROB_Stalls_Bucket_2: 143441
Critical_IP_ROB_Stalls_Bucket_3: 0
Non-critical_IP_ROB_Stalls_Bucket_3: 91462
Critical_IP_ROB_Stalls_Bucket_4: 0
Non-critical_IP_ROB_Stalls_Bucket_4: 69163
Critical_IP_ROB_Stalls_Bucket_5: 0
Non-critical_IP_ROB_Stalls_Bucket_5: 56599
Critical_IP_ROB_Stalls_Bucket_6: 0
Non-critical_IP_ROB_Stalls_Bucket_6: 109087
0 => IPs accounting for >50 percent of stalls, 1 => 55, 2 => 60, 3 => 65 and so on till 90.
percent50: 50.1828 num IPs:  30
percent55: 55.1083 num IPs: 37
percent60: 60.5614 num IPs: 45
percent65: 65.1577 num IPs: 52
percent70: 70.2595 num IPs: 60
percent75: 75.539 num IPs: 69
percent80: 80.3608 num IPs: 78
percent85: 85.0647 num IPs: 89
percent90: 90.26 num IPs: 104
Critical_ROB_Stalls_Percent_0_Bucket_0: 443063
Non-critical_ROB_Stalls_Percent_0_Bucket_0: 407774
Critical_ROB_Stalls_Percent_0_Bucket_1: 227871
Non-critical_ROB_Stalls_Percent_0_Bucket_1: 191182
Critical_ROB_Stalls_Percent_0_Bucket_2: 77835
Non-critical_ROB_Stalls_Percent_0_Bucket_2: 65606
Critical_ROB_Stalls_Percent_0_Bucket_3: 39664
Non-critical_ROB_Stalls_Percent_0_Bucket_3: 51798
Critical_ROB_Stalls_Percent_0_Bucket_4: 36653
Non-critical_ROB_Stalls_Percent_0_Bucket_4: 32510
Critical_ROB_Stalls_Percent_0_Bucket_5: 28948
Non-critical_ROB_Stalls_Percent_0_Bucket_5: 27651
Critical_ROB_Stalls_Percent_0_Bucket_6: 18968
Non-critical_ROB_Stalls_Percent_0_Bucket_6: 90119
Critical_ROB_Stalls_Percent_1_Bucket_0: 488893
Non-critical_ROB_Stalls_Percent_1_Bucket_0: 361944
Critical_ROB_Stalls_Percent_1_Bucket_1: 243674
Non-critical_ROB_Stalls_Percent_1_Bucket_1: 175379
Critical_ROB_Stalls_Percent_1_Bucket_2: 84037
Non-critical_ROB_Stalls_Percent_1_Bucket_2: 59404
Critical_ROB_Stalls_Percent_1_Bucket_3: 45092
Non-critical_ROB_Stalls_Percent_1_Bucket_3: 46370
Critical_ROB_Stalls_Percent_1_Bucket_4: 40755
Non-critical_ROB_Stalls_Percent_1_Bucket_4: 28408
Critical_ROB_Stalls_Percent_1_Bucket_5: 33170
Non-critical_ROB_Stalls_Percent_1_Bucket_5: 23429
Critical_ROB_Stalls_Percent_1_Bucket_6: 23066
Non-critical_ROB_Stalls_Percent_1_Bucket_6: 86021
Critical_ROB_Stalls_Percent_2_Bucket_0: 538105
Non-critical_ROB_Stalls_Percent_2_Bucket_0: 312732
Critical_ROB_Stalls_Percent_2_Bucket_1: 269921
Non-critical_ROB_Stalls_Percent_2_Bucket_1: 149132
Critical_ROB_Stalls_Percent_2_Bucket_2: 90373
Non-critical_ROB_Stalls_Percent_2_Bucket_2: 53068
Critical_ROB_Stalls_Percent_2_Bucket_3: 56095
Non-critical_ROB_Stalls_Percent_2_Bucket_3: 35367
Critical_ROB_Stalls_Percent_2_Bucket_4: 41843
Non-critical_ROB_Stalls_Percent_2_Bucket_4: 27320
Critical_ROB_Stalls_Percent_2_Bucket_5: 33619
Non-critical_ROB_Stalls_Percent_2_Bucket_5: 22980
Critical_ROB_Stalls_Percent_2_Bucket_6: 23596
Non-critical_ROB_Stalls_Percent_2_Bucket_6: 85491
Critical_ROB_Stalls_Percent_3_Bucket_0: 561283
Non-critical_ROB_Stalls_Percent_3_Bucket_0: 289554
Critical_ROB_Stalls_Percent_3_Bucket_1: 297152
Non-critical_ROB_Stalls_Percent_3_Bucket_1: 121901
Critical_ROB_Stalls_Percent_3_Bucket_2: 105106
Non-critical_ROB_Stalls_Percent_3_Bucket_2: 38335
Critical_ROB_Stalls_Percent_3_Bucket_3: 61562
Non-critical_ROB_Stalls_Percent_3_Bucket_3: 29900
Critical_ROB_Stalls_Percent_3_Bucket_4: 45520
Non-critical_ROB_Stalls_Percent_3_Bucket_4: 23643
Critical_ROB_Stalls_Percent_3_Bucket_5: 38455
Non-critical_ROB_Stalls_Percent_3_Bucket_5: 18144
Critical_ROB_Stalls_Percent_3_Bucket_6: 24432
Non-critical_ROB_Stalls_Percent_3_Bucket_6: 84655
Critical_ROB_Stalls_Percent_4_Bucket_0: 590248
Non-critical_ROB_Stalls_Percent_4_Bucket_0: 260589
Critical_ROB_Stalls_Percent_4_Bucket_1: 311195
Non-critical_ROB_Stalls_Percent_4_Bucket_1: 107858
Critical_ROB_Stalls_Percent_4_Bucket_2: 108713
Non-critical_ROB_Stalls_Percent_4_Bucket_2: 34728
Critical_ROB_Stalls_Percent_4_Bucket_3: 63955
Non-critical_ROB_Stalls_Percent_4_Bucket_3: 27507
Critical_ROB_Stalls_Percent_4_Bucket_4: 46890
Non-critical_ROB_Stalls_Percent_4_Bucket_4: 22273
Critical_ROB_Stalls_Percent_4_Bucket_5: 39615
Non-critical_ROB_Stalls_Percent_4_Bucket_5: 16984
Critical_ROB_Stalls_Percent_4_Bucket_6: 61648
Non-critical_ROB_Stalls_Percent_4_Bucket_6: 47439
Critical_ROB_Stalls_Percent_5_Bucket_0: 628054
Non-critical_ROB_Stalls_Percent_5_Bucket_0: 222783
Critical_ROB_Stalls_Percent_5_Bucket_1: 327382
Non-critical_ROB_Stalls_Percent_5_Bucket_1: 91671
Critical_ROB_Stalls_Percent_5_Bucket_2: 115088
Non-critical_ROB_Stalls_Percent_5_Bucket_2: 28353
Critical_ROB_Stalls_Percent_5_Bucket_3: 71520
Non-critical_ROB_Stalls_Percent_5_Bucket_3: 19942
Critical_ROB_Stalls_Percent_5_Bucket_4: 50664
Non-critical_ROB_Stalls_Percent_5_Bucket_4: 18499
Critical_ROB_Stalls_Percent_5_Bucket_5: 41108
Non-critical_ROB_Stalls_Percent_5_Bucket_5: 15491
Critical_ROB_Stalls_Percent_5_Bucket_6: 80293
Non-critical_ROB_Stalls_Percent_5_Bucket_6: 28794
Critical_ROB_Stalls_Percent_6_Bucket_0: 655764
Non-critical_ROB_Stalls_Percent_6_Bucket_0: 195073
Critical_ROB_Stalls_Percent_6_Bucket_1: 356146
Non-critical_ROB_Stalls_Percent_6_Bucket_1: 62907
Critical_ROB_Stalls_Percent_6_Bucket_2: 124969
Non-critical_ROB_Stalls_Percent_6_Bucket_2: 18472
Critical_ROB_Stalls_Percent_6_Bucket_3: 74741
Non-critical_ROB_Stalls_Percent_6_Bucket_3: 16721
Critical_ROB_Stalls_Percent_6_Bucket_4: 53563
Non-critical_ROB_Stalls_Percent_6_Bucket_4: 15600
Critical_ROB_Stalls_Percent_6_Bucket_5: 45833
Non-critical_ROB_Stalls_Percent_6_Bucket_5: 10766
Critical_ROB_Stalls_Percent_6_Bucket_6: 86975
Non-critical_ROB_Stalls_Percent_6_Bucket_6: 22112
Critical_ROB_Stalls_Percent_7_Bucket_0: 698274
Non-critical_ROB_Stalls_Percent_7_Bucket_0: 152563
Critical_ROB_Stalls_Percent_7_Bucket_1: 377948
Non-critical_ROB_Stalls_Percent_7_Bucket_1: 41105
Critical_ROB_Stalls_Percent_7_Bucket_2: 128385
Non-critical_ROB_Stalls_Percent_7_Bucket_2: 15056
Critical_ROB_Stalls_Percent_7_Bucket_3: 81307
Non-critical_ROB_Stalls_Percent_7_Bucket_3: 10155
Critical_ROB_Stalls_Percent_7_Bucket_4: 59757
Non-critical_ROB_Stalls_Percent_7_Bucket_4: 9406
Critical_ROB_Stalls_Percent_7_Bucket_5: 46945
Non-critical_ROB_Stalls_Percent_7_Bucket_5: 9654
Critical_ROB_Stalls_Percent_7_Bucket_6: 87206
Non-critical_ROB_Stalls_Percent_7_Bucket_6: 21881
Critical_ROB_Stalls_Percent_8_Bucket_0: 756659
Non-critical_ROB_Stalls_Percent_8_Bucket_0: 94178
Critical_ROB_Stalls_Percent_8_Bucket_1: 388687
Non-critical_ROB_Stalls_Percent_8_Bucket_1: 30366
Critical_ROB_Stalls_Percent_8_Bucket_2: 132284
Non-critical_ROB_Stalls_Percent_8_Bucket_2: 11157
Critical_ROB_Stalls_Percent_8_Bucket_3: 84382
Non-critical_ROB_Stalls_Percent_8_Bucket_3: 7080
Critical_ROB_Stalls_Percent_8_Bucket_4: 63879
Non-critical_ROB_Stalls_Percent_8_Bucket_4: 5284
Critical_ROB_Stalls_Percent_8_Bucket_5: 52385
Non-critical_ROB_Stalls_Percent_8_Bucket_5: 4214
Critical_ROB_Stalls_Percent_8_Bucket_6: 91925
Non-critical_ROB_Stalls_Percent_8_Bucket_6: 17162
Average ROB occupancy Load Stall Begin: 71.1815
Average ROB occupancy Load Stall End: 90.2822
Min ROB occupancy Load Stall Begin: 1
Max ROB occupancy Load Stall Begin: 352
Min ROB occupancy Load Stall End: 1
Max ROB occupancy Load Stall End: 352
Average ROB occupancy Critical Load Stall Begin: -nan
Average ROB occupancy Critical Load Stall End: -nan
Min ROB occupancy Critical Load Stall Begin: 400
Max ROB occupancy Critical Load Stall Begin: 0
Min ROB occupancy Critical Load Stall End: 400
Max ROB occupancy Critical Load Stall End: 0
 ROB Load Stall Begin Bucket Count 0: 1090110
 ROB Load Stall End Bucket Count 0: 850837
 ROB Critical Load Stall Begin Bucket Count 0: 0
 ROB Critical Load Stall End Bucket Count 0: 0
 ROB Load Stall Begin Bucket Count 1: 284404
 ROB Load Stall End Bucket Count 1: 419053
 ROB Critical Load Stall Begin Bucket Count 1: 0
 ROB Critical Load Stall End Bucket Count 1: 0
 ROB Load Stall Begin Bucket Count 2: 103299
 ROB Load Stall End Bucket Count 2: 143441
 ROB Critical Load Stall Begin Bucket Count 2: 0
 ROB Critical Load Stall End Bucket Count 2: 0
 ROB Load Stall Begin Bucket Count 3: 74560
 ROB Load Stall End Bucket Count 3: 91462
 ROB Critical Load Stall Begin Bucket Count 3: 0
 ROB Critical Load Stall End Bucket Count 3: 0
 ROB Load Stall Begin Bucket Count 4: 72466
 ROB Load Stall End Bucket Count 4: 69163
 ROB Critical Load Stall Begin Bucket Count 4: 0
 ROB Critical Load Stall End Bucket Count 4: 0
 ROB Load Stall Begin Bucket Count 5: 37497
 ROB Load Stall End Bucket Count 5: 56599
 ROB Critical Load Stall Begin Bucket Count 5: 0
 ROB Critical Load Stall End Bucket Count 5: 0
 ROB Load Stall Begin Bucket Count 6: 77306
 ROB Load Stall End Bucket Count 6: 109087
 ROB Critical Load Stall Begin Bucket Count 6: 0
 ROB Critical Load Stall End Bucket Count 6: 0
PIST Tag Read Accesses: 1386540
PIST Read Accesses: 693270
PIST Tag Write Accesses: 1386540
PIST Write Accesses: 693270
Criticality detector called times: 1175281
Max global_stall_cycles_count: 2976878
Threshold Modified: 1 times, factor: -1
Sturdy critical IP cache stats: 
 Unused entries: 0
CIC Tag Read Accesses: 0
CIC Read Accesses: 0
CIC Tag Write Accesses: 0
CIC Write Accesses: 0
Wobbly critical IP cache stats: 
 Unused entries: 98
CIC Tag Read Accesses: 33904808
CIC Read Accesses: 0
CIC Tag Write Accesses: 215612
CIC Write Accesses: 0
ITLB TOTAL     ACCESS:    7402921  HIT:    7112699  MISS:     290222  HIT %:    96.0796  MISS %:    3.92037   MPKI: 5.80444
ITLB LOAD TRANSLATION ACCESS:    7402921  HIT:    7112699  MISS:     290222  HIT %:    96.0796  MISS %:    3.92037   MPKI: 5.80444
ITLB PREFETCH  REQUESTED:          0  ISSUED:          0  USEFUL:          0  USELESS:          0
ITLB USEFUL LOAD PREFETCHES:          0 PREFETCH ISSUED TO LOWER LEVEL:          0  ACCURACY: -nan
ITLB TIMELY PREFETCHES:          0 LATE PREFETCHES: 0 DROPPED PREFETCHES: 0
ITLB PREFETCHES SAME FILL-ORIGIN LEVEL: 0 DIFFERENT FILL-ORIGIN LEVEL: 0
ITLB AVERAGE MISS LATENCY: 36.6036 cycles
ITLB RQ	ACCESS:    9749722	FORWARD:          0	MERGED:    2217018	TO_CACHE:    7532704

DTLB TOTAL     ACCESS:    4057658  HIT:    1765017  MISS:    2292641  HIT %:    43.4984  MISS %:    56.5016   MPKI: 45.8528
DTLB LOAD TRANSLATION ACCESS:    4057658  HIT:    1765017  MISS:    2292641  HIT %:    43.4984  MISS %:    56.5016   MPKI: 45.8528
DTLB PREFETCH  REQUESTED:          0  ISSUED:          0  USEFUL:          0  USELESS:          0
DTLB USEFUL LOAD PREFETCHES:          0 PREFETCH ISSUED TO LOWER LEVEL:          0  ACCURACY: -nan
DTLB TIMELY PREFETCHES:          0 LATE PREFETCHES: 0 DROPPED PREFETCHES: 0
DTLB PREFETCHES SAME FILL-ORIGIN LEVEL: 0 DIFFERENT FILL-ORIGIN LEVEL: 0
DTLB AVERAGE MISS LATENCY: 22.9311 cycles
DTLB RQ	ACCESS:    4376807	FORWARD:          0	MERGED:     186543	TO_CACHE:    4190264

STLB TOTAL     ACCESS:    2582863  HIT:    1204992  MISS:    1377871  HIT %:    46.6533  MISS %:    53.3467   MPKI: 27.5574
STLB LOAD TRANSLATION ACCESS:    2582863  HIT:    1204992  MISS:    1377871  HIT %:    46.6533  MISS %:    53.3467   MPKI: 27.5574
STLB PREFETCH  REQUESTED:          0  ISSUED:          0  USEFUL:          0  USELESS:          0
STLB USEFUL LOAD PREFETCHES:          0 PREFETCH ISSUED TO LOWER LEVEL:          0  ACCURACY: -nan
STLB TIMELY PREFETCHES:          0 LATE PREFETCHES: 0 DROPPED PREFETCHES: 0
STLB PREFETCHES SAME FILL-ORIGIN LEVEL: 0 DIFFERENT FILL-ORIGIN LEVEL: 0
STLB AVERAGE MISS LATENCY: 28.9216 cycles
STLB RQ	ACCESS:    2582863	FORWARD:          0	MERGED:          0	TO_CACHE:    2582863

STLB Hit, L1D data hit: 0
STLB Hit, L2C data hit: 0
STLB Hit, LLC data hit: 0
STLB Hit, LLC data miss: 0
STLB STLB hints to L2: 0
L1D TOTAL     ACCESS:    4289253  HIT:    3863649  MISS:     425604  HIT %:    90.0774  MISS %:    9.92257   MPKI: 8.51208
L1D LOAD      ACCESS:    3635378  HIT:    3243897  MISS:     391481  HIT %:    89.2314  MISS %:    10.7686   MPKI: 7.82962
L1D RFO       ACCESS:     653875  HIT:     619752  MISS:      34123  HIT %:    94.7814  MISS %:    5.21858   MPKI: 0.68246
L1D PREFETCH  REQUESTED:          0  ISSUED:          0  USEFUL:          0  USELESS:          0
L1D USEFUL LOAD PREFETCHES:          0 PREFETCH ISSUED TO LOWER LEVEL:          0  ACCURACY: -nan
L1D TIMELY PREFETCHES:          0 LATE PREFETCHES: 0 DROPPED PREFETCHES: 0
L1D PREFETCHES SAME FILL-ORIGIN LEVEL: 0 DIFFERENT FILL-ORIGIN LEVEL: 0
L1D AVERAGE MISS LATENCY: 93.249 cycles
L1D RQ	ACCESS:    5598389	FORWARD:          0	MERGED:    1925515	TO_CACHE:    3667718
L1D WQ	ACCESS:     710675	FORWARD:       5156	MERGED:       1586	TO_CACHE:     709089

L1D UNIQUE REGIONS ACCESSED: 0
L1D REGIONS CONFLICTS: 0
L1D Cross Page Prefetch Requests: 0
L1D Same Page Prefetch Requests: 0
L1D ROI Sum of L1D PQ occupancy: 0
L1D PREFETCHES PUSHED FROM L2C: 0
L1I TOTAL     ACCESS:    9749275  HIT:    9747960  MISS:       1315  HIT %:    99.9865  MISS %:  0.0134882   MPKI: 0.0263
L1I LOAD      ACCESS:    9749275  HIT:    9747960  MISS:       1315  HIT %:    99.9865  MISS %:  0.0134882   MPKI: 0.0263
L1I PREFETCH  REQUESTED:          0  ISSUED:          0  USEFUL:          0  USELESS:          0
L1I USEFUL LOAD PREFETCHES:          0 PREFETCH ISSUED TO LOWER LEVEL:          0  ACCURACY: -nan
L1I TIMELY PREFETCHES:          0 LATE PREFETCHES: 0 DROPPED PREFETCHES: 0
L1I PREFETCHES SAME FILL-ORIGIN LEVEL: 0 DIFFERENT FILL-ORIGIN LEVEL: 0
L1I AVERAGE MISS LATENCY: 191.817 cycles
L1I RQ	ACCESS:   14980029	FORWARD:          0	MERGED:    5230307	TO_CACHE:    9749722

BTB BRANCH_DIRECT_JUMP	ACCESS:          0  HIT:          0  MISS:          0
BTB BRANCH_INDIRECT	ACCESS:          0  HIT:          0  MISS:          0
BTB BRANCH_CONDITIONAL	ACCESS:          0  HIT:          0  MISS:          0
BTB BRANCH_DIRECT_CALL	ACCESS:          0  HIT:          0  MISS:          0
BTB BRANCH_INDIRECT_CALL	ACCESS:          0  HIT:          0  MISS:          0
BTB BRANCH_RETURN	ACCESS:          0  HIT:          0  MISS:          0
BTB BRANCH_OTHER ACCESS:          0  HIT:          0  MISS:          0

L2C TOTAL     ACCESS:    1994050  HIT:    1667546  MISS:     326504  HIT %:    83.6261  MISS %:    16.3739   MPKI: 6.53008
L2C LOAD      ACCESS:     392795  HIT:     110037  MISS:     282758  HIT %:    28.0138  MISS %:    71.9862   MPKI: 5.65516
L2C DATA LOAD MPKI: 5.62954
L2C INSTRUCTION LOAD MPKI: 0.02562
L2C RFO       ACCESS:      34122  HIT:      26021  MISS:       8101  HIT %:    76.2587  MISS %:    23.7413   MPKI: 0.16202
L2C PREFETCH  ACCESS:      15729  HIT:      11750  MISS:       3979  HIT %:    74.7028  MISS %:    25.2972   MPKI: 0.07958
L2C DATA PREFETCH MPKI: 0.07958
L2C INSTRUCTION PREFETCH MPKI: 0
L2C WRITEBACK ACCESS:      47773  HIT:      47558  MISS:        215  HIT %:      99.55  MISS %:   0.450045   MPKI: 0.0043
L2C LOAD TRANSLATION ACCESS:    1503631  HIT:    1472180  MISS:      31451  HIT %:    97.9083  MISS %:    2.09167   MPKI: 0.62902
L2C PREFETCH  REQUESTED:      87477  ISSUED:      87477  USEFUL:       3737  USELESS:        238
L2C USEFUL LOAD PREFETCHES:       3737 PREFETCH ISSUED TO LOWER LEVEL:      71113  ACCURACY: 5.25502
L2C TIMELY PREFETCHES:       3737 LATE PREFETCHES: 1680 DROPPED PREFETCHES: 0
L2C PREFETCHES SAME FILL-ORIGIN LEVEL: 5659 DIFFERENT FILL-ORIGIN LEVEL: 65454
L2C AVERAGE MISS LATENCY: 112.517 cycles
L2C RQ	ACCESS:    1930550	FORWARD:          0	MERGED:          0	TO_CACHE:    1930548
L2C WQ	ACCESS:      47773	FORWARD:          2	MERGED:          0	TO_CACHE:      47773
L2C PQ	ACCESS:      87477	FORWARD:          0	MERGED:       1037	TO_CACHE:      86440

L2C Instructions Evicting Data 1158
L2C Translations Evicting Data 28596
L2C Data Evicting Data 262678
L2C Instructions Evicting Instructions 0
L2C Translations Evicting Instructions 141
L2C Data Evicting Instructions 1127
L2C Instructions Evicting Translations 123
L2C Translations Evicting Translations 2714
L2C Data Evicting Translations 29752
L2C Dense regions hint from L2: 0
PSCL5 TOTAL     ACCESS:    1377871  HIT:    1377871  MISS:          0  HIT %:        100  MISS %:          0   MPKI: 0
PSCL5 LOAD TRANSLATION ACCESS:    1377871  HIT:    1377871  MISS:          0  HIT %:        100  MISS %:          0   MPKI: 0
PSCL5 PREFETCH  REQUESTED:          0  ISSUED:          0  USEFUL:          0  USELESS:          0
PSCL5 USEFUL LOAD PREFETCHES:          0 PREFETCH ISSUED TO LOWER LEVEL:          0  ACCURACY: -nan
PSCL5 TIMELY PREFETCHES:          0 LATE PREFETCHES: 0 DROPPED PREFETCHES: 0
PSCL5 PREFETCHES SAME FILL-ORIGIN LEVEL: 0 DIFFERENT FILL-ORIGIN LEVEL: 0

PSCL4 TOTAL     ACCESS:    1377871  HIT:    1377871  MISS:          0  HIT %:        100  MISS %:          0   MPKI: 0
PSCL4 LOAD TRANSLATION ACCESS:    1377871  HIT:    1377871  MISS:          0  HIT %:        100  MISS %:          0   MPKI: 0
PSCL4 PREFETCH  REQUESTED:          0  ISSUED:          0  USEFUL:          0  USELESS:          0
PSCL4 USEFUL LOAD PREFETCHES:          0 PREFETCH ISSUED TO LOWER LEVEL:          0  ACCURACY: -nan
PSCL4 TIMELY PREFETCHES:          0 LATE PREFETCHES: 0 DROPPED PREFETCHES: 0
PSCL4 PREFETCHES SAME FILL-ORIGIN LEVEL: 0 DIFFERENT FILL-ORIGIN LEVEL: 0

PSCL3 TOTAL     ACCESS:    1377821  HIT:    1377800  MISS:         21  HIT %:    99.9985  MISS %: 0.00152415   MPKI: 0.00042
PSCL3 LOAD TRANSLATION ACCESS:    1377821  HIT:    1377800  MISS:         21  HIT %:    99.9985  MISS %: 0.00152415   MPKI: 0.00042
PSCL3 PREFETCH  REQUESTED:          0  ISSUED:          0  USEFUL:          0  USELESS:          0
PSCL3 USEFUL LOAD PREFETCHES:          0 PREFETCH ISSUED TO LOWER LEVEL:          0  ACCURACY: -nan
PSCL3 TIMELY PREFETCHES:          0 LATE PREFETCHES: 0 DROPPED PREFETCHES: 0
PSCL3 PREFETCHES SAME FILL-ORIGIN LEVEL: 0 DIFFERENT FILL-ORIGIN LEVEL: 0

PSCL2 TOTAL     ACCESS:    1377871  HIT:    1252108  MISS:     125763  HIT %:    90.8727  MISS %:    9.12734   MPKI: 2.51526
PSCL2 LOAD TRANSLATION ACCESS:    1377871  HIT:    1252108  MISS:     125763  HIT %:    90.8727  MISS %:    9.12734   MPKI: 2.51526
PSCL2 PREFETCH  REQUESTED:          0  ISSUED:          0  USEFUL:          0  USELESS:          0
PSCL2 USEFUL LOAD PREFETCHES:          0 PREFETCH ISSUED TO LOWER LEVEL:          0  ACCURACY: -nan
PSCL2 TIMELY PREFETCHES:          0 LATE PREFETCHES: 0 DROPPED PREFETCHES: 0
PSCL2 PREFETCHES SAME FILL-ORIGIN LEVEL: 0 DIFFERENT FILL-ORIGIN LEVEL: 0

LLC TOTAL     ACCESS:     397347  HIT:     186981  MISS:     210366  HIT %:    47.0574  MISS %:    52.9426   MPKI: 4.20732
LLC LOAD      ACCESS:     281078  HIT:     113045  MISS:     168033  HIT %:    40.2184  MISS %:    59.7816   MPKI: 3.36066
LLC RFO       ACCESS:       8101  HIT:         97  MISS:       8004  HIT %:    1.19738  MISS %:    98.8026   MPKI: 0.16008
LLC PREFETCH  ACCESS:      69126  HIT:      49961  MISS:      19165  HIT %:    72.2753  MISS %:    27.7247   MPKI: 0.3833
LLC WRITEBACK ACCESS:       7591  HIT:       5122  MISS:       2469  HIT %:    67.4746  MISS %:    32.5254   MPKI: 0.04938
LLC LOAD TRANSLATION ACCESS:      31451  HIT:      18756  MISS:      12695  HIT %:    59.6356  MISS %:    40.3644   MPKI: 0.2539
LLC PREFETCH  REQUESTED:          0  ISSUED:          0  USEFUL:       7421  USELESS:      15399
LLC USEFUL LOAD PREFETCHES:       7421 PREFETCH ISSUED TO LOWER LEVEL:      20608  ACCURACY: 36.0103
LLC TIMELY PREFETCHES:       7421 LATE PREFETCHES: 1443 DROPPED PREFETCHES: 0
LLC PREFETCHES SAME FILL-ORIGIN LEVEL: 19942 DIFFERENT FILL-ORIGIN LEVEL: 0
LLC AVERAGE MISS LATENCY: 138.939 cycles
LLC RQ	ACCESS:     320630	FORWARD:          0	MERGED:          0	TO_CACHE:     320630
LLC WQ	ACCESS:       7591	FORWARD:          0	MERGED:          0	TO_CACHE:       7591
LLC PQ	ACCESS:      71113	FORWARD:          0	MERGED:        127	TO_CACHE:      70986

LLC Dense regions hint to LLC: 0

RAW hits: 68537
Loads Generated: 5666926
Loads sent to L1D: 5598389
Stores Generated: 710673
Stores sent to L1D: 710675
Major fault: 0 Minor fault: 12142
Allocated PAGES: 12142
 All Calls: 769894
 Critical Calls: 769894
------------------
Depth Distribution
------------------
depth 0: 0
depth 1: 217057
depth 2: 77583
depth 3: 22649
depth 4: 6730
depth 5: 2826
depth 6: 1021
depth 7: 196
depth 8: 20
depth 9: 4
depth 10: 2
depth 11: 0
depth 12: 0
depth 13: 0
depth 14: 0
depth 15: 0
depth 16: 0
depth 17: 0
depth 18: 0
depth 19: 0
depth 20: 0
depth 21: 0
depth 22: 0
depth 23: 0
depth 24: 0
depth 25: 0
depth 26: 0
depth 27: 0
depth 28: 0
depth 29: 0
Total: 328088
-----------------------------
-----------------------------
	Captured at Filter
-----------------------------
depth 0: 0
depth 1: 493
depth 2: 301
depth 3: 71
depth 4: 17
depth 5: 5
depth 6: 3
depth 7: 1
depth 8: 0
depth 9: 0
depth 10: 0
depth 11: 0
depth 12: 0
depth 13: 0
depth 14: 0
depth 15: 0
depth 16: 0
depth 17: 0
depth 18: 0
depth 19: 0
depth 20: 0
depth 21: 0
depth 22: 0
depth 23: 0
depth 24: 0
depth 25: 0
depth 26: 0
depth 27: 0
depth 28: 0
depth 29: 0
-----------------------------
-----------------------------
		Lost at Page
-----------------------------
depth 0: 0
depth 1: 15836
depth 2: 3650
depth 3: 1429
depth 4: 515
depth 5: 232
depth 6: 120
depth 7: 31
depth 8: 3
depth 9: 0
depth 10: 0
depth 11: 1
depth 12: 1
depth 13: 0
depth 14: 0
depth 15: 0
depth 16: 0
depth 17: 0
depth 18: 0
depth 19: 0
depth 20: 0
depth 21: 0
depth 22: 0
depth 23: 0
depth 24: 0
depth 25: 0
depth 26: 0
depth 27: 0
depth 28: 0
depth 29: 0
-----------------------------
-----------------------------
	Lost due to PQ Size
-----------------------------
93936
-----------------------------
ST read accesses: 267714
ST write accesses: 123766
PT read accesses: 3547272
PT write accesses: 334261
FILTER read accesses: 899707
FILTER write accesses: 346877
GHR read accesses: 1070139
GHR write accesses: 10925
GHR counter read accesses: 3032512
GHR counter write accesses: 414153
ST tag read accesses: 213672376
ST tag write accesses: 40698094

DRAM Statistics
 CHANNEL 0
 RQ ROW_BUFFER_HIT:      67561  ROW_BUFFER_MISS:     140336
 DBUS_CONGESTED:          6
 WQ ROW_BUFFER_HIT:       1521  ROW_BUFFER_MISS:       4326  FULL:          0

 AVG_CONGESTED_CYCLE: 5
 All warmup complete: 2
Channel 0 Bank busy for read cycles: 0
Channel 0 Bank busy for write cycles: 0
Channel 0
Rank 0
0banks busy for read cycles: 56408570
0banks busy for write cycles: 5214
1banks busy for read cycles: 16159466
1banks busy for write cycles: 1075545
2banks busy for read cycles: 2839719
2banks busy for write cycles: 69308
3banks busy for read cycles: 583203
3banks busy for write cycles: 7621
4banks busy for read cycles: 180337
4banks busy for write cycles: 4608
5banks busy for read cycles: 16939
5banks busy for write cycles: 1520
6banks busy for read cycles: 2937
6banks busy for write cycles: 3050
7banks busy for read cycles: 1283
7banks busy for write cycles: 1307
8banks busy for read cycles: 917
8banks busy for write cycles: 1029

CPU 0 Branch Prediction Accuracy: 98.7219% MPKI: 1.7429 Average ROB Occupancy at Mispredict: 72.9027
Branch types
NOT_BRANCH: 0 0%
BRANCH_DIRECT_JUMP: 0 0%
BRANCH_INDIRECT: 0 0%
BRANCH_CONDITIONAL: 0 0%
BRANCH_DIRECT_CALL: 0 0%
BRANCH_INDIRECT_CALL: 0 0%
BRANCH_RETURN: 0 0%
BRANCH_OTHER: 0 0%

DRAM PAGES: 1048576
Allocated PAGES: 12142
