Initialize SIGNATURE TABLE
ST_SET: 1
ST_WAY: 256
ST_TAG_BIT: 16
ST_TAG_MASK: ffff

Initialize PATTERN TABLE
PT_SET: 512
PT_WAY: 4
SIG_DELTA_BIT: 7
C_SIG_BIT: 4
C_DELTA_BIT: 4

Initialize PREFETCH FILTER
FILTER_SET: 1024

*** ChampSim Multicore Out-of-Order Simulator ***

Warmup Instructions: 50000000
Simulation Instructions: 50000000
Number of CPUs: 1
LLC sets: 2048
LLC ways: 16
Off-chip DRAM Size: 4096 MB Channels: 1 Width: 64-bit Data Rate: 6400 MT/s
CPU 0 runs ../cloudsuite_traces//classification_phase1_core1.trace.gz
.gz
BTB has LRU replacement policy
ITLB has LRU replacement policy
DTLB has LRU replacement policy
STLB has LRU replacement policy
L1I has LRU replacement policy
L1D has LRU replacement policy
Initialize SRRIP state for L2C
Initialize DRRIP state for LLC
UNIQUE_ASID[0] = 
UNIQUE_ASID[1] = €
Heartbeat CPU 0 instructions: 10000000 cycles: 2639944 heartbeat IPC: 3.78796 cumulative IPC: 3.78796 (Simulation time: 0 hr 2 min 48 sec) 
Heartbeat CPU 0 instructions: 20000000 cycles: 5277170 heartbeat IPC: 3.79186 cumulative IPC: 3.78991 (Simulation time: 0 hr 5 min 22 sec) 
Heartbeat CPU 0 instructions: 30000003 cycles: 7915608 heartbeat IPC: 3.79012 cumulative IPC: 3.78998 (Simulation time: 0 hr 7 min 54 sec) 
Heartbeat CPU 0 instructions: 40000001 cycles: 10552839 heartbeat IPC: 3.79186 cumulative IPC: 3.79045 (Simulation time: 0 hr 10 min 25 sec) 
Heartbeat CPU 0 instructions: 50000003 cycles: 13192091 heartbeat IPC: 3.78895 cumulative IPC: 3.79015 (Simulation time: 0 hr 12 min 32 sec) 

Warmup complete CPU 0 instructions: 50000003 cycles: 13192091 (Simulation time: 0 hr 12 min 32 sec) 

Heartbeat CPU 0 instructions: 60000003 cycles: 29126796 heartbeat IPC: 0.627561 cumulative IPC: 0.627561 (Simulation time: 0 hr 15 min 36 sec) 
Heartbeat CPU 0 instructions: 70000001 cycles: 44978536 heartbeat IPC: 0.630845 cumulative IPC: 0.629199 (Simulation time: 0 hr 18 min 35 sec) 
Heartbeat CPU 0 instructions: 80000000 cycles: 60817756 heartbeat IPC: 0.631344 cumulative IPC: 0.629912 (Simulation time: 0 hr 21 min 15 sec) 
Heartbeat CPU 0 instructions: 90000000 cycles: 76755075 heartbeat IPC: 0.627458 cumulative IPC: 0.629297 (Simulation time: 0 hr 23 min 46 sec) 
Heartbeat CPU 0 instructions: 100000000 cycles: 92505262 heartbeat IPC: 0.634913 cumulative IPC: 0.630412 (Simulation time: 0 hr 25 min 58 sec) 
Finished CPU 0 instructions: 50000001 cycles: 79313172 cumulative IPC: 0.630412 (Simulation time: 0 hr 25 min 58 sec) 

ChampSim completed all CPUs

Region of Interest Statistics

CPU 0 cumulative IPC: 0.630412 instructions: 50000001 cycles: 79313172

CPU 0 Average Load ROB stall cycles: 1.87265e+07
CPU 0 Fraction of times ROB stalled by Loads: 35.3375
CPU 0 Percentage of Load stall cycles in Total stall cycles: 1.36366e+08
Issued all: 38037687
Issued LT all: 31746761
rob_not_full_when_issued_lt_all: 19783382
Issued LT one: 27859674
rob_not_full_when_issued_lt_one: 16391256
 Total stall cycles: 66857002
 Total load stall cycles: 91169916442123
Unique Load IPs: 1698
CPU 0 NUM of IPS identified critical: 45
CPU 0 Num of Load IPs stalling ROB: 0
Threshold modification factor: 0
Trouble in retire width: -nan
MaC = Marked as critical.
lt_50_percent_before_Mac: 23
gt_90_percent_before_Mac: 4
gt_75_percent_before_Mac: 3
gt_50_percent_before_Mac: 13
stall_proportion_bin_same_before_after: 0
stall_proportion_bin_lower_before_after: 0
stall_proportion_bin_upper_before_after: 0
average_stall_proportion_before: 0.0446239
average_stall_proportion_after: 0.0447926
Critical_IP_Detector_Accuracy_70: 0.0222222
Critical_IP_Detector_Accuracy_80: 0.0222222
Critical_IP_Detector_Accuracy_90: 0.0222222
Critical_IP_Detector_Coverage_70: 1
Critical_IP_Detector_Coverage_80: 1
Critical_IP_Detector_Coverage_90: 1
stat_90_percent_critical_ip_stalls_freq: 124941
stat_90_percent_non_critical_ip_stalls_freq: 18446744073709426675
AVERAGE_ROB_Occupancy_90_Percent_Critical_IP_Stalls: 88.6171
AVERAGE_ROB_Occupancy_90_Percent_Non_Critical_IP_Stalls: 8.17167e-12
Critical_IP_ROB_Stalls_Bucket_0: 331720
Non-critical_IP_ROB_Stalls_Bucket_0: 492841
Critical_IP_ROB_Stalls_Bucket_1: 90694
Non-critical_IP_ROB_Stalls_Bucket_1: 300933
Critical_IP_ROB_Stalls_Bucket_2: 31055
Non-critical_IP_ROB_Stalls_Bucket_2: 119091
Critical_IP_ROB_Stalls_Bucket_3: 19154
Non-critical_IP_ROB_Stalls_Bucket_3: 82416
Critical_IP_ROB_Stalls_Bucket_4: 14394
Non-critical_IP_ROB_Stalls_Bucket_4: 61953
Critical_IP_ROB_Stalls_Bucket_5: 17421
Non-critical_IP_ROB_Stalls_Bucket_5: 43930
Critical_IP_ROB_Stalls_Bucket_6: 13137
Non-critical_IP_ROB_Stalls_Bucket_6: 101668
0 => IPs accounting for >50 percent of stalls, 1 => 55, 2 => 60, 3 => 65 and so on till 90.
percent50: inf num IPs:  1
percent55: inf num IPs: 1
percent60: inf num IPs: 1
percent65: inf num IPs: 1
percent70: inf num IPs: 1
percent75: inf num IPs: 1
percent80: inf num IPs: 1
percent85: inf num IPs: 1
percent90: inf num IPs: 1
Critical_ROB_Stalls_Percent_0_Bucket_0: 72057
Non-critical_ROB_Stalls_Percent_0_Bucket_0: 752504
Critical_ROB_Stalls_Percent_0_Bucket_1: 19046
Non-critical_ROB_Stalls_Percent_0_Bucket_1: 372581
Critical_ROB_Stalls_Percent_0_Bucket_2: 7953
Non-critical_ROB_Stalls_Percent_0_Bucket_2: 142193
Critical_ROB_Stalls_Percent_0_Bucket_3: 4818
Non-critical_ROB_Stalls_Percent_0_Bucket_3: 96752
Critical_ROB_Stalls_Percent_0_Bucket_4: 5156
Non-critical_ROB_Stalls_Percent_0_Bucket_4: 71191
Critical_ROB_Stalls_Percent_0_Bucket_5: 8668
Non-critical_ROB_Stalls_Percent_0_Bucket_5: 52683
Critical_ROB_Stalls_Percent_0_Bucket_6: 7243
Non-critical_ROB_Stalls_Percent_0_Bucket_6: 107562
Critical_ROB_Stalls_Percent_1_Bucket_0: 72057
Non-critical_ROB_Stalls_Percent_1_Bucket_0: 752504
Critical_ROB_Stalls_Percent_1_Bucket_1: 19046
Non-critical_ROB_Stalls_Percent_1_Bucket_1: 372581
Critical_ROB_Stalls_Percent_1_Bucket_2: 7953
Non-critical_ROB_Stalls_Percent_1_Bucket_2: 142193
Critical_ROB_Stalls_Percent_1_Bucket_3: 4818
Non-critical_ROB_Stalls_Percent_1_Bucket_3: 96752
Critical_ROB_Stalls_Percent_1_Bucket_4: 5156
Non-critical_ROB_Stalls_Percent_1_Bucket_4: 71191
Critical_ROB_Stalls_Percent_1_Bucket_5: 8668
Non-critical_ROB_Stalls_Percent_1_Bucket_5: 52683
Critical_ROB_Stalls_Percent_1_Bucket_6: 7243
Non-critical_ROB_Stalls_Percent_1_Bucket_6: 107562
Critical_ROB_Stalls_Percent_2_Bucket_0: 72057
Non-critical_ROB_Stalls_Percent_2_Bucket_0: 752504
Critical_ROB_Stalls_Percent_2_Bucket_1: 19046
Non-critical_ROB_Stalls_Percent_2_Bucket_1: 372581
Critical_ROB_Stalls_Percent_2_Bucket_2: 7953
Non-critical_ROB_Stalls_Percent_2_Bucket_2: 142193
Critical_ROB_Stalls_Percent_2_Bucket_3: 4818
Non-critical_ROB_Stalls_Percent_2_Bucket_3: 96752
Critical_ROB_Stalls_Percent_2_Bucket_4: 5156
Non-critical_ROB_Stalls_Percent_2_Bucket_4: 71191
Critical_ROB_Stalls_Percent_2_Bucket_5: 8668
Non-critical_ROB_Stalls_Percent_2_Bucket_5: 52683
Critical_ROB_Stalls_Percent_2_Bucket_6: 7243
Non-critical_ROB_Stalls_Percent_2_Bucket_6: 107562
Critical_ROB_Stalls_Percent_3_Bucket_0: 72057
Non-critical_ROB_Stalls_Percent_3_Bucket_0: 752504
Critical_ROB_Stalls_Percent_3_Bucket_1: 19046
Non-critical_ROB_Stalls_Percent_3_Bucket_1: 372581
Critical_ROB_Stalls_Percent_3_Bucket_2: 7953
Non-critical_ROB_Stalls_Percent_3_Bucket_2: 142193
Critical_ROB_Stalls_Percent_3_Bucket_3: 4818
Non-critical_ROB_Stalls_Percent_3_Bucket_3: 96752
Critical_ROB_Stalls_Percent_3_Bucket_4: 5156
Non-critical_ROB_Stalls_Percent_3_Bucket_4: 71191
Critical_ROB_Stalls_Percent_3_Bucket_5: 8668
Non-critical_ROB_Stalls_Percent_3_Bucket_5: 52683
Critical_ROB_Stalls_Percent_3_Bucket_6: 7243
Non-critical_ROB_Stalls_Percent_3_Bucket_6: 107562
Critical_ROB_Stalls_Percent_4_Bucket_0: 72057
Non-critical_ROB_Stalls_Percent_4_Bucket_0: 752504
Critical_ROB_Stalls_Percent_4_Bucket_1: 19046
Non-critical_ROB_Stalls_Percent_4_Bucket_1: 372581
Critical_ROB_Stalls_Percent_4_Bucket_2: 7953
Non-critical_ROB_Stalls_Percent_4_Bucket_2: 142193
Critical_ROB_Stalls_Percent_4_Bucket_3: 4818
Non-critical_ROB_Stalls_Percent_4_Bucket_3: 96752
Critical_ROB_Stalls_Percent_4_Bucket_4: 5156
Non-critical_ROB_Stalls_Percent_4_Bucket_4: 71191
Critical_ROB_Stalls_Percent_4_Bucket_5: 8668
Non-critical_ROB_Stalls_Percent_4_Bucket_5: 52683
Critical_ROB_Stalls_Percent_4_Bucket_6: 7243
Non-critical_ROB_Stalls_Percent_4_Bucket_6: 107562
Critical_ROB_Stalls_Percent_5_Bucket_0: 72057
Non-critical_ROB_Stalls_Percent_5_Bucket_0: 752504
Critical_ROB_Stalls_Percent_5_Bucket_1: 19046
Non-critical_ROB_Stalls_Percent_5_Bucket_1: 372581
Critical_ROB_Stalls_Percent_5_Bucket_2: 7953
Non-critical_ROB_Stalls_Percent_5_Bucket_2: 142193
Critical_ROB_Stalls_Percent_5_Bucket_3: 4818
Non-critical_ROB_Stalls_Percent_5_Bucket_3: 96752
Critical_ROB_Stalls_Percent_5_Bucket_4: 5156
Non-critical_ROB_Stalls_Percent_5_Bucket_4: 71191
Critical_ROB_Stalls_Percent_5_Bucket_5: 8668
Non-critical_ROB_Stalls_Percent_5_Bucket_5: 52683
Critical_ROB_Stalls_Percent_5_Bucket_6: 7243
Non-critical_ROB_Stalls_Percent_5_Bucket_6: 107562
Critical_ROB_Stalls_Percent_6_Bucket_0: 72057
Non-critical_ROB_Stalls_Percent_6_Bucket_0: 752504
Critical_ROB_Stalls_Percent_6_Bucket_1: 19046
Non-critical_ROB_Stalls_Percent_6_Bucket_1: 372581
Critical_ROB_Stalls_Percent_6_Bucket_2: 7953
Non-critical_ROB_Stalls_Percent_6_Bucket_2: 142193
Critical_ROB_Stalls_Percent_6_Bucket_3: 4818
Non-critical_ROB_Stalls_Percent_6_Bucket_3: 96752
Critical_ROB_Stalls_Percent_6_Bucket_4: 5156
Non-critical_ROB_Stalls_Percent_6_Bucket_4: 71191
Critical_ROB_Stalls_Percent_6_Bucket_5: 8668
Non-critical_ROB_Stalls_Percent_6_Bucket_5: 52683
Critical_ROB_Stalls_Percent_6_Bucket_6: 7243
Non-critical_ROB_Stalls_Percent_6_Bucket_6: 107562
Critical_ROB_Stalls_Percent_7_Bucket_0: 72057
Non-critical_ROB_Stalls_Percent_7_Bucket_0: 752504
Critical_ROB_Stalls_Percent_7_Bucket_1: 19046
Non-critical_ROB_Stalls_Percent_7_Bucket_1: 372581
Critical_ROB_Stalls_Percent_7_Bucket_2: 7953
Non-critical_ROB_Stalls_Percent_7_Bucket_2: 142193
Critical_ROB_Stalls_Percent_7_Bucket_3: 4818
Non-critical_ROB_Stalls_Percent_7_Bucket_3: 96752
Critical_ROB_Stalls_Percent_7_Bucket_4: 5156
Non-critical_ROB_Stalls_Percent_7_Bucket_4: 71191
Critical_ROB_Stalls_Percent_7_Bucket_5: 8668
Non-critical_ROB_Stalls_Percent_7_Bucket_5: 52683
Critical_ROB_Stalls_Percent_7_Bucket_6: 7243
Non-critical_ROB_Stalls_Percent_7_Bucket_6: 107562
Critical_ROB_Stalls_Percent_8_Bucket_0: 72057
Non-critical_ROB_Stalls_Percent_8_Bucket_0: 752504
Critical_ROB_Stalls_Percent_8_Bucket_1: 19046
Non-critical_ROB_Stalls_Percent_8_Bucket_1: 372581
Critical_ROB_Stalls_Percent_8_Bucket_2: 7953
Non-critical_ROB_Stalls_Percent_8_Bucket_2: 142193
Critical_ROB_Stalls_Percent_8_Bucket_3: 4818
Non-critical_ROB_Stalls_Percent_8_Bucket_3: 96752
Critical_ROB_Stalls_Percent_8_Bucket_4: 5156
Non-critical_ROB_Stalls_Percent_8_Bucket_4: 71191
Critical_ROB_Stalls_Percent_8_Bucket_5: 8668
Non-critical_ROB_Stalls_Percent_8_Bucket_5: 52683
Critical_ROB_Stalls_Percent_8_Bucket_6: 7243
Non-critical_ROB_Stalls_Percent_8_Bucket_6: 107562
Average ROB occupancy Load Stall Begin: 74.6011
Average ROB occupancy Load Stall End: 94.0548
Min ROB occupancy Load Stall Begin: 1
Max ROB occupancy Load Stall Begin: 352
Min ROB occupancy Load Stall End: 1
Max ROB occupancy Load Stall End: 352
Average ROB occupancy Critical Load Stall Begin: 59.4342
Average ROB occupancy Critical Load Stall End: 72.7454
Min ROB occupancy Critical Load Stall Begin: 1
Max ROB occupancy Critical Load Stall Begin: 352
Min ROB occupancy Critical Load Stall End: 1
Max ROB occupancy Critical Load Stall End: 352
 ROB Load Stall Begin Bucket Count 0: 1051274
 ROB Load Stall End Bucket Count 0: 824561
 ROB Critical Load Stall Begin Bucket Count 0: 208777
 ROB Critical Load Stall End Bucket Count 0: 186977
 ROB Load Stall Begin Bucket Count 1: 270443
 ROB Load Stall End Bucket Count 1: 391627
 ROB Critical Load Stall Begin Bucket Count 1: 32609
 ROB Critical Load Stall End Bucket Count 1: 46549
 ROB Load Stall Begin Bucket Count 2: 116161
 ROB Load Stall End Bucket Count 2: 150146
 ROB Critical Load Stall Begin Bucket Count 2: 14181
 ROB Critical Load Stall End Bucket Count 2: 18105
 ROB Load Stall Begin Bucket Count 3: 81602
 ROB Load Stall End Bucket Count 3: 101570
 ROB Critical Load Stall Begin Bucket Count 3: 11580
 ROB Critical Load Stall End Bucket Count 3: 12467
 ROB Load Stall Begin Bucket Count 4: 79071
 ROB Load Stall End Bucket Count 4: 76347
 ROB Critical Load Stall Begin Bucket Count 4: 10664
 ROB Critical Load Stall End Bucket Count 4: 9561
 ROB Load Stall Begin Bucket Count 5: 40611
 ROB Load Stall End Bucket Count 5: 61351
 ROB Critical Load Stall Begin Bucket Count 5: 11047
 ROB Critical Load Stall End Bucket Count 5: 12129
 ROB Load Stall Begin Bucket Count 6: 81245
 ROB Load Stall End Bucket Count 6: 114805
 ROB Critical Load Stall Begin Bucket Count 6: 6859
 ROB Critical Load Stall End Bucket Count 6: 9932
PIST Tag Read Accesses: 0
PIST Read Accesses: 0
PIST Tag Write Accesses: 0
PIST Write Accesses: 0
Criticality detector called times: 0
Max global_stall_cycles_count: 0
Threshold Modified: 0 times, factor: 0
Sturdy critical IP cache stats: 
 Unused entries: 0
CIC Tag Read Accesses: 0
CIC Read Accesses: 0
CIC Tag Write Accesses: 0
CIC Write Accesses: 0
Wobbly critical IP cache stats: 
 Unused entries: 0
CIC Tag Read Accesses: 57804830
CIC Read Accesses: 0
CIC Tag Write Accesses: 2072018
CIC Write Accesses: 0
ITLB TOTAL     ACCESS:    7406013  HIT:    7115771  MISS:     290242  HIT %:     96.081  MISS %:      3.919   MPKI: 5.80484
ITLB LOAD TRANSLATION ACCESS:    7406013  HIT:    7115771  MISS:     290242  HIT %:     96.081  MISS %:      3.919   MPKI: 5.80484
ITLB PREFETCH  REQUESTED:          0  ISSUED:          0  USEFUL:          0  USELESS:          0
ITLB USEFUL LOAD PREFETCHES:          0 PREFETCH ISSUED TO LOWER LEVEL:          0  ACCURACY: -nan
ITLB TIMELY PREFETCHES:          0 LATE PREFETCHES: 0 DROPPED PREFETCHES: 0
ITLB PREFETCHES SAME FILL-ORIGIN LEVEL: 0 DIFFERENT FILL-ORIGIN LEVEL: 0
ITLB AVERAGE MISS LATENCY: 36.5616 cycles
ITLB RQ	ACCESS:    9752541	FORWARD:          0	MERGED:    2216767	TO_CACHE:    7535774

DTLB TOTAL     ACCESS:    4046367  HIT:    1757713  MISS:    2288654  HIT %:    43.4393  MISS %:    56.5607   MPKI: 45.7731
DTLB LOAD TRANSLATION ACCESS:    4046367  HIT:    1757713  MISS:    2288654  HIT %:    43.4393  MISS %:    56.5607   MPKI: 45.7731
DTLB PREFETCH  REQUESTED:          0  ISSUED:          0  USEFUL:          0  USELESS:          0
DTLB USEFUL LOAD PREFETCHES:          0 PREFETCH ISSUED TO LOWER LEVEL:          0  ACCURACY: -nan
DTLB TIMELY PREFETCHES:          0 LATE PREFETCHES: 0 DROPPED PREFETCHES: 0
DTLB PREFETCHES SAME FILL-ORIGIN LEVEL: 0 DIFFERENT FILL-ORIGIN LEVEL: 0
DTLB AVERAGE MISS LATENCY: 22.9436 cycles
DTLB RQ	ACCESS:    4367305	FORWARD:          0	MERGED:     188321	TO_CACHE:    4178984

STLB TOTAL     ACCESS:    2578896  HIT:    1200852  MISS:    1378044  HIT %:    46.5646  MISS %:    53.4354   MPKI: 27.5609
STLB LOAD TRANSLATION ACCESS:    2578896  HIT:    1200852  MISS:    1378044  HIT %:    46.5646  MISS %:    53.4354   MPKI: 27.5609
STLB PREFETCH  REQUESTED:          0  ISSUED:          0  USEFUL:          0  USELESS:          0
STLB USEFUL LOAD PREFETCHES:          0 PREFETCH ISSUED TO LOWER LEVEL:          0  ACCURACY: -nan
STLB TIMELY PREFETCHES:          0 LATE PREFETCHES: 0 DROPPED PREFETCHES: 0
STLB PREFETCHES SAME FILL-ORIGIN LEVEL: 0 DIFFERENT FILL-ORIGIN LEVEL: 0
STLB AVERAGE MISS LATENCY: 28.8879 cycles
STLB RQ	ACCESS:    2578896	FORWARD:          0	MERGED:          0	TO_CACHE:    2578896

STLB Hit, L1D data hit: 0
STLB Hit, L2C data hit: 0
STLB Hit, LLC data hit: 0
STLB Hit, LLC data miss: 0
STLB STLB hints to L2: 0
L1D TOTAL     ACCESS:    4273799  HIT:    3848195  MISS:     425604  HIT %:    90.0416  MISS %:    9.95845   MPKI: 8.51208
L1D LOAD      ACCESS:    3619927  HIT:    3228447  MISS:     391480  HIT %:    89.1854  MISS %:    10.8146   MPKI: 7.8296
L1D RFO       ACCESS:     653872  HIT:     619748  MISS:      34124  HIT %:    94.7812  MISS %:    5.21876   MPKI: 0.68248
L1D PREFETCH  REQUESTED:          0  ISSUED:          0  USEFUL:          0  USELESS:          0
L1D USEFUL LOAD PREFETCHES:          0 PREFETCH ISSUED TO LOWER LEVEL:          0  ACCURACY: -nan
L1D TIMELY PREFETCHES:          0 LATE PREFETCHES: 0 DROPPED PREFETCHES: 0
L1D PREFETCHES SAME FILL-ORIGIN LEVEL: 0 DIFFERENT FILL-ORIGIN LEVEL: 0
L1D AVERAGE MISS LATENCY: 100.165 cycles
L1D RQ	ACCESS:    5598481	FORWARD:          0	MERGED:    1935051	TO_CACHE:    3658212
L1D WQ	ACCESS:     710675	FORWARD:       5218	MERGED:       1582	TO_CACHE:     709093

L1D UNIQUE REGIONS ACCESSED: 0
L1D REGIONS CONFLICTS: 0
L1D Cross Page Prefetch Requests: 0
L1D Same Page Prefetch Requests: 0
L1D ROI Sum of L1D PQ occupancy: 0
L1D PREFETCHES PUSHED FROM L2C: 0
L1I TOTAL     ACCESS:    9752098  HIT:    9750783  MISS:       1315  HIT %:    99.9865  MISS %:  0.0134843   MPKI: 0.0263
L1I LOAD      ACCESS:    9752098  HIT:    9750783  MISS:       1315  HIT %:    99.9865  MISS %:  0.0134843   MPKI: 0.0263
L1I PREFETCH  REQUESTED:          0  ISSUED:          0  USEFUL:          0  USELESS:          0
L1I USEFUL LOAD PREFETCHES:          0 PREFETCH ISSUED TO LOWER LEVEL:          0  ACCURACY: -nan
L1I TIMELY PREFETCHES:          0 LATE PREFETCHES: 0 DROPPED PREFETCHES: 0
L1I PREFETCHES SAME FILL-ORIGIN LEVEL: 0 DIFFERENT FILL-ORIGIN LEVEL: 0
L1I AVERAGE MISS LATENCY: 192.441 cycles
L1I RQ	ACCESS:   14983769	FORWARD:          0	MERGED:    5231228	TO_CACHE:    9752541

BTB BRANCH_DIRECT_JUMP	ACCESS:          0  HIT:          0  MISS:          0
BTB BRANCH_INDIRECT	ACCESS:          0  HIT:          0  MISS:          0
BTB BRANCH_CONDITIONAL	ACCESS:          0  HIT:          0  MISS:          0
BTB BRANCH_DIRECT_CALL	ACCESS:          0  HIT:          0  MISS:          0
BTB BRANCH_INDIRECT_CALL	ACCESS:          0  HIT:          0  MISS:          0
BTB BRANCH_RETURN	ACCESS:          0  HIT:          0  MISS:          0
BTB BRANCH_OTHER ACCESS:          0  HIT:          0  MISS:          0

L2C TOTAL     ACCESS:    1979574  HIT:    1653593  MISS:     325981  HIT %:    83.5328  MISS %:    16.4672   MPKI: 6.51962
L2C LOAD      ACCESS:     392794  HIT:     106630  MISS:     286164  HIT %:    27.1465  MISS %:    72.8535   MPKI: 5.72328
L2C DATA LOAD MPKI: 5.69766
L2C INSTRUCTION LOAD MPKI: 0.02562
L2C RFO       ACCESS:      34123  HIT:      26023  MISS:       8100  HIT %:    76.2623  MISS %:    23.7377   MPKI: 0.162
L2C PREFETCH  ACCESS:       1087  HIT:        839  MISS:        248  HIT %:    77.1849  MISS %:    22.8151   MPKI: 0.00496
L2C DATA PREFETCH MPKI: 0.00496
L2C INSTRUCTION PREFETCH MPKI: 0
L2C WRITEBACK ACCESS:      47773  HIT:      47562  MISS:        211  HIT %:    99.5583  MISS %:   0.441672   MPKI: 0.00422
L2C LOAD TRANSLATION ACCESS:    1503797  HIT:    1472539  MISS:      31258  HIT %:    97.9214  MISS %:    2.07861   MPKI: 0.62516
L2C PREFETCH  REQUESTED:       2936  ISSUED:       2936  USEFUL:        246  USELESS:          7
L2C USEFUL LOAD PREFETCHES:        246 PREFETCH ISSUED TO LOWER LEVEL:       2094  ACCURACY: 11.7479
L2C TIMELY PREFETCHES:        246 LATE PREFETCHES: 0 DROPPED PREFETCHES: 0
L2C PREFETCHES SAME FILL-ORIGIN LEVEL: 248 DIFFERENT FILL-ORIGIN LEVEL: 1846
L2C AVERAGE MISS LATENCY: 121.182 cycles
L2C RQ	ACCESS:    1930716	FORWARD:          0	MERGED:          0	TO_CACHE:    1930714
L2C WQ	ACCESS:      47773	FORWARD:          2	MERGED:          0	TO_CACHE:      47773
L2C PQ	ACCESS:       2936	FORWARD:          0	MERGED:          0	TO_CACHE:       2936

L2C Instructions Evicting Data 1151
L2C Translations Evicting Data 28306
L2C Data Evicting Data 262635
L2C Instructions Evicting Instructions 0
L2C Translations Evicting Instructions 145
L2C Data Evicting Instructions 1125
L2C Instructions Evicting Translations 130
L2C Translations Evicting Translations 2807
L2C Data Evicting Translations 29471
L2C Dense regions hint from L2: 0
PSCL5 TOTAL     ACCESS:    1378044  HIT:    1378044  MISS:          0  HIT %:        100  MISS %:          0   MPKI: 0
PSCL5 LOAD TRANSLATION ACCESS:    1378044  HIT:    1378044  MISS:          0  HIT %:        100  MISS %:          0   MPKI: 0
PSCL5 PREFETCH  REQUESTED:          0  ISSUED:          0  USEFUL:          0  USELESS:          0
PSCL5 USEFUL LOAD PREFETCHES:          0 PREFETCH ISSUED TO LOWER LEVEL:          0  ACCURACY: -nan
PSCL5 TIMELY PREFETCHES:          0 LATE PREFETCHES: 0 DROPPED PREFETCHES: 0
PSCL5 PREFETCHES SAME FILL-ORIGIN LEVEL: 0 DIFFERENT FILL-ORIGIN LEVEL: 0

PSCL4 TOTAL     ACCESS:    1378044  HIT:    1378044  MISS:          0  HIT %:        100  MISS %:          0   MPKI: 0
PSCL4 LOAD TRANSLATION ACCESS:    1378044  HIT:    1378044  MISS:          0  HIT %:        100  MISS %:          0   MPKI: 0
PSCL4 PREFETCH  REQUESTED:          0  ISSUED:          0  USEFUL:          0  USELESS:          0
PSCL4 USEFUL LOAD PREFETCHES:          0 PREFETCH ISSUED TO LOWER LEVEL:          0  ACCURACY: -nan
PSCL4 TIMELY PREFETCHES:          0 LATE PREFETCHES: 0 DROPPED PREFETCHES: 0
PSCL4 PREFETCHES SAME FILL-ORIGIN LEVEL: 0 DIFFERENT FILL-ORIGIN LEVEL: 0

PSCL3 TOTAL     ACCESS:    1378015  HIT:    1377994  MISS:         21  HIT %:    99.9985  MISS %: 0.00152393   MPKI: 0.00042
PSCL3 LOAD TRANSLATION ACCESS:    1378015  HIT:    1377994  MISS:         21  HIT %:    99.9985  MISS %: 0.00152393   MPKI: 0.00042
PSCL3 PREFETCH  REQUESTED:          0  ISSUED:          0  USEFUL:          0  USELESS:          0
PSCL3 USEFUL LOAD PREFETCHES:          0 PREFETCH ISSUED TO LOWER LEVEL:          0  ACCURACY: -nan
PSCL3 TIMELY PREFETCHES:          0 LATE PREFETCHES: 0 DROPPED PREFETCHES: 0
PSCL3 PREFETCHES SAME FILL-ORIGIN LEVEL: 0 DIFFERENT FILL-ORIGIN LEVEL: 0

PSCL2 TOTAL     ACCESS:    1378044  HIT:    1252288  MISS:     125756  HIT %:    90.8743  MISS %:    9.12569   MPKI: 2.51512
PSCL2 LOAD TRANSLATION ACCESS:    1378044  HIT:    1252288  MISS:     125756  HIT %:    90.8743  MISS %:    9.12569   MPKI: 2.51512
PSCL2 PREFETCH  REQUESTED:          0  ISSUED:          0  USEFUL:          0  USELESS:          0
PSCL2 USEFUL LOAD PREFETCHES:          0 PREFETCH ISSUED TO LOWER LEVEL:          0  ACCURACY: -nan
PSCL2 TIMELY PREFETCHES:          0 LATE PREFETCHES: 0 DROPPED PREFETCHES: 0
PSCL2 PREFETCHES SAME FILL-ORIGIN LEVEL: 0 DIFFERENT FILL-ORIGIN LEVEL: 0

LLC TOTAL     ACCESS:     335193  HIT:     121876  MISS:     213317  HIT %:    36.3599  MISS %:    63.6401   MPKI: 4.26634
LLC LOAD      ACCESS:     286164  HIT:      94998  MISS:     191166  HIT %:     33.197  MISS %:     66.803   MPKI: 3.82332
LLC RFO       ACCESS:       8100  HIT:         87  MISS:       8013  HIT %:    1.07407  MISS %:    98.9259   MPKI: 0.16026
LLC PREFETCH  ACCESS:       2094  HIT:       1703  MISS:        391  HIT %:    81.3276  MISS %:    18.6724   MPKI: 0.00782
LLC WRITEBACK ACCESS:       7577  HIT:       6470  MISS:       1107  HIT %:      85.39  MISS %:      14.61   MPKI: 0.02214
LLC LOAD TRANSLATION ACCESS:      31258  HIT:      18618  MISS:      12640  HIT %:    59.5624  MISS %:    40.4376   MPKI: 0.2528
LLC PREFETCH  REQUESTED:          0  ISSUED:          0  USEFUL:        337  USELESS:       3899
LLC USEFUL LOAD PREFETCHES:        337 PREFETCH ISSUED TO LOWER LEVEL:        391  ACCURACY: 86.1893
LLC TIMELY PREFETCHES:        337 LATE PREFETCHES: 0 DROPPED PREFETCHES: 0
LLC PREFETCHES SAME FILL-ORIGIN LEVEL: 389 DIFFERENT FILL-ORIGIN LEVEL: 0
LLC AVERAGE MISS LATENCY: 139.593 cycles
LLC RQ	ACCESS:     325522	FORWARD:          0	MERGED:          0	TO_CACHE:     325522
LLC WQ	ACCESS:       7577	FORWARD:          0	MERGED:          0	TO_CACHE:       7577
LLC PQ	ACCESS:       2094	FORWARD:          0	MERGED:          0	TO_CACHE:       2094

LLC Dense regions hint to LLC: 0

RAW hits: 68445
Loads Generated: 5666926
Loads sent to L1D: 5598481
Stores Generated: 710673
Stores sent to L1D: 710675
Major fault: 0 Minor fault: 12142
Allocated PAGES: 12142
 All Calls: 769893
 Critical Calls: 408086
------------------
Depth Distribution
------------------
depth 0: 0
depth 1: 132911
depth 2: 30732
depth 3: 5423
depth 4: 831
depth 5: 146
depth 6: 32
depth 7: 12
depth 8: 6
depth 9: 0
depth 10: 0
depth 11: 0
depth 12: 0
depth 13: 0
depth 14: 0
depth 15: 0
depth 16: 0
depth 17: 0
depth 18: 0
depth 19: 0
depth 20: 0
depth 21: 0
depth 22: 0
depth 23: 0
depth 24: 0
depth 25: 0
depth 26: 0
depth 27: 0
depth 28: 0
depth 29: 0
Total: 170093
-----------------------------
-----------------------------
	Captured at Filter
-----------------------------
depth 0: 0
depth 1: 160
depth 2: 45
depth 3: 4
depth 4: 0
depth 5: 0
depth 6: 0
depth 7: 0
depth 8: 0
depth 9: 0
depth 10: 0
depth 11: 0
depth 12: 0
depth 13: 0
depth 14: 0
depth 15: 0
depth 16: 0
depth 17: 0
depth 18: 0
depth 19: 0
depth 20: 0
depth 21: 0
depth 22: 0
depth 23: 0
depth 24: 0
depth 25: 0
depth 26: 0
depth 27: 0
depth 28: 0
depth 29: 0
-----------------------------
-----------------------------
		Lost at Page
-----------------------------
depth 0: 0
depth 1: 5380
depth 2: 1461
depth 3: 355
depth 4: 62
depth 5: 15
depth 6: 1
depth 7: 2
depth 8: 2
depth 9: 0
depth 10: 0
depth 11: 0
depth 12: 0
depth 13: 0
depth 14: 0
depth 15: 0
depth 16: 0
depth 17: 0
depth 18: 0
depth 19: 0
depth 20: 0
depth 21: 0
depth 22: 0
depth 23: 0
depth 24: 0
depth 25: 0
depth 26: 0
depth 27: 0
depth 28: 0
depth 29: 0
-----------------------------
-----------------------------
	Lost due to PQ Size
-----------------------------
0
-----------------------------
ST read accesses: 57154
ST write accesses: 1520
PT read accesses: 662584
PT write accesses: 84118
FILTER read accesses: 341783
FILTER write accesses: 281698
GHR read accesses: 13296
GHR write accesses: 131
GHR counter read accesses: 364228
GHR counter write accesses: 59310
ST tag read accesses: 23261089
ST tag write accesses: 1594875

DRAM Statistics
 CHANNEL 0
 RQ ROW_BUFFER_HIT:      69302  ROW_BUFFER_MISS:     142908
 DBUS_CONGESTED:          6
 WQ ROW_BUFFER_HIT:       1771  ROW_BUFFER_MISS:       5110  FULL:          0

 AVG_CONGESTED_CYCLE: 3
 All warmup complete: 2
Channel 0 Bank busy for read cycles: 0
Channel 0 Bank busy for write cycles: 0
Channel 0
Rank 0
0banks busy for read cycles: 57271287
0banks busy for write cycles: 6206
1banks busy for read cycles: 17266469
1banks busy for write cycles: 1282601
2banks busy for read cycles: 2734122
2banks busy for write cycles: 71635
3banks busy for read cycles: 500791
3banks busy for write cycles: 6576
4banks busy for read cycles: 151801
4banks busy for write cycles: 4211
5banks busy for read cycles: 6382
5banks busy for write cycles: 1963
6banks busy for read cycles: 1442
6banks busy for write cycles: 3064
7banks busy for read cycles: 1224
7banks busy for write cycles: 1297
8banks busy for read cycles: 990
8banks busy for write cycles: 1112

CPU 0 Branch Prediction Accuracy: 98.7219% MPKI: 1.7429 Average ROB Occupancy at Mispredict: 81.4559
Branch types
NOT_BRANCH: 0 0%
BRANCH_DIRECT_JUMP: 0 0%
BRANCH_INDIRECT: 0 0%
BRANCH_CONDITIONAL: 0 0%
BRANCH_DIRECT_CALL: 0 0%
BRANCH_INDIRECT_CALL: 0 0%
BRANCH_RETURN: 0 0%
BRANCH_OTHER: 0 0%

DRAM PAGES: 1048576
Allocated PAGES: 12142
