
*** ChampSim Multicore Out-of-Order Simulator ***

Warmup Instructions: 50000000
Simulation Instructions: 50000000
Number of CPUs: 1
LLC sets: 2048
LLC ways: 16
Off-chip DRAM Size: 4096 MB Channels: 1 Width: 64-bit Data Rate: 6400 MT/s
CPU 0 runs ../cloudsuite_traces//classification_phase1_core1.trace.gz
.gz
BTB has LRU replacement policy
ITLB has LRU replacement policy
DTLB has LRU replacement policy
STLB has LRU replacement policy
L1I has LRU replacement policy
L1D has LRU replacement policy
Bingo PHT WAYS: 16 and PHT_SIZE: 16384
Initialize SRRIP state for L2C
Initialize DRRIP state for LLC
UNIQUE_ASID[0] = 
UNIQUE_ASID[1] = €
Heartbeat CPU 0 instructions: 10000000 cycles: 2640438 heartbeat IPC: 3.78725 cumulative IPC: 3.78725 (Simulation time: 0 hr 1 min 50 sec) 
Heartbeat CPU 0 instructions: 20000000 cycles: 5278021 heartbeat IPC: 3.79135 cumulative IPC: 3.7893 (Simulation time: 0 hr 3 min 5 sec) 
Heartbeat CPU 0 instructions: 30000003 cycles: 7916849 heartbeat IPC: 3.78956 cumulative IPC: 3.78939 (Simulation time: 0 hr 4 min 10 sec) 
Heartbeat CPU 0 instructions: 40000001 cycles: 10554410 heartbeat IPC: 3.79138 cumulative IPC: 3.78989 (Simulation time: 0 hr 5 min 17 sec) 
Heartbeat CPU 0 instructions: 50000003 cycles: 13194066 heartbeat IPC: 3.78837 cumulative IPC: 3.78958 (Simulation time: 0 hr 6 min 24 sec) 

Warmup complete CPU 0 instructions: 50000003 cycles: 13194066 (Simulation time: 0 hr 6 min 24 sec) 

Heartbeat CPU 0 instructions: 60000003 cycles: 28823259 heartbeat IPC: 0.639828 cumulative IPC: 0.639828 (Simulation time: 0 hr 7 min 48 sec) 
Heartbeat CPU 0 instructions: 70000001 cycles: 44363060 heartbeat IPC: 0.643509 cumulative IPC: 0.641663 (Simulation time: 0 hr 9 min 9 sec) 
Heartbeat CPU 0 instructions: 80000000 cycles: 59956582 heartbeat IPC: 0.641292 cumulative IPC: 0.641539 (Simulation time: 0 hr 10 min 28 sec) 
Heartbeat CPU 0 instructions: 90000003 cycles: 75605157 heartbeat IPC: 0.639036 cumulative IPC: 0.640912 (Simulation time: 0 hr 11 min 50 sec) 
Heartbeat CPU 0 instructions: 100000000 cycles: 91071057 heartbeat IPC: 0.646584 cumulative IPC: 0.642038 (Simulation time: 0 hr 13 min 1 sec) 
Finished CPU 0 instructions: 50000001 cycles: 77876992 cumulative IPC: 0.642038 (Simulation time: 0 hr 13 min 1 sec) 

ChampSim completed all CPUs

Region of Interest Statistics

CPU 0 cumulative IPC: 0.642038 instructions: 50000001 cycles: 77876992

CPU 0 Average Load ROB stall cycles: 1.84341e+07
CPU 0 Fraction of times ROB stalled by Loads: 35.2133
CPU 0 Percentage of Load stall cycles in Total stall cycles: 1.40341e+08
Issued all: 38266761
Issued LT all: 31971719
rob_not_full_when_issued_lt_all: 19795818
Issued LT one: 28091549
rob_not_full_when_issued_lt_one: 16402098
FVP critical_dynamic_instances_0: 2777105
FVP unique_critical_ips_0: 381
 Total stall cycles: 65438716
 Total load stall cycles: 91837281636625
Unique Load IPs: 1698
CPU 0 NUM of IPS identified critical: 0
CPU 0 Num of Load IPs stalling ROB: 0
Threshold modification factor: 0
Trouble in retire width: -nan
MaC = Marked as critical.
lt_50_percent_before_Mac: 0
gt_90_percent_before_Mac: 0
gt_75_percent_before_Mac: 0
gt_50_percent_before_Mac: 0
stall_proportion_bin_same_before_after: 0
stall_proportion_bin_lower_before_after: 0
stall_proportion_bin_upper_before_after: 0
average_stall_proportion_before: -nan
average_stall_proportion_after: -nan
Critical IP stalls, total frequency: 0
Non-critical IP stalls, total frequency: 0
Total Freq all stalling IPs: 0
Critical_IP_Detector_Accuracy_70: 0.00262467
Critical_IP_Detector_Accuracy_80: 0.00262467
Critical_IP_Detector_Accuracy_90: 0.00262467
Critical_IP_Detector_Coverage_70: 1
Critical_IP_Detector_Coverage_80: 1
Critical_IP_Detector_Coverage_90: 1
stat_90_percent_critical_ip_stalls_freq: 124116
stat_90_percent_non_critical_ip_stalls_freq: 18446744073709427500
AVERAGE_ROB_Occupancy_90_Percent_Critical_IP_Stalls: 86.9977
AVERAGE_ROB_Occupancy_90_Percent_Non_Critical_IP_Stalls: 7.7993e-12
Critical_IP_ROB_Stalls_Bucket_0: 0
Non-critical_IP_ROB_Stalls_Bucket_0: 904668
Critical_IP_ROB_Stalls_Bucket_1: 0
Non-critical_IP_ROB_Stalls_Bucket_1: 400462
Critical_IP_ROB_Stalls_Bucket_2: 0
Non-critical_IP_ROB_Stalls_Bucket_2: 127525
Critical_IP_ROB_Stalls_Bucket_3: 0
Non-critical_IP_ROB_Stalls_Bucket_3: 88185
Critical_IP_ROB_Stalls_Bucket_4: 0
Non-critical_IP_ROB_Stalls_Bucket_4: 66189
Critical_IP_ROB_Stalls_Bucket_5: 0
Non-critical_IP_ROB_Stalls_Bucket_5: 55950
Critical_IP_ROB_Stalls_Bucket_6: 0
Non-critical_IP_ROB_Stalls_Bucket_6: 111322
0 => IPs accounting for >50 percent of stalls, 1 => 55, 2 => 60, 3 => 65 and so on till 90.
percent50: inf num IPs:  1
percent55: inf num IPs: 1
percent60: inf num IPs: 1
percent65: inf num IPs: 1
percent70: inf num IPs: 1
percent75: inf num IPs: 1
percent80: inf num IPs: 1
percent85: inf num IPs: 1
percent90: inf num IPs: 1
Critical_ROB_Stalls_Percent_0_Bucket_0: 72756
Non-critical_ROB_Stalls_Percent_0_Bucket_0: 831912
Critical_ROB_Stalls_Percent_0_Bucket_1: 18649
Non-critical_ROB_Stalls_Percent_0_Bucket_1: 381813
Critical_ROB_Stalls_Percent_0_Bucket_2: 7666
Non-critical_ROB_Stalls_Percent_0_Bucket_2: 119859
Critical_ROB_Stalls_Percent_0_Bucket_3: 4773
Non-critical_ROB_Stalls_Percent_0_Bucket_3: 83412
Critical_ROB_Stalls_Percent_0_Bucket_4: 4954
Non-critical_ROB_Stalls_Percent_0_Bucket_4: 61235
Critical_ROB_Stalls_Percent_0_Bucket_5: 8281
Non-critical_ROB_Stalls_Percent_0_Bucket_5: 47669
Critical_ROB_Stalls_Percent_0_Bucket_6: 7037
Non-critical_ROB_Stalls_Percent_0_Bucket_6: 104285
Critical_ROB_Stalls_Percent_1_Bucket_0: 72756
Non-critical_ROB_Stalls_Percent_1_Bucket_0: 831912
Critical_ROB_Stalls_Percent_1_Bucket_1: 18649
Non-critical_ROB_Stalls_Percent_1_Bucket_1: 381813
Critical_ROB_Stalls_Percent_1_Bucket_2: 7666
Non-critical_ROB_Stalls_Percent_1_Bucket_2: 119859
Critical_ROB_Stalls_Percent_1_Bucket_3: 4773
Non-critical_ROB_Stalls_Percent_1_Bucket_3: 83412
Critical_ROB_Stalls_Percent_1_Bucket_4: 4954
Non-critical_ROB_Stalls_Percent_1_Bucket_4: 61235
Critical_ROB_Stalls_Percent_1_Bucket_5: 8281
Non-critical_ROB_Stalls_Percent_1_Bucket_5: 47669
Critical_ROB_Stalls_Percent_1_Bucket_6: 7037
Non-critical_ROB_Stalls_Percent_1_Bucket_6: 104285
Critical_ROB_Stalls_Percent_2_Bucket_0: 72756
Non-critical_ROB_Stalls_Percent_2_Bucket_0: 831912
Critical_ROB_Stalls_Percent_2_Bucket_1: 18649
Non-critical_ROB_Stalls_Percent_2_Bucket_1: 381813
Critical_ROB_Stalls_Percent_2_Bucket_2: 7666
Non-critical_ROB_Stalls_Percent_2_Bucket_2: 119859
Critical_ROB_Stalls_Percent_2_Bucket_3: 4773
Non-critical_ROB_Stalls_Percent_2_Bucket_3: 83412
Critical_ROB_Stalls_Percent_2_Bucket_4: 4954
Non-critical_ROB_Stalls_Percent_2_Bucket_4: 61235
Critical_ROB_Stalls_Percent_2_Bucket_5: 8281
Non-critical_ROB_Stalls_Percent_2_Bucket_5: 47669
Critical_ROB_Stalls_Percent_2_Bucket_6: 7037
Non-critical_ROB_Stalls_Percent_2_Bucket_6: 104285
Critical_ROB_Stalls_Percent_3_Bucket_0: 72756
Non-critical_ROB_Stalls_Percent_3_Bucket_0: 831912
Critical_ROB_Stalls_Percent_3_Bucket_1: 18649
Non-critical_ROB_Stalls_Percent_3_Bucket_1: 381813
Critical_ROB_Stalls_Percent_3_Bucket_2: 7666
Non-critical_ROB_Stalls_Percent_3_Bucket_2: 119859
Critical_ROB_Stalls_Percent_3_Bucket_3: 4773
Non-critical_ROB_Stalls_Percent_3_Bucket_3: 83412
Critical_ROB_Stalls_Percent_3_Bucket_4: 4954
Non-critical_ROB_Stalls_Percent_3_Bucket_4: 61235
Critical_ROB_Stalls_Percent_3_Bucket_5: 8281
Non-critical_ROB_Stalls_Percent_3_Bucket_5: 47669
Critical_ROB_Stalls_Percent_3_Bucket_6: 7037
Non-critical_ROB_Stalls_Percent_3_Bucket_6: 104285
Critical_ROB_Stalls_Percent_4_Bucket_0: 72756
Non-critical_ROB_Stalls_Percent_4_Bucket_0: 831912
Critical_ROB_Stalls_Percent_4_Bucket_1: 18649
Non-critical_ROB_Stalls_Percent_4_Bucket_1: 381813
Critical_ROB_Stalls_Percent_4_Bucket_2: 7666
Non-critical_ROB_Stalls_Percent_4_Bucket_2: 119859
Critical_ROB_Stalls_Percent_4_Bucket_3: 4773
Non-critical_ROB_Stalls_Percent_4_Bucket_3: 83412
Critical_ROB_Stalls_Percent_4_Bucket_4: 4954
Non-critical_ROB_Stalls_Percent_4_Bucket_4: 61235
Critical_ROB_Stalls_Percent_4_Bucket_5: 8281
Non-critical_ROB_Stalls_Percent_4_Bucket_5: 47669
Critical_ROB_Stalls_Percent_4_Bucket_6: 7037
Non-critical_ROB_Stalls_Percent_4_Bucket_6: 104285
Critical_ROB_Stalls_Percent_5_Bucket_0: 72756
Non-critical_ROB_Stalls_Percent_5_Bucket_0: 831912
Critical_ROB_Stalls_Percent_5_Bucket_1: 18649
Non-critical_ROB_Stalls_Percent_5_Bucket_1: 381813
Critical_ROB_Stalls_Percent_5_Bucket_2: 7666
Non-critical_ROB_Stalls_Percent_5_Bucket_2: 119859
Critical_ROB_Stalls_Percent_5_Bucket_3: 4773
Non-critical_ROB_Stalls_Percent_5_Bucket_3: 83412
Critical_ROB_Stalls_Percent_5_Bucket_4: 4954
Non-critical_ROB_Stalls_Percent_5_Bucket_4: 61235
Critical_ROB_Stalls_Percent_5_Bucket_5: 8281
Non-critical_ROB_Stalls_Percent_5_Bucket_5: 47669
Critical_ROB_Stalls_Percent_5_Bucket_6: 7037
Non-critical_ROB_Stalls_Percent_5_Bucket_6: 104285
Critical_ROB_Stalls_Percent_6_Bucket_0: 72756
Non-critical_ROB_Stalls_Percent_6_Bucket_0: 831912
Critical_ROB_Stalls_Percent_6_Bucket_1: 18649
Non-critical_ROB_Stalls_Percent_6_Bucket_1: 381813
Critical_ROB_Stalls_Percent_6_Bucket_2: 7666
Non-critical_ROB_Stalls_Percent_6_Bucket_2: 119859
Critical_ROB_Stalls_Percent_6_Bucket_3: 4773
Non-critical_ROB_Stalls_Percent_6_Bucket_3: 83412
Critical_ROB_Stalls_Percent_6_Bucket_4: 4954
Non-critical_ROB_Stalls_Percent_6_Bucket_4: 61235
Critical_ROB_Stalls_Percent_6_Bucket_5: 8281
Non-critical_ROB_Stalls_Percent_6_Bucket_5: 47669
Critical_ROB_Stalls_Percent_6_Bucket_6: 7037
Non-critical_ROB_Stalls_Percent_6_Bucket_6: 104285
Critical_ROB_Stalls_Percent_7_Bucket_0: 72756
Non-critical_ROB_Stalls_Percent_7_Bucket_0: 831912
Critical_ROB_Stalls_Percent_7_Bucket_1: 18649
Non-critical_ROB_Stalls_Percent_7_Bucket_1: 381813
Critical_ROB_Stalls_Percent_7_Bucket_2: 7666
Non-critical_ROB_Stalls_Percent_7_Bucket_2: 119859
Critical_ROB_Stalls_Percent_7_Bucket_3: 4773
Non-critical_ROB_Stalls_Percent_7_Bucket_3: 83412
Critical_ROB_Stalls_Percent_7_Bucket_4: 4954
Non-critical_ROB_Stalls_Percent_7_Bucket_4: 61235
Critical_ROB_Stalls_Percent_7_Bucket_5: 8281
Non-critical_ROB_Stalls_Percent_7_Bucket_5: 47669
Critical_ROB_Stalls_Percent_7_Bucket_6: 7037
Non-critical_ROB_Stalls_Percent_7_Bucket_6: 104285
Critical_ROB_Stalls_Percent_8_Bucket_0: 72756
Non-critical_ROB_Stalls_Percent_8_Bucket_0: 831912
Critical_ROB_Stalls_Percent_8_Bucket_1: 18649
Non-critical_ROB_Stalls_Percent_8_Bucket_1: 381813
Critical_ROB_Stalls_Percent_8_Bucket_2: 7666
Non-critical_ROB_Stalls_Percent_8_Bucket_2: 119859
Critical_ROB_Stalls_Percent_8_Bucket_3: 4773
Non-critical_ROB_Stalls_Percent_8_Bucket_3: 83412
Critical_ROB_Stalls_Percent_8_Bucket_4: 4954
Non-critical_ROB_Stalls_Percent_8_Bucket_4: 61235
Critical_ROB_Stalls_Percent_8_Bucket_5: 8281
Non-critical_ROB_Stalls_Percent_8_Bucket_5: 47669
Critical_ROB_Stalls_Percent_8_Bucket_6: 7037
Non-critical_ROB_Stalls_Percent_8_Bucket_6: 104285
Average ROB occupancy Load Stall Begin: 69.3087
Average ROB occupancy Load Stall End: 88.1659
Min ROB occupancy Load Stall Begin: 1
Max ROB occupancy Load Stall Begin: 352
Min ROB occupancy Load Stall End: 1
Max ROB occupancy Load Stall End: 352
Average ROB occupancy Critical Load Stall Begin: -nan
Average ROB occupancy Critical Load Stall End: -nan
Min ROB occupancy Critical Load Stall Begin: 400
Max ROB occupancy Critical Load Stall Begin: 0
Min ROB occupancy Critical Load Stall End: 400
Max ROB occupancy Critical Load Stall End: 0
 ROB Load Stall Begin Bucket Count 0: 1142327
 ROB Load Stall End Bucket Count 0: 904668
 ROB Critical Load Stall Begin Bucket Count 0: 0
 ROB Critical Load Stall End Bucket Count 0: 0
 ROB Load Stall Begin Bucket Count 1: 257321
 ROB Load Stall End Bucket Count 1: 400462
 ROB Critical Load Stall Begin Bucket Count 1: 0
 ROB Critical Load Stall End Bucket Count 1: 0
 ROB Load Stall Begin Bucket Count 2: 96489
 ROB Load Stall End Bucket Count 2: 127525
 ROB Critical Load Stall Begin Bucket Count 2: 0
 ROB Critical Load Stall End Bucket Count 2: 0
 ROB Load Stall Begin Bucket Count 3: 71550
 ROB Load Stall End Bucket Count 3: 88185
 ROB Critical Load Stall Begin Bucket Count 3: 0
 ROB Critical Load Stall End Bucket Count 3: 0
 ROB Load Stall Begin Bucket Count 4: 69510
 ROB Load Stall End Bucket Count 4: 66189
 ROB Critical Load Stall Begin Bucket Count 4: 0
 ROB Critical Load Stall End Bucket Count 4: 0
 ROB Load Stall Begin Bucket Count 5: 37897
 ROB Load Stall End Bucket Count 5: 55950
 ROB Critical Load Stall Begin Bucket Count 5: 0
 ROB Critical Load Stall End Bucket Count 5: 0
 ROB Load Stall Begin Bucket Count 6: 79207
 ROB Load Stall End Bucket Count 6: 111322
 ROB Critical Load Stall Begin Bucket Count 6: 0
 ROB Critical Load Stall End Bucket Count 6: 0
PIST Tag Read Accesses: 0
PIST Read Accesses: 0
PIST Tag Write Accesses: 0
PIST Write Accesses: 0
Criticality detector called times: 0
Max global_stall_cycles_count: 0
Threshold Modified: 0 times, factor: 0
ITLB TOTAL     ACCESS:    7405189  HIT:    7115029  MISS:     290160  HIT %:    96.0817  MISS %:    3.91833   MPKI: 5.8032
ITLB LOAD TRANSLATION ACCESS:    7405189  HIT:    7115029  MISS:     290160  HIT %:    96.0817  MISS %:    3.91833   MPKI: 5.8032
ITLB PREFETCH  REQUESTED:          0  ISSUED:          0  USEFUL:          0  USELESS:          0
ITLB USEFUL LOAD PREFETCHES:          0 PREFETCH ISSUED TO LOWER LEVEL:          0  ACCURACY: -nan
ITLB TIMELY PREFETCHES:          0 LATE PREFETCHES: 0 DROPPED PREFETCHES: 0
ITLB PREFETCHES SAME FILL-ORIGIN LEVEL: 0 DIFFERENT FILL-ORIGIN LEVEL: 0
ITLB AVERAGE MISS LATENCY: 36.7973 cycles
ITLB RQ	ACCESS:    9752128	FORWARD:          0	MERGED:    2217162	TO_CACHE:    7534966

DTLB TOTAL     ACCESS:    4062244  HIT:    1761636  MISS:    2300608  HIT %:    43.3661  MISS %:    56.6339   MPKI: 46.0122
DTLB LOAD TRANSLATION ACCESS:    4062244  HIT:    1761636  MISS:    2300608  HIT %:    43.3661  MISS %:    56.6339   MPKI: 46.0122
DTLB PREFETCH  REQUESTED:          0  ISSUED:          0  USEFUL:          0  USELESS:          0
DTLB USEFUL LOAD PREFETCHES:          0 PREFETCH ISSUED TO LOWER LEVEL:          0  ACCURACY: -nan
DTLB TIMELY PREFETCHES:          0 LATE PREFETCHES: 0 DROPPED PREFETCHES: 0
DTLB PREFETCHES SAME FILL-ORIGIN LEVEL: 0 DIFFERENT FILL-ORIGIN LEVEL: 0
DTLB AVERAGE MISS LATENCY: 23.021 cycles
DTLB RQ	ACCESS:    4383048	FORWARD:          0	MERGED:     180180	TO_CACHE:    4202868

STLB TOTAL     ACCESS:    2590768  HIT:    1213612  MISS:    1377156  HIT %:    46.8437  MISS %:    53.1563   MPKI: 27.5431
STLB LOAD TRANSLATION ACCESS:    2590768  HIT:    1213612  MISS:    1377156  HIT %:    46.8437  MISS %:    53.1563   MPKI: 27.5431
STLB PREFETCH  REQUESTED:          0  ISSUED:          0  USEFUL:          0  USELESS:          0
STLB USEFUL LOAD PREFETCHES:          0 PREFETCH ISSUED TO LOWER LEVEL:          0  ACCURACY: -nan
STLB TIMELY PREFETCHES:          0 LATE PREFETCHES: 0 DROPPED PREFETCHES: 0
STLB PREFETCHES SAME FILL-ORIGIN LEVEL: 0 DIFFERENT FILL-ORIGIN LEVEL: 0
STLB AVERAGE MISS LATENCY: 29.2115 cycles
STLB RQ	ACCESS:    2590768	FORWARD:          0	MERGED:          0	TO_CACHE:    2590768

STLB Hit, L1D data hit: 0
STLB Hit, L2C data hit: 0
STLB Hit, LLC data hit: 0
STLB Hit, LLC data miss: 0
STLB STLB hints to L2: 0
L1D TOTAL     ACCESS:    4310621  HIT:    3885020  MISS:     425601  HIT %:    90.1267  MISS %:    9.87331   MPKI: 8.51202
L1D LOAD      ACCESS:    3656650  HIT:    3265172  MISS:     391478  HIT %:    89.2941  MISS %:    10.7059   MPKI: 7.82956
L1D RFO       ACCESS:     653971  HIT:     619848  MISS:      34123  HIT %:    94.7822  MISS %:    5.21782   MPKI: 0.68246
L1D PREFETCH  REQUESTED:          0  ISSUED:          0  USEFUL:          0  USELESS:          0
L1D USEFUL LOAD PREFETCHES:          0 PREFETCH ISSUED TO LOWER LEVEL:          0  ACCURACY: -nan
L1D TIMELY PREFETCHES:          0 LATE PREFETCHES: 0 DROPPED PREFETCHES: 0
L1D PREFETCHES SAME FILL-ORIGIN LEVEL: 0 DIFFERENT FILL-ORIGIN LEVEL: 0
L1D AVERAGE MISS LATENCY: 92.3011 cycles
L1D RQ	ACCESS:    5598181	FORWARD:          0	MERGED:    1919227	TO_CACHE:    3673966
L1D WQ	ACCESS:     710675	FORWARD:       4988	MERGED:       1593	TO_CACHE:     709082

L1D UNIQUE REGIONS ACCESSED: 0
L1D REGIONS CONFLICTS: 0
L1D Cross Page Prefetch Requests: 0
L1D Same Page Prefetch Requests: 0
L1D ROI Sum of L1D PQ occupancy: 0
L1D PREFETCHES PUSHED FROM L2C: 0
L1I TOTAL     ACCESS:    9751680  HIT:    9750365  MISS:       1315  HIT %:    99.9865  MISS %:  0.0134849   MPKI: 0.0263
L1I LOAD      ACCESS:    9751680  HIT:    9750365  MISS:       1315  HIT %:    99.9865  MISS %:  0.0134849   MPKI: 0.0263
L1I PREFETCH  REQUESTED:          0  ISSUED:          0  USEFUL:          0  USELESS:          0
L1I USEFUL LOAD PREFETCHES:          0 PREFETCH ISSUED TO LOWER LEVEL:          0  ACCURACY: -nan
L1I TIMELY PREFETCHES:          0 LATE PREFETCHES: 0 DROPPED PREFETCHES: 0
L1I PREFETCHES SAME FILL-ORIGIN LEVEL: 0 DIFFERENT FILL-ORIGIN LEVEL: 0
L1I AVERAGE MISS LATENCY: 191.53 cycles
L1I RQ	ACCESS:   14981090	FORWARD:          0	MERGED:    5228962	TO_CACHE:    9752128

BTB BRANCH_DIRECT_JUMP	ACCESS:          0  HIT:          0  MISS:          0
BTB BRANCH_INDIRECT	ACCESS:          0  HIT:          0  MISS:          0
BTB BRANCH_CONDITIONAL	ACCESS:          0  HIT:          0  MISS:          0
BTB BRANCH_DIRECT_CALL	ACCESS:          0  HIT:          0  MISS:          0
BTB BRANCH_INDIRECT_CALL	ACCESS:          0  HIT:          0  MISS:          0
BTB BRANCH_RETURN	ACCESS:          0  HIT:          0  MISS:          0
BTB BRANCH_OTHER ACCESS:          0  HIT:          0  MISS:          0

L2C TOTAL     ACCESS:    2255456  HIT:    1793313  MISS:     462143  HIT %:      79.51  MISS %:      20.49   MPKI: 9.24286
L2C LOAD      ACCESS:     392791  HIT:     166467  MISS:     226324  HIT %:    42.3806  MISS %:    57.6194   MPKI: 4.52648
L2C DATA LOAD MPKI: 4.50086
L2C INSTRUCTION LOAD MPKI: 0.02562
L2C RFO       ACCESS:      34122  HIT:      26008  MISS:       8114  HIT %:    76.2206  MISS %:    23.7794   MPKI: 0.16228
L2C PREFETCH  ACCESS:     277906  HIT:      87251  MISS:     190655  HIT %:    31.3959  MISS %:    68.6041   MPKI: 3.8131
L2C DATA PREFETCH MPKI: 3.8131
L2C INSTRUCTION PREFETCH MPKI: 0
L2C WRITEBACK ACCESS:      47772  HIT:      47386  MISS:        386  HIT %:     99.192  MISS %:   0.808005   MPKI: 0.00772
L2C LOAD TRANSLATION ACCESS:    1502865  HIT:    1466201  MISS:      36664  HIT %:    97.5604  MISS %:    2.43961   MPKI: 0.73328
L2C PREFETCH  REQUESTED:     279262  ISSUED:     279262  USEFUL:      62579  USELESS:     126978
L2C USEFUL LOAD PREFETCHES:      62579 PREFETCH ISSUED TO LOWER LEVEL:     191343  ACCURACY: 32.7051
L2C TIMELY PREFETCHES:      62579 LATE PREFETCHES: 688 DROPPED PREFETCHES: 0
L2C PREFETCHES SAME FILL-ORIGIN LEVEL: 191343 DIFFERENT FILL-ORIGIN LEVEL: 0
L2C AVERAGE MISS LATENCY: 129.17 cycles
L2C RQ	ACCESS:    1929781	FORWARD:          0	MERGED:          0	TO_CACHE:    1929778
L2C WQ	ACCESS:      47772	FORWARD:          3	MERGED:          0	TO_CACHE:      47772
L2C PQ	ACCESS:     279262	FORWARD:          0	MERGED:          0	TO_CACHE:     279262

L2C Instructions Evicting Data 1194
L2C Translations Evicting Data 33782
L2C Data Evicting Data 387395
L2C Instructions Evicting Instructions 2
L2C Translations Evicting Instructions 107
L2C Data Evicting Instructions 1159
L2C Instructions Evicting Translations 85
L2C Translations Evicting Translations 2775
L2C Data Evicting Translations 35258
L2C Dense regions hint from L2: 0
PSCL5 TOTAL     ACCESS:    1377156  HIT:    1377156  MISS:          0  HIT %:        100  MISS %:          0   MPKI: 0
PSCL5 LOAD TRANSLATION ACCESS:    1377156  HIT:    1377156  MISS:          0  HIT %:        100  MISS %:          0   MPKI: 0
PSCL5 PREFETCH  REQUESTED:          0  ISSUED:          0  USEFUL:          0  USELESS:          0
PSCL5 USEFUL LOAD PREFETCHES:          0 PREFETCH ISSUED TO LOWER LEVEL:          0  ACCURACY: -nan
PSCL5 TIMELY PREFETCHES:          0 LATE PREFETCHES: 0 DROPPED PREFETCHES: 0
PSCL5 PREFETCHES SAME FILL-ORIGIN LEVEL: 0 DIFFERENT FILL-ORIGIN LEVEL: 0

PSCL4 TOTAL     ACCESS:    1377156  HIT:    1377156  MISS:          0  HIT %:        100  MISS %:          0   MPKI: 0
PSCL4 LOAD TRANSLATION ACCESS:    1377156  HIT:    1377156  MISS:          0  HIT %:        100  MISS %:          0   MPKI: 0
PSCL4 PREFETCH  REQUESTED:          0  ISSUED:          0  USEFUL:          0  USELESS:          0
PSCL4 USEFUL LOAD PREFETCHES:          0 PREFETCH ISSUED TO LOWER LEVEL:          0  ACCURACY: -nan
PSCL4 TIMELY PREFETCHES:          0 LATE PREFETCHES: 0 DROPPED PREFETCHES: 0
PSCL4 PREFETCHES SAME FILL-ORIGIN LEVEL: 0 DIFFERENT FILL-ORIGIN LEVEL: 0

PSCL3 TOTAL     ACCESS:    1377094  HIT:    1377073  MISS:         21  HIT %:    99.9985  MISS %: 0.00152495   MPKI: 0.00042
PSCL3 LOAD TRANSLATION ACCESS:    1377094  HIT:    1377073  MISS:         21  HIT %:    99.9985  MISS %: 0.00152495   MPKI: 0.00042
PSCL3 PREFETCH  REQUESTED:          0  ISSUED:          0  USEFUL:          0  USELESS:          0
PSCL3 USEFUL LOAD PREFETCHES:          0 PREFETCH ISSUED TO LOWER LEVEL:          0  ACCURACY: -nan
PSCL3 TIMELY PREFETCHES:          0 LATE PREFETCHES: 0 DROPPED PREFETCHES: 0
PSCL3 PREFETCHES SAME FILL-ORIGIN LEVEL: 0 DIFFERENT FILL-ORIGIN LEVEL: 0

PSCL2 TOTAL     ACCESS:    1377156  HIT:    1251444  MISS:     125712  HIT %:    90.8716  MISS %:    9.12838   MPKI: 2.51424
PSCL2 LOAD TRANSLATION ACCESS:    1377156  HIT:    1251444  MISS:     125712  HIT %:    90.8716  MISS %:    9.12838   MPKI: 2.51424
PSCL2 PREFETCH  REQUESTED:          0  ISSUED:          0  USEFUL:          0  USELESS:          0
PSCL2 USEFUL LOAD PREFETCHES:          0 PREFETCH ISSUED TO LOWER LEVEL:          0  ACCURACY: -nan
PSCL2 TIMELY PREFETCHES:          0 LATE PREFETCHES: 0 DROPPED PREFETCHES: 0
PSCL2 PREFETCHES SAME FILL-ORIGIN LEVEL: 0 DIFFERENT FILL-ORIGIN LEVEL: 0

LLC TOTAL     ACCESS:     469724  HIT:     154726  MISS:     314998  HIT %:    32.9398  MISS %:    67.0602   MPKI: 6.29996
LLC LOAD      ACCESS:     225636  HIT:      46803  MISS:     178833  HIT %:    20.7427  MISS %:    79.2573   MPKI: 3.57666
LLC RFO       ACCESS:       8114  HIT:        141  MISS:       7973  HIT %:    1.73774  MISS %:    98.2623   MPKI: 0.15946
LLC PREFETCH  ACCESS:     191343  HIT:      76907  MISS:     114436  HIT %:    40.1933  MISS %:    59.8067   MPKI: 2.28872
LLC WRITEBACK ACCESS:       7967  HIT:       7144  MISS:        823  HIT %:    89.6699  MISS %:    10.3301   MPKI: 0.01646
LLC LOAD TRANSLATION ACCESS:      36664  HIT:      23731  MISS:      12933  HIT %:    64.7256  MISS %:    35.2744   MPKI: 0.25866
LLC PREFETCH  REQUESTED:          0  ISSUED:          0  USEFUL:       2318  USELESS:      99517
LLC USEFUL LOAD PREFETCHES:       2318 PREFETCH ISSUED TO LOWER LEVEL:     114436  ACCURACY: 2.02559
LLC TIMELY PREFETCHES:       2318 LATE PREFETCHES: 0 DROPPED PREFETCHES: 0
LLC PREFETCHES SAME FILL-ORIGIN LEVEL: 0 DIFFERENT FILL-ORIGIN LEVEL: 0
LLC AVERAGE MISS LATENCY: 145.606 cycles
LLC RQ	ACCESS:     270414	FORWARD:          0	MERGED:          0	TO_CACHE:     270414
LLC WQ	ACCESS:       7967	FORWARD:          0	MERGED:          0	TO_CACHE:       7967
LLC PQ	ACCESS:     191343	FORWARD:          0	MERGED:          0	TO_CACHE:     191343

LLC Dense regions hint to LLC: 0

RAW hits: 68745
Loads Generated: 5666926
Loads sent to L1D: 5598181
Stores Generated: 710673
Stores sent to L1D: 710675
Major fault: 0 Minor fault: 12142
Allocated PAGES: 12142
[Bingo] PHT Access: 67086
[Bingo] PHT Hit PC+Addr: 9507
[Bingo] PHT Hit PC+Offs: 45582
[Bingo] PHT Miss: 11997
[Bingo] Prefetch PC+Addr: 0
[Bingo] Prefetch PC+Offs: 0
[Bingo] Useful PC+Addr: 0
[Bingo] Useful PC+Offs: 0
[Bingo] Useless PC+Addr: 0
[Bingo] Useless PC+Offs: 0
[Bingo] L1 Prefetch per Region: 0
[Bingo] L2 Prefetch per Region: 6.21523
[Bingo] L3 Prefetch per Region: 0
[Bingo] No Prefetch per Region: 25.7848
[Bingo] Number of Voters Mean: 7.92429
[Bingo] Number of Voters SD: 5.81904
PHT read accesses: 481834
PHT write accesses: 16526
AT read accesses: 134226
AT write accesses: 135265
FT read accesses: 59817
FT write accesses: 67086
PS read accesses: 113725
PS write accesses: 55089
PHT tag read accesses: 1389997
PHT tag write accesses: 26033
AT tag read accesses: 11009798
AT tag write accesses: 150822
FT tag read accesses: 10934721
FT tag write accesses: 110078
PS tag read accesses: 5009126
PS tag write accesses: 167861

DRAM Statistics
 CHANNEL 0
 RQ ROW_BUFFER_HIT:     126701  ROW_BUFFER_MISS:     187474
 DBUS_CONGESTED:         22
 WQ ROW_BUFFER_HIT:       1834  ROW_BUFFER_MISS:       6527  FULL:          0

 AVG_CONGESTED_CYCLE: 4
 All warmup complete: 2
Channel 0 Bank busy for read cycles: 0
Channel 0 Bank busy for write cycles: 0
Channel 0
Rank 0
0banks busy for read cycles: 54608336
0banks busy for write cycles: 7205
1banks busy for read cycles: 15349966
1banks busy for write cycles: 1448470
2banks busy for read cycles: 3387956
2banks busy for write cycles: 141141
3banks busy for read cycles: 1246109
3banks busy for write cycles: 20713
4banks busy for read cycles: 738342
4banks busy for write cycles: 3675
5banks busy for read cycles: 332125
5banks busy for write cycles: 1527
6banks busy for read cycles: 260317
6banks busy for write cycles: 1210
7banks busy for read cycles: 211567
7banks busy for write cycles: 283
8banks busy for read cycles: 116975
8banks busy for write cycles: 1076

CPU 0 Branch Prediction Accuracy: 98.7219% MPKI: 1.7429 Average ROB Occupancy at Mispredict: 67.2587
Branch types
NOT_BRANCH: 0 0%
BRANCH_DIRECT_JUMP: 0 0%
BRANCH_INDIRECT: 0 0%
BRANCH_CONDITIONAL: 0 0%
BRANCH_DIRECT_CALL: 0 0%
BRANCH_INDIRECT_CALL: 0 0%
BRANCH_RETURN: 0 0%
BRANCH_OTHER: 0 0%

DRAM PAGES: 1048576
Allocated PAGES: 12142
