
*** ChampSim Multicore Out-of-Order Simulator ***

Warmup Instructions: 50000000
Simulation Instructions: 50000000
Number of CPUs: 1
LLC sets: 2048
LLC ways: 16
Off-chip DRAM Size: 4096 MB Channels: 1 Width: 64-bit Data Rate: 6400 MT/s
CPU 0 runs ../cloudsuite_traces//classification_phase1_core1.trace.gz
.gz
BTB has LRU replacement policy
ITLB has LRU replacement policy
DTLB has LRU replacement policy
STLB has LRU replacement policy
L1I has LRU replacement policy
IP Table Entries: 64
L1D has LRU replacement policy
Initialize SRRIP state for L2C
Initialize DRRIP state for LLC
UNIQUE_ASID[0] = 
UNIQUE_ASID[1] = €
Heartbeat CPU 0 instructions: 10000000 cycles: 2640444 heartbeat IPC: 3.78724 cumulative IPC: 3.78724 (Simulation time: 0 hr 1 min 54 sec) 
Heartbeat CPU 0 instructions: 20000000 cycles: 5278026 heartbeat IPC: 3.79135 cumulative IPC: 3.7893 (Simulation time: 0 hr 3 min 15 sec) 
Heartbeat CPU 0 instructions: 30000003 cycles: 7916861 heartbeat IPC: 3.78955 cumulative IPC: 3.78938 (Simulation time: 0 hr 4 min 31 sec) 
Heartbeat CPU 0 instructions: 40000001 cycles: 10554452 heartbeat IPC: 3.79134 cumulative IPC: 3.78987 (Simulation time: 0 hr 5 min 45 sec) 
Heartbeat CPU 0 instructions: 50000003 cycles: 13194100 heartbeat IPC: 3.78838 cumulative IPC: 3.78957 (Simulation time: 0 hr 6 min 50 sec) 

Warmup complete CPU 0 instructions: 50000003 cycles: 13194100 (Simulation time: 0 hr 6 min 50 sec) 

Heartbeat CPU 0 instructions: 60000003 cycles: 28777519 heartbeat IPC: 0.641708 cumulative IPC: 0.641708 (Simulation time: 0 hr 8 min 20 sec) 
Heartbeat CPU 0 instructions: 70000001 cycles: 44314326 heartbeat IPC: 0.643633 cumulative IPC: 0.642669 (Simulation time: 0 hr 9 min 48 sec) 
Heartbeat CPU 0 instructions: 80000000 cycles: 59903375 heartbeat IPC: 0.641476 cumulative IPC: 0.642271 (Simulation time: 0 hr 11 min 22 sec) 
Heartbeat CPU 0 instructions: 90000000 cycles: 75578582 heartbeat IPC: 0.63795 cumulative IPC: 0.641185 (Simulation time: 0 hr 12 min 37 sec) 
Heartbeat CPU 0 instructions: 100000000 cycles: 91095401 heartbeat IPC: 0.644462 cumulative IPC: 0.641838 (Simulation time: 0 hr 13 min 33 sec) 
Finished CPU 0 instructions: 50000001 cycles: 77901302 cumulative IPC: 0.641838 (Simulation time: 0 hr 13 min 33 sec) 

ChampSim completed all CPUs

Region of Interest Statistics

CPU 0 cumulative IPC: 0.641838 instructions: 50000001 cycles: 77901302

CPU 0 Average Load ROB stall cycles: 1.84674e+07
CPU 0 Fraction of times ROB stalled by Loads: 35.3323
CPU 0 Percentage of Load stall cycles in Total stall cycles: 1.39919e+08
Issued all: 38178368
Issued LT all: 31884764
rob_not_full_when_issued_lt_all: 19791571
Issued LT one: 28002244
rob_not_full_when_issued_lt_one: 16398472
FVP critical_dynamic_instances_0: 2788026
FVP unique_critical_ips_0: 388
 Total stall cycles: 65475622
 Total load stall cycles: 91612784820371
Unique Load IPs: 1698
CPU 0 NUM of IPS identified critical: 0
CPU 0 Num of Load IPs stalling ROB: 0
Threshold modification factor: 0
Trouble in retire width: -nan
MaC = Marked as critical.
lt_50_percent_before_Mac: 0
gt_90_percent_before_Mac: 0
gt_75_percent_before_Mac: 0
gt_50_percent_before_Mac: 0
stall_proportion_bin_same_before_after: 0
stall_proportion_bin_lower_before_after: 0
stall_proportion_bin_upper_before_after: 0
average_stall_proportion_before: -nan
average_stall_proportion_after: -nan
Critical IP stalls, total frequency: 0
Non-critical IP stalls, total frequency: 0
Total Freq all stalling IPs: 0
Critical_IP_Detector_Accuracy_70: 0.00257732
Critical_IP_Detector_Accuracy_80: 0.00257732
Critical_IP_Detector_Accuracy_90: 0.00257732
Critical_IP_Detector_Coverage_70: 1
Critical_IP_Detector_Coverage_80: 1
Critical_IP_Detector_Coverage_90: 1
stat_90_percent_critical_ip_stalls_freq: 122356
stat_90_percent_non_critical_ip_stalls_freq: 18446744073709429260
AVERAGE_ROB_Occupancy_90_Percent_Critical_IP_Stalls: 88.3889
AVERAGE_ROB_Occupancy_90_Percent_Non_Critical_IP_Stalls: 7.86822e-12
Critical_IP_ROB_Stalls_Bucket_0: 0
Non-critical_IP_ROB_Stalls_Bucket_0: 906714
Critical_IP_ROB_Stalls_Bucket_1: 0
Non-critical_IP_ROB_Stalls_Bucket_1: 381190
Critical_IP_ROB_Stalls_Bucket_2: 0
Non-critical_IP_ROB_Stalls_Bucket_2: 133400
Critical_IP_ROB_Stalls_Bucket_3: 0
Non-critical_IP_ROB_Stalls_Bucket_3: 93355
Critical_IP_ROB_Stalls_Bucket_4: 0
Non-critical_IP_ROB_Stalls_Bucket_4: 68339
Critical_IP_ROB_Stalls_Bucket_5: 0
Non-critical_IP_ROB_Stalls_Bucket_5: 57131
Critical_IP_ROB_Stalls_Bucket_6: 0
Non-critical_IP_ROB_Stalls_Bucket_6: 112635
0 => IPs accounting for >50 percent of stalls, 1 => 55, 2 => 60, 3 => 65 and so on till 90.
percent50: inf num IPs:  1
percent55: inf num IPs: 1
percent60: inf num IPs: 1
percent65: inf num IPs: 1
percent70: inf num IPs: 1
percent75: inf num IPs: 1
percent80: inf num IPs: 1
percent85: inf num IPs: 1
percent90: inf num IPs: 1
Critical_ROB_Stalls_Percent_0_Bucket_0: 70854
Non-critical_ROB_Stalls_Percent_0_Bucket_0: 835860
Critical_ROB_Stalls_Percent_0_Bucket_1: 18347
Non-critical_ROB_Stalls_Percent_0_Bucket_1: 362843
Critical_ROB_Stalls_Percent_0_Bucket_2: 7867
Non-critical_ROB_Stalls_Percent_0_Bucket_2: 125533
Critical_ROB_Stalls_Percent_0_Bucket_3: 4791
Non-critical_ROB_Stalls_Percent_0_Bucket_3: 88564
Critical_ROB_Stalls_Percent_0_Bucket_4: 4965
Non-critical_ROB_Stalls_Percent_0_Bucket_4: 63374
Critical_ROB_Stalls_Percent_0_Bucket_5: 8485
Non-critical_ROB_Stalls_Percent_0_Bucket_5: 48646
Critical_ROB_Stalls_Percent_0_Bucket_6: 7047
Non-critical_ROB_Stalls_Percent_0_Bucket_6: 105588
Critical_ROB_Stalls_Percent_1_Bucket_0: 70854
Non-critical_ROB_Stalls_Percent_1_Bucket_0: 835860
Critical_ROB_Stalls_Percent_1_Bucket_1: 18347
Non-critical_ROB_Stalls_Percent_1_Bucket_1: 362843
Critical_ROB_Stalls_Percent_1_Bucket_2: 7867
Non-critical_ROB_Stalls_Percent_1_Bucket_2: 125533
Critical_ROB_Stalls_Percent_1_Bucket_3: 4791
Non-critical_ROB_Stalls_Percent_1_Bucket_3: 88564
Critical_ROB_Stalls_Percent_1_Bucket_4: 4965
Non-critical_ROB_Stalls_Percent_1_Bucket_4: 63374
Critical_ROB_Stalls_Percent_1_Bucket_5: 8485
Non-critical_ROB_Stalls_Percent_1_Bucket_5: 48646
Critical_ROB_Stalls_Percent_1_Bucket_6: 7047
Non-critical_ROB_Stalls_Percent_1_Bucket_6: 105588
Critical_ROB_Stalls_Percent_2_Bucket_0: 70854
Non-critical_ROB_Stalls_Percent_2_Bucket_0: 835860
Critical_ROB_Stalls_Percent_2_Bucket_1: 18347
Non-critical_ROB_Stalls_Percent_2_Bucket_1: 362843
Critical_ROB_Stalls_Percent_2_Bucket_2: 7867
Non-critical_ROB_Stalls_Percent_2_Bucket_2: 125533
Critical_ROB_Stalls_Percent_2_Bucket_3: 4791
Non-critical_ROB_Stalls_Percent_2_Bucket_3: 88564
Critical_ROB_Stalls_Percent_2_Bucket_4: 4965
Non-critical_ROB_Stalls_Percent_2_Bucket_4: 63374
Critical_ROB_Stalls_Percent_2_Bucket_5: 8485
Non-critical_ROB_Stalls_Percent_2_Bucket_5: 48646
Critical_ROB_Stalls_Percent_2_Bucket_6: 7047
Non-critical_ROB_Stalls_Percent_2_Bucket_6: 105588
Critical_ROB_Stalls_Percent_3_Bucket_0: 70854
Non-critical_ROB_Stalls_Percent_3_Bucket_0: 835860
Critical_ROB_Stalls_Percent_3_Bucket_1: 18347
Non-critical_ROB_Stalls_Percent_3_Bucket_1: 362843
Critical_ROB_Stalls_Percent_3_Bucket_2: 7867
Non-critical_ROB_Stalls_Percent_3_Bucket_2: 125533
Critical_ROB_Stalls_Percent_3_Bucket_3: 4791
Non-critical_ROB_Stalls_Percent_3_Bucket_3: 88564
Critical_ROB_Stalls_Percent_3_Bucket_4: 4965
Non-critical_ROB_Stalls_Percent_3_Bucket_4: 63374
Critical_ROB_Stalls_Percent_3_Bucket_5: 8485
Non-critical_ROB_Stalls_Percent_3_Bucket_5: 48646
Critical_ROB_Stalls_Percent_3_Bucket_6: 7047
Non-critical_ROB_Stalls_Percent_3_Bucket_6: 105588
Critical_ROB_Stalls_Percent_4_Bucket_0: 70854
Non-critical_ROB_Stalls_Percent_4_Bucket_0: 835860
Critical_ROB_Stalls_Percent_4_Bucket_1: 18347
Non-critical_ROB_Stalls_Percent_4_Bucket_1: 362843
Critical_ROB_Stalls_Percent_4_Bucket_2: 7867
Non-critical_ROB_Stalls_Percent_4_Bucket_2: 125533
Critical_ROB_Stalls_Percent_4_Bucket_3: 4791
Non-critical_ROB_Stalls_Percent_4_Bucket_3: 88564
Critical_ROB_Stalls_Percent_4_Bucket_4: 4965
Non-critical_ROB_Stalls_Percent_4_Bucket_4: 63374
Critical_ROB_Stalls_Percent_4_Bucket_5: 8485
Non-critical_ROB_Stalls_Percent_4_Bucket_5: 48646
Critical_ROB_Stalls_Percent_4_Bucket_6: 7047
Non-critical_ROB_Stalls_Percent_4_Bucket_6: 105588
Critical_ROB_Stalls_Percent_5_Bucket_0: 70854
Non-critical_ROB_Stalls_Percent_5_Bucket_0: 835860
Critical_ROB_Stalls_Percent_5_Bucket_1: 18347
Non-critical_ROB_Stalls_Percent_5_Bucket_1: 362843
Critical_ROB_Stalls_Percent_5_Bucket_2: 7867
Non-critical_ROB_Stalls_Percent_5_Bucket_2: 125533
Critical_ROB_Stalls_Percent_5_Bucket_3: 4791
Non-critical_ROB_Stalls_Percent_5_Bucket_3: 88564
Critical_ROB_Stalls_Percent_5_Bucket_4: 4965
Non-critical_ROB_Stalls_Percent_5_Bucket_4: 63374
Critical_ROB_Stalls_Percent_5_Bucket_5: 8485
Non-critical_ROB_Stalls_Percent_5_Bucket_5: 48646
Critical_ROB_Stalls_Percent_5_Bucket_6: 7047
Non-critical_ROB_Stalls_Percent_5_Bucket_6: 105588
Critical_ROB_Stalls_Percent_6_Bucket_0: 70854
Non-critical_ROB_Stalls_Percent_6_Bucket_0: 835860
Critical_ROB_Stalls_Percent_6_Bucket_1: 18347
Non-critical_ROB_Stalls_Percent_6_Bucket_1: 362843
Critical_ROB_Stalls_Percent_6_Bucket_2: 7867
Non-critical_ROB_Stalls_Percent_6_Bucket_2: 125533
Critical_ROB_Stalls_Percent_6_Bucket_3: 4791
Non-critical_ROB_Stalls_Percent_6_Bucket_3: 88564
Critical_ROB_Stalls_Percent_6_Bucket_4: 4965
Non-critical_ROB_Stalls_Percent_6_Bucket_4: 63374
Critical_ROB_Stalls_Percent_6_Bucket_5: 8485
Non-critical_ROB_Stalls_Percent_6_Bucket_5: 48646
Critical_ROB_Stalls_Percent_6_Bucket_6: 7047
Non-critical_ROB_Stalls_Percent_6_Bucket_6: 105588
Critical_ROB_Stalls_Percent_7_Bucket_0: 70854
Non-critical_ROB_Stalls_Percent_7_Bucket_0: 835860
Critical_ROB_Stalls_Percent_7_Bucket_1: 18347
Non-critical_ROB_Stalls_Percent_7_Bucket_1: 362843
Critical_ROB_Stalls_Percent_7_Bucket_2: 7867
Non-critical_ROB_Stalls_Percent_7_Bucket_2: 125533
Critical_ROB_Stalls_Percent_7_Bucket_3: 4791
Non-critical_ROB_Stalls_Percent_7_Bucket_3: 88564
Critical_ROB_Stalls_Percent_7_Bucket_4: 4965
Non-critical_ROB_Stalls_Percent_7_Bucket_4: 63374
Critical_ROB_Stalls_Percent_7_Bucket_5: 8485
Non-critical_ROB_Stalls_Percent_7_Bucket_5: 48646
Critical_ROB_Stalls_Percent_7_Bucket_6: 7047
Non-critical_ROB_Stalls_Percent_7_Bucket_6: 105588
Critical_ROB_Stalls_Percent_8_Bucket_0: 70854
Non-critical_ROB_Stalls_Percent_8_Bucket_0: 835860
Critical_ROB_Stalls_Percent_8_Bucket_1: 18347
Non-critical_ROB_Stalls_Percent_8_Bucket_1: 362843
Critical_ROB_Stalls_Percent_8_Bucket_2: 7867
Non-critical_ROB_Stalls_Percent_8_Bucket_2: 125533
Critical_ROB_Stalls_Percent_8_Bucket_3: 4791
Non-critical_ROB_Stalls_Percent_8_Bucket_3: 88564
Critical_ROB_Stalls_Percent_8_Bucket_4: 4965
Non-critical_ROB_Stalls_Percent_8_Bucket_4: 63374
Critical_ROB_Stalls_Percent_8_Bucket_5: 8485
Non-critical_ROB_Stalls_Percent_8_Bucket_5: 48646
Critical_ROB_Stalls_Percent_8_Bucket_6: 7047
Non-critical_ROB_Stalls_Percent_8_Bucket_6: 105588
Average ROB occupancy Load Stall Begin: 70.0589
Average ROB occupancy Load Stall End: 88.9783
Min ROB occupancy Load Stall Begin: 1
Max ROB occupancy Load Stall Begin: 352
Min ROB occupancy Load Stall End: 1
Max ROB occupancy Load Stall End: 352
Average ROB occupancy Critical Load Stall Begin: -nan
Average ROB occupancy Critical Load Stall End: -nan
Min ROB occupancy Critical Load Stall Begin: 400
Max ROB occupancy Critical Load Stall Begin: 0
Min ROB occupancy Critical Load Stall End: 400
Max ROB occupancy Critical Load Stall End: 0
 ROB Load Stall Begin Bucket Count 0: 1142281
 ROB Load Stall End Bucket Count 0: 906714
 ROB Critical Load Stall Begin Bucket Count 0: 0
 ROB Critical Load Stall End Bucket Count 0: 0
 ROB Load Stall Begin Bucket Count 1: 242620
 ROB Load Stall End Bucket Count 1: 381190
 ROB Critical Load Stall Begin Bucket Count 1: 0
 ROB Critical Load Stall End Bucket Count 1: 0
 ROB Load Stall Begin Bucket Count 2: 103268
 ROB Load Stall End Bucket Count 2: 133400
 ROB Critical Load Stall Begin Bucket Count 2: 0
 ROB Critical Load Stall End Bucket Count 2: 0
 ROB Load Stall Begin Bucket Count 3: 73964
 ROB Load Stall End Bucket Count 3: 93355
 ROB Critical Load Stall Begin Bucket Count 3: 0
 ROB Critical Load Stall End Bucket Count 3: 0
 ROB Load Stall Begin Bucket Count 4: 71724
 ROB Load Stall End Bucket Count 4: 68339
 ROB Critical Load Stall Begin Bucket Count 4: 0
 ROB Critical Load Stall End Bucket Count 4: 0
 ROB Load Stall Begin Bucket Count 5: 39145
 ROB Load Stall End Bucket Count 5: 57131
 ROB Critical Load Stall Begin Bucket Count 5: 0
 ROB Critical Load Stall End Bucket Count 5: 0
 ROB Load Stall Begin Bucket Count 6: 79762
 ROB Load Stall End Bucket Count 6: 112635
 ROB Critical Load Stall Begin Bucket Count 6: 0
 ROB Critical Load Stall End Bucket Count 6: 0
PIST Tag Read Accesses: 0
PIST Read Accesses: 0
PIST Tag Write Accesses: 0
PIST Write Accesses: 0
Criticality detector called times: 0
Max global_stall_cycles_count: 0
Threshold Modified: 0 times, factor: 0
ITLB TOTAL     ACCESS:    7405180  HIT:    7115008  MISS:     290172  HIT %:    96.0815  MISS %:     3.9185   MPKI: 5.80344
ITLB LOAD TRANSLATION ACCESS:    7405180  HIT:    7115008  MISS:     290172  HIT %:    96.0815  MISS %:     3.9185   MPKI: 5.80344
ITLB PREFETCH  REQUESTED:          0  ISSUED:          0  USEFUL:          0  USELESS:          0
ITLB USEFUL LOAD PREFETCHES:          0 PREFETCH ISSUED TO LOWER LEVEL:          0  ACCURACY: -nan
ITLB TIMELY PREFETCHES:          0 LATE PREFETCHES: 0 DROPPED PREFETCHES: 0
ITLB PREFETCHES SAME FILL-ORIGIN LEVEL: 0 DIFFERENT FILL-ORIGIN LEVEL: 0
ITLB AVERAGE MISS LATENCY: 37.408 cycles
ITLB RQ	ACCESS:    9752180	FORWARD:          0	MERGED:    2217235	TO_CACHE:    7534945

DTLB TOTAL     ACCESS:    4057141  HIT:    1762675  MISS:    2294466  HIT %:    43.4462  MISS %:    56.5538   MPKI: 45.8893
DTLB LOAD TRANSLATION ACCESS:    4057141  HIT:    1762675  MISS:    2294466  HIT %:    43.4462  MISS %:    56.5538   MPKI: 45.8893
DTLB PREFETCH  REQUESTED:          0  ISSUED:          0  USEFUL:          0  USELESS:          0
DTLB USEFUL LOAD PREFETCHES:          0 PREFETCH ISSUED TO LOWER LEVEL:          0  ACCURACY: -nan
DTLB TIMELY PREFETCHES:          0 LATE PREFETCHES: 0 DROPPED PREFETCHES: 0
DTLB PREFETCHES SAME FILL-ORIGIN LEVEL: 0 DIFFERENT FILL-ORIGIN LEVEL: 0
DTLB AVERAGE MISS LATENCY: 23.2556 cycles
DTLB RQ	ACCESS:    4379240	FORWARD:          0	MERGED:     179994	TO_CACHE:    4199246

STLB TOTAL     ACCESS:    2978946  HIT:    1411925  MISS:    1567021  HIT %:    47.3968  MISS %:    52.6032   MPKI: 31.3404
STLB LOAD TRANSLATION ACCESS:    2584638  HIT:    1207706  MISS:    1376932  HIT %:    46.7263  MISS %:    53.2737   MPKI: 27.5386
STLB TRANSLATION FROM L1D PREFETCHER ACCESS:     394308  HIT:     204219  MISS:     190089  HIT %:    51.7917  MISS %:    48.2083   MPKI: 3.80178
STLB PREFETCH  REQUESTED:          0  ISSUED:          0  USEFUL:      46103  USELESS:     143989
STLB USEFUL LOAD PREFETCHES:      46103 PREFETCH ISSUED TO LOWER LEVEL:          0  ACCURACY: inf
STLB TIMELY PREFETCHES:      46103 LATE PREFETCHES: 0 DROPPED PREFETCHES: 0
STLB PREFETCHES SAME FILL-ORIGIN LEVEL: 0 DIFFERENT FILL-ORIGIN LEVEL: 0
STLB AVERAGE MISS LATENCY: 29.0999 cycles
STLB RQ	ACCESS:    3041150	FORWARD:          0	MERGED:      61689	TO_CACHE:    2979461

STLB Hit, L1D data hit: 0
STLB Hit, L2C data hit: 0
STLB Hit, LLC data hit: 0
STLB Hit, LLC data miss: 0
STLB STLB hints to L2: 0
L1D TOTAL     ACCESS:    4758395  HIT:    4188929  MISS:     569466  HIT %:    88.0324  MISS %:    11.9676   MPKI: 11.3893
L1D LOAD      ACCESS:    3651228  HIT:    3309760  MISS:     341468  HIT %:    90.6479  MISS %:    9.35214   MPKI: 6.82936
L1D RFO       ACCESS:     654052  HIT:     617230  MISS:      36822  HIT %:    94.3702  MISS %:    5.62983   MPKI: 0.73644
L1D PREFETCH  ACCESS:     453115  HIT:     261939  MISS:     191176  HIT %:    57.8085  MISS %:    42.1915   MPKI: 3.82352
L1D PREFETCH  REQUESTED:     913024  ISSUED:     913024  USEFUL:      57346  USELESS:     133641
L1D USEFUL LOAD PREFETCHES:      57346 PREFETCH ISSUED TO LOWER LEVEL:     193078  ACCURACY: 29.7009
L1D TIMELY PREFETCHES:      57346 LATE PREFETCHES: 1902 DROPPED PREFETCHES: 0
L1D PREFETCHES SAME FILL-ORIGIN LEVEL: 193078 DIFFERENT FILL-ORIGIN LEVEL: 0
L1D AVERAGE MISS LATENCY: 176172 cycles
L1D RQ	ACCESS:    5598044	FORWARD:          0	MERGED:    1922721	TO_CACHE:    3670196
L1D WQ	ACCESS:     710675	FORWARD:       5127	MERGED:       1631	TO_CACHE:     709044
L1D PQ	ACCESS:     456512	FORWARD:          0	MERGED:          0	TO_CACHE:     456512

L1D UNIQUE REGIONS ACCESSED: 0
L1D REGIONS CONFLICTS: 0
L1D Cross Page Prefetch Requests: 0
L1D Same Page Prefetch Requests: 459820
L1D ROI Sum of L1D PQ occupancy: 11567766
L1D PREFETCHES PUSHED FROM L2C: 0
L1I TOTAL     ACCESS:    9751727  HIT:    9750412  MISS:       1315  HIT %:    99.9865  MISS %:  0.0134848   MPKI: 0.0263
L1I LOAD      ACCESS:    9751727  HIT:    9750412  MISS:       1315  HIT %:    99.9865  MISS %:  0.0134848   MPKI: 0.0263
L1I PREFETCH  REQUESTED:          0  ISSUED:          0  USEFUL:          0  USELESS:          0
L1I USEFUL LOAD PREFETCHES:          0 PREFETCH ISSUED TO LOWER LEVEL:          0  ACCURACY: -nan
L1I TIMELY PREFETCHES:          0 LATE PREFETCHES: 0 DROPPED PREFETCHES: 0
L1I PREFETCHES SAME FILL-ORIGIN LEVEL: 0 DIFFERENT FILL-ORIGIN LEVEL: 0
L1I AVERAGE MISS LATENCY: 192.89 cycles
L1I RQ	ACCESS:   14981142	FORWARD:          0	MERGED:    5228962	TO_CACHE:    9752180

BTB BRANCH_DIRECT_JUMP	ACCESS:          0  HIT:          0  MISS:          0
BTB BRANCH_INDIRECT	ACCESS:          0  HIT:          0  MISS:          0
BTB BRANCH_CONDITIONAL	ACCESS:          0  HIT:          0  MISS:          0
BTB BRANCH_DIRECT_CALL	ACCESS:          0  HIT:          0  MISS:          0
BTB BRANCH_INDIRECT_CALL	ACCESS:          0  HIT:          0  MISS:          0
BTB BRANCH_RETURN	ACCESS:          0  HIT:          0  MISS:          0
BTB BRANCH_OTHER ACCESS:          0  HIT:          0  MISS:          0

L2C TOTAL     ACCESS:    2378142  HIT:    1970447  MISS:     407695  HIT %:    82.8566  MISS %:    17.1434   MPKI: 8.1539
L2C LOAD      ACCESS:     340877  HIT:     107657  MISS:     233220  HIT %:    31.5824  MISS %:    68.4176   MPKI: 4.6644
L2C DATA LOAD MPKI: 4.63878
L2C INSTRUCTION LOAD MPKI: 0.02562
L2C RFO       ACCESS:      36822  HIT:      28721  MISS:       8101  HIT %:    77.9996  MISS %:    22.0004   MPKI: 0.16202
L2C PREFETCH  ACCESS:     254044  HIT:     121376  MISS:     132668  HIT %:    47.7776  MISS %:    52.2224   MPKI: 2.65336
L2C DATA PREFETCH MPKI: 2.65336
L2C INSTRUCTION PREFETCH MPKI: 0
L2C WRITEBACK ACCESS:      52327  HIT:      51936  MISS:        391  HIT %:    99.2528  MISS %:   0.747224   MPKI: 0.00782
L2C LOAD TRANSLATION ACCESS:    1501486  HIT:    1468182  MISS:      33304  HIT %:    97.7819  MISS %:    2.21807   MPKI: 0.66608
L2C TRANSLATION FROM L1D PREFETCHER ACCESS:     192586  HIT:     192575  MISS:         11  HIT %:    99.9943  MISS %: 0.00571173   MPKI: 0.00022
L2C PREFETCH  REQUESTED:      96113  ISSUED:      96113  USEFUL:      15245  USELESS:     113756
L2C USEFUL LOAD PREFETCHES:      15245 PREFETCH ISSUED TO LOWER LEVEL:     132740  ACCURACY: 11.4849
L2C TIMELY PREFETCHES:      15245 LATE PREFETCHES: 72 DROPPED PREFETCHES: 0
L2C PREFETCHES SAME FILL-ORIGIN LEVEL: 38546 DIFFERENT FILL-ORIGIN LEVEL: 0
L2C AVERAGE MISS LATENCY: 122.768 cycles
L2C RQ	ACCESS:    2071775	FORWARD:          0	MERGED:          0	TO_CACHE:    2071771
L2C WQ	ACCESS:      52327	FORWARD:          5	MERGED:          0	TO_CACHE:      52327
L2C PQ	ACCESS:     289191	FORWARD:          0	MERGED:      32580	TO_CACHE:     256610

L2C Instructions Evicting Data 1179
L2C Translations Evicting Data 30639
L2C Data Evicting Data 339470
L2C Instructions Evicting Instructions 1
L2C Translations Evicting Instructions 120
L2C Data Evicting Instructions 1144
L2C Instructions Evicting Translations 101
L2C Translations Evicting Translations 2556
L2C Data Evicting Translations 32094
L2C Dense regions hint from L2: 0
PSCL5 TOTAL     ACCESS:    1567021  HIT:    1567021  MISS:          0  HIT %:        100  MISS %:          0   MPKI: 0
PSCL5 LOAD TRANSLATION ACCESS:    1376932  HIT:    1376932  MISS:          0  HIT %:        100  MISS %:          0   MPKI: 0
PSCL5 TRANSLATION FROM L1D PREFETCHER ACCESS:     190089  HIT:     190089  MISS:          0  HIT %:        100  MISS %:          0   MPKI: 0
PSCL5 PREFETCH  REQUESTED:          0  ISSUED:          0  USEFUL:          0  USELESS:          0
PSCL5 USEFUL LOAD PREFETCHES:          0 PREFETCH ISSUED TO LOWER LEVEL:          0  ACCURACY: -nan
PSCL5 TIMELY PREFETCHES:          0 LATE PREFETCHES: 0 DROPPED PREFETCHES: 0
PSCL5 PREFETCHES SAME FILL-ORIGIN LEVEL: 0 DIFFERENT FILL-ORIGIN LEVEL: 0

PSCL4 TOTAL     ACCESS:    1567021  HIT:    1567021  MISS:          0  HIT %:        100  MISS %:          0   MPKI: 0
PSCL4 LOAD TRANSLATION ACCESS:    1376932  HIT:    1376932  MISS:          0  HIT %:        100  MISS %:          0   MPKI: 0
PSCL4 TRANSLATION FROM L1D PREFETCHER ACCESS:     190089  HIT:     190089  MISS:          0  HIT %:        100  MISS %:          0   MPKI: 0
PSCL4 PREFETCH  REQUESTED:          0  ISSUED:          0  USEFUL:          0  USELESS:          0
PSCL4 USEFUL LOAD PREFETCHES:          0 PREFETCH ISSUED TO LOWER LEVEL:          0  ACCURACY: -nan
PSCL4 TIMELY PREFETCHES:          0 LATE PREFETCHES: 0 DROPPED PREFETCHES: 0
PSCL4 PREFETCHES SAME FILL-ORIGIN LEVEL: 0 DIFFERENT FILL-ORIGIN LEVEL: 0

PSCL3 TOTAL     ACCESS:    1566975  HIT:    1566954  MISS:         21  HIT %:    99.9987  MISS %: 0.00134016   MPKI: 0.00042
PSCL3 LOAD TRANSLATION ACCESS:    1376886  HIT:    1376865  MISS:         21  HIT %:    99.9985  MISS %: 0.00152518   MPKI: 0.00042
PSCL3 TRANSLATION FROM L1D PREFETCHER ACCESS:     190089  HIT:     190089  MISS:          0  HIT %:        100  MISS %:          0   MPKI: 0
PSCL3 PREFETCH  REQUESTED:          0  ISSUED:          0  USEFUL:          0  USELESS:          0
PSCL3 USEFUL LOAD PREFETCHES:          0 PREFETCH ISSUED TO LOWER LEVEL:          0  ACCURACY: -nan
PSCL3 TIMELY PREFETCHES:          0 LATE PREFETCHES: 0 DROPPED PREFETCHES: 0
PSCL3 PREFETCHES SAME FILL-ORIGIN LEVEL: 0 DIFFERENT FILL-ORIGIN LEVEL: 0

PSCL2 TOTAL     ACCESS:    1567021  HIT:    1439967  MISS:     127054  HIT %:     91.892  MISS %:      8.108   MPKI: 2.54108
PSCL2 LOAD TRANSLATION ACCESS:    1379429  HIT:    1252375  MISS:     127054  HIT %:    90.7894  MISS %:    9.21062   MPKI: 2.54108
PSCL2 TRANSLATION FROM L1D PREFETCHER ACCESS:     187592  HIT:     187592  MISS:          0  HIT %:        100  MISS %:          0   MPKI: 0
PSCL2 PREFETCH  REQUESTED:          0  ISSUED:          0  USEFUL:          0  USELESS:          0
PSCL2 USEFUL LOAD PREFETCHES:          0 PREFETCH ISSUED TO LOWER LEVEL:          0  ACCURACY: -nan
PSCL2 TIMELY PREFETCHES:          0 LATE PREFETCHES: 0 DROPPED PREFETCHES: 0
PSCL2 PREFETCHES SAME FILL-ORIGIN LEVEL: 0 DIFFERENT FILL-ORIGIN LEVEL: 0

LLC TOTAL     ACCESS:     415124  HIT:     129425  MISS:     285699  HIT %:    31.1774  MISS %:    68.8226   MPKI: 5.71398
LLC LOAD      ACCESS:     233148  HIT:      52098  MISS:     181050  HIT %:    22.3455  MISS %:    77.6545   MPKI: 3.621
LLC RFO       ACCESS:       8101  HIT:        165  MISS:       7936  HIT %:    2.03679  MISS %:    97.9632   MPKI: 0.15872
LLC PREFETCH  ACCESS:     132740  HIT:      49428  MISS:      83312  HIT %:    37.2367  MISS %:    62.7633   MPKI: 1.66624
LLC WRITEBACK ACCESS:       7820  HIT:       6907  MISS:        913  HIT %:    88.3248  MISS %:    11.6752   MPKI: 0.01826
LLC LOAD TRANSLATION ACCESS:      33304  HIT:      20827  MISS:      12477  HIT %:     62.536  MISS %:     37.464   MPKI: 0.24954
LLC TRANSLATION FROM L1D PREFETCHER ACCESS:         11  HIT:          0  MISS:         11  HIT %:          0  MISS %:        100   MPKI: 0.00022
LLC PREFETCH  REQUESTED:          0  ISSUED:          0  USEFUL:        961  USELESS:      70006
LLC USEFUL LOAD PREFETCHES:        961 PREFETCH ISSUED TO LOWER LEVEL:      83312  ACCURACY: 1.1535
LLC TIMELY PREFETCHES:        961 LATE PREFETCHES: 0 DROPPED PREFETCHES: 0
LLC PREFETCHES SAME FILL-ORIGIN LEVEL: 0 DIFFERENT FILL-ORIGIN LEVEL: 0
LLC AVERAGE MISS LATENCY: 132.398 cycles
LLC RQ	ACCESS:     274564	FORWARD:          0	MERGED:          0	TO_CACHE:     274564
LLC WQ	ACCESS:       7820	FORWARD:          0	MERGED:          0	TO_CACHE:       7820
LLC PQ	ACCESS:     132740	FORWARD:          0	MERGED:          0	TO_CACHE:     132740

LLC Dense regions hint to LLC: 0

RAW hits: 68882
Loads Generated: 5666926
Loads sent to L1D: 5598044
Stores Generated: 710673
Stores sent to L1D: 710675
Major fault: 0 Minor fault: 12142
Allocated PAGES: 12142

stream: 
stream:times selected: 687559
stream:pref_filled: 119216
stream:pref_useful: 15567
stream:pref_late: 1699
stream:misses: 24566
stream:misses_by_poll: 0

CS: 
CS:times selected: 33228
CS:pref_filled: 48573
CS:pref_useful: 39272
CS:pref_late: 41
CS:misses: 9399
CS:misses_by_poll: 321

CPLX: 
CPLX:times selected: 646922
CPLX:pref_filled: 24538
CPLX:pref_useful: 2508
CPLX:pref_late: 33
CPLX:misses: 77007
CPLX:misses_by_poll: 49

NL_L1: 
NL:times selected: 15922
NL:pref_filled: 1301
NL:pref_useful: 177
NL:pref_late: 17
NL:misses: 861
NL:misses_by_poll: 0

total selections: 1383631
total_filled: 191176
total_useful: 57346
total_late: 1904
total_polluted: 370
total_misses_after_warmup: 149786
conflicts: 144526
Degree Incremented Times: 3193
Degree Decremented Times: 17695

L1 IP Table Write Accesses: 1435886
L1 IP Table Read Accesses: 1291360
L1 RST Write Accesses: 686653
L1 RST Read Accesses: 1373306
L1 CSPT Write Accesses: 686653
L1 CSPT Read Accesses: 1336220
L1 RR Filter Tag Write Accesses: 456512
L1 RR Filter Tag Read Accesses: 20965782
L1 IP Table Tag Write Accesses: 1858201
L1 IP Table Tag Read Accesses: 1858201
L1 RST Tag Write Accesses: 0
L1 RST Tag Read Accesses: 6765752
L1 RR Filter Write Accesses: 0
L1 RR Filter Read Accesses: 802425
test: 360217
L2 IP Table Read Accesses: 618974
L2 IP Table Write Accesses: 477546
L2 IP Table Tag Read Accesses: 312428
L2 IP Table Tag Write Accesses: 312428

DRAM Statistics
 CHANNEL 0
 RQ ROW_BUFFER_HIT:     116583  ROW_BUFFER_MISS:     168203
 DBUS_CONGESTED:         20
 WQ ROW_BUFFER_HIT:       1781  ROW_BUFFER_MISS:       6415  FULL:          0

 AVG_CONGESTED_CYCLE: 4
 All warmup complete: 2
Channel 0 Bank busy for read cycles: 0
Channel 0 Bank busy for write cycles: 0
Channel 0
Rank 0
0banks busy for read cycles: 53503538
0banks busy for write cycles: 7340
1banks busy for read cycles: 16974973
1banks busy for write cycles: 1467006
2banks busy for read cycles: 4135782
2banks busy for write cycles: 99926
3banks busy for read cycles: 1111805
3banks busy for write cycles: 9034
4banks busy for read cycles: 475862
4banks busy for write cycles: 3093
5banks busy for read cycles: 66976
5banks busy for write cycles: 2719
6banks busy for read cycles: 27654
6banks busy for write cycles: 2096
7banks busy for read cycles: 9178
7banks busy for write cycles: 1516
8banks busy for read cycles: 1163
8banks busy for write cycles: 1642

CPU 0 Branch Prediction Accuracy: 98.7219% MPKI: 1.7429 Average ROB Occupancy at Mispredict: 68.1176
Branch types
NOT_BRANCH: 0 0%
BRANCH_DIRECT_JUMP: 0 0%
BRANCH_INDIRECT: 0 0%
BRANCH_CONDITIONAL: 0 0%
BRANCH_DIRECT_CALL: 0 0%
BRANCH_INDIRECT_CALL: 0 0%
BRANCH_RETURN: 0 0%
BRANCH_OTHER: 0 0%

DRAM PAGES: 1048576
Allocated PAGES: 12142
