Initialize SIGNATURE TABLE
ST_SET: 1
ST_WAY: 16
ST_TAG_BIT: 16
ST_TAG_MASK: ffff

Initialize PATTERN TABLE
PT_SET: 16
PT_WAY: 4
SIG_DELTA_BIT: 7
C_SIG_BIT: 4
C_DELTA_BIT: 4

Initialize PREFETCH FILTER
FILTER_SET: 1024

Initialize PERCEPTRON
PERC_ENTRIES: 4096
PERC_FEATURES: 9

*** ChampSim Multicore Out-of-Order Simulator ***

Warmup Instructions: 50000000
Simulation Instructions: 50000000
Number of CPUs: 1
LLC sets: 2048
LLC ways: 16
Off-chip DRAM Size: 4096 MB Channels: 1 Width: 64-bit Data Rate: 6400 MT/s
CPU 0 runs ../cloudsuite_traces//classification_phase1_core1.trace.gz
.gz
BTB has LRU replacement policy
ITLB has LRU replacement policy
DTLB has LRU replacement policy
STLB has LRU replacement policy
L1I has LRU replacement policy
L1D has LRU replacement policy
Initialize SRRIP state for L2C
Initialize DRRIP state for LLC
UNIQUE_ASID[0] = 
UNIQUE_ASID[1] = €
Heartbeat CPU 0 instructions: 10000000 cycles: 2640438 heartbeat IPC: 3.78725 cumulative IPC: 3.78725 (Simulation time: 0 hr 1 min 42 sec) 
Heartbeat CPU 0 instructions: 20000000 cycles: 5278021 heartbeat IPC: 3.79135 cumulative IPC: 3.7893 (Simulation time: 0 hr 2 min 57 sec) 
Heartbeat CPU 0 instructions: 30000003 cycles: 7916850 heartbeat IPC: 3.78956 cumulative IPC: 3.78939 (Simulation time: 0 hr 4 min 10 sec) 
Heartbeat CPU 0 instructions: 40000001 cycles: 10554411 heartbeat IPC: 3.79138 cumulative IPC: 3.78988 (Simulation time: 0 hr 5 min 20 sec) 
Heartbeat CPU 0 instructions: 50000003 cycles: 13194064 heartbeat IPC: 3.78838 cumulative IPC: 3.78958 (Simulation time: 0 hr 6 min 25 sec) 

Warmup complete CPU 0 instructions: 50000003 cycles: 13194064 (Simulation time: 0 hr 6 min 25 sec) 

Heartbeat CPU 0 instructions: 60000003 cycles: 28695825 heartbeat IPC: 0.645088 cumulative IPC: 0.645088 (Simulation time: 0 hr 7 min 48 sec) 
Heartbeat CPU 0 instructions: 70000001 cycles: 44151208 heartbeat IPC: 0.647024 cumulative IPC: 0.646054 (Simulation time: 0 hr 9 min 6 sec) 
Heartbeat CPU 0 instructions: 80000000 cycles: 59674244 heartbeat IPC: 0.644204 cumulative IPC: 0.645436 (Simulation time: 0 hr 10 min 24 sec) 
Heartbeat CPU 0 instructions: 90000003 cycles: 75275269 heartbeat IPC: 0.640984 cumulative IPC: 0.644317 (Simulation time: 0 hr 11 min 40 sec) 
Heartbeat CPU 0 instructions: 100000000 cycles: 90717343 heartbeat IPC: 0.647581 cumulative IPC: 0.644967 (Simulation time: 0 hr 12 min 45 sec) 
Finished CPU 0 instructions: 50000001 cycles: 77523280 cumulative IPC: 0.644968 (Simulation time: 0 hr 12 min 45 sec) 

ChampSim completed all CPUs

Region of Interest Statistics

CPU 0 cumulative IPC: 0.644968 instructions: 50000001 cycles: 77523280

CPU 0 Average Load ROB stall cycles: 1.83433e+07
CPU 0 Fraction of times ROB stalled by Loads: 35.2288
CPU 0 Percentage of Load stall cycles in Total stall cycles: 1.40535e+08
Issued all: 38163709
Issued LT all: 31869947
rob_not_full_when_issued_lt_all: 19791777
Issued LT one: 27987673
rob_not_full_when_issued_lt_one: 16398736
FVP critical_dynamic_instances_0: 2777005
FVP unique_critical_ips_0: 374
 Total stall cycles: 65088729
 Total load stall cycles: 91472301727286
Unique Load IPs: 1698
CPU 0 NUM of IPS identified critical: 0
CPU 0 Num of Load IPs stalling ROB: 0
Threshold modification factor: 0
Trouble in retire width: -nan
MaC = Marked as critical.
lt_50_percent_before_Mac: 0
gt_90_percent_before_Mac: 0
gt_75_percent_before_Mac: 0
gt_50_percent_before_Mac: 0
stall_proportion_bin_same_before_after: 0
stall_proportion_bin_lower_before_after: 0
stall_proportion_bin_upper_before_after: 0
average_stall_proportion_before: -nan
average_stall_proportion_after: -nan
Critical IP stalls, total frequency: 0
Non-critical IP stalls, total frequency: 0
Total Freq all stalling IPs: 0
Critical_IP_Detector_Accuracy_70: 0.0026738
Critical_IP_Detector_Accuracy_80: 0.0026738
Critical_IP_Detector_Accuracy_90: 0.0026738
Critical_IP_Detector_Coverage_70: 1
Critical_IP_Detector_Coverage_80: 1
Critical_IP_Detector_Coverage_90: 1
stat_90_percent_critical_ip_stalls_freq: 123953
stat_90_percent_non_critical_ip_stalls_freq: 18446744073709427663
AVERAGE_ROB_Occupancy_90_Percent_Critical_IP_Stalls: 88.1232
AVERAGE_ROB_Occupancy_90_Percent_Non_Critical_IP_Stalls: 7.83493e-12
Critical_IP_ROB_Stalls_Bucket_0: 0
Non-critical_IP_ROB_Stalls_Bucket_0: 903309
Critical_IP_ROB_Stalls_Bucket_1: 0
Non-critical_IP_ROB_Stalls_Bucket_1: 401379
Critical_IP_ROB_Stalls_Bucket_2: 0
Non-critical_IP_ROB_Stalls_Bucket_2: 127471
Critical_IP_ROB_Stalls_Bucket_3: 0
Non-critical_IP_ROB_Stalls_Bucket_3: 88699
Critical_IP_ROB_Stalls_Bucket_4: 0
Non-critical_IP_ROB_Stalls_Bucket_4: 66930
Critical_IP_ROB_Stalls_Bucket_5: 0
Non-critical_IP_ROB_Stalls_Bucket_5: 56837
Critical_IP_ROB_Stalls_Bucket_6: 0
Non-critical_IP_ROB_Stalls_Bucket_6: 112123
0 => IPs accounting for >50 percent of stalls, 1 => 55, 2 => 60, 3 => 65 and so on till 90.
percent50: inf num IPs:  1
percent55: inf num IPs: 1
percent60: inf num IPs: 1
percent65: inf num IPs: 1
percent70: inf num IPs: 1
percent75: inf num IPs: 1
percent80: inf num IPs: 1
percent85: inf num IPs: 1
percent90: inf num IPs: 1
Critical_ROB_Stalls_Percent_0_Bucket_0: 71743
Non-critical_ROB_Stalls_Percent_0_Bucket_0: 831566
Critical_ROB_Stalls_Percent_0_Bucket_1: 18875
Non-critical_ROB_Stalls_Percent_0_Bucket_1: 382504
Critical_ROB_Stalls_Percent_0_Bucket_2: 7975
Non-critical_ROB_Stalls_Percent_0_Bucket_2: 119496
Critical_ROB_Stalls_Percent_0_Bucket_3: 4710
Non-critical_ROB_Stalls_Percent_0_Bucket_3: 83989
Critical_ROB_Stalls_Percent_0_Bucket_4: 5022
Non-critical_ROB_Stalls_Percent_0_Bucket_4: 61908
Critical_ROB_Stalls_Percent_0_Bucket_5: 8460
Non-critical_ROB_Stalls_Percent_0_Bucket_5: 48377
Critical_ROB_Stalls_Percent_0_Bucket_6: 7168
Non-critical_ROB_Stalls_Percent_0_Bucket_6: 104955
Critical_ROB_Stalls_Percent_1_Bucket_0: 71743
Non-critical_ROB_Stalls_Percent_1_Bucket_0: 831566
Critical_ROB_Stalls_Percent_1_Bucket_1: 18875
Non-critical_ROB_Stalls_Percent_1_Bucket_1: 382504
Critical_ROB_Stalls_Percent_1_Bucket_2: 7975
Non-critical_ROB_Stalls_Percent_1_Bucket_2: 119496
Critical_ROB_Stalls_Percent_1_Bucket_3: 4710
Non-critical_ROB_Stalls_Percent_1_Bucket_3: 83989
Critical_ROB_Stalls_Percent_1_Bucket_4: 5022
Non-critical_ROB_Stalls_Percent_1_Bucket_4: 61908
Critical_ROB_Stalls_Percent_1_Bucket_5: 8460
Non-critical_ROB_Stalls_Percent_1_Bucket_5: 48377
Critical_ROB_Stalls_Percent_1_Bucket_6: 7168
Non-critical_ROB_Stalls_Percent_1_Bucket_6: 104955
Critical_ROB_Stalls_Percent_2_Bucket_0: 71743
Non-critical_ROB_Stalls_Percent_2_Bucket_0: 831566
Critical_ROB_Stalls_Percent_2_Bucket_1: 18875
Non-critical_ROB_Stalls_Percent_2_Bucket_1: 382504
Critical_ROB_Stalls_Percent_2_Bucket_2: 7975
Non-critical_ROB_Stalls_Percent_2_Bucket_2: 119496
Critical_ROB_Stalls_Percent_2_Bucket_3: 4710
Non-critical_ROB_Stalls_Percent_2_Bucket_3: 83989
Critical_ROB_Stalls_Percent_2_Bucket_4: 5022
Non-critical_ROB_Stalls_Percent_2_Bucket_4: 61908
Critical_ROB_Stalls_Percent_2_Bucket_5: 8460
Non-critical_ROB_Stalls_Percent_2_Bucket_5: 48377
Critical_ROB_Stalls_Percent_2_Bucket_6: 7168
Non-critical_ROB_Stalls_Percent_2_Bucket_6: 104955
Critical_ROB_Stalls_Percent_3_Bucket_0: 71743
Non-critical_ROB_Stalls_Percent_3_Bucket_0: 831566
Critical_ROB_Stalls_Percent_3_Bucket_1: 18875
Non-critical_ROB_Stalls_Percent_3_Bucket_1: 382504
Critical_ROB_Stalls_Percent_3_Bucket_2: 7975
Non-critical_ROB_Stalls_Percent_3_Bucket_2: 119496
Critical_ROB_Stalls_Percent_3_Bucket_3: 4710
Non-critical_ROB_Stalls_Percent_3_Bucket_3: 83989
Critical_ROB_Stalls_Percent_3_Bucket_4: 5022
Non-critical_ROB_Stalls_Percent_3_Bucket_4: 61908
Critical_ROB_Stalls_Percent_3_Bucket_5: 8460
Non-critical_ROB_Stalls_Percent_3_Bucket_5: 48377
Critical_ROB_Stalls_Percent_3_Bucket_6: 7168
Non-critical_ROB_Stalls_Percent_3_Bucket_6: 104955
Critical_ROB_Stalls_Percent_4_Bucket_0: 71743
Non-critical_ROB_Stalls_Percent_4_Bucket_0: 831566
Critical_ROB_Stalls_Percent_4_Bucket_1: 18875
Non-critical_ROB_Stalls_Percent_4_Bucket_1: 382504
Critical_ROB_Stalls_Percent_4_Bucket_2: 7975
Non-critical_ROB_Stalls_Percent_4_Bucket_2: 119496
Critical_ROB_Stalls_Percent_4_Bucket_3: 4710
Non-critical_ROB_Stalls_Percent_4_Bucket_3: 83989
Critical_ROB_Stalls_Percent_4_Bucket_4: 5022
Non-critical_ROB_Stalls_Percent_4_Bucket_4: 61908
Critical_ROB_Stalls_Percent_4_Bucket_5: 8460
Non-critical_ROB_Stalls_Percent_4_Bucket_5: 48377
Critical_ROB_Stalls_Percent_4_Bucket_6: 7168
Non-critical_ROB_Stalls_Percent_4_Bucket_6: 104955
Critical_ROB_Stalls_Percent_5_Bucket_0: 71743
Non-critical_ROB_Stalls_Percent_5_Bucket_0: 831566
Critical_ROB_Stalls_Percent_5_Bucket_1: 18875
Non-critical_ROB_Stalls_Percent_5_Bucket_1: 382504
Critical_ROB_Stalls_Percent_5_Bucket_2: 7975
Non-critical_ROB_Stalls_Percent_5_Bucket_2: 119496
Critical_ROB_Stalls_Percent_5_Bucket_3: 4710
Non-critical_ROB_Stalls_Percent_5_Bucket_3: 83989
Critical_ROB_Stalls_Percent_5_Bucket_4: 5022
Non-critical_ROB_Stalls_Percent_5_Bucket_4: 61908
Critical_ROB_Stalls_Percent_5_Bucket_5: 8460
Non-critical_ROB_Stalls_Percent_5_Bucket_5: 48377
Critical_ROB_Stalls_Percent_5_Bucket_6: 7168
Non-critical_ROB_Stalls_Percent_5_Bucket_6: 104955
Critical_ROB_Stalls_Percent_6_Bucket_0: 71743
Non-critical_ROB_Stalls_Percent_6_Bucket_0: 831566
Critical_ROB_Stalls_Percent_6_Bucket_1: 18875
Non-critical_ROB_Stalls_Percent_6_Bucket_1: 382504
Critical_ROB_Stalls_Percent_6_Bucket_2: 7975
Non-critical_ROB_Stalls_Percent_6_Bucket_2: 119496
Critical_ROB_Stalls_Percent_6_Bucket_3: 4710
Non-critical_ROB_Stalls_Percent_6_Bucket_3: 83989
Critical_ROB_Stalls_Percent_6_Bucket_4: 5022
Non-critical_ROB_Stalls_Percent_6_Bucket_4: 61908
Critical_ROB_Stalls_Percent_6_Bucket_5: 8460
Non-critical_ROB_Stalls_Percent_6_Bucket_5: 48377
Critical_ROB_Stalls_Percent_6_Bucket_6: 7168
Non-critical_ROB_Stalls_Percent_6_Bucket_6: 104955
Critical_ROB_Stalls_Percent_7_Bucket_0: 71743
Non-critical_ROB_Stalls_Percent_7_Bucket_0: 831566
Critical_ROB_Stalls_Percent_7_Bucket_1: 18875
Non-critical_ROB_Stalls_Percent_7_Bucket_1: 382504
Critical_ROB_Stalls_Percent_7_Bucket_2: 7975
Non-critical_ROB_Stalls_Percent_7_Bucket_2: 119496
Critical_ROB_Stalls_Percent_7_Bucket_3: 4710
Non-critical_ROB_Stalls_Percent_7_Bucket_3: 83989
Critical_ROB_Stalls_Percent_7_Bucket_4: 5022
Non-critical_ROB_Stalls_Percent_7_Bucket_4: 61908
Critical_ROB_Stalls_Percent_7_Bucket_5: 8460
Non-critical_ROB_Stalls_Percent_7_Bucket_5: 48377
Critical_ROB_Stalls_Percent_7_Bucket_6: 7168
Non-critical_ROB_Stalls_Percent_7_Bucket_6: 104955
Critical_ROB_Stalls_Percent_8_Bucket_0: 71743
Non-critical_ROB_Stalls_Percent_8_Bucket_0: 831566
Critical_ROB_Stalls_Percent_8_Bucket_1: 18875
Non-critical_ROB_Stalls_Percent_8_Bucket_1: 382504
Critical_ROB_Stalls_Percent_8_Bucket_2: 7975
Non-critical_ROB_Stalls_Percent_8_Bucket_2: 119496
Critical_ROB_Stalls_Percent_8_Bucket_3: 4710
Non-critical_ROB_Stalls_Percent_8_Bucket_3: 83989
Critical_ROB_Stalls_Percent_8_Bucket_4: 5022
Non-critical_ROB_Stalls_Percent_8_Bucket_4: 61908
Critical_ROB_Stalls_Percent_8_Bucket_5: 8460
Non-critical_ROB_Stalls_Percent_8_Bucket_5: 48377
Critical_ROB_Stalls_Percent_8_Bucket_6: 7168
Non-critical_ROB_Stalls_Percent_8_Bucket_6: 104955
Average ROB occupancy Load Stall Begin: 69.6705
Average ROB occupancy Load Stall End: 88.4886
Min ROB occupancy Load Stall Begin: 1
Max ROB occupancy Load Stall Begin: 352
Min ROB occupancy Load Stall End: 1
Max ROB occupancy Load Stall End: 352
Average ROB occupancy Critical Load Stall Begin: -nan
Average ROB occupancy Critical Load Stall End: -nan
Min ROB occupancy Critical Load Stall Begin: 400
Max ROB occupancy Critical Load Stall Begin: 0
Min ROB occupancy Critical Load Stall End: 400
Max ROB occupancy Critical Load Stall End: 0
 ROB Load Stall Begin Bucket Count 0: 1141975
 ROB Load Stall End Bucket Count 0: 903309
 ROB Critical Load Stall Begin Bucket Count 0: 0
 ROB Critical Load Stall End Bucket Count 0: 0
 ROB Load Stall Begin Bucket Count 1: 256727
 ROB Load Stall End Bucket Count 1: 401379
 ROB Critical Load Stall Begin Bucket Count 1: 0
 ROB Critical Load Stall End Bucket Count 1: 0
 ROB Load Stall Begin Bucket Count 2: 96423
 ROB Load Stall End Bucket Count 2: 127471
 ROB Critical Load Stall Begin Bucket Count 2: 0
 ROB Critical Load Stall End Bucket Count 2: 0
 ROB Load Stall Begin Bucket Count 3: 72486
 ROB Load Stall End Bucket Count 3: 88699
 ROB Critical Load Stall Begin Bucket Count 3: 0
 ROB Critical Load Stall End Bucket Count 3: 0
 ROB Load Stall Begin Bucket Count 4: 71062
 ROB Load Stall End Bucket Count 4: 66930
 ROB Critical Load Stall Begin Bucket Count 4: 0
 ROB Critical Load Stall End Bucket Count 4: 0
 ROB Load Stall Begin Bucket Count 5: 38518
 ROB Load Stall End Bucket Count 5: 56837
 ROB Critical Load Stall Begin Bucket Count 5: 0
 ROB Critical Load Stall End Bucket Count 5: 0
 ROB Load Stall Begin Bucket Count 6: 79557
 ROB Load Stall End Bucket Count 6: 112123
 ROB Critical Load Stall Begin Bucket Count 6: 0
 ROB Critical Load Stall End Bucket Count 6: 0
PIST Tag Read Accesses: 0
PIST Read Accesses: 0
PIST Tag Write Accesses: 0
PIST Write Accesses: 0
Criticality detector called times: 0
Max global_stall_cycles_count: 0
Threshold Modified: 0 times, factor: 0
ITLB TOTAL     ACCESS:    7405336  HIT:    7115175  MISS:     290161  HIT %:    96.0817  MISS %:    3.91827   MPKI: 5.80322
ITLB LOAD TRANSLATION ACCESS:    7405336  HIT:    7115175  MISS:     290161  HIT %:    96.0817  MISS %:    3.91827   MPKI: 5.80322
ITLB PREFETCH  REQUESTED:          0  ISSUED:          0  USEFUL:          0  USELESS:          0
ITLB USEFUL LOAD PREFETCHES:          0 PREFETCH ISSUED TO LOWER LEVEL:          0  ACCURACY: -nan
ITLB TIMELY PREFETCHES:          0 LATE PREFETCHES: 0 DROPPED PREFETCHES: 0
ITLB PREFETCHES SAME FILL-ORIGIN LEVEL: 0 DIFFERENT FILL-ORIGIN LEVEL: 0
ITLB AVERAGE MISS LATENCY: 36.4378 cycles
ITLB RQ	ACCESS:    9752257	FORWARD:          0	MERGED:    2217162	TO_CACHE:    7535095

DTLB TOTAL     ACCESS:    4060447  HIT:    1758676  MISS:    2301771  HIT %:    43.3124  MISS %:    56.6876   MPKI: 46.0354
DTLB LOAD TRANSLATION ACCESS:    4060447  HIT:    1758676  MISS:    2301771  HIT %:    43.3124  MISS %:    56.6876   MPKI: 46.0354
DTLB PREFETCH  REQUESTED:          0  ISSUED:          0  USEFUL:          0  USELESS:          0
DTLB USEFUL LOAD PREFETCHES:          0 PREFETCH ISSUED TO LOWER LEVEL:          0  ACCURACY: -nan
DTLB TIMELY PREFETCHES:          0 LATE PREFETCHES: 0 DROPPED PREFETCHES: 0
DTLB PREFETCHES SAME FILL-ORIGIN LEVEL: 0 DIFFERENT FILL-ORIGIN LEVEL: 0
DTLB AVERAGE MISS LATENCY: 22.8463 cycles
DTLB RQ	ACCESS:    4382002	FORWARD:          0	MERGED:     180748	TO_CACHE:    4201254

STLB TOTAL     ACCESS:    2591932  HIT:    1215140  MISS:    1376792  HIT %:    46.8816  MISS %:    53.1184   MPKI: 27.5358
STLB LOAD TRANSLATION ACCESS:    2591932  HIT:    1215140  MISS:    1376792  HIT %:    46.8816  MISS %:    53.1184   MPKI: 27.5358
STLB PREFETCH  REQUESTED:          0  ISSUED:          0  USEFUL:          0  USELESS:          0
STLB USEFUL LOAD PREFETCHES:          0 PREFETCH ISSUED TO LOWER LEVEL:          0  ACCURACY: -nan
STLB TIMELY PREFETCHES:          0 LATE PREFETCHES: 0 DROPPED PREFETCHES: 0
STLB PREFETCHES SAME FILL-ORIGIN LEVEL: 0 DIFFERENT FILL-ORIGIN LEVEL: 0
STLB AVERAGE MISS LATENCY: 28.8624 cycles
STLB RQ	ACCESS:    2591932	FORWARD:          0	MERGED:          0	TO_CACHE:    2591932

STLB Hit, L1D data hit: 0
STLB Hit, L2C data hit: 0
STLB Hit, LLC data hit: 0
STLB Hit, LLC data miss: 0
STLB STLB hints to L2: 0
L1D TOTAL     ACCESS:    4309919  HIT:    3884317  MISS:     425602  HIT %:    90.1251  MISS %:    9.87494   MPKI: 8.51204
L1D LOAD      ACCESS:    3656049  HIT:    3264570  MISS:     391479  HIT %:    89.2923  MISS %:    10.7077   MPKI: 7.82958
L1D RFO       ACCESS:     653870  HIT:     619747  MISS:      34123  HIT %:    94.7814  MISS %:    5.21862   MPKI: 0.68246
L1D PREFETCH  REQUESTED:          0  ISSUED:          0  USEFUL:          0  USELESS:          0
L1D USEFUL LOAD PREFETCHES:          0 PREFETCH ISSUED TO LOWER LEVEL:          0  ACCURACY: -nan
L1D TIMELY PREFETCHES:          0 LATE PREFETCHES: 0 DROPPED PREFETCHES: 0
L1D PREFETCHES SAME FILL-ORIGIN LEVEL: 0 DIFFERENT FILL-ORIGIN LEVEL: 0
L1D AVERAGE MISS LATENCY: 92.7748 cycles
L1D RQ	ACCESS:    5598107	FORWARD:          0	MERGED:    1920192	TO_CACHE:    3672917
L1D WQ	ACCESS:     710675	FORWARD:       4998	MERGED:       1590	TO_CACHE:     709085

L1D UNIQUE REGIONS ACCESSED: 0
L1D REGIONS CONFLICTS: 0
L1D Cross Page Prefetch Requests: 0
L1D Same Page Prefetch Requests: 0
L1D ROI Sum of L1D PQ occupancy: 0
L1D PREFETCHES PUSHED FROM L2C: 0
L1I TOTAL     ACCESS:    9751804  HIT:    9750489  MISS:       1315  HIT %:    99.9865  MISS %:  0.0134847   MPKI: 0.0263
L1I LOAD      ACCESS:    9751804  HIT:    9750489  MISS:       1315  HIT %:    99.9865  MISS %:  0.0134847   MPKI: 0.0263
L1I PREFETCH  REQUESTED:          0  ISSUED:          0  USEFUL:          0  USELESS:          0
L1I USEFUL LOAD PREFETCHES:          0 PREFETCH ISSUED TO LOWER LEVEL:          0  ACCURACY: -nan
L1I TIMELY PREFETCHES:          0 LATE PREFETCHES: 0 DROPPED PREFETCHES: 0
L1I PREFETCHES SAME FILL-ORIGIN LEVEL: 0 DIFFERENT FILL-ORIGIN LEVEL: 0
L1I AVERAGE MISS LATENCY: 191.932 cycles
L1I RQ	ACCESS:   14980468	FORWARD:          0	MERGED:    5228211	TO_CACHE:    9752257

BTB BRANCH_DIRECT_JUMP	ACCESS:          0  HIT:          0  MISS:          0
BTB BRANCH_INDIRECT	ACCESS:          0  HIT:          0  MISS:          0
BTB BRANCH_CONDITIONAL	ACCESS:          0  HIT:          0  MISS:          0
BTB BRANCH_DIRECT_CALL	ACCESS:          0  HIT:          0  MISS:          0
BTB BRANCH_INDIRECT_CALL	ACCESS:          0  HIT:          0  MISS:          0
BTB BRANCH_RETURN	ACCESS:          0  HIT:          0  MISS:          0
BTB BRANCH_OTHER ACCESS:          0  HIT:          0  MISS:          0

L2C TOTAL     ACCESS:    2114554  HIT:    1746890  MISS:     367664  HIT %:    82.6127  MISS %:    17.3873   MPKI: 7.35328
L2C LOAD      ACCESS:     392792  HIT:     156803  MISS:     235989  HIT %:    39.9201  MISS %:    60.0799   MPKI: 4.71978
L2C DATA LOAD MPKI: 4.69416
L2C INSTRUCTION LOAD MPKI: 0.02562
L2C RFO       ACCESS:      34122  HIT:      25989  MISS:       8133  HIT %:    76.1649  MISS %:    23.8351   MPKI: 0.16266
L2C PREFETCH  ACCESS:     137220  HIT:      46334  MISS:      90886  HIT %:    33.7662  MISS %:    66.2338   MPKI: 1.81772
L2C DATA PREFETCH MPKI: 1.81772
L2C INSTRUCTION PREFETCH MPKI: 0
L2C WRITEBACK ACCESS:      47774  HIT:      47514  MISS:        260  HIT %:    99.4558  MISS %:   0.544229   MPKI: 0.0052
L2C LOAD TRANSLATION ACCESS:    1502646  HIT:    1470250  MISS:      32396  HIT %:    97.8441  MISS %:    2.15593   MPKI: 0.64792
L2C PREFETCH  REQUESTED:     150650  ISSUED:     150650  USEFUL:      52862  USELESS:      36925
L2C USEFUL LOAD PREFETCHES:      52862 PREFETCH ISSUED TO LOWER LEVEL:     102711  ACCURACY: 51.4667
L2C TIMELY PREFETCHES:      52862 LATE PREFETCHES: 2300 DROPPED PREFETCHES: 0
L2C PREFETCHES SAME FILL-ORIGIN LEVEL: 93186 DIFFERENT FILL-ORIGIN LEVEL: 9525
L2C AVERAGE MISS LATENCY: 122.85 cycles
L2C RQ	ACCESS:    1929563	FORWARD:          0	MERGED:          0	TO_CACHE:    1929560
L2C WQ	ACCESS:      47774	FORWARD:          3	MERGED:          0	TO_CACHE:      47774
L2C PQ	ACCESS:     150650	FORWARD:          0	MERGED:        603	TO_CACHE:     150047

L2C Instructions Evicting Data 1169
L2C Translations Evicting Data 29707
L2C Data Evicting Data 301406
L2C Instructions Evicting Instructions 0
L2C Translations Evicting Instructions 122
L2C Data Evicting Instructions 1150
L2C Instructions Evicting Translations 112
L2C Translations Evicting Translations 2567
L2C Data Evicting Translations 31171
L2C Dense regions hint from L2: 0
PSCL5 TOTAL     ACCESS:    1376792  HIT:    1376792  MISS:          0  HIT %:        100  MISS %:          0   MPKI: 0
PSCL5 LOAD TRANSLATION ACCESS:    1376792  HIT:    1376792  MISS:          0  HIT %:        100  MISS %:          0   MPKI: 0
PSCL5 PREFETCH  REQUESTED:          0  ISSUED:          0  USEFUL:          0  USELESS:          0
PSCL5 USEFUL LOAD PREFETCHES:          0 PREFETCH ISSUED TO LOWER LEVEL:          0  ACCURACY: -nan
PSCL5 TIMELY PREFETCHES:          0 LATE PREFETCHES: 0 DROPPED PREFETCHES: 0
PSCL5 PREFETCHES SAME FILL-ORIGIN LEVEL: 0 DIFFERENT FILL-ORIGIN LEVEL: 0

PSCL4 TOTAL     ACCESS:    1376792  HIT:    1376792  MISS:          0  HIT %:        100  MISS %:          0   MPKI: 0
PSCL4 LOAD TRANSLATION ACCESS:    1376792  HIT:    1376792  MISS:          0  HIT %:        100  MISS %:          0   MPKI: 0
PSCL4 PREFETCH  REQUESTED:          0  ISSUED:          0  USEFUL:          0  USELESS:          0
PSCL4 USEFUL LOAD PREFETCHES:          0 PREFETCH ISSUED TO LOWER LEVEL:          0  ACCURACY: -nan
PSCL4 TIMELY PREFETCHES:          0 LATE PREFETCHES: 0 DROPPED PREFETCHES: 0
PSCL4 PREFETCHES SAME FILL-ORIGIN LEVEL: 0 DIFFERENT FILL-ORIGIN LEVEL: 0

PSCL3 TOTAL     ACCESS:    1376746  HIT:    1376725  MISS:         21  HIT %:    99.9985  MISS %: 0.00152534   MPKI: 0.00042
PSCL3 LOAD TRANSLATION ACCESS:    1376746  HIT:    1376725  MISS:         21  HIT %:    99.9985  MISS %: 0.00152534   MPKI: 0.00042
PSCL3 PREFETCH  REQUESTED:          0  ISSUED:          0  USEFUL:          0  USELESS:          0
PSCL3 USEFUL LOAD PREFETCHES:          0 PREFETCH ISSUED TO LOWER LEVEL:          0  ACCURACY: -nan
PSCL3 TIMELY PREFETCHES:          0 LATE PREFETCHES: 0 DROPPED PREFETCHES: 0
PSCL3 PREFETCHES SAME FILL-ORIGIN LEVEL: 0 DIFFERENT FILL-ORIGIN LEVEL: 0

PSCL2 TOTAL     ACCESS:    1376792  HIT:    1250935  MISS:     125857  HIT %:    90.8587  MISS %:    9.14132   MPKI: 2.51714
PSCL2 LOAD TRANSLATION ACCESS:    1376792  HIT:    1250935  MISS:     125857  HIT %:    90.8587  MISS %:    9.14132   MPKI: 2.51714
PSCL2 PREFETCH  REQUESTED:          0  ISSUED:          0  USEFUL:          0  USELESS:          0
PSCL2 USEFUL LOAD PREFETCHES:          0 PREFETCH ISSUED TO LOWER LEVEL:          0  ACCURACY: -nan
PSCL2 TIMELY PREFETCHES:          0 LATE PREFETCHES: 0 DROPPED PREFETCHES: 0
PSCL2 PREFETCHES SAME FILL-ORIGIN LEVEL: 0 DIFFERENT FILL-ORIGIN LEVEL: 0

LLC TOTAL     ACCESS:     384657  HIT:     118426  MISS:     266231  HIT %:    30.7874  MISS %:    69.2126   MPKI: 5.32462
LLC LOAD      ACCESS:     233689  HIT:      56973  MISS:     176716  HIT %:    24.3798  MISS %:    75.6202   MPKI: 3.53432
LLC RFO       ACCESS:       8133  HIT:        148  MISS:       7985  HIT %:    1.81975  MISS %:    98.1803   MPKI: 0.1597
LLC PREFETCH  ACCESS:     102565  HIT:      34328  MISS:      68237  HIT %:    33.4695  MISS %:    66.5305   MPKI: 1.36474
LLC WRITEBACK ACCESS:       7874  HIT:       6871  MISS:       1003  HIT %:    87.2619  MISS %:    12.7381   MPKI: 0.02006
LLC LOAD TRANSLATION ACCESS:      32396  HIT:      20106  MISS:      12290  HIT %:    62.0632  MISS %:    37.9368   MPKI: 0.2458
LLC PREFETCH  REQUESTED:          0  ISSUED:          0  USEFUL:       1017  USELESS:      55613
LLC USEFUL LOAD PREFETCHES:       1017 PREFETCH ISSUED TO LOWER LEVEL:      68272  ACCURACY: 1.48963
LLC TIMELY PREFETCHES:       1017 LATE PREFETCHES: 35 DROPPED PREFETCHES: 0
LLC PREFETCHES SAME FILL-ORIGIN LEVEL: 3591 DIFFERENT FILL-ORIGIN LEVEL: 0
LLC AVERAGE MISS LATENCY: 130.545 cycles
LLC RQ	ACCESS:     274218	FORWARD:          0	MERGED:          0	TO_CACHE:     274218
LLC WQ	ACCESS:       7874	FORWARD:          0	MERGED:          0	TO_CACHE:       7874
LLC PQ	ACCESS:     102711	FORWARD:          0	MERGED:          1	TO_CACHE:     102710

LLC Dense regions hint to LLC: 0

RAW hits: 68819
Loads Generated: 5666926
Loads sent to L1D: 5598107
Stores Generated: 710673
Stores sent to L1D: 710675
Major fault: 0 Minor fault: 12142
Allocated PAGES: 12142
------------------
Depth Distribution
------------------
depth 0: 96829
depth 1: 44252
depth 2: 45740
depth 3: 439
depth 4: 0
depth 5: 0
depth 6: 0
depth 7: 0
depth 8: 0
depth 9: 0
depth 10: 0
depth 11: 0
depth 12: 0
depth 13: 0
depth 14: 0
depth 15: 0
depth 16: 0
depth 17: 0
depth 18: 0
depth 19: 0
depth 20: 0
depth 21: 0
depth 22: 0
depth 23: 0
depth 24: 0
depth 25: 0
depth 26: 0
depth 27: 0
depth 28: 0
depth 29: 0
Total: 187260
------------------
ST read accesses: 81045
ST write accesses: 105678
PT read accesses: 1686853
PT write accesses: 97684
FILTER read accesses: 1032044
FILTER write accesses: 1015586
GHR read accesses: 916566
GHR write accesses: 10720
PERC read accesses: 12397950
PERC write accesses: 1509557
GHR counter read accesses: 373446
GHR counter write accesses: 391753
GHR ip read accesses: 1230504
GHR ip write accesses: 746892
ST tag read accesses: 7945230
ST tag write accesses: 2059476

DRAM Statistics
 CHANNEL 0
 RQ ROW_BUFFER_HIT:     111119  ROW_BUFFER_MISS:     154109
 DBUS_CONGESTED:         10
 WQ ROW_BUFFER_HIT:       1982  ROW_BUFFER_MISS:       6096  FULL:          0

 AVG_CONGESTED_CYCLE: 4
 All warmup complete: 2
Channel 0 Bank busy for read cycles: 0
Channel 0 Bank busy for write cycles: 0
Channel 0
Rank 0
0banks busy for read cycles: 54061915
0banks busy for write cycles: 7289
1banks busy for read cycles: 16976371
1banks busy for write cycles: 1455462
2banks busy for read cycles: 3533888
2banks busy for write cycles: 82720
3banks busy for read cycles: 979321
3banks busy for write cycles: 8168
4banks busy for read cycles: 347330
4banks busy for write cycles: 3571
5banks busy for read cycles: 45534
5banks busy for write cycles: 3734
6banks busy for read cycles: 7805
6banks busy for write cycles: 1899
7banks busy for read cycles: 2302
7banks busy for write cycles: 3444
8banks busy for read cycles: 1294
8banks busy for write cycles: 1234

CPU 0 Branch Prediction Accuracy: 98.7219% MPKI: 1.7429 Average ROB Occupancy at Mispredict: 66.0597
Branch types
NOT_BRANCH: 0 0%
BRANCH_DIRECT_JUMP: 0 0%
BRANCH_INDIRECT: 0 0%
BRANCH_CONDITIONAL: 0 0%
BRANCH_DIRECT_CALL: 0 0%
BRANCH_INDIRECT_CALL: 0 0%
BRANCH_RETURN: 0 0%
BRANCH_OTHER: 0 0%

DRAM PAGES: 1048576
Allocated PAGES: 12142
