
*** ChampSim Multicore Out-of-Order Simulator ***

Warmup Instructions: 50000000
Simulation Instructions: 50000000
Number of CPUs: 1
LLC sets: 2048
LLC ways: 16
Off-chip DRAM Size: 4096 MB Channels: 1 Width: 64-bit Data Rate: 6400 MT/s
CPU 0 runs ../cloudsuite_traces//classification_phase1_core1.trace.gz
.gz
NUM_OF_IPS_IN_CRITICAL_IP_TRAINING: 64
NUM_OF_CRITICAL_IP_TRAINING_TABLE_WAYS: 2
NUM_OF_CRITICAL_IP_TRAINING_TABLE_SETS: 32
WOBBLY_CRITICAL_IP_CACHE_SETS: 32
WOBBLY_CRITICAL_IP_CACHE_WAYS: 4
BTB has LRU replacement policy
ITLB has LRU replacement policy
DTLB has LRU replacement policy
STLB has LRU replacement policy
L1I has LRU replacement policy
IP Table Entries: 64
L1D has LRU replacement policy
Initialize SRRIP state for L2C
Initialize DRRIP state for LLC
UNIQUE_ASID[0] = 
UNIQUE_ASID[1] = €
Heartbeat CPU 0 instructions: 10000000 cycles: 2641232 heartbeat IPC: 3.78611 cumulative IPC: 3.78611 (Simulation time: 0 hr 7 min 38 sec) 
Heartbeat CPU 0 instructions: 20000000 cycles: 5279354 heartbeat IPC: 3.79058 cumulative IPC: 3.78834 (Simulation time: 0 hr 14 min 26 sec) 
Heartbeat CPU 0 instructions: 30000003 cycles: 7918755 heartbeat IPC: 3.78874 cumulative IPC: 3.78847 (Simulation time: 0 hr 19 min 45 sec) 
Heartbeat CPU 0 instructions: 40000001 cycles: 10556979 heartbeat IPC: 3.79043 cumulative IPC: 3.78896 (Simulation time: 0 hr 24 min 46 sec) 
Heartbeat CPU 0 instructions: 50000003 cycles: 13197172 heartbeat IPC: 3.7876 cumulative IPC: 3.78869 (Simulation time: 0 hr 29 min 19 sec) 

Warmup complete CPU 0 instructions: 50000003 cycles: 13197172 (Simulation time: 0 hr 29 min 19 sec) 

% increase in all ip prefetch 379.363
% increase in all ip prefetch -2.70239
Heartbeat CPU 0 instructions: 60000003 cycles: 28945125 heartbeat IPC: 0.635003 cumulative IPC: 0.635003 (Simulation time: 0 hr 33 min 56 sec) 
Heartbeat CPU 0 instructions: 70000001 cycles: 44671757 heartbeat IPC: 0.635864 cumulative IPC: 0.635433 (Simulation time: 0 hr 38 min 19 sec) 
Heartbeat CPU 0 instructions: 80000000 cycles: 60428721 heartbeat IPC: 0.63464 cumulative IPC: 0.635169 (Simulation time: 0 hr 42 min 39 sec) 
Heartbeat CPU 0 instructions: 90000003 cycles: 76286002 heartbeat IPC: 0.630625 cumulative IPC: 0.634027 (Simulation time: 0 hr 49 min 15 sec) 
Heartbeat CPU 0 instructions: 100000000 cycles: 91973734 heartbeat IPC: 0.637441 cumulative IPC: 0.634706 (Simulation time: 0 hr 56 min 43 sec) 
Finished CPU 0 instructions: 50000001 cycles: 78776563 cumulative IPC: 0.634707 (Simulation time: 0 hr 56 min 43 sec) 

ChampSim completed all CPUs

Region of Interest Statistics

CPU 0 cumulative IPC: 0.634707 instructions: 50000001 cycles: 78776563

CPU 0 Average Load ROB stall cycles: 4.06323e+06
CPU 0 Fraction of times ROB stalled by Loads: 7.68349
CPU 0 Percentage of Load stall cycles in Total stall cycles: 4.35218e+07
 Total stall cycles: 34878181
 Total load stall cycles: 15179596670332
CPU 0 NUM of IPS identified critical: 7
CPU 0 Num of Load IPs stalling ROB: 340
Threshold modification factor: -1
Max PIST entries: 63
Min PIST entries: 0
Avg PIST entries: 27.04
Trouble in retire width: 0.772689
MaC = Marked as critical.
lt_50_percent_before_Mac: 6
gt_90_percent_before_Mac: 0
gt_75_percent_before_Mac: 1
gt_50_percent_before_Mac: 0
stall_proportion_bin_same_before_after: 0
stall_proportion_bin_lower_before_after: 0
stall_proportion_bin_upper_before_after: 0
average_stall_proportion_before: 0.169418
average_stall_proportion_after: 0.18386
Critical IP stalls, total frequency: 53149
Non-critical IP stalls, total frequency: 233601
Critical_IP_ROB_Stalls_Bucket_0: 22510
Non-critical_IP_ROB_Stalls_Bucket_0: 181413
Critical_IP_ROB_Stalls_Bucket_1: 10928
Non-critical_IP_ROB_Stalls_Bucket_1: 22142
Critical_IP_ROB_Stalls_Bucket_2: 4986
Non-critical_IP_ROB_Stalls_Bucket_2: 8720
Critical_IP_ROB_Stalls_Bucket_3: 3669
Non-critical_IP_ROB_Stalls_Bucket_3: 8087
Critical_IP_ROB_Stalls_Bucket_4: 2935
Non-critical_IP_ROB_Stalls_Bucket_4: 5090
Critical_IP_ROB_Stalls_Bucket_5: 1097
Non-critical_IP_ROB_Stalls_Bucket_5: 3221
Critical_IP_ROB_Stalls_Bucket_6: 7024
Non-critical_IP_ROB_Stalls_Bucket_6: 5221
0 => IPs accounting for >50 percent of stalls, 1 => 55, 2 => 60, 3 => 65 and so on till 90.
percent50: 50.2298 num IPs:8
percent55: 56.7003 num IPs:11
percent60: 60.3212 num IPs:13
percent65: 65.6 num IPs:17
percent70: 70.2012 num IPs:21
percent75: 75.4964 num IPs:26
percent80: 80.182 num IPs:32
percent85: 85.2691 num IPs:43
percent90: 90.1911 num IPs:59
Critical_ROB_Stalls_Percent_0_Bucket_0: 119960
Non-critical_ROB_Stalls_Percent_0_Bucket_0: 83963
Critical_ROB_Stalls_Percent_0_Bucket_1: 11437
Non-critical_ROB_Stalls_Percent_0_Bucket_1: 21633
Critical_ROB_Stalls_Percent_0_Bucket_2: 4878
Non-critical_ROB_Stalls_Percent_0_Bucket_2: 8828
Critical_ROB_Stalls_Percent_0_Bucket_3: 3181
Non-critical_ROB_Stalls_Percent_0_Bucket_3: 8575
Critical_ROB_Stalls_Percent_0_Bucket_4: 2630
Non-critical_ROB_Stalls_Percent_0_Bucket_4: 5395
Critical_ROB_Stalls_Percent_0_Bucket_5: 1127
Non-critical_ROB_Stalls_Percent_0_Bucket_5: 3191
Critical_ROB_Stalls_Percent_0_Bucket_6: 821
Non-critical_ROB_Stalls_Percent_0_Bucket_6: 11424
Critical_ROB_Stalls_Percent_1_Bucket_0: 132459
Non-critical_ROB_Stalls_Percent_1_Bucket_0: 71464
Critical_ROB_Stalls_Percent_1_Bucket_1: 13559
Non-critical_ROB_Stalls_Percent_1_Bucket_1: 19511
Critical_ROB_Stalls_Percent_1_Bucket_2: 6014
Non-critical_ROB_Stalls_Percent_1_Bucket_2: 7692
Critical_ROB_Stalls_Percent_1_Bucket_3: 4133
Non-critical_ROB_Stalls_Percent_1_Bucket_3: 7623
Critical_ROB_Stalls_Percent_1_Bucket_4: 3491
Non-critical_ROB_Stalls_Percent_1_Bucket_4: 4534
Critical_ROB_Stalls_Percent_1_Bucket_5: 1951
Non-critical_ROB_Stalls_Percent_1_Bucket_5: 2367
Critical_ROB_Stalls_Percent_1_Bucket_6: 981
Non-critical_ROB_Stalls_Percent_1_Bucket_6: 11264
Critical_ROB_Stalls_Percent_2_Bucket_0: 138001
Non-critical_ROB_Stalls_Percent_2_Bucket_0: 65922
Critical_ROB_Stalls_Percent_2_Bucket_1: 13762
Non-critical_ROB_Stalls_Percent_2_Bucket_1: 19308
Critical_ROB_Stalls_Percent_2_Bucket_2: 6018
Non-critical_ROB_Stalls_Percent_2_Bucket_2: 7688
Critical_ROB_Stalls_Percent_2_Bucket_3: 4133
Non-critical_ROB_Stalls_Percent_2_Bucket_3: 7623
Critical_ROB_Stalls_Percent_2_Bucket_4: 3502
Non-critical_ROB_Stalls_Percent_2_Bucket_4: 4523
Critical_ROB_Stalls_Percent_2_Bucket_5: 1951
Non-critical_ROB_Stalls_Percent_2_Bucket_5: 2367
Critical_ROB_Stalls_Percent_2_Bucket_6: 5604
Non-critical_ROB_Stalls_Percent_2_Bucket_6: 6641
Critical_ROB_Stalls_Percent_3_Bucket_0: 151972
Non-critical_ROB_Stalls_Percent_3_Bucket_0: 51951
Critical_ROB_Stalls_Percent_3_Bucket_1: 13961
Non-critical_ROB_Stalls_Percent_3_Bucket_1: 19109
Critical_ROB_Stalls_Percent_3_Bucket_2: 6090
Non-critical_ROB_Stalls_Percent_3_Bucket_2: 7616
Critical_ROB_Stalls_Percent_3_Bucket_3: 4207
Non-critical_ROB_Stalls_Percent_3_Bucket_3: 7549
Critical_ROB_Stalls_Percent_3_Bucket_4: 3571
Non-critical_ROB_Stalls_Percent_3_Bucket_4: 4454
Critical_ROB_Stalls_Percent_3_Bucket_5: 2035
Non-critical_ROB_Stalls_Percent_3_Bucket_5: 2283
Critical_ROB_Stalls_Percent_3_Bucket_6: 6272
Non-critical_ROB_Stalls_Percent_3_Bucket_6: 5973
Critical_ROB_Stalls_Percent_4_Bucket_0: 161282
Non-critical_ROB_Stalls_Percent_4_Bucket_0: 42641
Critical_ROB_Stalls_Percent_4_Bucket_1: 17004
Non-critical_ROB_Stalls_Percent_4_Bucket_1: 16066
Critical_ROB_Stalls_Percent_4_Bucket_2: 6417
Non-critical_ROB_Stalls_Percent_4_Bucket_2: 7289
Critical_ROB_Stalls_Percent_4_Bucket_3: 4462
Non-critical_ROB_Stalls_Percent_4_Bucket_3: 7294
Critical_ROB_Stalls_Percent_4_Bucket_4: 3747
Non-critical_ROB_Stalls_Percent_4_Bucket_4: 4278
Critical_ROB_Stalls_Percent_4_Bucket_5: 2109
Non-critical_ROB_Stalls_Percent_4_Bucket_5: 2209
Critical_ROB_Stalls_Percent_4_Bucket_6: 6281
Non-critical_ROB_Stalls_Percent_4_Bucket_6: 5964
Critical_ROB_Stalls_Percent_5_Bucket_0: 170456
Non-critical_ROB_Stalls_Percent_5_Bucket_0: 33467
Critical_ROB_Stalls_Percent_5_Bucket_1: 19596
Non-critical_ROB_Stalls_Percent_5_Bucket_1: 13474
Critical_ROB_Stalls_Percent_5_Bucket_2: 7307
Non-critical_ROB_Stalls_Percent_5_Bucket_2: 6399
Critical_ROB_Stalls_Percent_5_Bucket_3: 6654
Non-critical_ROB_Stalls_Percent_5_Bucket_3: 5102
Critical_ROB_Stalls_Percent_5_Bucket_4: 3893
Non-critical_ROB_Stalls_Percent_5_Bucket_4: 4132
Critical_ROB_Stalls_Percent_5_Bucket_5: 2228
Non-critical_ROB_Stalls_Percent_5_Bucket_5: 2090
Critical_ROB_Stalls_Percent_5_Bucket_6: 6352
Non-critical_ROB_Stalls_Percent_5_Bucket_6: 5893
Critical_ROB_Stalls_Percent_6_Bucket_0: 175957
Non-critical_ROB_Stalls_Percent_6_Bucket_0: 27966
Critical_ROB_Stalls_Percent_6_Bucket_1: 20711
Non-critical_ROB_Stalls_Percent_6_Bucket_1: 12359
Critical_ROB_Stalls_Percent_6_Bucket_2: 8683
Non-critical_ROB_Stalls_Percent_6_Bucket_2: 5023
Critical_ROB_Stalls_Percent_6_Bucket_3: 8736
Non-critical_ROB_Stalls_Percent_6_Bucket_3: 3020
Critical_ROB_Stalls_Percent_6_Bucket_4: 4441
Non-critical_ROB_Stalls_Percent_6_Bucket_4: 3584
Critical_ROB_Stalls_Percent_6_Bucket_5: 2534
Non-critical_ROB_Stalls_Percent_6_Bucket_5: 1784
Critical_ROB_Stalls_Percent_6_Bucket_6: 8860
Non-critical_ROB_Stalls_Percent_6_Bucket_6: 3385
Critical_ROB_Stalls_Percent_7_Bucket_0: 183735
Non-critical_ROB_Stalls_Percent_7_Bucket_0: 20188
Critical_ROB_Stalls_Percent_7_Bucket_1: 24172
Non-critical_ROB_Stalls_Percent_7_Bucket_1: 8898
Critical_ROB_Stalls_Percent_7_Bucket_2: 9221
Non-critical_ROB_Stalls_Percent_7_Bucket_2: 4485
Critical_ROB_Stalls_Percent_7_Bucket_3: 9323
Non-critical_ROB_Stalls_Percent_7_Bucket_3: 2433
Critical_ROB_Stalls_Percent_7_Bucket_4: 6094
Non-critical_ROB_Stalls_Percent_7_Bucket_4: 1931
Critical_ROB_Stalls_Percent_7_Bucket_5: 2729
Non-critical_ROB_Stalls_Percent_7_Bucket_5: 1589
Critical_ROB_Stalls_Percent_7_Bucket_6: 9235
Non-critical_ROB_Stalls_Percent_7_Bucket_6: 3010
Critical_ROB_Stalls_Percent_8_Bucket_0: 191761
Non-critical_ROB_Stalls_Percent_8_Bucket_0: 12162
Critical_ROB_Stalls_Percent_8_Bucket_1: 26295
Non-critical_ROB_Stalls_Percent_8_Bucket_1: 6775
Critical_ROB_Stalls_Percent_8_Bucket_2: 10503
Non-critical_ROB_Stalls_Percent_8_Bucket_2: 3203
Critical_ROB_Stalls_Percent_8_Bucket_3: 9771
Non-critical_ROB_Stalls_Percent_8_Bucket_3: 1985
Critical_ROB_Stalls_Percent_8_Bucket_4: 6449
Non-critical_ROB_Stalls_Percent_8_Bucket_4: 1576
Critical_ROB_Stalls_Percent_8_Bucket_5: 3150
Non-critical_ROB_Stalls_Percent_8_Bucket_5: 1168
Critical_ROB_Stalls_Percent_8_Bucket_6: 10694
Non-critical_ROB_Stalls_Percent_8_Bucket_6: 1551
Average ROB occupancy Load Stall Begin: 56.233
Average ROB occupancy Load Stall End: 65.0733
Min ROB occupancy Load Stall Begin: 1
Max ROB occupancy Load Stall Begin: 351
Min ROB occupancy Load Stall End: 1
Max ROB occupancy Load Stall End: 352
Average ROB occupancy Critical Load Stall Begin: 108.873
Average ROB occupancy Critical Load Stall End: 123.339
Min ROB occupancy Critical Load Stall Begin: 2
Max ROB occupancy Critical Load Stall Begin: 351
Min ROB occupancy Critical Load Stall End: 2
Max ROB occupancy Critical Load Stall End: 352
 ROB Load Stall Begin Bucket Count 0: 217669
 ROB Load Stall End Bucket Count 0: 203923
 ROB Critical Load Stall Begin Bucket Count 0: 19399
 ROB Critical Load Stall End Bucket Count 0: 14260
 ROB Load Stall Begin Bucket Count 1: 27670
 ROB Load Stall End Bucket Count 1: 33070
 ROB Critical Load Stall Begin Bucket Count 1: 7058
 ROB Critical Load Stall End Bucket Count 1: 9232
 ROB Load Stall Begin Bucket Count 2: 11332
 ROB Load Stall End Bucket Count 2: 13706
 ROB Critical Load Stall Begin Bucket Count 2: 2554
 ROB Critical Load Stall End Bucket Count 2: 4057
 ROB Load Stall Begin Bucket Count 3: 8598
 ROB Load Stall End Bucket Count 3: 11756
 ROB Critical Load Stall Begin Bucket Count 3: 2075
 ROB Critical Load Stall End Bucket Count 3: 2703
 ROB Load Stall Begin Bucket Count 4: 7411
 ROB Load Stall End Bucket Count 4: 8025
 ROB Critical Load Stall Begin Bucket Count 4: 1644
 ROB Critical Load Stall End Bucket Count 4: 2093
 ROB Load Stall Begin Bucket Count 5: 3715
 ROB Load Stall End Bucket Count 5: 4318
 ROB Critical Load Stall Begin Bucket Count 5: 571
 ROB Critical Load Stall End Bucket Count 5: 783
 ROB Load Stall Begin Bucket Count 6: 10648
 ROB Load Stall End Bucket Count 6: 12245
 ROB Critical Load Stall Begin Bucket Count 6: 6267
 ROB Critical Load Stall End Bucket Count 6: 6440
PIST Tag Read Accesses: 83108
PIST Read Accesses: 41554
PIST Tag Write Accesses: 83108
PIST Write Accesses: 41554
Criticality detector called times: 138258
Max global_stall_cycles_count: 169359
Threshold Modified: 1 times, factor: -1
ITLB TOTAL     ACCESS:    7405294  HIT:    7115131  MISS:     290163  HIT %:    96.0817  MISS %:    3.91832   MPKI: 5.80326
ITLB LOAD TRANSLATION ACCESS:    7405294  HIT:    7115131  MISS:     290163  HIT %:    96.0817  MISS %:    3.91832   MPKI: 5.80326
ITLB PREFETCH  REQUESTED:          0  ISSUED:          0  USEFUL:          0  USELESS:          0
ITLB USEFUL LOAD PREFETCHES:          0 PREFETCH ISSUED TO LOWER LEVEL:          0  ACCURACY: -nan
ITLB TIMELY PREFETCHES:          0 LATE PREFETCHES: 0 DROPPED PREFETCHES: 0
ITLB PREFETCHES SAME FILL-ORIGIN LEVEL: 0 DIFFERENT FILL-ORIGIN LEVEL: 0
ITLB AVERAGE MISS LATENCY: 36.8113 cycles
ITLB RQ	ACCESS:    9752216	FORWARD:          0	MERGED:    2217160	TO_CACHE:    7535056

DTLB TOTAL     ACCESS:    4047929  HIT:    1758279  MISS:    2289650  HIT %:    43.4365  MISS %:    56.5635   MPKI: 45.793
DTLB LOAD TRANSLATION ACCESS:    4047929  HIT:    1758279  MISS:    2289650  HIT %:    43.4365  MISS %:    56.5635   MPKI: 45.793
DTLB PREFETCH  REQUESTED:          0  ISSUED:          0  USEFUL:          0  USELESS:          0
DTLB USEFUL LOAD PREFETCHES:          0 PREFETCH ISSUED TO LOWER LEVEL:          0  ACCURACY: -nan
DTLB TIMELY PREFETCHES:          0 LATE PREFETCHES: 0 DROPPED PREFETCHES: 0
DTLB PREFETCHES SAME FILL-ORIGIN LEVEL: 0 DIFFERENT FILL-ORIGIN LEVEL: 0
DTLB AVERAGE MISS LATENCY: 23.1087 cycles
DTLB RQ	ACCESS:    4370974	FORWARD:          0	MERGED:     184448	TO_CACHE:    4186526

STLB TOTAL     ACCESS:    2884480  HIT:    1383579  MISS:    1500901  HIT %:    47.9663  MISS %:    52.0337   MPKI: 30.018
STLB LOAD TRANSLATION ACCESS:    2579813  HIT:    1202437  MISS:    1377376  HIT %:    46.6095  MISS %:    53.3905   MPKI: 27.5475
STLB TRANSLATION FROM L1D PREFETCHER ACCESS:     304667  HIT:     181142  MISS:     123525  HIT %:    59.4557  MISS %:    40.5443   MPKI: 2.4705
STLB PREFETCH  REQUESTED:          0  ISSUED:          0  USEFUL:      35376  USELESS:      88143
STLB USEFUL LOAD PREFETCHES:      35376 PREFETCH ISSUED TO LOWER LEVEL:          0  ACCURACY: inf
STLB TIMELY PREFETCHES:      35376 LATE PREFETCHES: 0 DROPPED PREFETCHES: 0
STLB PREFETCHES SAME FILL-ORIGIN LEVEL: 0 DIFFERENT FILL-ORIGIN LEVEL: 0
STLB AVERAGE MISS LATENCY: 28.899 cycles
STLB RQ	ACCESS:    2936349	FORWARD:          0	MERGED:      51526	TO_CACHE:    2884823

STLB Hit, L1D data hit: 0
STLB Hit, L2C data hit: 0
STLB Hit, LLC data hit: 0
STLB Hit, LLC data miss: 0
STLB STLB hints to L2: 0
L1D TOTAL     ACCESS:    4638449  HIT:    4088791  MISS:     549658  HIT %:      88.15  MISS %:      11.85   MPKI: 10.9932
L1D LOAD      ACCESS:    3632981  HIT:    3274407  MISS:     358574  HIT %:      90.13  MISS %:    9.86997   MPKI: 7.17148
L1D RFO       ACCESS:     654126  HIT:     617227  MISS:      36899  HIT %:     94.359  MISS %:    5.64096   MPKI: 0.73798
L1D PREFETCH  ACCESS:     351342  HIT:     197157  MISS:     154185  HIT %:    56.1154  MISS %:    43.8846   MPKI: 3.0837
L1D PREFETCH  REQUESTED:     713072  ISSUED:     713072  USEFUL:      39776  USELESS:     114365
L1D USEFUL LOAD PREFETCHES:      39776 PREFETCH ISSUED TO LOWER LEVEL:     157221  ACCURACY: 25.2994
L1D TIMELY PREFETCHES:      39776 LATE PREFETCHES: 3036 DROPPED PREFETCHES: 0
L1D PREFETCHES SAME FILL-ORIGIN LEVEL: 157221 DIFFERENT FILL-ORIGIN LEVEL: 0
L1D AVERAGE MISS LATENCY: 291274 cycles
L1D RQ	ACCESS:    5597598	FORWARD:          0	MERGED:    1930620	TO_CACHE:    3661942
L1D WQ	ACCESS:     710675	FORWARD:       5036	MERGED:       1643	TO_CACHE:     709032
L1D PQ	ACCESS:     356536	FORWARD:          0	MERGED:          0	TO_CACHE:     356536

L1D UNIQUE REGIONS ACCESSED: 0
L1D REGIONS CONFLICTS: 0
L1D Cross Page Prefetch Requests: 0
L1D Same Page Prefetch Requests: 708779
L1D ROI Sum of L1D PQ occupancy: 8401630
L1D PREFETCHES PUSHED FROM L2C: 0
L1I TOTAL     ACCESS:    9751767  HIT:    9750452  MISS:       1315  HIT %:    99.9865  MISS %:  0.0134847   MPKI: 0.0263
L1I LOAD      ACCESS:    9751767  HIT:    9750452  MISS:       1315  HIT %:    99.9865  MISS %:  0.0134847   MPKI: 0.0263
L1I PREFETCH  REQUESTED:          0  ISSUED:          0  USEFUL:          0  USELESS:          0
L1I USEFUL LOAD PREFETCHES:          0 PREFETCH ISSUED TO LOWER LEVEL:          0  ACCURACY: -nan
L1I TIMELY PREFETCHES:          0 LATE PREFETCHES: 0 DROPPED PREFETCHES: 0
L1I PREFETCHES SAME FILL-ORIGIN LEVEL: 0 DIFFERENT FILL-ORIGIN LEVEL: 0
L1I AVERAGE MISS LATENCY: 192.559 cycles
L1I RQ	ACCESS:   14980677	FORWARD:          0	MERGED:    5228461	TO_CACHE:    9752216

BTB BRANCH_DIRECT_JUMP	ACCESS:          0  HIT:          0  MISS:          0
BTB BRANCH_INDIRECT	ACCESS:          0  HIT:          0  MISS:          0
BTB BRANCH_CONDITIONAL	ACCESS:          0  HIT:          0  MISS:          0
BTB BRANCH_DIRECT_CALL	ACCESS:          0  HIT:          0  MISS:          0
BTB BRANCH_INDIRECT_CALL	ACCESS:          0  HIT:          0  MISS:          0
BTB BRANCH_RETURN	ACCESS:          0  HIT:          0  MISS:          0
BTB BRANCH_OTHER ACCESS:          0  HIT:          0  MISS:          0

L2C TOTAL     ACCESS:    2230185  HIT:    1855670  MISS:     374515  HIT %:     83.207  MISS %:     16.793   MPKI: 7.4903
L2C LOAD      ACCESS:     356848  HIT:     109820  MISS:     247028  HIT %:     30.775  MISS %:     69.225   MPKI: 4.94056
L2C DATA LOAD MPKI: 4.91494
L2C INSTRUCTION LOAD MPKI: 0.02562
L2C RFO       ACCESS:      36899  HIT:      28856  MISS:       8043  HIT %:    78.2027  MISS %:    21.7973   MPKI: 0.16086
L2C PREFETCH  ACCESS:     157221  HIT:      71313  MISS:      85908  HIT %:    45.3584  MISS %:    54.6416   MPKI: 1.71816
L2C DATA PREFETCH MPKI: 1.71816
L2C INSTRUCTION PREFETCH MPKI: 0
L2C WRITEBACK ACCESS:      51853  HIT:      51455  MISS:        398  HIT %:    99.2324  MISS %:   0.767554   MPKI: 0.00796
L2C LOAD TRANSLATION ACCESS:    1502377  HIT:    1469252  MISS:      33125  HIT %:    97.7952  MISS %:    2.20484   MPKI: 0.6625
L2C TRANSLATION FROM L1D PREFETCHER ACCESS:     124987  HIT:     124974  MISS:         13  HIT %:    99.9896  MISS %:  0.0104011   MPKI: 0.00026
L2C PREFETCH  REQUESTED:          0  ISSUED:          0  USEFUL:      10724  USELESS:      74594
L2C USEFUL LOAD PREFETCHES:      10724 PREFETCH ISSUED TO LOWER LEVEL:      85908  ACCURACY: 12.4831
L2C TIMELY PREFETCHES:      10724 LATE PREFETCHES: 0 DROPPED PREFETCHES: 0
L2C PREFETCHES SAME FILL-ORIGIN LEVEL: 0 DIFFERENT FILL-ORIGIN LEVEL: 0
L2C AVERAGE MISS LATENCY: 124.018 cycles
L2C RQ	ACCESS:    2021116	FORWARD:          0	MERGED:          0	TO_CACHE:    2021111
L2C WQ	ACCESS:      51853	FORWARD:          5	MERGED:          0	TO_CACHE:      51853
L2C PQ	ACCESS:     157221	FORWARD:          0	MERGED:          0	TO_CACHE:     157221

L2C Instructions Evicting Data 1158
L2C Translations Evicting Data 30160
L2C Data Evicting Data 307282
L2C Instructions Evicting Instructions 2
L2C Translations Evicting Instructions 127
L2C Data Evicting Instructions 1137
L2C Instructions Evicting Translations 121
L2C Translations Evicting Translations 2851
L2C Data Evicting Translations 31279
L2C Dense regions hint from L2: 0
PSCL5 TOTAL     ACCESS:    1500901  HIT:    1500901  MISS:          0  HIT %:        100  MISS %:          0   MPKI: 0
PSCL5 LOAD TRANSLATION ACCESS:    1377376  HIT:    1377376  MISS:          0  HIT %:        100  MISS %:          0   MPKI: 0
PSCL5 TRANSLATION FROM L1D PREFETCHER ACCESS:     123525  HIT:     123525  MISS:          0  HIT %:        100  MISS %:          0   MPKI: 0
PSCL5 PREFETCH  REQUESTED:          0  ISSUED:          0  USEFUL:          0  USELESS:          0
PSCL5 USEFUL LOAD PREFETCHES:          0 PREFETCH ISSUED TO LOWER LEVEL:          0  ACCURACY: -nan
PSCL5 TIMELY PREFETCHES:          0 LATE PREFETCHES: 0 DROPPED PREFETCHES: 0
PSCL5 PREFETCHES SAME FILL-ORIGIN LEVEL: 0 DIFFERENT FILL-ORIGIN LEVEL: 0

PSCL4 TOTAL     ACCESS:    1500901  HIT:    1500901  MISS:          0  HIT %:        100  MISS %:          0   MPKI: 0
PSCL4 LOAD TRANSLATION ACCESS:    1377376  HIT:    1377376  MISS:          0  HIT %:        100  MISS %:          0   MPKI: 0
PSCL4 TRANSLATION FROM L1D PREFETCHER ACCESS:     123525  HIT:     123525  MISS:          0  HIT %:        100  MISS %:          0   MPKI: 0
PSCL4 PREFETCH  REQUESTED:          0  ISSUED:          0  USEFUL:          0  USELESS:          0
PSCL4 USEFUL LOAD PREFETCHES:          0 PREFETCH ISSUED TO LOWER LEVEL:          0  ACCURACY: -nan
PSCL4 TIMELY PREFETCHES:          0 LATE PREFETCHES: 0 DROPPED PREFETCHES: 0
PSCL4 PREFETCHES SAME FILL-ORIGIN LEVEL: 0 DIFFERENT FILL-ORIGIN LEVEL: 0

PSCL3 TOTAL     ACCESS:    1500839  HIT:    1500818  MISS:         21  HIT %:    99.9986  MISS %: 0.00139922   MPKI: 0.00042
PSCL3 LOAD TRANSLATION ACCESS:    1377314  HIT:    1377293  MISS:         21  HIT %:    99.9985  MISS %: 0.00152471   MPKI: 0.00042
PSCL3 TRANSLATION FROM L1D PREFETCHER ACCESS:     123525  HIT:     123525  MISS:          0  HIT %:        100  MISS %:          0   MPKI: 0
PSCL3 PREFETCH  REQUESTED:          0  ISSUED:          0  USEFUL:          0  USELESS:          0
PSCL3 USEFUL LOAD PREFETCHES:          0 PREFETCH ISSUED TO LOWER LEVEL:          0  ACCURACY: -nan
PSCL3 TIMELY PREFETCHES:          0 LATE PREFETCHES: 0 DROPPED PREFETCHES: 0
PSCL3 PREFETCHES SAME FILL-ORIGIN LEVEL: 0 DIFFERENT FILL-ORIGIN LEVEL: 0

PSCL2 TOTAL     ACCESS:    1500901  HIT:    1374435  MISS:     126466  HIT %:     91.574  MISS %:    8.42601   MPKI: 2.52932
PSCL2 LOAD TRANSLATION ACCESS:    1378838  HIT:    1252372  MISS:     126466  HIT %:    90.8281  MISS %:    9.17193   MPKI: 2.52932
PSCL2 TRANSLATION FROM L1D PREFETCHER ACCESS:     122063  HIT:     122063  MISS:          0  HIT %:        100  MISS %:          0   MPKI: 0
PSCL2 PREFETCH  REQUESTED:          0  ISSUED:          0  USEFUL:          0  USELESS:          0
PSCL2 USEFUL LOAD PREFETCHES:          0 PREFETCH ISSUED TO LOWER LEVEL:          0  ACCURACY: -nan
PSCL2 TIMELY PREFETCHES:          0 LATE PREFETCHES: 0 DROPPED PREFETCHES: 0
PSCL2 PREFETCHES SAME FILL-ORIGIN LEVEL: 0 DIFFERENT FILL-ORIGIN LEVEL: 0

LLC TOTAL     ACCESS:     381764  HIT:     118240  MISS:     263524  HIT %:     30.972  MISS %:     69.028   MPKI: 5.27048
LLC LOAD      ACCESS:     247028  HIT:      53818  MISS:     193210  HIT %:    21.7862  MISS %:    78.2138   MPKI: 3.8642
LLC RFO       ACCESS:       8043  HIT:        105  MISS:       7938  HIT %:    1.30548  MISS %:    98.6945   MPKI: 0.15876
LLC PREFETCH  ACCESS:      85908  HIT:      36772  MISS:      49136  HIT %:    42.8039  MISS %:    57.1961   MPKI: 0.98272
LLC WRITEBACK ACCESS:       7647  HIT:       6651  MISS:        996  HIT %:    86.9753  MISS %:    13.0247   MPKI: 0.01992
LLC LOAD TRANSLATION ACCESS:      33125  HIT:      20888  MISS:      12237  HIT %:    63.0581  MISS %:    36.9419   MPKI: 0.24474
LLC TRANSLATION FROM L1D PREFETCHER ACCESS:         13  HIT:          6  MISS:          7  HIT %:    46.1538  MISS %:    53.8462   MPKI: 0.00014
LLC PREFETCH  REQUESTED:          0  ISSUED:          0  USEFUL:        443  USELESS:      43718
LLC USEFUL LOAD PREFETCHES:        443 PREFETCH ISSUED TO LOWER LEVEL:      49136  ACCURACY: 0.901579
LLC TIMELY PREFETCHES:        443 LATE PREFETCHES: 0 DROPPED PREFETCHES: 0
LLC PREFETCHES SAME FILL-ORIGIN LEVEL: 0 DIFFERENT FILL-ORIGIN LEVEL: 0
LLC AVERAGE MISS LATENCY: 133.612 cycles
LLC RQ	ACCESS:     288209	FORWARD:          0	MERGED:          0	TO_CACHE:     288209
LLC WQ	ACCESS:       7647	FORWARD:          0	MERGED:          0	TO_CACHE:       7647
LLC PQ	ACCESS:      85908	FORWARD:          0	MERGED:          0	TO_CACHE:      85908

LLC Dense regions hint to LLC: 0

RAW hits: 69328
Loads Generated: 5666926
Loads sent to L1D: 5597598
Stores Generated: 710673
Stores sent to L1D: 710675
Major fault: 0 Minor fault: 12142
Allocated PAGES: 12142

stream: 
stream:times selected: 1115924
stream:pref_filled: 194646
stream:pref_useful: 28122
stream:pref_late: 3070
stream:misses: 30134
stream:misses_by_poll: 0

CS: 
CS:times selected: 24701
CS:pref_filled: 37597
CS:pref_useful: 28448
CS:pref_late: 46
CS:misses: 6753
CS:misses_by_poll: 19

CPLX: 
CPLX:times selected: 1080870
CPLX:pref_filled: 75358
CPLX:pref_useful: 25247
CPLX:pref_late: 315
CPLX:misses: 106204
CPLX:misses_by_poll: 12

NL_L1: 
NL:times selected: 29395
NL:pref_filled: 2045
NL:pref_useful: 218
NL:pref_late: 34
NL:misses: 1064
NL:misses_by_poll: 0

total selections: 2250890
total_filled: 154185
total_useful: 39776
total_late: 3555
total_polluted: 31
total_misses_after_warmup: 387535
conflicts: 1117832
Degree Incremented Times: 0
Degree Decremented Times: 83497

L1 IP Table Write Accesses: 2171568
L1 IP Table Read Accesses: 1053736
L1 RST Write Accesses: 561122
L1 RST Read Accesses: 1122244
L1 CSPT Write Accesses: 561122
L1 CSPT Read Accesses: 1103003
L1 RR Filter Tag Write Accesses: 356536
L1 RR Filter Tag Read Accesses: 16771473
L1 IP Table Tag Write Accesses: 3661942
L1 IP Table Tag Read Accesses: 3661942
L1 RST Tag Write Accesses: 0
L1 RST Tag Read Accesses: 6456682
L1 RR Filter Write Accesses: 0
L1 RR Filter Read Accesses: 646336
test: 496544

DRAM Statistics
 CHANNEL 0
 RQ ROW_BUFFER_HIT:     103640  ROW_BUFFER_MISS:     158887
 DBUS_CONGESTED:          7
 WQ ROW_BUFFER_HIT:       1768  ROW_BUFFER_MISS:       5969  FULL:          0

 AVG_CONGESTED_CYCLE: 5
 All warmup complete: 2
Channel 0 Bank busy for read cycles: 0
Channel 0 Bank busy for write cycles: 0
Channel 0
Rank 0
0banks busy for read cycles: 54607205
0banks busy for write cycles: 7045
1banks busy for read cycles: 17880915
1banks busy for write cycles: 1418563
2banks busy for read cycles: 3547960
2banks busy for write cycles: 79114
3banks busy for read cycles: 878270
3banks busy for write cycles: 6583
4banks busy for read cycles: 303103
4banks busy for write cycles: 3869
5banks busy for read cycles: 28969
5banks busy for write cycles: 4502
6banks busy for read cycles: 4390
6banks busy for write cycles: 1945
7banks busy for read cycles: 1660
7banks busy for write cycles: 750
8banks busy for read cycles: 1035
8banks busy for write cycles: 686

CPU 0 Branch Prediction Accuracy: 98.7219% MPKI: 1.7429 Average ROB Occupancy at Mispredict: 76.1651
Branch types
NOT_BRANCH: 0 0%
BRANCH_DIRECT_JUMP: 0 0%
BRANCH_INDIRECT: 0 0%
BRANCH_CONDITIONAL: 0 0%
BRANCH_DIRECT_CALL: 0 0%
BRANCH_INDIRECT_CALL: 0 0%
BRANCH_RETURN: 0 0%
BRANCH_OTHER: 0 0%

DRAM PAGES: 1048576
Allocated PAGES: 12142
