
*** ChampSim Multicore Out-of-Order Simulator ***

Warmup Instructions: 50000000
Simulation Instructions: 50000000
Number of CPUs: 1
LLC sets: 2048
LLC ways: 16
Off-chip DRAM Size: 4096 MB Channels: 1 Width: 64-bit Data Rate: 6400 MT/s
CPU 0 runs ../cloudsuite_traces//classification_phase1_core1.trace.gz
.gz
NUM_OF_IPS_IN_CRITICAL_IP_TRAINING: 64
NUM_OF_CRITICAL_IP_TRAINING_TABLE_WAYS: 2
NUM_OF_CRITICAL_IP_TRAINING_TABLE_SETS: 32
WOBBLY_CRITICAL_IP_CACHE_SETS: 32
WOBBLY_CRITICAL_IP_CACHE_WAYS: 4
BTB has LRU replacement policy
ITLB has LRU replacement policy
DTLB has LRU replacement policy
STLB has LRU replacement policy
L1I has LRU replacement policy
IP Table Entries: 256
L1D has LRU replacement policy
Initialize SRRIP state for L2C
Initialize DRRIP state for LLC
UNIQUE_ASID[0] = 
UNIQUE_ASID[1] = €
Heartbeat CPU 0 instructions: 10000000 cycles: 2643275 heartbeat IPC: 3.78319 cumulative IPC: 3.78319 (Simulation time: 0 hr 4 min 35 sec) 
Heartbeat CPU 0 instructions: 20000000 cycles: 5283518 heartbeat IPC: 3.78753 cumulative IPC: 3.78536 (Simulation time: 0 hr 9 min 17 sec) 
Heartbeat CPU 0 instructions: 30000003 cycles: 7925201 heartbeat IPC: 3.78547 cumulative IPC: 3.78539 (Simulation time: 0 hr 14 min 46 sec) 
Heartbeat CPU 0 instructions: 40000001 cycles: 10565660 heartbeat IPC: 3.78722 cumulative IPC: 3.78585 (Simulation time: 0 hr 20 min 6 sec) 
Heartbeat CPU 0 instructions: 50000003 cycles: 13208144 heartbeat IPC: 3.78432 cumulative IPC: 3.78554 (Simulation time: 0 hr 25 min 19 sec) 

Warmup complete CPU 0 instructions: 50000003 cycles: 13208144 (Simulation time: 0 hr 25 min 19 sec) 

% increase in all ip prefetch 388.109
% increase in all ip prefetch -3.5317
Heartbeat CPU 0 instructions: 60000003 cycles: 29066384 heartbeat IPC: 0.630587 cumulative IPC: 0.630587 (Simulation time: 0 hr 30 min 53 sec) 
Heartbeat CPU 0 instructions: 70000001 cycles: 44881451 heartbeat IPC: 0.632308 cumulative IPC: 0.631446 (Simulation time: 0 hr 36 min 14 sec) 
Heartbeat CPU 0 instructions: 80000000 cycles: 60701435 heartbeat IPC: 0.632112 cumulative IPC: 0.631668 (Simulation time: 0 hr 41 min 15 sec) 
Heartbeat CPU 0 instructions: 90000003 cycles: 76636542 heartbeat IPC: 0.627545 cumulative IPC: 0.630632 (Simulation time: 0 hr 45 min 41 sec) 
Heartbeat CPU 0 instructions: 100000000 cycles: 92408996 heartbeat IPC: 0.634017 cumulative IPC: 0.631306 (Simulation time: 0 hr 49 min 30 sec) 
Finished CPU 0 instructions: 50000001 cycles: 79200853 cumulative IPC: 0.631306 (Simulation time: 0 hr 49 min 30 sec) 

ChampSim completed all CPUs

Region of Interest Statistics

CPU 0 cumulative IPC: 0.631306 instructions: 50000001 cycles: 79200853

CPU 0 Average Load ROB stall cycles: 1.8714e+07
CPU 0 Fraction of times ROB stalled by Loads: 35.3706
CPU 0 Percentage of Load stall cycles in Total stall cycles: 1.37076e+08
Issued all: 38352812
Issued LT all: 32059581
rob_not_full_when_issued_lt_all: 19790331
Issued LT one: 28176050
rob_not_full_when_issued_lt_one: 16397463
 Total stall cycles: 66757944
 Total load stall cycles: 91508893303646
CPU 0 NUM of IPS identified critical: 0
CPU 0 Num of Load IPs stalling ROB: 1165
Threshold modification factor: -1
Max PIST entries: 64
Min PIST entries: 0
Avg PIST entries: 29.55
Trouble in retire width: 0.878864
MaC = Marked as critical.
lt_50_percent_before_Mac: 0
gt_90_percent_before_Mac: 0
gt_75_percent_before_Mac: 0
gt_50_percent_before_Mac: 0
stall_proportion_bin_same_before_after: 0
stall_proportion_bin_lower_before_after: 0
stall_proportion_bin_upper_before_after: 0
average_stall_proportion_before: -nan
average_stall_proportion_after: -nan
Critical IP stalls, total frequency: 0
Non-critical IP stalls, total frequency: 1729572
Total Freq all stalling IPs: 1729572
stat_90_percent_critical_ip_stalls_freq: 1559940
stat_90_percent_non_critical_ip_stalls_freq: 169632
Critical_IP_ROB_Stalls_Bucket_0: 0
Non-critical_IP_ROB_Stalls_Bucket_0: 855110
Critical_IP_ROB_Stalls_Bucket_1: 0
Non-critical_IP_ROB_Stalls_Bucket_1: 370966
Critical_IP_ROB_Stalls_Bucket_2: 0
Non-critical_IP_ROB_Stalls_Bucket_2: 150302
Critical_IP_ROB_Stalls_Bucket_3: 0
Non-critical_IP_ROB_Stalls_Bucket_3: 103961
Critical_IP_ROB_Stalls_Bucket_4: 0
Non-critical_IP_ROB_Stalls_Bucket_4: 74514
Critical_IP_ROB_Stalls_Bucket_5: 0
Non-critical_IP_ROB_Stalls_Bucket_5: 60817
Critical_IP_ROB_Stalls_Bucket_6: 0
Non-critical_IP_ROB_Stalls_Bucket_6: 113902
0 => IPs accounting for >50 percent of stalls, 1 => 55, 2 => 60, 3 => 65 and so on till 90.
percent50: 50.6175 num IPs:  30
percent55: 55.5503 num IPs: 37
percent60: 60.3564 num IPs: 44
percent65: 65.634 num IPs: 52
percent70: 70.1281 num IPs: 59
percent75: 75.4793 num IPs: 68
percent80: 80.2522 num IPs: 77
percent85: 85.3103 num IPs: 89
percent90: 90.1923 num IPs: 103
Critical_ROB_Stalls_Percent_0_Bucket_0: 458842
Non-critical_ROB_Stalls_Percent_0_Bucket_0: 396268
Critical_ROB_Stalls_Percent_0_Bucket_1: 186736
Non-critical_ROB_Stalls_Percent_0_Bucket_1: 184230
Critical_ROB_Stalls_Percent_0_Bucket_2: 86649
Non-critical_ROB_Stalls_Percent_0_Bucket_2: 63653
Critical_ROB_Stalls_Percent_0_Bucket_3: 50024
Non-critical_ROB_Stalls_Percent_0_Bucket_3: 53937
Critical_ROB_Stalls_Percent_0_Bucket_4: 40802
Non-critical_ROB_Stalls_Percent_0_Bucket_4: 33712
Critical_ROB_Stalls_Percent_0_Bucket_5: 31801
Non-critical_ROB_Stalls_Percent_0_Bucket_5: 29016
Critical_ROB_Stalls_Percent_0_Bucket_6: 20612
Non-critical_ROB_Stalls_Percent_0_Bucket_6: 93290
Critical_ROB_Stalls_Percent_1_Bucket_0: 498729
Non-critical_ROB_Stalls_Percent_1_Bucket_0: 356381
Critical_ROB_Stalls_Percent_1_Bucket_1: 204654
Non-critical_ROB_Stalls_Percent_1_Bucket_1: 166312
Critical_ROB_Stalls_Percent_1_Bucket_2: 93780
Non-critical_ROB_Stalls_Percent_1_Bucket_2: 56522
Critical_ROB_Stalls_Percent_1_Bucket_3: 56821
Non-critical_ROB_Stalls_Percent_1_Bucket_3: 47140
Critical_ROB_Stalls_Percent_1_Bucket_4: 45273
Non-critical_ROB_Stalls_Percent_1_Bucket_4: 29241
Critical_ROB_Stalls_Percent_1_Bucket_5: 36279
Non-critical_ROB_Stalls_Percent_1_Bucket_5: 24538
Critical_ROB_Stalls_Percent_1_Bucket_6: 25247
Non-critical_ROB_Stalls_Percent_1_Bucket_6: 88655
Critical_ROB_Stalls_Percent_2_Bucket_0: 548760
Non-critical_ROB_Stalls_Percent_2_Bucket_0: 306350
Critical_ROB_Stalls_Percent_2_Bucket_1: 220147
Non-critical_ROB_Stalls_Percent_2_Bucket_1: 150819
Critical_ROB_Stalls_Percent_2_Bucket_2: 98871
Non-critical_ROB_Stalls_Percent_2_Bucket_2: 51431
Critical_ROB_Stalls_Percent_2_Bucket_3: 67336
Non-critical_ROB_Stalls_Percent_2_Bucket_3: 36625
Critical_ROB_Stalls_Percent_2_Bucket_4: 46188
Non-critical_ROB_Stalls_Percent_2_Bucket_4: 28326
Critical_ROB_Stalls_Percent_2_Bucket_5: 36764
Non-critical_ROB_Stalls_Percent_2_Bucket_5: 24053
Critical_ROB_Stalls_Percent_2_Bucket_6: 25842
Non-critical_ROB_Stalls_Percent_2_Bucket_6: 88060
Critical_ROB_Stalls_Percent_3_Bucket_0: 573601
Non-critical_ROB_Stalls_Percent_3_Bucket_0: 281509
Critical_ROB_Stalls_Percent_3_Bucket_1: 255650
Non-critical_ROB_Stalls_Percent_3_Bucket_1: 115316
Critical_ROB_Stalls_Percent_3_Bucket_2: 114576
Non-critical_ROB_Stalls_Percent_3_Bucket_2: 35726
Critical_ROB_Stalls_Percent_3_Bucket_3: 73100
Non-critical_ROB_Stalls_Percent_3_Bucket_3: 30861
Critical_ROB_Stalls_Percent_3_Bucket_4: 49917
Non-critical_ROB_Stalls_Percent_3_Bucket_4: 24597
Critical_ROB_Stalls_Percent_3_Bucket_5: 41597
Non-critical_ROB_Stalls_Percent_3_Bucket_5: 19220
Critical_ROB_Stalls_Percent_3_Bucket_6: 26746
Non-critical_ROB_Stalls_Percent_3_Bucket_6: 87156
Critical_ROB_Stalls_Percent_4_Bucket_0: 596680
Non-critical_ROB_Stalls_Percent_4_Bucket_0: 258430
Critical_ROB_Stalls_Percent_4_Bucket_1: 264664
Non-critical_ROB_Stalls_Percent_4_Bucket_1: 106302
Critical_ROB_Stalls_Percent_4_Bucket_2: 117070
Non-critical_ROB_Stalls_Percent_4_Bucket_2: 33232
Critical_ROB_Stalls_Percent_4_Bucket_3: 75254
Non-critical_ROB_Stalls_Percent_4_Bucket_3: 28707
Critical_ROB_Stalls_Percent_4_Bucket_4: 51386
Non-critical_ROB_Stalls_Percent_4_Bucket_4: 23128
Critical_ROB_Stalls_Percent_4_Bucket_5: 42622
Non-critical_ROB_Stalls_Percent_4_Bucket_5: 18195
Critical_ROB_Stalls_Percent_4_Bucket_6: 65240
Non-critical_ROB_Stalls_Percent_4_Bucket_6: 48662
Critical_ROB_Stalls_Percent_5_Bucket_0: 626508
Non-critical_ROB_Stalls_Percent_5_Bucket_0: 228602
Critical_ROB_Stalls_Percent_5_Bucket_1: 287062
Non-critical_ROB_Stalls_Percent_5_Bucket_1: 83904
Critical_ROB_Stalls_Percent_5_Bucket_2: 120876
Non-critical_ROB_Stalls_Percent_5_Bucket_2: 29426
Critical_ROB_Stalls_Percent_5_Bucket_3: 80963
Non-critical_ROB_Stalls_Percent_5_Bucket_3: 22998
Critical_ROB_Stalls_Percent_5_Bucket_4: 53950
Non-critical_ROB_Stalls_Percent_5_Bucket_4: 20564
Critical_ROB_Stalls_Percent_5_Bucket_5: 45219
Non-critical_ROB_Stalls_Percent_5_Bucket_5: 15598
Critical_ROB_Stalls_Percent_5_Bucket_6: 90891
Non-critical_ROB_Stalls_Percent_5_Bucket_6: 23011
Critical_ROB_Stalls_Percent_6_Bucket_0: 664349
Non-critical_ROB_Stalls_Percent_6_Bucket_0: 190761
Critical_ROB_Stalls_Percent_6_Bucket_1: 310757
Non-critical_ROB_Stalls_Percent_6_Bucket_1: 60209
Critical_ROB_Stalls_Percent_6_Bucket_2: 129971
Non-critical_ROB_Stalls_Percent_6_Bucket_2: 20331
Critical_ROB_Stalls_Percent_6_Bucket_3: 85339
Non-critical_ROB_Stalls_Percent_6_Bucket_3: 18622
Critical_ROB_Stalls_Percent_6_Bucket_4: 57329
Non-critical_ROB_Stalls_Percent_6_Bucket_4: 17185
Critical_ROB_Stalls_Percent_6_Bucket_5: 48665
Non-critical_ROB_Stalls_Percent_6_Bucket_5: 12152
Critical_ROB_Stalls_Percent_6_Bucket_6: 91609
Non-critical_ROB_Stalls_Percent_6_Bucket_6: 22293
Critical_ROB_Stalls_Percent_7_Bucket_0: 705665
Non-critical_ROB_Stalls_Percent_7_Bucket_0: 149445
Critical_ROB_Stalls_Percent_7_Bucket_1: 330281
Non-critical_ROB_Stalls_Percent_7_Bucket_1: 40685
Critical_ROB_Stalls_Percent_7_Bucket_2: 134473
Non-critical_ROB_Stalls_Percent_7_Bucket_2: 15829
Critical_ROB_Stalls_Percent_7_Bucket_3: 92992
Non-critical_ROB_Stalls_Percent_7_Bucket_3: 10969
Critical_ROB_Stalls_Percent_7_Bucket_4: 65014
Non-critical_ROB_Stalls_Percent_7_Bucket_4: 9500
Critical_ROB_Stalls_Percent_7_Bucket_5: 54696
Non-critical_ROB_Stalls_Percent_7_Bucket_5: 6121
Critical_ROB_Stalls_Percent_7_Bucket_6: 92382
Non-critical_ROB_Stalls_Percent_7_Bucket_6: 21520
Critical_ROB_Stalls_Percent_8_Bucket_0: 761884
Non-critical_ROB_Stalls_Percent_8_Bucket_0: 93226
Critical_ROB_Stalls_Percent_8_Bucket_1: 338309
Non-critical_ROB_Stalls_Percent_8_Bucket_1: 32657
Critical_ROB_Stalls_Percent_8_Bucket_2: 138977
Non-critical_ROB_Stalls_Percent_8_Bucket_2: 11325
Critical_ROB_Stalls_Percent_8_Bucket_3: 96083
Non-critical_ROB_Stalls_Percent_8_Bucket_3: 7878
Critical_ROB_Stalls_Percent_8_Bucket_4: 66669
Non-critical_ROB_Stalls_Percent_8_Bucket_4: 7845
Critical_ROB_Stalls_Percent_8_Bucket_5: 55778
Non-critical_ROB_Stalls_Percent_8_Bucket_5: 5039
Critical_ROB_Stalls_Percent_8_Bucket_6: 102240
Non-critical_ROB_Stalls_Percent_8_Bucket_6: 11662
Average ROB occupancy Load Stall Begin: 73.5631
Average ROB occupancy Load Stall End: 92.8793
Min ROB occupancy Load Stall Begin: 1
Max ROB occupancy Load Stall Begin: 352
Min ROB occupancy Load Stall End: 1
Max ROB occupancy Load Stall End: 352
Average ROB occupancy Critical Load Stall Begin: -nan
Average ROB occupancy Critical Load Stall End: -nan
Min ROB occupancy Critical Load Stall Begin: 400
Max ROB occupancy Critical Load Stall Begin: 0
Min ROB occupancy Critical Load Stall End: 400
Max ROB occupancy Critical Load Stall End: 0
 ROB Load Stall Begin Bucket Count 0: 1080526
 ROB Load Stall End Bucket Count 0: 855110
 ROB Critical Load Stall Begin Bucket Count 0: 0
 ROB Critical Load Stall End Bucket Count 0: 0
 ROB Load Stall Begin Bucket Count 1: 249353
 ROB Load Stall End Bucket Count 1: 370966
 ROB Critical Load Stall Begin Bucket Count 1: 0
 ROB Critical Load Stall End Bucket Count 1: 0
 ROB Load Stall Begin Bucket Count 2: 119658
 ROB Load Stall End Bucket Count 2: 150302
 ROB Critical Load Stall Begin Bucket Count 2: 0
 ROB Critical Load Stall End Bucket Count 2: 0
 ROB Load Stall Begin Bucket Count 3: 81756
 ROB Load Stall End Bucket Count 3: 103961
 ROB Critical Load Stall Begin Bucket Count 3: 0
 ROB Critical Load Stall End Bucket Count 3: 0
 ROB Load Stall Begin Bucket Count 4: 76855
 ROB Load Stall End Bucket Count 4: 74514
 ROB Critical Load Stall Begin Bucket Count 4: 0
 ROB Critical Load Stall End Bucket Count 4: 0
 ROB Load Stall Begin Bucket Count 5: 41269
 ROB Load Stall End Bucket Count 5: 60817
 ROB Critical Load Stall Begin Bucket Count 5: 0
 ROB Critical Load Stall End Bucket Count 5: 0
 ROB Load Stall Begin Bucket Count 6: 80155
 ROB Load Stall End Bucket Count 6: 113902
 ROB Critical Load Stall Begin Bucket Count 6: 0
 ROB Critical Load Stall End Bucket Count 6: 0
PIST Tag Read Accesses: 1303606
PIST Read Accesses: 651803
PIST Tag Write Accesses: 1303606
PIST Write Accesses: 651803
Criticality detector called times: 1111925
Max global_stall_cycles_count: 3012086
Threshold Modified: 1 times, factor: -1
Sturdy critical IP cache stats: 
 Unused entries: 0
CIC Tag Read Accesses: 0
CIC Read Accesses: 0
CIC Tag Write Accesses: 0
CIC Write Accesses: 0
Wobbly critical IP cache stats: 
 Unused entries: 96
CIC Tag Read Accesses: 34173912
CIC Read Accesses: 0
CIC Tag Write Accesses: 222195
CIC Write Accesses: 0
ITLB TOTAL     ACCESS:    7405246  HIT:    7115089  MISS:     290157  HIT %:    96.0817  MISS %:    3.91826   MPKI: 5.80314
ITLB LOAD TRANSLATION ACCESS:    7405246  HIT:    7115089  MISS:     290157  HIT %:    96.0817  MISS %:    3.91826   MPKI: 5.80314
ITLB PREFETCH  REQUESTED:          0  ISSUED:          0  USEFUL:          0  USELESS:          0
ITLB USEFUL LOAD PREFETCHES:          0 PREFETCH ISSUED TO LOWER LEVEL:          0  ACCURACY: -nan
ITLB TIMELY PREFETCHES:          0 LATE PREFETCHES: 0 DROPPED PREFETCHES: 0
ITLB PREFETCHES SAME FILL-ORIGIN LEVEL: 0 DIFFERENT FILL-ORIGIN LEVEL: 0
ITLB AVERAGE MISS LATENCY: 37.1791 cycles
ITLB RQ	ACCESS:    9752167	FORWARD:          0	MERGED:    2217159	TO_CACHE:    7535008

DTLB TOTAL     ACCESS:    4047215  HIT:    1756893  MISS:    2290322  HIT %:    43.4099  MISS %:    56.5901   MPKI: 45.8064
DTLB LOAD TRANSLATION ACCESS:    4047215  HIT:    1756893  MISS:    2290322  HIT %:    43.4099  MISS %:    56.5901   MPKI: 45.8064
DTLB PREFETCH  REQUESTED:          0  ISSUED:          0  USEFUL:          0  USELESS:          0
DTLB USEFUL LOAD PREFETCHES:          0 PREFETCH ISSUED TO LOWER LEVEL:          0  ACCURACY: -nan
DTLB TIMELY PREFETCHES:          0 LATE PREFETCHES: 0 DROPPED PREFETCHES: 0
DTLB PREFETCHES SAME FILL-ORIGIN LEVEL: 0 DIFFERENT FILL-ORIGIN LEVEL: 0
DTLB AVERAGE MISS LATENCY: 23.2383 cycles
DTLB RQ	ACCESS:    4370796	FORWARD:          0	MERGED:     185779	TO_CACHE:    4185017

STLB TOTAL     ACCESS:    2901147  HIT:    1387826  MISS:    1513321  HIT %:    47.8371  MISS %:    52.1629   MPKI: 30.2664
STLB LOAD TRANSLATION ACCESS:    2580479  HIT:    1203406  MISS:    1377073  HIT %:     46.635  MISS %:     53.365   MPKI: 27.5415
STLB TRANSLATION FROM L1D PREFETCHER ACCESS:     320668  HIT:     184420  MISS:     136248  HIT %:    57.5112  MISS %:    42.4888   MPKI: 2.72496
STLB PREFETCH  REQUESTED:          0  ISSUED:          0  USEFUL:      38642  USELESS:      97603
STLB USEFUL LOAD PREFETCHES:      38642 PREFETCH ISSUED TO LOWER LEVEL:          0  ACCURACY: inf
STLB TIMELY PREFETCHES:      38642 LATE PREFETCHES: 0 DROPPED PREFETCHES: 0
STLB PREFETCHES SAME FILL-ORIGIN LEVEL: 0 DIFFERENT FILL-ORIGIN LEVEL: 0
STLB AVERAGE MISS LATENCY: 29.0672 cycles
STLB RQ	ACCESS:    2945393	FORWARD:          0	MERGED:      43976	TO_CACHE:    2901417

STLB Hit, L1D data hit: 0
STLB Hit, L2C data hit: 0
STLB Hit, LLC data hit: 0
STLB Hit, LLC data miss: 0
STLB STLB hints to L2: 0
L1D TOTAL     ACCESS:    4641314  HIT:    4072309  MISS:     569005  HIT %:    87.7404  MISS %:    12.2596   MPKI: 11.3801
L1D LOAD      ACCESS:    3627528  HIT:    3262806  MISS:     364722  HIT %:    89.9457  MISS %:    10.0543   MPKI: 7.29444
L1D RFO       ACCESS:     653943  HIT:     619206  MISS:      34737  HIT %:    94.6881  MISS %:    5.31193   MPKI: 0.69474
L1D PREFETCH  ACCESS:     359843  HIT:     190297  MISS:     169546  HIT %:    52.8833  MISS %:    47.1167   MPKI: 3.39092
L1D PREFETCH  REQUESTED:     729828  ISSUED:     729828  USEFUL:      39041  USELESS:     130550
L1D USEFUL LOAD PREFETCHES:      39041 PREFETCH ISSUED TO LOWER LEVEL:     172754  ACCURACY: 22.5992
L1D TIMELY PREFETCHES:      39041 LATE PREFETCHES: 3208 DROPPED PREFETCHES: 0
L1D PREFETCHES SAME FILL-ORIGIN LEVEL: 172754 DIFFERENT FILL-ORIGIN LEVEL: 0
L1D AVERAGE MISS LATENCY: 329622 cycles
L1D RQ	ACCESS:    5598133	FORWARD:          0	MERGED:    1931346	TO_CACHE:    3661704
L1D WQ	ACCESS:     710675	FORWARD:       5083	MERGED:       1583	TO_CACHE:     709092
L1D PQ	ACCESS:     364914	FORWARD:          0	MERGED:          0	TO_CACHE:     364914

L1D UNIQUE REGIONS ACCESSED: 0
L1D REGIONS CONFLICTS: 0
L1D Cross Page Prefetch Requests: 0
L1D Same Page Prefetch Requests: 1007046
L1D ROI Sum of L1D PQ occupancy: 8712852
L1D PREFETCHES PUSHED FROM L2C: 0
L1I TOTAL     ACCESS:    9751714  HIT:    9750399  MISS:       1315  HIT %:    99.9865  MISS %:  0.0134848   MPKI: 0.0263
L1I LOAD      ACCESS:    9751714  HIT:    9750399  MISS:       1315  HIT %:    99.9865  MISS %:  0.0134848   MPKI: 0.0263
L1I PREFETCH  REQUESTED:          0  ISSUED:          0  USEFUL:          0  USELESS:          0
L1I USEFUL LOAD PREFETCHES:          0 PREFETCH ISSUED TO LOWER LEVEL:          0  ACCURACY: -nan
L1I TIMELY PREFETCHES:          0 LATE PREFETCHES: 0 DROPPED PREFETCHES: 0
L1I PREFETCHES SAME FILL-ORIGIN LEVEL: 0 DIFFERENT FILL-ORIGIN LEVEL: 0
L1I AVERAGE MISS LATENCY: 192.278 cycles
L1I RQ	ACCESS:   14980780	FORWARD:          0	MERGED:    5228613	TO_CACHE:    9752167

BTB BRANCH_DIRECT_JUMP	ACCESS:          0  HIT:          0  MISS:          0
BTB BRANCH_INDIRECT	ACCESS:          0  HIT:          0  MISS:          0
BTB BRANCH_CONDITIONAL	ACCESS:          0  HIT:          0  MISS:          0
BTB BRANCH_DIRECT_CALL	ACCESS:          0  HIT:          0  MISS:          0
BTB BRANCH_INDIRECT_CALL	ACCESS:          0  HIT:          0  MISS:          0
BTB BRANCH_RETURN	ACCESS:          0  HIT:          0  MISS:          0
BTB BRANCH_OTHER ACCESS:          0  HIT:          0  MISS:          0

L2C TOTAL     ACCESS:    2264582  HIT:    1872971  MISS:     391611  HIT %:    82.7071  MISS %:    17.2929   MPKI: 7.83222
L2C LOAD      ACCESS:     362828  HIT:     108196  MISS:     254632  HIT %:    29.8202  MISS %:    70.1798   MPKI: 5.09264
L2C DATA LOAD MPKI: 5.06704
L2C INSTRUCTION LOAD MPKI: 0.0256
L2C RFO       ACCESS:      34737  HIT:      26644  MISS:       8093  HIT %:    76.7021  MISS %:    23.2979   MPKI: 0.16186
L2C PREFETCH  ACCESS:     172752  HIT:      76937  MISS:      95815  HIT %:    44.5361  MISS %:    55.4639   MPKI: 1.9163
L2C DATA PREFETCH MPKI: 1.9163
L2C INSTRUCTION PREFETCH MPKI: 0
L2C WRITEBACK ACCESS:      54477  HIT:      54207  MISS:        270  HIT %:    99.5044  MISS %:   0.495622   MPKI: 0.0054
L2C LOAD TRANSLATION ACCESS:    1502232  HIT:    1469443  MISS:      32789  HIT %:    97.8173  MISS %:    2.18269   MPKI: 0.65578
L2C TRANSLATION FROM L1D PREFETCHER ACCESS:     137556  HIT:     137544  MISS:         12  HIT %:    99.9913  MISS %: 0.00872372   MPKI: 0.00024
L2C PREFETCH  REQUESTED:          0  ISSUED:          0  USEFUL:       8292  USELESS:      87512
L2C USEFUL LOAD PREFETCHES:       8292 PREFETCH ISSUED TO LOWER LEVEL:      95815  ACCURACY: 8.65418
L2C TIMELY PREFETCHES:       8292 LATE PREFETCHES: 0 DROPPED PREFETCHES: 0
L2C PREFETCHES SAME FILL-ORIGIN LEVEL: 0 DIFFERENT FILL-ORIGIN LEVEL: 0
L2C AVERAGE MISS LATENCY: 124.17 cycles
L2C RQ	ACCESS:    2037354	FORWARD:          0	MERGED:          0	TO_CACHE:    2037353
L2C WQ	ACCESS:      54477	FORWARD:          3	MERGED:          0	TO_CACHE:      54477
L2C PQ	ACCESS:     172754	FORWARD:          0	MERGED:          0	TO_CACHE:     172752

L2C Instructions Evicting Data 1172
L2C Translations Evicting Data 30123
L2C Data Evicting Data 324843
L2C Instructions Evicting Instructions 1
L2C Translations Evicting Instructions 131
L2C Data Evicting Instructions 1134
L2C Instructions Evicting Translations 107
L2C Translations Evicting Translations 2547
L2C Data Evicting Translations 31283
L2C Dense regions hint from L2: 0
PSCL5 TOTAL     ACCESS:    1513321  HIT:    1513321  MISS:          0  HIT %:        100  MISS %:          0   MPKI: 0
PSCL5 LOAD TRANSLATION ACCESS:    1377073  HIT:    1377073  MISS:          0  HIT %:        100  MISS %:          0   MPKI: 0
PSCL5 TRANSLATION FROM L1D PREFETCHER ACCESS:     136248  HIT:     136248  MISS:          0  HIT %:        100  MISS %:          0   MPKI: 0
PSCL5 PREFETCH  REQUESTED:          0  ISSUED:          0  USEFUL:          0  USELESS:          0
PSCL5 USEFUL LOAD PREFETCHES:          0 PREFETCH ISSUED TO LOWER LEVEL:          0  ACCURACY: -nan
PSCL5 TIMELY PREFETCHES:          0 LATE PREFETCHES: 0 DROPPED PREFETCHES: 0
PSCL5 PREFETCHES SAME FILL-ORIGIN LEVEL: 0 DIFFERENT FILL-ORIGIN LEVEL: 0

PSCL4 TOTAL     ACCESS:    1513321  HIT:    1513321  MISS:          0  HIT %:        100  MISS %:          0   MPKI: 0
PSCL4 LOAD TRANSLATION ACCESS:    1377073  HIT:    1377073  MISS:          0  HIT %:        100  MISS %:          0   MPKI: 0
PSCL4 TRANSLATION FROM L1D PREFETCHER ACCESS:     136248  HIT:     136248  MISS:          0  HIT %:        100  MISS %:          0   MPKI: 0
PSCL4 PREFETCH  REQUESTED:          0  ISSUED:          0  USEFUL:          0  USELESS:          0
PSCL4 USEFUL LOAD PREFETCHES:          0 PREFETCH ISSUED TO LOWER LEVEL:          0  ACCURACY: -nan
PSCL4 TIMELY PREFETCHES:          0 LATE PREFETCHES: 0 DROPPED PREFETCHES: 0
PSCL4 PREFETCHES SAME FILL-ORIGIN LEVEL: 0 DIFFERENT FILL-ORIGIN LEVEL: 0

PSCL3 TOTAL     ACCESS:    1513275  HIT:    1513254  MISS:         21  HIT %:    99.9986  MISS %: 0.00138772   MPKI: 0.00042
PSCL3 LOAD TRANSLATION ACCESS:    1377027  HIT:    1377006  MISS:         21  HIT %:    99.9985  MISS %: 0.00152502   MPKI: 0.00042
PSCL3 TRANSLATION FROM L1D PREFETCHER ACCESS:     136248  HIT:     136248  MISS:          0  HIT %:        100  MISS %:          0   MPKI: 0
PSCL3 PREFETCH  REQUESTED:          0  ISSUED:          0  USEFUL:          0  USELESS:          0
PSCL3 USEFUL LOAD PREFETCHES:          0 PREFETCH ISSUED TO LOWER LEVEL:          0  ACCURACY: -nan
PSCL3 TIMELY PREFETCHES:          0 LATE PREFETCHES: 0 DROPPED PREFETCHES: 0
PSCL3 PREFETCHES SAME FILL-ORIGIN LEVEL: 0 DIFFERENT FILL-ORIGIN LEVEL: 0

PSCL2 TOTAL     ACCESS:    1513321  HIT:    1386851  MISS:     126470  HIT %:    91.6429  MISS %:    8.35712   MPKI: 2.5294
PSCL2 LOAD TRANSLATION ACCESS:    1378381  HIT:    1251911  MISS:     126470  HIT %:    90.8247  MISS %:    9.17526   MPKI: 2.5294
PSCL2 TRANSLATION FROM L1D PREFETCHER ACCESS:     134940  HIT:     134940  MISS:          0  HIT %:        100  MISS %:          0   MPKI: 0
PSCL2 PREFETCH  REQUESTED:          0  ISSUED:          0  USEFUL:          0  USELESS:          0
PSCL2 USEFUL LOAD PREFETCHES:          0 PREFETCH ISSUED TO LOWER LEVEL:          0  ACCURACY: -nan
PSCL2 TIMELY PREFETCHES:          0 LATE PREFETCHES: 0 DROPPED PREFETCHES: 0
PSCL2 PREFETCHES SAME FILL-ORIGIN LEVEL: 0 DIFFERENT FILL-ORIGIN LEVEL: 0

LLC TOTAL     ACCESS:     399015  HIT:     122205  MISS:     276810  HIT %:    30.6267  MISS %:    69.3733   MPKI: 5.5362
LLC LOAD      ACCESS:     254632  HIT:      57029  MISS:     197603  HIT %:    22.3966  MISS %:    77.6034   MPKI: 3.95206
LLC RFO       ACCESS:       8093  HIT:        103  MISS:       7990  HIT %:     1.2727  MISS %:    98.7273   MPKI: 0.1598
LLC PREFETCH  ACCESS:      95815  HIT:      39263  MISS:      56552  HIT %:    40.9779  MISS %:    59.0221   MPKI: 1.13104
LLC WRITEBACK ACCESS:       7674  HIT:       6406  MISS:       1268  HIT %:    83.4767  MISS %:    16.5233   MPKI: 0.02536
LLC LOAD TRANSLATION ACCESS:      32789  HIT:      19404  MISS:      13385  HIT %:    59.1784  MISS %:    40.8216   MPKI: 0.2677
LLC TRANSLATION FROM L1D PREFETCHER ACCESS:         12  HIT:          0  MISS:         12  HIT %:          0  MISS %:        100   MPKI: 0.00024
LLC PREFETCH  REQUESTED:          0  ISSUED:          0  USEFUL:       1130  USELESS:      56193
LLC USEFUL LOAD PREFETCHES:       1130 PREFETCH ISSUED TO LOWER LEVEL:      56552  ACCURACY: 1.99816
LLC TIMELY PREFETCHES:       1130 LATE PREFETCHES: 0 DROPPED PREFETCHES: 0
LLC PREFETCHES SAME FILL-ORIGIN LEVEL: 0 DIFFERENT FILL-ORIGIN LEVEL: 0
LLC AVERAGE MISS LATENCY: 133.207 cycles
LLC RQ	ACCESS:     295526	FORWARD:          0	MERGED:          0	TO_CACHE:     295526
LLC WQ	ACCESS:       7674	FORWARD:          0	MERGED:          0	TO_CACHE:       7674
LLC PQ	ACCESS:      95815	FORWARD:          0	MERGED:          0	TO_CACHE:      95815

LLC Dense regions hint to LLC: 0

RAW hits: 68793
Loads Generated: 5666926
Loads sent to L1D: 5598133
Stores Generated: 710673
Stores sent to L1D: 710675
Major fault: 0 Minor fault: 12142
Allocated PAGES: 12142

stream: 
stream:times selected: 1878873
stream:pref_filled: 328746
stream:pref_useful: 39980
stream:pref_late: 3534
stream:misses: 81272
stream:misses_by_poll: 0

CS: 
CS:times selected: 51394
CS:pref_filled: 59341
CS:pref_useful: 46450
CS:pref_late: 52
CS:misses: 9400
CS:misses_by_poll: 56

CPLX: 
CPLX:times selected: 1806938
CPLX:pref_filled: 64919
CPLX:pref_useful: 11936
CPLX:pref_late: 162
CPLX:misses: 268014
CPLX:misses_by_poll: 14

NL_L1: 
NL:times selected: 36466
NL:pref_filled: 3694
NL:pref_useful: 532
NL:pref_late: 31
NL:misses: 2991
NL:misses_by_poll: 0

total selections: 3773671
total_filled: 169546
total_useful: 39041
total_late: 3870
total_polluted: 70
total_misses_after_warmup: 398898
conflicts: 559649
Degree Incremented Times: 51864
Degree Decremented Times: 85345

L1 IP Table Write Accesses: 2685226
L1 IP Table Read Accesses: 2125577
L1 RST Write Accesses: 937190
L1 RST Read Accesses: 1874380
L1 CSPT Write Accesses: 937190
L1 CSPT Read Accesses: 1842524
L1 RR Filter Tag Write Accesses: 364914
L1 RR Filter Tag Read Accesses: 16558226
L1 IP Table Tag Write Accesses: 3661704
L1 IP Table Tag Read Accesses: 3661704
L1 RST Tag Write Accesses: 0
L1 RST Tag Read Accesses: 9673814
L1 RR Filter Write Accesses: 0
L1 RR Filter Read Accesses: 638010
test: 984008

DRAM Statistics
 CHANNEL 0
 RQ ROW_BUFFER_HIT:     108991  ROW_BUFFER_MISS:     166551
 DBUS_CONGESTED:          9
 WQ ROW_BUFFER_HIT:       1682  ROW_BUFFER_MISS:       5708  FULL:          0

 AVG_CONGESTED_CYCLE: 3
 All warmup complete: 2
Channel 0 Bank busy for read cycles: 0
Channel 0 Bank busy for write cycles: 0
Channel 0
Rank 0
0banks busy for read cycles: 54458706
0banks busy for write cycles: 6712
1banks busy for read cycles: 17731458
1banks busy for write cycles: 1384788
2banks busy for read cycles: 4242587
2banks busy for write cycles: 79890
3banks busy for read cycles: 945937
3banks busy for write cycles: 6746
4banks busy for read cycles: 303660
4banks busy for write cycles: 2637
5banks busy for read cycles: 25943
5banks busy for write cycles: 2925
6banks busy for read cycles: 2560
6banks busy for write cycles: 1465
7banks busy for read cycles: 1463
7banks busy for write cycles: 1629
8banks busy for read cycles: 987
8banks busy for write cycles: 761

CPU 0 Branch Prediction Accuracy: 98.7219% MPKI: 1.7429 Average ROB Occupancy at Mispredict: 77.8818
Branch types
NOT_BRANCH: 0 0%
BRANCH_DIRECT_JUMP: 0 0%
BRANCH_INDIRECT: 0 0%
BRANCH_CONDITIONAL: 0 0%
BRANCH_DIRECT_CALL: 0 0%
BRANCH_INDIRECT_CALL: 0 0%
BRANCH_RETURN: 0 0%
BRANCH_OTHER: 0 0%

DRAM PAGES: 1048576
Allocated PAGES: 12142
