
*** ChampSim Multicore Out-of-Order Simulator ***

Warmup Instructions: 50000000
Simulation Instructions: 50000000
Number of CPUs: 1
LLC sets: 2048
LLC ways: 16
Off-chip DRAM Size: 4096 MB Channels: 1 Width: 64-bit Data Rate: 6400 MT/s
CPU 0 runs ../cloudsuite_traces//cloud9_phase5_core2.trace.gz
.gz
BTB has LRU replacement policy
ITLB has LRU replacement policy
DTLB has LRU replacement policy
STLB has LRU replacement policy
L1I has LRU replacement policy
IP Table Entries: 64
L1D has LRU replacement policy
Initialize SRRIP state for L2C
Initialize DRRIP state for LLC
UNIQUE_ASID[0] = €
UNIQUE_ASID[1] = 
Heartbeat CPU 0 instructions: 10000000 cycles: 3410773 heartbeat IPC: 2.93189 cumulative IPC: 2.93189 (Simulation time: 0 hr 1 min 37 sec) 
Heartbeat CPU 0 instructions: 20000001 cycles: 6820799 heartbeat IPC: 2.93253 cumulative IPC: 2.93221 (Simulation time: 0 hr 2 min 46 sec) 
Heartbeat CPU 0 instructions: 30000001 cycles: 10044435 heartbeat IPC: 3.10209 cumulative IPC: 2.98673 (Simulation time: 0 hr 4 min 0 sec) 
Heartbeat CPU 0 instructions: 40000002 cycles: 13456606 heartbeat IPC: 2.93069 cumulative IPC: 2.97252 (Simulation time: 0 hr 5 min 3 sec) 
Heartbeat CPU 0 instructions: 50000001 cycles: 16850508 heartbeat IPC: 2.94646 cumulative IPC: 2.96727 (Simulation time: 0 hr 6 min 4 sec) 

Warmup complete CPU 0 instructions: 50000001 cycles: 16850508 (Simulation time: 0 hr 6 min 4 sec) 

Heartbeat CPU 0 instructions: 60000001 cycles: 34777782 heartbeat IPC: 0.557809 cumulative IPC: 0.557809 (Simulation time: 0 hr 7 min 52 sec) 
Heartbeat CPU 0 instructions: 70000000 cycles: 56059988 heartbeat IPC: 0.469876 cumulative IPC: 0.510081 (Simulation time: 0 hr 9 min 39 sec) 
Heartbeat CPU 0 instructions: 80000001 cycles: 87652317 heartbeat IPC: 0.316533 cumulative IPC: 0.423718 (Simulation time: 0 hr 11 min 44 sec) 
Heartbeat CPU 0 instructions: 90000000 cycles: 105454719 heartbeat IPC: 0.561722 cumulative IPC: 0.451446 (Simulation time: 0 hr 13 min 2 sec) 
Heartbeat CPU 0 instructions: 100000001 cycles: 125559697 heartbeat IPC: 0.497389 cumulative IPC: 0.459943 (Simulation time: 0 hr 13 min 46 sec) 
Finished CPU 0 instructions: 50000000 cycles: 108709189 cumulative IPC: 0.459943 (Simulation time: 0 hr 13 min 46 sec) 

ChampSim completed all CPUs

Region of Interest Statistics

CPU 0 cumulative IPC: 0.459943 instructions: 50000000 cycles: 108709189

CPU 0 Average Load ROB stall cycles: 2.63388e+07
CPU 0 Fraction of times ROB stalled by Loads: 36.9373
CPU 0 Percentage of Load stall cycles in Total stall cycles: 1.58552e+08
Issued all: 36175836
Issued LT all: 30537973
rob_not_full_when_issued_lt_all: 22069098
Issued LT one: 25273409
rob_not_full_when_issued_lt_one: 17093533
FVP critical_dynamic_instances_0: 2447723
FVP unique_critical_ips_0: 756
 Total stall cycles: 95000633
 Total load stall cycles: 150624966938243
Unique Load IPs: 2722
CPU 0 NUM of IPS identified critical: 0
CPU 0 Num of Load IPs stalling ROB: 0
Threshold modification factor: 0
Trouble in retire width: -nan
MaC = Marked as critical.
lt_50_percent_before_Mac: 0
gt_90_percent_before_Mac: 0
gt_75_percent_before_Mac: 0
gt_50_percent_before_Mac: 0
stall_proportion_bin_same_before_after: 0
stall_proportion_bin_lower_before_after: 0
stall_proportion_bin_upper_before_after: 0
average_stall_proportion_before: -nan
average_stall_proportion_after: -nan
Critical IP stalls, total frequency: 0
Non-critical IP stalls, total frequency: 0
Total Freq all stalling IPs: 0
Critical_IP_Detector_Accuracy_70: 0.00132275
Critical_IP_Detector_Accuracy_80: 0.00132275
Critical_IP_Detector_Accuracy_90: 0.00132275
Critical_IP_Detector_Coverage_70: 1
Critical_IP_Detector_Coverage_80: 1
Critical_IP_Detector_Coverage_90: 1
stat_90_percent_critical_ip_stalls_freq: 121822
stat_90_percent_non_critical_ip_stalls_freq: 18446744073709429794
AVERAGE_ROB_Occupancy_90_Percent_Critical_IP_Stalls: 119.55
AVERAGE_ROB_Occupancy_90_Percent_Non_Critical_IP_Stalls: 9.8807e-12
Critical_IP_ROB_Stalls_Bucket_0: 0
Non-critical_IP_ROB_Stalls_Bucket_0: 721993
Critical_IP_ROB_Stalls_Bucket_1: 0
Non-critical_IP_ROB_Stalls_Bucket_1: 742229
Critical_IP_ROB_Stalls_Bucket_2: 0
Non-critical_IP_ROB_Stalls_Bucket_2: 314156
Critical_IP_ROB_Stalls_Bucket_3: 0
Non-critical_IP_ROB_Stalls_Bucket_3: 104506
Critical_IP_ROB_Stalls_Bucket_4: 0
Non-critical_IP_ROB_Stalls_Bucket_4: 69861
Critical_IP_ROB_Stalls_Bucket_5: 0
Non-critical_IP_ROB_Stalls_Bucket_5: 60582
Critical_IP_ROB_Stalls_Bucket_6: 0
Non-critical_IP_ROB_Stalls_Bucket_6: 99027
0 => IPs accounting for >50 percent of stalls, 1 => 55, 2 => 60, 3 => 65 and so on till 90.
percent50: inf num IPs:  1
percent55: inf num IPs: 1
percent60: inf num IPs: 1
percent65: inf num IPs: 1
percent70: inf num IPs: 1
percent75: inf num IPs: 1
percent80: inf num IPs: 1
percent85: inf num IPs: 1
percent90: inf num IPs: 1
Critical_ROB_Stalls_Percent_0_Bucket_0: 2060
Non-critical_ROB_Stalls_Percent_0_Bucket_0: 719933
Critical_ROB_Stalls_Percent_0_Bucket_1: 32371
Non-critical_ROB_Stalls_Percent_0_Bucket_1: 709858
Critical_ROB_Stalls_Percent_0_Bucket_2: 69822
Non-critical_ROB_Stalls_Percent_0_Bucket_2: 244334
Critical_ROB_Stalls_Percent_0_Bucket_3: 7316
Non-critical_ROB_Stalls_Percent_0_Bucket_3: 97190
Critical_ROB_Stalls_Percent_0_Bucket_4: 4843
Non-critical_ROB_Stalls_Percent_0_Bucket_4: 65018
Critical_ROB_Stalls_Percent_0_Bucket_5: 2873
Non-critical_ROB_Stalls_Percent_0_Bucket_5: 57709
Critical_ROB_Stalls_Percent_0_Bucket_6: 2537
Non-critical_ROB_Stalls_Percent_0_Bucket_6: 96490
Critical_ROB_Stalls_Percent_1_Bucket_0: 2060
Non-critical_ROB_Stalls_Percent_1_Bucket_0: 719933
Critical_ROB_Stalls_Percent_1_Bucket_1: 32371
Non-critical_ROB_Stalls_Percent_1_Bucket_1: 709858
Critical_ROB_Stalls_Percent_1_Bucket_2: 69822
Non-critical_ROB_Stalls_Percent_1_Bucket_2: 244334
Critical_ROB_Stalls_Percent_1_Bucket_3: 7316
Non-critical_ROB_Stalls_Percent_1_Bucket_3: 97190
Critical_ROB_Stalls_Percent_1_Bucket_4: 4843
Non-critical_ROB_Stalls_Percent_1_Bucket_4: 65018
Critical_ROB_Stalls_Percent_1_Bucket_5: 2873
Non-critical_ROB_Stalls_Percent_1_Bucket_5: 57709
Critical_ROB_Stalls_Percent_1_Bucket_6: 2537
Non-critical_ROB_Stalls_Percent_1_Bucket_6: 96490
Critical_ROB_Stalls_Percent_2_Bucket_0: 2060
Non-critical_ROB_Stalls_Percent_2_Bucket_0: 719933
Critical_ROB_Stalls_Percent_2_Bucket_1: 32371
Non-critical_ROB_Stalls_Percent_2_Bucket_1: 709858
Critical_ROB_Stalls_Percent_2_Bucket_2: 69822
Non-critical_ROB_Stalls_Percent_2_Bucket_2: 244334
Critical_ROB_Stalls_Percent_2_Bucket_3: 7316
Non-critical_ROB_Stalls_Percent_2_Bucket_3: 97190
Critical_ROB_Stalls_Percent_2_Bucket_4: 4843
Non-critical_ROB_Stalls_Percent_2_Bucket_4: 65018
Critical_ROB_Stalls_Percent_2_Bucket_5: 2873
Non-critical_ROB_Stalls_Percent_2_Bucket_5: 57709
Critical_ROB_Stalls_Percent_2_Bucket_6: 2537
Non-critical_ROB_Stalls_Percent_2_Bucket_6: 96490
Critical_ROB_Stalls_Percent_3_Bucket_0: 2060
Non-critical_ROB_Stalls_Percent_3_Bucket_0: 719933
Critical_ROB_Stalls_Percent_3_Bucket_1: 32371
Non-critical_ROB_Stalls_Percent_3_Bucket_1: 709858
Critical_ROB_Stalls_Percent_3_Bucket_2: 69822
Non-critical_ROB_Stalls_Percent_3_Bucket_2: 244334
Critical_ROB_Stalls_Percent_3_Bucket_3: 7316
Non-critical_ROB_Stalls_Percent_3_Bucket_3: 97190
Critical_ROB_Stalls_Percent_3_Bucket_4: 4843
Non-critical_ROB_Stalls_Percent_3_Bucket_4: 65018
Critical_ROB_Stalls_Percent_3_Bucket_5: 2873
Non-critical_ROB_Stalls_Percent_3_Bucket_5: 57709
Critical_ROB_Stalls_Percent_3_Bucket_6: 2537
Non-critical_ROB_Stalls_Percent_3_Bucket_6: 96490
Critical_ROB_Stalls_Percent_4_Bucket_0: 2060
Non-critical_ROB_Stalls_Percent_4_Bucket_0: 719933
Critical_ROB_Stalls_Percent_4_Bucket_1: 32371
Non-critical_ROB_Stalls_Percent_4_Bucket_1: 709858
Critical_ROB_Stalls_Percent_4_Bucket_2: 69822
Non-critical_ROB_Stalls_Percent_4_Bucket_2: 244334
Critical_ROB_Stalls_Percent_4_Bucket_3: 7316
Non-critical_ROB_Stalls_Percent_4_Bucket_3: 97190
Critical_ROB_Stalls_Percent_4_Bucket_4: 4843
Non-critical_ROB_Stalls_Percent_4_Bucket_4: 65018
Critical_ROB_Stalls_Percent_4_Bucket_5: 2873
Non-critical_ROB_Stalls_Percent_4_Bucket_5: 57709
Critical_ROB_Stalls_Percent_4_Bucket_6: 2537
Non-critical_ROB_Stalls_Percent_4_Bucket_6: 96490
Critical_ROB_Stalls_Percent_5_Bucket_0: 2060
Non-critical_ROB_Stalls_Percent_5_Bucket_0: 719933
Critical_ROB_Stalls_Percent_5_Bucket_1: 32371
Non-critical_ROB_Stalls_Percent_5_Bucket_1: 709858
Critical_ROB_Stalls_Percent_5_Bucket_2: 69822
Non-critical_ROB_Stalls_Percent_5_Bucket_2: 244334
Critical_ROB_Stalls_Percent_5_Bucket_3: 7316
Non-critical_ROB_Stalls_Percent_5_Bucket_3: 97190
Critical_ROB_Stalls_Percent_5_Bucket_4: 4843
Non-critical_ROB_Stalls_Percent_5_Bucket_4: 65018
Critical_ROB_Stalls_Percent_5_Bucket_5: 2873
Non-critical_ROB_Stalls_Percent_5_Bucket_5: 57709
Critical_ROB_Stalls_Percent_5_Bucket_6: 2537
Non-critical_ROB_Stalls_Percent_5_Bucket_6: 96490
Critical_ROB_Stalls_Percent_6_Bucket_0: 2060
Non-critical_ROB_Stalls_Percent_6_Bucket_0: 719933
Critical_ROB_Stalls_Percent_6_Bucket_1: 32371
Non-critical_ROB_Stalls_Percent_6_Bucket_1: 709858
Critical_ROB_Stalls_Percent_6_Bucket_2: 69822
Non-critical_ROB_Stalls_Percent_6_Bucket_2: 244334
Critical_ROB_Stalls_Percent_6_Bucket_3: 7316
Non-critical_ROB_Stalls_Percent_6_Bucket_3: 97190
Critical_ROB_Stalls_Percent_6_Bucket_4: 4843
Non-critical_ROB_Stalls_Percent_6_Bucket_4: 65018
Critical_ROB_Stalls_Percent_6_Bucket_5: 2873
Non-critical_ROB_Stalls_Percent_6_Bucket_5: 57709
Critical_ROB_Stalls_Percent_6_Bucket_6: 2537
Non-critical_ROB_Stalls_Percent_6_Bucket_6: 96490
Critical_ROB_Stalls_Percent_7_Bucket_0: 2060
Non-critical_ROB_Stalls_Percent_7_Bucket_0: 719933
Critical_ROB_Stalls_Percent_7_Bucket_1: 32371
Non-critical_ROB_Stalls_Percent_7_Bucket_1: 709858
Critical_ROB_Stalls_Percent_7_Bucket_2: 69822
Non-critical_ROB_Stalls_Percent_7_Bucket_2: 244334
Critical_ROB_Stalls_Percent_7_Bucket_3: 7316
Non-critical_ROB_Stalls_Percent_7_Bucket_3: 97190
Critical_ROB_Stalls_Percent_7_Bucket_4: 4843
Non-critical_ROB_Stalls_Percent_7_Bucket_4: 65018
Critical_ROB_Stalls_Percent_7_Bucket_5: 2873
Non-critical_ROB_Stalls_Percent_7_Bucket_5: 57709
Critical_ROB_Stalls_Percent_7_Bucket_6: 2537
Non-critical_ROB_Stalls_Percent_7_Bucket_6: 96490
Critical_ROB_Stalls_Percent_8_Bucket_0: 2060
Non-critical_ROB_Stalls_Percent_8_Bucket_0: 719933
Critical_ROB_Stalls_Percent_8_Bucket_1: 32371
Non-critical_ROB_Stalls_Percent_8_Bucket_1: 709858
Critical_ROB_Stalls_Percent_8_Bucket_2: 69822
Non-critical_ROB_Stalls_Percent_8_Bucket_2: 244334
Critical_ROB_Stalls_Percent_8_Bucket_3: 7316
Non-critical_ROB_Stalls_Percent_8_Bucket_3: 97190
Critical_ROB_Stalls_Percent_8_Bucket_4: 4843
Non-critical_ROB_Stalls_Percent_8_Bucket_4: 65018
Critical_ROB_Stalls_Percent_8_Bucket_5: 2873
Non-critical_ROB_Stalls_Percent_8_Bucket_5: 57709
Critical_ROB_Stalls_Percent_8_Bucket_6: 2537
Non-critical_ROB_Stalls_Percent_8_Bucket_6: 96490
Average ROB occupancy Load Stall Begin: 75.9015
Average ROB occupancy Load Stall End: 93.1807
Min ROB occupancy Load Stall Begin: 1
Max ROB occupancy Load Stall Begin: 352
Min ROB occupancy Load Stall End: 1
Max ROB occupancy Load Stall End: 352
Average ROB occupancy Critical Load Stall Begin: -nan
Average ROB occupancy Critical Load Stall End: -nan
Min ROB occupancy Critical Load Stall Begin: 400
Max ROB occupancy Critical Load Stall Begin: 0
Min ROB occupancy Critical Load Stall End: 400
Max ROB occupancy Critical Load Stall End: 0
 ROB Load Stall Begin Bucket Count 0: 970149
 ROB Load Stall End Bucket Count 0: 721993
 ROB Critical Load Stall Begin Bucket Count 0: 0
 ROB Critical Load Stall End Bucket Count 0: 0
 ROB Load Stall Begin Bucket Count 1: 642117
 ROB Load Stall End Bucket Count 1: 742229
 ROB Critical Load Stall Begin Bucket Count 1: 0
 ROB Critical Load Stall End Bucket Count 1: 0
 ROB Load Stall Begin Bucket Count 2: 226351
 ROB Load Stall End Bucket Count 2: 314156
 ROB Critical Load Stall Begin Bucket Count 2: 0
 ROB Critical Load Stall End Bucket Count 2: 0
 ROB Load Stall Begin Bucket Count 3: 89023
 ROB Load Stall End Bucket Count 3: 104506
 ROB Critical Load Stall Begin Bucket Count 3: 0
 ROB Critical Load Stall End Bucket Count 3: 0
 ROB Load Stall Begin Bucket Count 4: 60649
 ROB Load Stall End Bucket Count 4: 69861
 ROB Critical Load Stall Begin Bucket Count 4: 0
 ROB Critical Load Stall End Bucket Count 4: 0
 ROB Load Stall Begin Bucket Count 5: 54103
 ROB Load Stall End Bucket Count 5: 60582
 ROB Critical Load Stall Begin Bucket Count 5: 0
 ROB Critical Load Stall End Bucket Count 5: 0
 ROB Load Stall Begin Bucket Count 6: 69962
 ROB Load Stall End Bucket Count 6: 99027
 ROB Critical Load Stall Begin Bucket Count 6: 0
 ROB Critical Load Stall End Bucket Count 6: 0
PIST Tag Read Accesses: 0
PIST Read Accesses: 0
PIST Tag Write Accesses: 0
PIST Write Accesses: 0
Criticality detector called times: 0
Max global_stall_cycles_count: 0
Threshold Modified: 0 times, factor: 0
ITLB TOTAL     ACCESS:    8698620  HIT:    6416809  MISS:    2281811  HIT %:    73.7681  MISS %:    26.2319   MPKI: 45.6362
ITLB LOAD TRANSLATION ACCESS:    8698620  HIT:    6416809  MISS:    2281811  HIT %:    73.7681  MISS %:    26.2319   MPKI: 45.6362
ITLB PREFETCH  REQUESTED:          0  ISSUED:          0  USEFUL:          0  USELESS:          0
ITLB USEFUL LOAD PREFETCHES:          0 PREFETCH ISSUED TO LOWER LEVEL:          0  ACCURACY: -nan
ITLB TIMELY PREFETCHES:          0 LATE PREFETCHES: 0 DROPPED PREFETCHES: 0
ITLB PREFETCHES SAME FILL-ORIGIN LEVEL: 0 DIFFERENT FILL-ORIGIN LEVEL: 0
ITLB AVERAGE MISS LATENCY: 33.9114 cycles
ITLB RQ	ACCESS:   11054820	FORWARD:          0	MERGED:    1515621	TO_CACHE:    9539199

DTLB TOTAL     ACCESS:    5958778  HIT:    3540960  MISS:    2417818  HIT %:    59.4243  MISS %:    40.5757   MPKI: 48.3564
DTLB LOAD TRANSLATION ACCESS:    5958778  HIT:    3540960  MISS:    2417818  HIT %:    59.4243  MISS %:    40.5757   MPKI: 48.3564
DTLB PREFETCH  REQUESTED:          0  ISSUED:          0  USEFUL:          0  USELESS:          0
DTLB USEFUL LOAD PREFETCHES:          0 PREFETCH ISSUED TO LOWER LEVEL:          0  ACCURACY: -nan
DTLB TIMELY PREFETCHES:          0 LATE PREFETCHES: 0 DROPPED PREFETCHES: 0
DTLB PREFETCHES SAME FILL-ORIGIN LEVEL: 0 DIFFERENT FILL-ORIGIN LEVEL: 0
DTLB AVERAGE MISS LATENCY: 33.4446 cycles
DTLB RQ	ACCESS:    8168376	FORWARD:          0	MERGED:    1906601	TO_CACHE:    6261775

STLB TOTAL     ACCESS:    5049049  HIT:    1049558  MISS:    3999491  HIT %:    20.7872  MISS %:    79.2128   MPKI: 79.9898
STLB LOAD TRANSLATION ACCESS:    4699629  HIT:     886569  MISS:    3813060  HIT %:    18.8647  MISS %:    81.1353   MPKI: 76.2612
STLB TRANSLATION FROM L1D PREFETCHER ACCESS:     349420  HIT:     162989  MISS:     186431  HIT %:    46.6456  MISS %:    53.3544   MPKI: 3.72862
STLB PREFETCH  REQUESTED:          0  ISSUED:          0  USEFUL:      66207  USELESS:     120226
STLB USEFUL LOAD PREFETCHES:      66207 PREFETCH ISSUED TO LOWER LEVEL:          0  ACCURACY: inf
STLB TIMELY PREFETCHES:      66207 LATE PREFETCHES: 0 DROPPED PREFETCHES: 0
STLB PREFETCHES SAME FILL-ORIGIN LEVEL: 0 DIFFERENT FILL-ORIGIN LEVEL: 0
STLB AVERAGE MISS LATENCY: 30.718 cycles
STLB RQ	ACCESS:    5090664	FORWARD:          0	MERGED:      38430	TO_CACHE:    5052234

STLB Hit, L1D data hit: 0
STLB Hit, L2C data hit: 0
STLB Hit, LLC data hit: 0
STLB Hit, LLC data miss: 0
STLB STLB hints to L2: 0
L1D TOTAL     ACCESS:    8474053  HIT:    7948348  MISS:     525705  HIT %:    93.7963  MISS %:     6.2037   MPKI: 10.5141
L1D LOAD      ACCESS:    4751447  HIT:    4462504  MISS:     288943  HIT %:    93.9188  MISS %:    6.08116   MPKI: 5.77886
L1D RFO       ACCESS:    3343037  HIT:    3320663  MISS:      22374  HIT %:    99.3307  MISS %:   0.669272   MPKI: 0.44748
L1D PREFETCH  ACCESS:     379569  HIT:     165181  MISS:     214388  HIT %:     43.518  MISS %:     56.482   MPKI: 4.28776
L1D PREFETCH  REQUESTED:     782115  ISSUED:     782115  USEFUL:      30928  USELESS:     183324
L1D USEFUL LOAD PREFETCHES:      30928 PREFETCH ISSUED TO LOWER LEVEL:     217764  ACCURACY: 14.2025
L1D TIMELY PREFETCHES:      30928 LATE PREFETCHES: 1521 DROPPED PREFETCHES: 0
L1D PREFETCHES SAME FILL-ORIGIN LEVEL: 217764 DIFFERENT FILL-ORIGIN LEVEL: 0
L1D AVERAGE MISS LATENCY: 454026 cycles
L1D RQ	ACCESS:    6920901	FORWARD:          0	MERGED:    2118730	TO_CACHE:    4759896
L1D WQ	ACCESS:    3607749	FORWARD:      42314	MERGED:     199269	TO_CACHE:    3408480
L1D PQ	ACCESS:     391077	FORWARD:          0	MERGED:          0	TO_CACHE:     391038

L1D UNIQUE REGIONS ACCESSED: 0
L1D REGIONS CONFLICTS: 0
L1D Cross Page Prefetch Requests: 0
L1D Same Page Prefetch Requests: 400771
L1D ROI Sum of L1D PQ occupancy: 13710031
L1D PREFETCHES PUSHED FROM L2C: 0
L1I TOTAL     ACCESS:   11013221  HIT:   10883614  MISS:     129607  HIT %:    98.8232  MISS %:    1.17683   MPKI: 2.59214
L1I LOAD      ACCESS:   11013221  HIT:   10883614  MISS:     129607  HIT %:    98.8232  MISS %:    1.17683   MPKI: 2.59214
L1I PREFETCH  REQUESTED:          0  ISSUED:          0  USEFUL:          0  USELESS:          0
L1I USEFUL LOAD PREFETCHES:          0 PREFETCH ISSUED TO LOWER LEVEL:          0  ACCURACY: -nan
L1I TIMELY PREFETCHES:          0 LATE PREFETCHES: 0 DROPPED PREFETCHES: 0
L1I PREFETCHES SAME FILL-ORIGIN LEVEL: 0 DIFFERENT FILL-ORIGIN LEVEL: 0
L1I AVERAGE MISS LATENCY: 17.6887 cycles
L1I RQ	ACCESS:   20562519	FORWARD:          0	MERGED:    9507699	TO_CACHE:   11054820

BTB BRANCH_DIRECT_JUMP	ACCESS:          0  HIT:          0  MISS:          0
BTB BRANCH_INDIRECT	ACCESS:          0  HIT:          0  MISS:          0
BTB BRANCH_CONDITIONAL	ACCESS:          0  HIT:          0  MISS:          0
BTB BRANCH_DIRECT_CALL	ACCESS:          0  HIT:          0  MISS:          0
BTB BRANCH_INDIRECT_CALL	ACCESS:          0  HIT:          0  MISS:          0
BTB BRANCH_RETURN	ACCESS:          0  HIT:          0  MISS:          0
BTB BRANCH_OTHER ACCESS:          0  HIT:          0  MISS:          0

L2C TOTAL     ACCESS:    4874690  HIT:    4349042  MISS:     525648  HIT %:    89.2168  MISS %:    10.7832   MPKI: 10.513
L2C LOAD      ACCESS:     417027  HIT:     169594  MISS:     247433  HIT %:    40.6674  MISS %:    59.3326   MPKI: 4.94866
L2C DATA LOAD MPKI: 4.89762
L2C INSTRUCTION LOAD MPKI: 0.05104
L2C RFO       ACCESS:      20519  HIT:       4169  MISS:      16350  HIT %:    20.3178  MISS %:    79.6822   MPKI: 0.327
L2C PREFETCH  ACCESS:     257281  HIT:      36976  MISS:     220305  HIT %:    14.3718  MISS %:    85.6282   MPKI: 4.4061
L2C DATA PREFETCH MPKI: 4.4061
L2C INSTRUCTION PREFETCH MPKI: 0
L2C WRITEBACK ACCESS:     126130  HIT:     122486  MISS:       3644  HIT %:    97.1109  MISS %:    2.88908   MPKI: 0.07288
L2C LOAD TRANSLATION ACCESS:    3866882  HIT:    3828971  MISS:      37911  HIT %:    99.0196  MISS %:   0.980402   MPKI: 0.75822
L2C TRANSLATION FROM L1D PREFETCHER ACCESS:     186851  HIT:     186846  MISS:          5  HIT %:    99.9973  MISS %: 0.00267593   MPKI: 0.0001
L2C PREFETCH  REQUESTED:      44379  ISSUED:      44379  USEFUL:       9057  USELESS:     209550
L2C USEFUL LOAD PREFETCHES:       9057 PREFETCH ISSUED TO LOWER LEVEL:     220567  ACCURACY: 4.10624
L2C TIMELY PREFETCHES:       9057 LATE PREFETCHES: 262 DROPPED PREFETCHES: 0
L2C PREFETCHES SAME FILL-ORIGIN LEVEL: 30402 DIFFERENT FILL-ORIGIN LEVEL: 0
L2C AVERAGE MISS LATENCY: 186.267 cycles
L2C RQ	ACCESS:    4491281	FORWARD:          0	MERGED:          0	TO_CACHE:    4491279
L2C WQ	ACCESS:     126130	FORWARD:          3	MERGED:          0	TO_CACHE:     126130
L2C PQ	ACCESS:     262143	FORWARD:          0	MERGED:        871	TO_CACHE:     261271

L2C Instructions Evicting Data 2395
L2C Translations Evicting Data 34702
L2C Data Evicting Data 444598
L2C Instructions Evicting Instructions 40
L2C Translations Evicting Instructions 72
L2C Data Evicting Instructions 2404
L2C Instructions Evicting Translations 117
L2C Translations Evicting Translations 3142
L2C Data Evicting Translations 34534
L2C Dense regions hint from L2: 0
PSCL5 TOTAL     ACCESS:    3999490  HIT:    3999490  MISS:          0  HIT %:        100  MISS %:          0   MPKI: 0
PSCL5 LOAD TRANSLATION ACCESS:    3813059  HIT:    3813059  MISS:          0  HIT %:        100  MISS %:          0   MPKI: 0
PSCL5 TRANSLATION FROM L1D PREFETCHER ACCESS:     186431  HIT:     186431  MISS:          0  HIT %:        100  MISS %:          0   MPKI: 0
PSCL5 PREFETCH  REQUESTED:          0  ISSUED:          0  USEFUL:          0  USELESS:          0
PSCL5 USEFUL LOAD PREFETCHES:          0 PREFETCH ISSUED TO LOWER LEVEL:          0  ACCURACY: -nan
PSCL5 TIMELY PREFETCHES:          0 LATE PREFETCHES: 0 DROPPED PREFETCHES: 0
PSCL5 PREFETCHES SAME FILL-ORIGIN LEVEL: 0 DIFFERENT FILL-ORIGIN LEVEL: 0

PSCL4 TOTAL     ACCESS:    1925988  HIT:    1925988  MISS:          0  HIT %:        100  MISS %:          0   MPKI: 0
PSCL4 LOAD TRANSLATION ACCESS:    1763748  HIT:    1763748  MISS:          0  HIT %:        100  MISS %:          0   MPKI: 0
PSCL4 TRANSLATION FROM L1D PREFETCHER ACCESS:     162240  HIT:     162240  MISS:          0  HIT %:        100  MISS %:          0   MPKI: 0
PSCL4 PREFETCH  REQUESTED:          0  ISSUED:          0  USEFUL:          0  USELESS:          0
PSCL4 USEFUL LOAD PREFETCHES:          0 PREFETCH ISSUED TO LOWER LEVEL:          0  ACCURACY: -nan
PSCL4 TIMELY PREFETCHES:          0 LATE PREFETCHES: 0 DROPPED PREFETCHES: 0
PSCL4 PREFETCHES SAME FILL-ORIGIN LEVEL: 0 DIFFERENT FILL-ORIGIN LEVEL: 0

PSCL3 TOTAL     ACCESS:    3998628  HIT:    3998550  MISS:         78  HIT %:     99.998  MISS %: 0.00195067   MPKI: 0.00156
PSCL3 LOAD TRANSLATION ACCESS:    3812207  HIT:    3812129  MISS:         78  HIT %:     99.998  MISS %: 0.00204606   MPKI: 0.00156
PSCL3 TRANSLATION FROM L1D PREFETCHER ACCESS:     186421  HIT:     186421  MISS:          0  HIT %:        100  MISS %:          0   MPKI: 0
PSCL3 PREFETCH  REQUESTED:          0  ISSUED:          0  USEFUL:          0  USELESS:          0
PSCL3 USEFUL LOAD PREFETCHES:          0 PREFETCH ISSUED TO LOWER LEVEL:          0  ACCURACY: -nan
PSCL3 TIMELY PREFETCHES:          0 LATE PREFETCHES: 0 DROPPED PREFETCHES: 0
PSCL3 PREFETCHES SAME FILL-ORIGIN LEVEL: 0 DIFFERENT FILL-ORIGIN LEVEL: 0

PSCL2 TOTAL     ACCESS:    3999490  HIT:    3945325  MISS:      54165  HIT %:    98.6457  MISS %:     1.3543   MPKI: 1.0833
PSCL2 LOAD TRANSLATION ACCESS:    3813479  HIT:    3759314  MISS:      54165  HIT %:    98.5796  MISS %:    1.42036   MPKI: 1.0833
PSCL2 TRANSLATION FROM L1D PREFETCHER ACCESS:     186011  HIT:     186011  MISS:          0  HIT %:        100  MISS %:          0   MPKI: 0
PSCL2 PREFETCH  REQUESTED:          0  ISSUED:          0  USEFUL:          0  USELESS:          0
PSCL2 USEFUL LOAD PREFETCHES:          0 PREFETCH ISSUED TO LOWER LEVEL:          0  ACCURACY: -nan
PSCL2 TIMELY PREFETCHES:          0 LATE PREFETCHES: 0 DROPPED PREFETCHES: 0
PSCL2 PREFETCHES SAME FILL-ORIGIN LEVEL: 0 DIFFERENT FILL-ORIGIN LEVEL: 0

LLC TOTAL     ACCESS:     629951  HIT:     151346  MISS:     478605  HIT %:     24.025  MISS %:     75.975   MPKI: 9.5721
LLC LOAD      ACCESS:     247173  HIT:      25201  MISS:     221972  HIT %:    10.1957  MISS %:    89.8043   MPKI: 4.43944
LLC RFO       ACCESS:      16348  HIT:       1484  MISS:      14864  HIT %:    9.07756  MISS %:    90.9224   MPKI: 0.29728
LLC PREFETCH  ACCESS:     220567  HIT:      14421  MISS:     206146  HIT %:    6.53815  MISS %:    93.4619   MPKI: 4.12292
LLC WRITEBACK ACCESS:     107947  HIT:     105172  MISS:       2775  HIT %:    97.4293  MISS %:    2.57071   MPKI: 0.0555
LLC LOAD TRANSLATION ACCESS:      37911  HIT:       5065  MISS:      32846  HIT %:    13.3602  MISS %:    86.6398   MPKI: 0.65692
LLC TRANSLATION FROM L1D PREFETCHER ACCESS:          5  HIT:          3  MISS:          2  HIT %:         60  MISS %:         40   MPKI: 4e-05
LLC PREFETCH  REQUESTED:          0  ISSUED:          0  USEFUL:       4696  USELESS:     193477
LLC USEFUL LOAD PREFETCHES:       4696 PREFETCH ISSUED TO LOWER LEVEL:     206146  ACCURACY: 2.278
LLC TIMELY PREFETCHES:       4696 LATE PREFETCHES: 0 DROPPED PREFETCHES: 0
LLC PREFETCHES SAME FILL-ORIGIN LEVEL: 0 DIFFERENT FILL-ORIGIN LEVEL: 0
LLC AVERAGE MISS LATENCY: 171.897 cycles
LLC RQ	ACCESS:     301437	FORWARD:          0	MERGED:          0	TO_CACHE:     301437
LLC WQ	ACCESS:     107947	FORWARD:          0	MERGED:          0	TO_CACHE:     107947
LLC PQ	ACCESS:     220567	FORWARD:          0	MERGED:          0	TO_CACHE:     220567

LLC Dense regions hint to LLC: 0

RAW hits: 758695
Loads Generated: 7679597
Loads sent to L1D: 6920901
Stores Generated: 3607749
Stores sent to L1D: 3607749
Major fault: 0 Minor fault: 72903
Allocated PAGES: 72903

stream: 
stream:times selected: 546418
stream:pref_filled: 194669
stream:pref_useful: 25834
stream:pref_late: 1246
stream:misses: 42188
stream:misses_by_poll: 0

CS: 
CS:times selected: 8135
CS:pref_filled: 4369
CS:pref_useful: 3024
CS:pref_late: 137
CS:misses: 1136
CS:misses_by_poll: 2

CPLX: 
CPLX:times selected: 532112
CPLX:pref_filled: 18142
CPLX:pref_useful: 2389
CPLX:pref_late: 95
CPLX:misses: 147665
CPLX:misses_by_poll: 21

NL_L1: 
NL:times selected: 4896
NL:pref_filled: 2287
NL:pref_useful: 293
NL:pref_late: 14
NL:misses: 2264
NL:misses_by_poll: 0

total selections: 1091561
total_filled: 214388
total_useful: 30928
total_late: 1581
total_polluted: 23
total_misses_after_warmup: 252393
conflicts: 186240
Degree Incremented Times: 0
Degree Decremented Times: 39065

L1 IP Table Write Accesses: 1503959
L1 IP Table Read Accesses: 1317719
L1 RST Write Accesses: 537779
L1 RST Read Accesses: 1075558
L1 CSPT Write Accesses: 537779
L1 CSPT Read Accesses: 1061579
L1 RR Filter Tag Write Accesses: 391077
L1 RR Filter Tag Read Accesses: 16954296
L1 IP Table Tag Write Accesses: 1956632
L1 IP Table Tag Read Accesses: 1956632
L1 RST Tag Write Accesses: 0
L1 RST Tag Read Accesses: 4573704
L1 RR Filter Write Accesses: 0
L1 RR Filter Read Accesses: 595809
test: 325808
L2 IP Table Read Accesses: 875461
L2 IP Table Write Accesses: 686316
L2 IP Table Tag Read Accesses: 460178
L2 IP Table Tag Write Accesses: 460178

DRAM Statistics
 CHANNEL 0
 RQ ROW_BUFFER_HIT:      67167  ROW_BUFFER_MISS:     408640
 DBUS_CONGESTED:        454
 WQ ROW_BUFFER_HIT:      33462  ROW_BUFFER_MISS:      67731  FULL:          0

 AVG_CONGESTED_CYCLE: 5
 All warmup complete: 2
Channel 0 Bank busy for read cycles: 0
Channel 0 Bank busy for write cycles: 0
Channel 0
Rank 0
0banks busy for read cycles: 64752794
0banks busy for write cycles: 30579
1banks busy for read cycles: 13711696
1banks busy for write cycles: 4344628
2banks busy for read cycles: 10182974
2banks busy for write cycles: 2009777
3banks busy for read cycles: 4400638
3banks busy for write cycles: 1097129
4banks busy for read cycles: 2332884
4banks busy for write cycles: 696020
5banks busy for read cycles: 907006
5banks busy for write cycles: 509103
6banks busy for read cycles: 384109
6banks busy for write cycles: 519295
7banks busy for read cycles: 142968
7banks busy for write cycles: 892246
8banks busy for read cycles: 27889
8banks busy for write cycles: 1767455

CPU 0 Branch Prediction Accuracy: 99.4972% MPKI: 1.03356 Average ROB Occupancy at Mispredict: 121.287
Branch types
NOT_BRANCH: 0 0%
BRANCH_DIRECT_JUMP: 0 0%
BRANCH_INDIRECT: 0 0%
BRANCH_CONDITIONAL: 0 0%
BRANCH_DIRECT_CALL: 0 0%
BRANCH_INDIRECT_CALL: 0 0%
BRANCH_RETURN: 0 0%
BRANCH_OTHER: 0 0%

DRAM PAGES: 1048576
Allocated PAGES: 72903
