
*** ChampSim Multicore Out-of-Order Simulator ***

Warmup Instructions: 50000000
Simulation Instructions: 50000000
Number of CPUs: 1
LLC sets: 2048
LLC ways: 16
Off-chip DRAM Size: 4096 MB Channels: 1 Width: 64-bit Data Rate: 6400 MT/s
CPU 0 runs ../cloudsuite_traces//cloud9_phase5_core2.trace.gz
.gz
NUM_OF_IPS_IN_CRITICAL_IP_TRAINING: 64
NUM_OF_CRITICAL_IP_TRAINING_TABLE_WAYS: 2
NUM_OF_CRITICAL_IP_TRAINING_TABLE_SETS: 32
WOBBLY_CRITICAL_IP_CACHE_SETS: 32
WOBBLY_CRITICAL_IP_CACHE_WAYS: 4
BTB has LRU replacement policy
ITLB has LRU replacement policy
DTLB has LRU replacement policy
STLB has LRU replacement policy
L1I has LRU replacement policy
IP Table Entries: 64
L1D has LRU replacement policy
Initialize SRRIP state for L2C
Initialize DRRIP state for LLC
UNIQUE_ASID[0] = €
UNIQUE_ASID[1] = 
Heartbeat CPU 0 instructions: 10000000 cycles: 3428326 heartbeat IPC: 2.91688 cumulative IPC: 2.91688 (Simulation time: 0 hr 2 min 56 sec) 
Heartbeat CPU 0 instructions: 20000001 cycles: 6857282 heartbeat IPC: 2.91634 cumulative IPC: 2.91661 (Simulation time: 0 hr 5 min 12 sec) 
Heartbeat CPU 0 instructions: 30000001 cycles: 10098773 heartbeat IPC: 3.085 cumulative IPC: 2.97066 (Simulation time: 0 hr 7 min 58 sec) 
Heartbeat CPU 0 instructions: 40000002 cycles: 13528411 heartbeat IPC: 2.91576 cumulative IPC: 2.95674 (Simulation time: 0 hr 10 min 15 sec) 
Heartbeat CPU 0 instructions: 50000001 cycles: 16960178 heartbeat IPC: 2.91395 cumulative IPC: 2.94808 (Simulation time: 0 hr 12 min 29 sec) 

Warmup complete CPU 0 instructions: 50000001 cycles: 16960178 (Simulation time: 0 hr 12 min 29 sec) 

% increase in all ip prefetch 387.18
% increase in all ip prefetch 5.16268
% increase in all ip prefetch -1.53108
Heartbeat CPU 0 instructions: 60000001 cycles: 34862478 heartbeat IPC: 0.558587 cumulative IPC: 0.558587 (Simulation time: 0 hr 15 min 39 sec) 
Heartbeat CPU 0 instructions: 70000000 cycles: 56122947 heartbeat IPC: 0.470356 cumulative IPC: 0.510689 (Simulation time: 0 hr 18 min 33 sec) 
Heartbeat CPU 0 instructions: 80000001 cycles: 87729360 heartbeat IPC: 0.316392 cumulative IPC: 0.423913 (Simulation time: 0 hr 21 min 24 sec) 
Heartbeat CPU 0 instructions: 90000000 cycles: 105520267 heartbeat IPC: 0.562085 cumulative IPC: 0.451671 (Simulation time: 0 hr 23 min 0 sec) 
Heartbeat CPU 0 instructions: 100000001 cycles: 125576827 heartbeat IPC: 0.49859 cumulative IPC: 0.460335 (Simulation time: 0 hr 24 min 6 sec) 
Finished CPU 0 instructions: 50000000 cycles: 108616649 cumulative IPC: 0.460335 (Simulation time: 0 hr 24 min 6 sec) 

ChampSim completed all CPUs

Region of Interest Statistics

CPU 0 cumulative IPC: 0.460335 instructions: 50000000 cycles: 108616649

CPU 0 Average Load ROB stall cycles: 2.63547e+07
CPU 0 Fraction of times ROB stalled by Loads: 36.9294
CPU 0 Percentage of Load stall cycles in Total stall cycles: 1.58716e+08
Issued all: 36130890
Issued LT all: 30494079
rob_not_full_when_issued_lt_all: 22069492
Issued LT one: 25228454
rob_not_full_when_issued_lt_one: 17094734
 Total stall cycles: 94928195
 Total load stall cycles: 150665960594415
CPU 0 NUM of IPS identified critical: 0
CPU 0 Num of Load IPs stalling ROB: 1995
Threshold modification factor: -2
Max PIST entries: 64
Min PIST entries: 0
Avg PIST entries: 30.1
Trouble in retire width: 0.914577
MaC = Marked as critical.
lt_50_percent_before_Mac: 0
gt_90_percent_before_Mac: 0
gt_75_percent_before_Mac: 0
gt_50_percent_before_Mac: 0
stall_proportion_bin_same_before_after: 0
stall_proportion_bin_lower_before_after: 0
stall_proportion_bin_upper_before_after: 0
average_stall_proportion_before: -nan
average_stall_proportion_after: -nan
Critical IP stalls, total frequency: 0
Non-critical IP stalls, total frequency: 2111205
Total Freq all stalling IPs: 2111205
stat_90_percent_critical_ip_stalls_freq: 1900544
stat_90_percent_non_critical_ip_stalls_freq: 210661
Critical_IP_ROB_Stalls_Bucket_0: 0
Non-critical_IP_ROB_Stalls_Bucket_0: 719424
Critical_IP_ROB_Stalls_Bucket_1: 0
Non-critical_IP_ROB_Stalls_Bucket_1: 740878
Critical_IP_ROB_Stalls_Bucket_2: 0
Non-critical_IP_ROB_Stalls_Bucket_2: 313686
Critical_IP_ROB_Stalls_Bucket_3: 0
Non-critical_IP_ROB_Stalls_Bucket_3: 105497
Critical_IP_ROB_Stalls_Bucket_4: 0
Non-critical_IP_ROB_Stalls_Bucket_4: 70821
Critical_IP_ROB_Stalls_Bucket_5: 0
Non-critical_IP_ROB_Stalls_Bucket_5: 61271
Critical_IP_ROB_Stalls_Bucket_6: 0
Non-critical_IP_ROB_Stalls_Bucket_6: 99628
0 => IPs accounting for >50 percent of stalls, 1 => 55, 2 => 60, 3 => 65 and so on till 90.
percent50: 50.2599 num IPs:  18
percent55: 55.4388 num IPs: 24
percent60: 60.3154 num IPs: 33
percent65: 65.0432 num IPs: 44
percent70: 70.2258 num IPs: 60
percent75: 75.0817 num IPs: 78
percent80: 80.1217 num IPs: 103
percent85: 85.0044 num IPs: 137
percent90: 90.0218 num IPs: 180
Critical_ROB_Stalls_Percent_0_Bucket_0: 129482
Non-critical_ROB_Stalls_Percent_0_Bucket_0: 589942
Critical_ROB_Stalls_Percent_0_Bucket_1: 486847
Non-critical_ROB_Stalls_Percent_0_Bucket_1: 254031
Critical_ROB_Stalls_Percent_0_Bucket_2: 232191
Non-critical_ROB_Stalls_Percent_0_Bucket_2: 81495
Critical_ROB_Stalls_Percent_0_Bucket_3: 71620
Non-critical_ROB_Stalls_Percent_0_Bucket_3: 33877
Critical_ROB_Stalls_Percent_0_Bucket_4: 45867
Non-critical_ROB_Stalls_Percent_0_Bucket_4: 24954
Critical_ROB_Stalls_Percent_0_Bucket_5: 37230
Non-critical_ROB_Stalls_Percent_0_Bucket_5: 24041
Critical_ROB_Stalls_Percent_0_Bucket_6: 57852
Non-critical_ROB_Stalls_Percent_0_Bucket_6: 41776
Critical_ROB_Stalls_Percent_1_Bucket_0: 179406
Non-critical_ROB_Stalls_Percent_1_Bucket_0: 540018
Critical_ROB_Stalls_Percent_1_Bucket_1: 503856
Non-critical_ROB_Stalls_Percent_1_Bucket_1: 237022
Critical_ROB_Stalls_Percent_1_Bucket_2: 251914
Non-critical_ROB_Stalls_Percent_1_Bucket_2: 61772
Critical_ROB_Stalls_Percent_1_Bucket_3: 79732
Non-critical_ROB_Stalls_Percent_1_Bucket_3: 25765
Critical_ROB_Stalls_Percent_1_Bucket_4: 50243
Non-critical_ROB_Stalls_Percent_1_Bucket_4: 20578
Critical_ROB_Stalls_Percent_1_Bucket_5: 41199
Non-critical_ROB_Stalls_Percent_1_Bucket_5: 20072
Critical_ROB_Stalls_Percent_1_Bucket_6: 64077
Non-critical_ROB_Stalls_Percent_1_Bucket_6: 35551
Critical_ROB_Stalls_Percent_2_Bucket_0: 238242
Non-critical_ROB_Stalls_Percent_2_Bucket_0: 481182
Critical_ROB_Stalls_Percent_2_Bucket_1: 524281
Non-critical_ROB_Stalls_Percent_2_Bucket_1: 216597
Critical_ROB_Stalls_Percent_2_Bucket_2: 256293
Non-critical_ROB_Stalls_Percent_2_Bucket_2: 57393
Critical_ROB_Stalls_Percent_2_Bucket_3: 82145
Non-critical_ROB_Stalls_Percent_2_Bucket_3: 23352
Critical_ROB_Stalls_Percent_2_Bucket_4: 52391
Non-critical_ROB_Stalls_Percent_2_Bucket_4: 18430
Critical_ROB_Stalls_Percent_2_Bucket_5: 46869
Non-critical_ROB_Stalls_Percent_2_Bucket_5: 14402
Critical_ROB_Stalls_Percent_2_Bucket_6: 73161
Non-critical_ROB_Stalls_Percent_2_Bucket_6: 26467
Critical_ROB_Stalls_Percent_3_Bucket_0: 298486
Non-critical_ROB_Stalls_Percent_3_Bucket_0: 420938
Critical_ROB_Stalls_Percent_3_Bucket_1: 552891
Non-critical_ROB_Stalls_Percent_3_Bucket_1: 187987
Critical_ROB_Stalls_Percent_3_Bucket_2: 262259
Non-critical_ROB_Stalls_Percent_3_Bucket_2: 51427
Critical_ROB_Stalls_Percent_3_Bucket_3: 85122
Non-critical_ROB_Stalls_Percent_3_Bucket_3: 20375
Critical_ROB_Stalls_Percent_3_Bucket_4: 53490
Non-critical_ROB_Stalls_Percent_3_Bucket_4: 17331
Critical_ROB_Stalls_Percent_3_Bucket_5: 47357
Non-critical_ROB_Stalls_Percent_3_Bucket_5: 13914
Critical_ROB_Stalls_Percent_3_Bucket_6: 73590
Non-critical_ROB_Stalls_Percent_3_Bucket_6: 26038
Critical_ROB_Stalls_Percent_4_Bucket_0: 358398
Non-critical_ROB_Stalls_Percent_4_Bucket_0: 361026
Critical_ROB_Stalls_Percent_4_Bucket_1: 581255
Non-critical_ROB_Stalls_Percent_4_Bucket_1: 159623
Critical_ROB_Stalls_Percent_4_Bucket_2: 271706
Non-critical_ROB_Stalls_Percent_4_Bucket_2: 41980
Critical_ROB_Stalls_Percent_4_Bucket_3: 88855
Non-critical_ROB_Stalls_Percent_4_Bucket_3: 16642
Critical_ROB_Stalls_Percent_4_Bucket_4: 55809
Non-critical_ROB_Stalls_Percent_4_Bucket_4: 15012
Critical_ROB_Stalls_Percent_4_Bucket_5: 49172
Non-critical_ROB_Stalls_Percent_4_Bucket_5: 12099
Critical_ROB_Stalls_Percent_4_Bucket_6: 77416
Non-critical_ROB_Stalls_Percent_4_Bucket_6: 22212
Critical_ROB_Stalls_Percent_5_Bucket_0: 420825
Non-critical_ROB_Stalls_Percent_5_Bucket_0: 298599
Critical_ROB_Stalls_Percent_5_Bucket_1: 603233
Non-critical_ROB_Stalls_Percent_5_Bucket_1: 137645
Critical_ROB_Stalls_Percent_5_Bucket_2: 282561
Non-critical_ROB_Stalls_Percent_5_Bucket_2: 31125
Critical_ROB_Stalls_Percent_5_Bucket_3: 90064
Non-critical_ROB_Stalls_Percent_5_Bucket_3: 15433
Critical_ROB_Stalls_Percent_5_Bucket_4: 56453
Non-critical_ROB_Stalls_Percent_5_Bucket_4: 14368
Critical_ROB_Stalls_Percent_5_Bucket_5: 50879
Non-critical_ROB_Stalls_Percent_5_Bucket_5: 10392
Critical_ROB_Stalls_Percent_5_Bucket_6: 81113
Non-critical_ROB_Stalls_Percent_5_Bucket_6: 18515
Critical_ROB_Stalls_Percent_6_Bucket_0: 491819
Non-critical_ROB_Stalls_Percent_6_Bucket_0: 227605
Critical_ROB_Stalls_Percent_6_Bucket_1: 625638
Non-critical_ROB_Stalls_Percent_6_Bucket_1: 115240
Critical_ROB_Stalls_Percent_6_Bucket_2: 288158
Non-critical_ROB_Stalls_Percent_6_Bucket_2: 25528
Critical_ROB_Stalls_Percent_6_Bucket_3: 91847
Non-critical_ROB_Stalls_Percent_6_Bucket_3: 13650
Critical_ROB_Stalls_Percent_6_Bucket_4: 58396
Non-critical_ROB_Stalls_Percent_6_Bucket_4: 12425
Critical_ROB_Stalls_Percent_6_Bucket_5: 52037
Non-critical_ROB_Stalls_Percent_6_Bucket_5: 9234
Critical_ROB_Stalls_Percent_6_Bucket_6: 83637
Non-critical_ROB_Stalls_Percent_6_Bucket_6: 15991
Critical_ROB_Stalls_Percent_7_Bucket_0: 549394
Non-critical_ROB_Stalls_Percent_7_Bucket_0: 170030
Critical_ROB_Stalls_Percent_7_Bucket_1: 654467
Non-critical_ROB_Stalls_Percent_7_Bucket_1: 86411
Critical_ROB_Stalls_Percent_7_Bucket_2: 294619
Non-critical_ROB_Stalls_Percent_7_Bucket_2: 19067
Critical_ROB_Stalls_Percent_7_Bucket_3: 94676
Non-critical_ROB_Stalls_Percent_7_Bucket_3: 10821
Critical_ROB_Stalls_Percent_7_Bucket_4: 61300
Non-critical_ROB_Stalls_Percent_7_Bucket_4: 9521
Critical_ROB_Stalls_Percent_7_Bucket_5: 53700
Non-critical_ROB_Stalls_Percent_7_Bucket_5: 7571
Critical_ROB_Stalls_Percent_7_Bucket_6: 86460
Non-critical_ROB_Stalls_Percent_7_Bucket_6: 13168
Critical_ROB_Stalls_Percent_8_Bucket_0: 610388
Non-critical_ROB_Stalls_Percent_8_Bucket_0: 109036
Critical_ROB_Stalls_Percent_8_Bucket_1: 684648
Non-critical_ROB_Stalls_Percent_8_Bucket_1: 56230
Critical_ROB_Stalls_Percent_8_Bucket_2: 299150
Non-critical_ROB_Stalls_Percent_8_Bucket_2: 14536
Critical_ROB_Stalls_Percent_8_Bucket_3: 97259
Non-critical_ROB_Stalls_Percent_8_Bucket_3: 8238
Critical_ROB_Stalls_Percent_8_Bucket_4: 64309
Non-critical_ROB_Stalls_Percent_8_Bucket_4: 6512
Critical_ROB_Stalls_Percent_8_Bucket_5: 55665
Non-critical_ROB_Stalls_Percent_8_Bucket_5: 5606
Critical_ROB_Stalls_Percent_8_Bucket_6: 89125
Non-critical_ROB_Stalls_Percent_8_Bucket_6: 10503
Average ROB occupancy Load Stall Begin: 76.1974
Average ROB occupancy Load Stall End: 93.4797
Min ROB occupancy Load Stall Begin: 1
Max ROB occupancy Load Stall Begin: 352
Min ROB occupancy Load Stall End: 1
Max ROB occupancy Load Stall End: 352
Average ROB occupancy Critical Load Stall Begin: -nan
Average ROB occupancy Critical Load Stall End: -nan
Min ROB occupancy Critical Load Stall Begin: 400
Max ROB occupancy Critical Load Stall Begin: 0
Min ROB occupancy Critical Load Stall End: 400
Max ROB occupancy Critical Load Stall End: 0
 ROB Load Stall Begin Bucket Count 0: 968688
 ROB Load Stall End Bucket Count 0: 719424
 ROB Critical Load Stall Begin Bucket Count 0: 0
 ROB Critical Load Stall End Bucket Count 0: 0
 ROB Load Stall Begin Bucket Count 1: 638914
 ROB Load Stall End Bucket Count 1: 740878
 ROB Critical Load Stall Begin Bucket Count 1: 0
 ROB Critical Load Stall End Bucket Count 1: 0
 ROB Load Stall Begin Bucket Count 2: 226961
 ROB Load Stall End Bucket Count 2: 313686
 ROB Critical Load Stall Begin Bucket Count 2: 0
 ROB Critical Load Stall End Bucket Count 2: 0
 ROB Load Stall Begin Bucket Count 3: 90193
 ROB Load Stall End Bucket Count 3: 105497
 ROB Critical Load Stall Begin Bucket Count 3: 0
 ROB Critical Load Stall End Bucket Count 3: 0
 ROB Load Stall Begin Bucket Count 4: 61451
 ROB Load Stall End Bucket Count 4: 70821
 ROB Critical Load Stall Begin Bucket Count 4: 0
 ROB Critical Load Stall End Bucket Count 4: 0
 ROB Load Stall Begin Bucket Count 5: 54713
 ROB Load Stall End Bucket Count 5: 61271
 ROB Critical Load Stall Begin Bucket Count 5: 0
 ROB Critical Load Stall End Bucket Count 5: 0
 ROB Load Stall Begin Bucket Count 6: 70285
 ROB Load Stall End Bucket Count 6: 99628
 ROB Critical Load Stall Begin Bucket Count 6: 0
 ROB Critical Load Stall End Bucket Count 6: 0
PIST Tag Read Accesses: 1848618
PIST Read Accesses: 924309
PIST Tag Write Accesses: 1848618
PIST Write Accesses: 924309
Criticality detector called times: 1278835
Max global_stall_cycles_count: 1978926
Threshold Modified: 2 times, factor: -2
Sturdy critical IP cache stats: 
 Unused entries: 0
CIC Tag Read Accesses: 0
CIC Read Accesses: 0
CIC Tag Write Accesses: 0
CIC Write Accesses: 0
Wobbly critical IP cache stats: 
 Unused entries: 78
CIC Tag Read Accesses: 50780065
CIC Read Accesses: 0
CIC Tag Write Accesses: 177049
CIC Write Accesses: 0
ITLB TOTAL     ACCESS:    8697422  HIT:    6415621  MISS:    2281801  HIT %:    73.7646  MISS %:    26.2354   MPKI: 45.636
ITLB LOAD TRANSLATION ACCESS:    8697422  HIT:    6415621  MISS:    2281801  HIT %:    73.7646  MISS %:    26.2354   MPKI: 45.636
ITLB PREFETCH  REQUESTED:          0  ISSUED:          0  USEFUL:          0  USELESS:          0
ITLB USEFUL LOAD PREFETCHES:          0 PREFETCH ISSUED TO LOWER LEVEL:          0  ACCURACY: -nan
ITLB TIMELY PREFETCHES:          0 LATE PREFETCHES: 0 DROPPED PREFETCHES: 0
ITLB PREFETCHES SAME FILL-ORIGIN LEVEL: 0 DIFFERENT FILL-ORIGIN LEVEL: 0
ITLB AVERAGE MISS LATENCY: 33.8248 cycles
ITLB RQ	ACCESS:   11053192	FORWARD:          0	MERGED:    1512338	TO_CACHE:    9540854

DTLB TOTAL     ACCESS:    5958106  HIT:    3540966  MISS:    2417140  HIT %:    59.4311  MISS %:    40.5689   MPKI: 48.3428
DTLB LOAD TRANSLATION ACCESS:    5958106  HIT:    3540966  MISS:    2417140  HIT %:    59.4311  MISS %:    40.5689   MPKI: 48.3428
DTLB PREFETCH  REQUESTED:          0  ISSUED:          0  USEFUL:          0  USELESS:          0
DTLB USEFUL LOAD PREFETCHES:          0 PREFETCH ISSUED TO LOWER LEVEL:          0  ACCURACY: -nan
DTLB TIMELY PREFETCHES:          0 LATE PREFETCHES: 0 DROPPED PREFETCHES: 0
DTLB PREFETCHES SAME FILL-ORIGIN LEVEL: 0 DIFFERENT FILL-ORIGIN LEVEL: 0
DTLB AVERAGE MISS LATENCY: 33.3389 cycles
DTLB RQ	ACCESS:    8167086	FORWARD:          0	MERGED:    1906544	TO_CACHE:    6260542

STLB TOTAL     ACCESS:    5002510  HIT:    1026316  MISS:    3976194  HIT %:     20.516  MISS %:     79.484   MPKI: 79.5239
STLB LOAD TRANSLATION ACCESS:    4698941  HIT:     888202  MISS:    3810739  HIT %:    18.9022  MISS %:    81.0978   MPKI: 76.2148
STLB TRANSLATION FROM L1D PREFETCHER ACCESS:     303569  HIT:     138114  MISS:     165455  HIT %:    45.4967  MISS %:    54.5033   MPKI: 3.3091
STLB PREFETCH  REQUESTED:          0  ISSUED:          0  USEFUL:      52016  USELESS:     113438
STLB USEFUL LOAD PREFETCHES:      52016 PREFETCH ISSUED TO LOWER LEVEL:          0  ACCURACY: inf
STLB TIMELY PREFETCHES:      52016 LATE PREFETCHES: 0 DROPPED PREFETCHES: 0
STLB PREFETCHES SAME FILL-ORIGIN LEVEL: 0 DIFFERENT FILL-ORIGIN LEVEL: 0
STLB AVERAGE MISS LATENCY: 30.63 cycles
STLB RQ	ACCESS:    5036035	FORWARD:          0	MERGED:      30873	TO_CACHE:    5005162

STLB Hit, L1D data hit: 0
STLB Hit, L2C data hit: 0
STLB Hit, LLC data hit: 0
STLB Hit, LLC data miss: 0
STLB STLB hints to L2: 0
L1D TOTAL     ACCESS:    8422438  HIT:    7901739  MISS:     520699  HIT %:    93.8177  MISS %:    6.18228   MPKI: 10.414
L1D LOAD      ACCESS:    4751525  HIT:    4462426  MISS:     289099  HIT %:    93.9157  MISS %:    6.08434   MPKI: 5.78198
L1D RFO       ACCESS:    3344982  HIT:    3323229  MISS:      21753  HIT %:    99.3497  MISS %:   0.650317   MPKI: 0.43506
L1D PREFETCH  ACCESS:     325931  HIT:     116084  MISS:     209847  HIT %:    35.6161  MISS %:    64.3839   MPKI: 4.19694
L1D PREFETCH  REQUESTED:     674207  ISSUED:     674207  USEFUL:      30683  USELESS:     179189
L1D USEFUL LOAD PREFETCHES:      30683 PREFETCH ISSUED TO LOWER LEVEL:     214519  ACCURACY: 14.3032
L1D TIMELY PREFETCHES:      30683 LATE PREFETCHES: 2228 DROPPED PREFETCHES: 0
L1D PREFETCHES SAME FILL-ORIGIN LEVEL: 214519 DIFFERENT FILL-ORIGIN LEVEL: 0
L1D AVERAGE MISS LATENCY: 643893 cycles
L1D RQ	ACCESS:    6921088	FORWARD:          0	MERGED:    2119411	TO_CACHE:    4759837
L1D WQ	ACCESS:    3607749	FORWARD:      41853	MERGED:     200500	TO_CACHE:    3407249
L1D PQ	ACCESS:     337110	FORWARD:          0	MERGED:          0	TO_CACHE:     337097

L1D UNIQUE REGIONS ACCESSED: 0
L1D REGIONS CONFLICTS: 0
L1D Cross Page Prefetch Requests: 0
L1D Same Page Prefetch Requests: 712907
L1D ROI Sum of L1D PQ occupancy: 12233934
L1D PREFETCHES PUSHED FROM L2C: 0
L1I TOTAL     ACCESS:   11011597  HIT:   10881990  MISS:     129607  HIT %:     98.823  MISS %:      1.177   MPKI: 2.59214
L1I LOAD      ACCESS:   11011597  HIT:   10881990  MISS:     129607  HIT %:     98.823  MISS %:      1.177   MPKI: 2.59214
L1I PREFETCH  REQUESTED:          0  ISSUED:          0  USEFUL:          0  USELESS:          0
L1I USEFUL LOAD PREFETCHES:          0 PREFETCH ISSUED TO LOWER LEVEL:          0  ACCURACY: -nan
L1I TIMELY PREFETCHES:          0 LATE PREFETCHES: 0 DROPPED PREFETCHES: 0
L1I PREFETCHES SAME FILL-ORIGIN LEVEL: 0 DIFFERENT FILL-ORIGIN LEVEL: 0
L1I AVERAGE MISS LATENCY: 17.7494 cycles
L1I RQ	ACCESS:   20559466	FORWARD:          0	MERGED:    9506274	TO_CACHE:   11053192

BTB BRANCH_DIRECT_JUMP	ACCESS:          0  HIT:          0  MISS:          0
BTB BRANCH_INDIRECT	ACCESS:          0  HIT:          0  MISS:          0
BTB BRANCH_CONDITIONAL	ACCESS:          0  HIT:          0  MISS:          0
BTB BRANCH_DIRECT_CALL	ACCESS:          0  HIT:          0  MISS:          0
BTB BRANCH_INDIRECT_CALL	ACCESS:          0  HIT:          0  MISS:          0
BTB BRANCH_RETURN	ACCESS:          0  HIT:          0  MISS:          0
BTB BRANCH_OTHER ACCESS:          0  HIT:          0  MISS:          0

L2C TOTAL     ACCESS:    4837141  HIT:    4320935  MISS:     516206  HIT %:    89.3283  MISS %:    10.6717   MPKI: 10.3241
L2C LOAD      ACCESS:     416478  HIT:     169482  MISS:     246996  HIT %:    40.6941  MISS %:    59.3059   MPKI: 4.93992
L2C DATA LOAD MPKI: 4.88894
L2C INSTRUCTION LOAD MPKI: 0.05098
L2C RFO       ACCESS:      19309  HIT:       4179  MISS:      15130  HIT %:    21.6428  MISS %:    78.3572   MPKI: 0.3026
L2C PREFETCH  ACCESS:     244440  HIT:      31722  MISS:     212718  HIT %:    12.9774  MISS %:    87.0226   MPKI: 4.25436
L2C DATA PREFETCH MPKI: 4.25436
L2C INSTRUCTION PREFETCH MPKI: 0
L2C WRITEBACK ACCESS:     125639  HIT:     121953  MISS:       3686  HIT %:    97.0662  MISS %:     2.9338   MPKI: 0.07372
L2C LOAD TRANSLATION ACCESS:    3865026  HIT:    3827355  MISS:      37671  HIT %:    99.0253  MISS %:   0.974664   MPKI: 0.75342
L2C TRANSLATION FROM L1D PREFETCHER ACCESS:     166249  HIT:     166244  MISS:          5  HIT %:     99.997  MISS %: 0.00300754   MPKI: 0.0001
L2C PREFETCH  REQUESTED:      34462  ISSUED:      34462  USEFUL:       9292  USELESS:     203452
L2C USEFUL LOAD PREFETCHES:       9292 PREFETCH ISSUED TO LOWER LEVEL:     212972  ACCURACY: 4.36301
L2C TIMELY PREFETCHES:       9292 LATE PREFETCHES: 254 DROPPED PREFETCHES: 0
L2C PREFETCHES SAME FILL-ORIGIN LEVEL: 24828 DIFFERENT FILL-ORIGIN LEVEL: 0
L2C AVERAGE MISS LATENCY: 186.18 cycles
L2C RQ	ACCESS:    4467062	FORWARD:          0	MERGED:          0	TO_CACHE:    4467062
L2C WQ	ACCESS:     125639	FORWARD:          0	MERGED:          0	TO_CACHE:     125639
L2C PQ	ACCESS:     248981	FORWARD:          0	MERGED:        855	TO_CACHE:     248126

L2C Instructions Evicting Data 2401
L2C Translations Evicting Data 34509
L2C Data Evicting Data 435623
L2C Instructions Evicting Instructions 39
L2C Translations Evicting Instructions 91
L2C Data Evicting Instructions 2362
L2C Instructions Evicting Translations 109
L2C Translations Evicting Translations 3076
L2C Data Evicting Translations 34310
L2C Dense regions hint from L2: 0
PSCL5 TOTAL     ACCESS:    3976193  HIT:    3976193  MISS:          0  HIT %:        100  MISS %:          0   MPKI: 0
PSCL5 LOAD TRANSLATION ACCESS:    3810738  HIT:    3810738  MISS:          0  HIT %:        100  MISS %:          0   MPKI: 0
PSCL5 TRANSLATION FROM L1D PREFETCHER ACCESS:     165455  HIT:     165455  MISS:          0  HIT %:        100  MISS %:          0   MPKI: 0
PSCL5 PREFETCH  REQUESTED:          0  ISSUED:          0  USEFUL:          0  USELESS:          0
PSCL5 USEFUL LOAD PREFETCHES:          0 PREFETCH ISSUED TO LOWER LEVEL:          0  ACCURACY: -nan
PSCL5 TIMELY PREFETCHES:          0 LATE PREFETCHES: 0 DROPPED PREFETCHES: 0
PSCL5 PREFETCHES SAME FILL-ORIGIN LEVEL: 0 DIFFERENT FILL-ORIGIN LEVEL: 0

PSCL4 TOTAL     ACCESS:    1922237  HIT:    1922237  MISS:          0  HIT %:        100  MISS %:          0   MPKI: 0
PSCL4 LOAD TRANSLATION ACCESS:    1763725  HIT:    1763725  MISS:          0  HIT %:        100  MISS %:          0   MPKI: 0
PSCL4 TRANSLATION FROM L1D PREFETCHER ACCESS:     158512  HIT:     158512  MISS:          0  HIT %:        100  MISS %:          0   MPKI: 0
PSCL4 PREFETCH  REQUESTED:          0  ISSUED:          0  USEFUL:          0  USELESS:          0
PSCL4 USEFUL LOAD PREFETCHES:          0 PREFETCH ISSUED TO LOWER LEVEL:          0  ACCURACY: -nan
PSCL4 TIMELY PREFETCHES:          0 LATE PREFETCHES: 0 DROPPED PREFETCHES: 0
PSCL4 PREFETCHES SAME FILL-ORIGIN LEVEL: 0 DIFFERENT FILL-ORIGIN LEVEL: 0

PSCL3 TOTAL     ACCESS:    3975502  HIT:    3975433  MISS:         69  HIT %:    99.9983  MISS %: 0.00173563   MPKI: 0.00138
PSCL3 LOAD TRANSLATION ACCESS:    3810055  HIT:    3809986  MISS:         69  HIT %:    99.9982  MISS %:   0.001811   MPKI: 0.00138
PSCL3 TRANSLATION FROM L1D PREFETCHER ACCESS:     165447  HIT:     165447  MISS:          0  HIT %:        100  MISS %:          0   MPKI: 0
PSCL3 PREFETCH  REQUESTED:          0  ISSUED:          0  USEFUL:          0  USELESS:          0
PSCL3 USEFUL LOAD PREFETCHES:          0 PREFETCH ISSUED TO LOWER LEVEL:          0  ACCURACY: -nan
PSCL3 TIMELY PREFETCHES:          0 LATE PREFETCHES: 0 DROPPED PREFETCHES: 0
PSCL3 PREFETCHES SAME FILL-ORIGIN LEVEL: 0 DIFFERENT FILL-ORIGIN LEVEL: 0

PSCL2 TOTAL     ACCESS:    3976193  HIT:    3921180  MISS:      55013  HIT %:    98.6164  MISS %:    1.38356   MPKI: 1.10026
PSCL2 LOAD TRANSLATION ACCESS:    3811531  HIT:    3756518  MISS:      55013  HIT %:    98.5567  MISS %:    1.44333   MPKI: 1.10026
PSCL2 TRANSLATION FROM L1D PREFETCHER ACCESS:     164662  HIT:     164662  MISS:          0  HIT %:        100  MISS %:          0   MPKI: 0
PSCL2 PREFETCH  REQUESTED:          0  ISSUED:          0  USEFUL:          0  USELESS:          0
PSCL2 USEFUL LOAD PREFETCHES:          0 PREFETCH ISSUED TO LOWER LEVEL:          0  ACCURACY: -nan
PSCL2 TIMELY PREFETCHES:          0 LATE PREFETCHES: 0 DROPPED PREFETCHES: 0
PSCL2 PREFETCHES SAME FILL-ORIGIN LEVEL: 0 DIFFERENT FILL-ORIGIN LEVEL: 0

LLC TOTAL     ACCESS:     619435  HIT:     148248  MISS:     471187  HIT %:    23.9328  MISS %:    76.0672   MPKI: 9.42374
LLC LOAD      ACCESS:     246750  HIT:      24442  MISS:     222308  HIT %:    9.90557  MISS %:    90.0944   MPKI: 4.44616
LLC RFO       ACCESS:      15122  HIT:       1466  MISS:      13656  HIT %:    9.69448  MISS %:    90.3055   MPKI: 0.27312
LLC PREFETCH  ACCESS:     212972  HIT:      13324  MISS:     199648  HIT %:    6.25622  MISS %:    93.7438   MPKI: 3.99296
LLC WRITEBACK ACCESS:     106915  HIT:     104241  MISS:       2674  HIT %:    97.4989  MISS %:    2.50105   MPKI: 0.05348
LLC LOAD TRANSLATION ACCESS:      37671  HIT:       4773  MISS:      32898  HIT %:    12.6702  MISS %:    87.3298   MPKI: 0.65796
LLC TRANSLATION FROM L1D PREFETCHER ACCESS:          5  HIT:          2  MISS:          3  HIT %:         40  MISS %:         60   MPKI: 6e-05
LLC PREFETCH  REQUESTED:          0  ISSUED:          0  USEFUL:       4721  USELESS:     195464
LLC USEFUL LOAD PREFETCHES:       4721 PREFETCH ISSUED TO LOWER LEVEL:     199648  ACCURACY: 2.36466
LLC TIMELY PREFETCHES:       4721 LATE PREFETCHES: 0 DROPPED PREFETCHES: 0
LLC PREFETCHES SAME FILL-ORIGIN LEVEL: 0 DIFFERENT FILL-ORIGIN LEVEL: 0
LLC AVERAGE MISS LATENCY: 171.383 cycles
LLC RQ	ACCESS:     299548	FORWARD:          0	MERGED:          0	TO_CACHE:     299548
LLC WQ	ACCESS:     106915	FORWARD:          0	MERGED:          0	TO_CACHE:     106915
LLC PQ	ACCESS:     212972	FORWARD:          0	MERGED:          0	TO_CACHE:     212972

LLC Dense regions hint to LLC: 0

RAW hits: 758508
Loads Generated: 7679597
Loads sent to L1D: 6921088
Stores Generated: 3607749
Stores sent to L1D: 3607749
Major fault: 0 Minor fault: 72903
Allocated PAGES: 72903

stream: 
stream:times selected: 956854
stream:pref_filled: 380477
stream:pref_useful: 51375
stream:pref_late: 1837
stream:misses: 83148
stream:misses_by_poll: 0

CS: 
CS:times selected: 13243
CS:pref_filled: 8188
CS:pref_useful: 5632
CS:pref_late: 1024
CS:misses: 1985
CS:misses_by_poll: 6

CPLX: 
CPLX:times selected: 933537
CPLX:pref_filled: 35033
CPLX:pref_useful: 4436
CPLX:pref_late: 152
CPLX:misses: 290608
CPLX:misses_by_poll: 35

NL_L1: 
NL:times selected: 8877
NL:pref_filled: 4409
NL:pref_useful: 616
NL:pref_late: 27
NL:misses: 4311
NL:misses_by_poll: 0

total selections: 1912511
total_filled: 209847
total_useful: 30683
total_late: 3181
total_polluted: 41
total_misses_after_warmup: 238406
conflicts: 133149
Degree Incremented Times: 0
Degree Decremented Times: 102268

L1 IP Table Write Accesses: 1243962
L1 IP Table Read Accesses: 1110813
L1 RST Write Accesses: 475009
L1 RST Read Accesses: 950018
L1 CSPT Write Accesses: 475009
L1 CSPT Read Accesses: 939271
L1 RR Filter Tag Write Accesses: 337110
L1 RR Filter Tag Read Accesses: 14433223
L1 IP Table Tag Write Accesses: 1469107
L1 IP Table Tag Read Accesses: 1469107
L1 RST Tag Write Accesses: 0
L1 RST Tag Read Accesses: 4184631
L1 RR Filter Write Accesses: 0
L1 RR Filter Read Accesses: 519531
test: 564918
L2 IP Table Read Accesses: 836956
L2 IP Table Write Accesses: 649558
L2 IP Table Tag Read Accesses: 435885
L2 IP Table Tag Write Accesses: 435885

DRAM Statistics
 CHANNEL 0
 RQ ROW_BUFFER_HIT:      68911  ROW_BUFFER_MISS:     399577
 DBUS_CONGESTED:        459
 WQ ROW_BUFFER_HIT:      33556  ROW_BUFFER_MISS:      63109  FULL:          0

 AVG_CONGESTED_CYCLE: 5
 All warmup complete: 2
Channel 0 Bank busy for read cycles: 0
Channel 0 Bank busy for write cycles: 0
Channel 0
Rank 0
0banks busy for read cycles: 65366491
0banks busy for write cycles: 28810
1banks busy for read cycles: 13921240
1banks busy for write cycles: 4250927
2banks busy for read cycles: 9880637
2banks busy for write cycles: 1884167
3banks busy for read cycles: 4266886
3banks busy for write cycles: 1030309
4banks busy for read cycles: 2287023
4banks busy for write cycles: 698803
5banks busy for read cycles: 879918
5banks busy for write cycles: 521602
6banks busy for read cycles: 376555
6banks busy for write cycles: 501575
7banks busy for read cycles: 114671
7banks busy for write cycles: 864123
8banks busy for read cycles: 39428
8banks busy for write cycles: 1703485

CPU 0 Branch Prediction Accuracy: 99.4972% MPKI: 1.03356 Average ROB Occupancy at Mispredict: 121.651
Branch types
NOT_BRANCH: 0 0%
BRANCH_DIRECT_JUMP: 0 0%
BRANCH_INDIRECT: 0 0%
BRANCH_CONDITIONAL: 0 0%
BRANCH_DIRECT_CALL: 0 0%
BRANCH_INDIRECT_CALL: 0 0%
BRANCH_RETURN: 0 0%
BRANCH_OTHER: 0 0%

DRAM PAGES: 1048576
Allocated PAGES: 72903
