
*** ChampSim Multicore Out-of-Order Simulator ***

Warmup Instructions: 50000000
Simulation Instructions: 50000000
Number of CPUs: 1
LLC sets: 2048
LLC ways: 16
Off-chip DRAM Size: 4096 MB Channels: 1 Width: 64-bit Data Rate: 6400 MT/s
CPU 0 runs ../cloudsuite_traces//cloud9_phase5_core2.trace.gz
.gz
BTB has LRU replacement policy
ITLB has LRU replacement policy
DTLB has LRU replacement policy
STLB has LRU replacement policy
L1I has LRU replacement policy
L1D has LRU replacement policy
Bingo PHT WAYS: 16 and PHT_SIZE: 16384
Initialize SRRIP state for L2C
Initialize DRRIP state for LLC
UNIQUE_ASID[0] = €
UNIQUE_ASID[1] = 
Heartbeat CPU 0 instructions: 10000000 cycles: 3410534 heartbeat IPC: 2.93209 cumulative IPC: 2.93209 (Simulation time: 0 hr 2 min 19 sec) 
Heartbeat CPU 0 instructions: 20000001 cycles: 6820596 heartbeat IPC: 2.9325 cumulative IPC: 2.9323 (Simulation time: 0 hr 4 min 32 sec) 
Heartbeat CPU 0 instructions: 30000001 cycles: 10041153 heartbeat IPC: 3.10505 cumulative IPC: 2.9877 (Simulation time: 0 hr 7 min 27 sec) 
Heartbeat CPU 0 instructions: 40000002 cycles: 13453418 heartbeat IPC: 2.9306 cumulative IPC: 2.97322 (Simulation time: 0 hr 9 min 35 sec) 
Heartbeat CPU 0 instructions: 50000001 cycles: 16845153 heartbeat IPC: 2.94834 cumulative IPC: 2.96821 (Simulation time: 0 hr 11 min 38 sec) 

Warmup complete CPU 0 instructions: 50000001 cycles: 16845153 (Simulation time: 0 hr 11 min 38 sec) 

Heartbeat CPU 0 instructions: 60000001 cycles: 34816575 heartbeat IPC: 0.556439 cumulative IPC: 0.556439 (Simulation time: 0 hr 15 min 26 sec) 
Heartbeat CPU 0 instructions: 70000002 cycles: 55974906 heartbeat IPC: 0.472627 cumulative IPC: 0.51112 (Simulation time: 0 hr 19 min 19 sec) 
Heartbeat CPU 0 instructions: 80000001 cycles: 86610096 heartbeat IPC: 0.326422 cumulative IPC: 0.430015 (Simulation time: 0 hr 23 min 28 sec) 
Heartbeat CPU 0 instructions: 90000000 cycles: 104436167 heartbeat IPC: 0.560976 cumulative IPC: 0.456668 (Simulation time: 0 hr 26 min 11 sec) 
Heartbeat CPU 0 instructions: 100000001 cycles: 124526259 heartbeat IPC: 0.497758 cumulative IPC: 0.464334 (Simulation time: 0 hr 27 min 46 sec) 
Finished CPU 0 instructions: 50000000 cycles: 107681106 cumulative IPC: 0.464334 (Simulation time: 0 hr 27 min 46 sec) 

ChampSim completed all CPUs

Region of Interest Statistics

CPU 0 cumulative IPC: 0.464334 instructions: 50000000 cycles: 107681106

CPU 0 Average Load ROB stall cycles: 2.63677e+07
CPU 0 Fraction of times ROB stalled by Loads: 37.2663
CPU 0 Percentage of Load stall cycles in Total stall cycles: 1.56605e+08
Issued all: 35950105
Issued LT all: 30327936
rob_not_full_when_issued_lt_all: 22041843
Issued LT one: 25033933
rob_not_full_when_issued_lt_one: 17071679
 Total stall cycles: 94061513
 Total load stall cycles: 147304743253971
Unique Load IPs: 2722
CPU 0 NUM of IPS identified critical: 145
CPU 0 Num of Load IPs stalling ROB: 0
Threshold modification factor: 0
Trouble in retire width: -nan
MaC = Marked as critical.
lt_50_percent_before_Mac: 80
gt_90_percent_before_Mac: 9
gt_75_percent_before_Mac: 17
gt_50_percent_before_Mac: 34
stall_proportion_bin_same_before_after: 0
stall_proportion_bin_lower_before_after: 0
stall_proportion_bin_upper_before_after: 0
average_stall_proportion_before: 0.0331216
average_stall_proportion_after: 0.0325541
Critical_IP_Detector_Accuracy_70: 0.00689655
Critical_IP_Detector_Accuracy_80: 0.00689655
Critical_IP_Detector_Accuracy_90: 0.00689655
Critical_IP_Detector_Coverage_70: 1
Critical_IP_Detector_Coverage_80: 1
Critical_IP_Detector_Coverage_90: 1
stat_90_percent_critical_ip_stalls_freq: 120011
stat_90_percent_non_critical_ip_stalls_freq: 18446744073709431605
AVERAGE_ROB_Occupancy_90_Percent_Critical_IP_Stalls: 126.547
AVERAGE_ROB_Occupancy_90_Percent_Non_Critical_IP_Stalls: 1.02845e-11
Critical_IP_ROB_Stalls_Bucket_0: 236524
Non-critical_IP_ROB_Stalls_Bucket_0: 462447
Critical_IP_ROB_Stalls_Bucket_1: 465855
Non-critical_IP_ROB_Stalls_Bucket_1: 222362
Critical_IP_ROB_Stalls_Bucket_2: 219864
Non-critical_IP_ROB_Stalls_Bucket_2: 84932
Critical_IP_ROB_Stalls_Bucket_3: 87652
Non-critical_IP_ROB_Stalls_Bucket_3: 32064
Critical_IP_ROB_Stalls_Bucket_4: 59691
Non-critical_IP_ROB_Stalls_Bucket_4: 24764
Critical_IP_ROB_Stalls_Bucket_5: 46109
Non-critical_IP_ROB_Stalls_Bucket_5: 27421
Critical_IP_ROB_Stalls_Bucket_6: 73067
Non-critical_IP_ROB_Stalls_Bucket_6: 39151
0 => IPs accounting for >50 percent of stalls, 1 => 55, 2 => 60, 3 => 65 and so on till 90.
percent50: inf num IPs:  1
percent55: inf num IPs: 1
percent60: inf num IPs: 1
percent65: inf num IPs: 1
percent70: inf num IPs: 1
percent75: inf num IPs: 1
percent80: inf num IPs: 1
percent85: inf num IPs: 1
percent90: inf num IPs: 1
Critical_ROB_Stalls_Percent_0_Bucket_0: 2011
Non-critical_ROB_Stalls_Percent_0_Bucket_0: 696960
Critical_ROB_Stalls_Percent_0_Bucket_1: 29040
Non-critical_ROB_Stalls_Percent_0_Bucket_1: 659177
Critical_ROB_Stalls_Percent_0_Bucket_2: 65870
Non-critical_ROB_Stalls_Percent_0_Bucket_2: 238926
Critical_ROB_Stalls_Percent_0_Bucket_3: 9125
Non-critical_ROB_Stalls_Percent_0_Bucket_3: 110591
Critical_ROB_Stalls_Percent_0_Bucket_4: 6433
Non-critical_ROB_Stalls_Percent_0_Bucket_4: 78022
Critical_ROB_Stalls_Percent_0_Bucket_5: 3981
Non-critical_ROB_Stalls_Percent_0_Bucket_5: 69549
Critical_ROB_Stalls_Percent_0_Bucket_6: 3551
Non-critical_ROB_Stalls_Percent_0_Bucket_6: 108667
Critical_ROB_Stalls_Percent_1_Bucket_0: 2011
Non-critical_ROB_Stalls_Percent_1_Bucket_0: 696960
Critical_ROB_Stalls_Percent_1_Bucket_1: 29040
Non-critical_ROB_Stalls_Percent_1_Bucket_1: 659177
Critical_ROB_Stalls_Percent_1_Bucket_2: 65870
Non-critical_ROB_Stalls_Percent_1_Bucket_2: 238926
Critical_ROB_Stalls_Percent_1_Bucket_3: 9125
Non-critical_ROB_Stalls_Percent_1_Bucket_3: 110591
Critical_ROB_Stalls_Percent_1_Bucket_4: 6433
Non-critical_ROB_Stalls_Percent_1_Bucket_4: 78022
Critical_ROB_Stalls_Percent_1_Bucket_5: 3981
Non-critical_ROB_Stalls_Percent_1_Bucket_5: 69549
Critical_ROB_Stalls_Percent_1_Bucket_6: 3551
Non-critical_ROB_Stalls_Percent_1_Bucket_6: 108667
Critical_ROB_Stalls_Percent_2_Bucket_0: 2011
Non-critical_ROB_Stalls_Percent_2_Bucket_0: 696960
Critical_ROB_Stalls_Percent_2_Bucket_1: 29040
Non-critical_ROB_Stalls_Percent_2_Bucket_1: 659177
Critical_ROB_Stalls_Percent_2_Bucket_2: 65870
Non-critical_ROB_Stalls_Percent_2_Bucket_2: 238926
Critical_ROB_Stalls_Percent_2_Bucket_3: 9125
Non-critical_ROB_Stalls_Percent_2_Bucket_3: 110591
Critical_ROB_Stalls_Percent_2_Bucket_4: 6433
Non-critical_ROB_Stalls_Percent_2_Bucket_4: 78022
Critical_ROB_Stalls_Percent_2_Bucket_5: 3981
Non-critical_ROB_Stalls_Percent_2_Bucket_5: 69549
Critical_ROB_Stalls_Percent_2_Bucket_6: 3551
Non-critical_ROB_Stalls_Percent_2_Bucket_6: 108667
Critical_ROB_Stalls_Percent_3_Bucket_0: 2011
Non-critical_ROB_Stalls_Percent_3_Bucket_0: 696960
Critical_ROB_Stalls_Percent_3_Bucket_1: 29040
Non-critical_ROB_Stalls_Percent_3_Bucket_1: 659177
Critical_ROB_Stalls_Percent_3_Bucket_2: 65870
Non-critical_ROB_Stalls_Percent_3_Bucket_2: 238926
Critical_ROB_Stalls_Percent_3_Bucket_3: 9125
Non-critical_ROB_Stalls_Percent_3_Bucket_3: 110591
Critical_ROB_Stalls_Percent_3_Bucket_4: 6433
Non-critical_ROB_Stalls_Percent_3_Bucket_4: 78022
Critical_ROB_Stalls_Percent_3_Bucket_5: 3981
Non-critical_ROB_Stalls_Percent_3_Bucket_5: 69549
Critical_ROB_Stalls_Percent_3_Bucket_6: 3551
Non-critical_ROB_Stalls_Percent_3_Bucket_6: 108667
Critical_ROB_Stalls_Percent_4_Bucket_0: 2011
Non-critical_ROB_Stalls_Percent_4_Bucket_0: 696960
Critical_ROB_Stalls_Percent_4_Bucket_1: 29040
Non-critical_ROB_Stalls_Percent_4_Bucket_1: 659177
Critical_ROB_Stalls_Percent_4_Bucket_2: 65870
Non-critical_ROB_Stalls_Percent_4_Bucket_2: 238926
Critical_ROB_Stalls_Percent_4_Bucket_3: 9125
Non-critical_ROB_Stalls_Percent_4_Bucket_3: 110591
Critical_ROB_Stalls_Percent_4_Bucket_4: 6433
Non-critical_ROB_Stalls_Percent_4_Bucket_4: 78022
Critical_ROB_Stalls_Percent_4_Bucket_5: 3981
Non-critical_ROB_Stalls_Percent_4_Bucket_5: 69549
Critical_ROB_Stalls_Percent_4_Bucket_6: 3551
Non-critical_ROB_Stalls_Percent_4_Bucket_6: 108667
Critical_ROB_Stalls_Percent_5_Bucket_0: 2011
Non-critical_ROB_Stalls_Percent_5_Bucket_0: 696960
Critical_ROB_Stalls_Percent_5_Bucket_1: 29040
Non-critical_ROB_Stalls_Percent_5_Bucket_1: 659177
Critical_ROB_Stalls_Percent_5_Bucket_2: 65870
Non-critical_ROB_Stalls_Percent_5_Bucket_2: 238926
Critical_ROB_Stalls_Percent_5_Bucket_3: 9125
Non-critical_ROB_Stalls_Percent_5_Bucket_3: 110591
Critical_ROB_Stalls_Percent_5_Bucket_4: 6433
Non-critical_ROB_Stalls_Percent_5_Bucket_4: 78022
Critical_ROB_Stalls_Percent_5_Bucket_5: 3981
Non-critical_ROB_Stalls_Percent_5_Bucket_5: 69549
Critical_ROB_Stalls_Percent_5_Bucket_6: 3551
Non-critical_ROB_Stalls_Percent_5_Bucket_6: 108667
Critical_ROB_Stalls_Percent_6_Bucket_0: 2011
Non-critical_ROB_Stalls_Percent_6_Bucket_0: 696960
Critical_ROB_Stalls_Percent_6_Bucket_1: 29040
Non-critical_ROB_Stalls_Percent_6_Bucket_1: 659177
Critical_ROB_Stalls_Percent_6_Bucket_2: 65870
Non-critical_ROB_Stalls_Percent_6_Bucket_2: 238926
Critical_ROB_Stalls_Percent_6_Bucket_3: 9125
Non-critical_ROB_Stalls_Percent_6_Bucket_3: 110591
Critical_ROB_Stalls_Percent_6_Bucket_4: 6433
Non-critical_ROB_Stalls_Percent_6_Bucket_4: 78022
Critical_ROB_Stalls_Percent_6_Bucket_5: 3981
Non-critical_ROB_Stalls_Percent_6_Bucket_5: 69549
Critical_ROB_Stalls_Percent_6_Bucket_6: 3551
Non-critical_ROB_Stalls_Percent_6_Bucket_6: 108667
Critical_ROB_Stalls_Percent_7_Bucket_0: 2011
Non-critical_ROB_Stalls_Percent_7_Bucket_0: 696960
Critical_ROB_Stalls_Percent_7_Bucket_1: 29040
Non-critical_ROB_Stalls_Percent_7_Bucket_1: 659177
Critical_ROB_Stalls_Percent_7_Bucket_2: 65870
Non-critical_ROB_Stalls_Percent_7_Bucket_2: 238926
Critical_ROB_Stalls_Percent_7_Bucket_3: 9125
Non-critical_ROB_Stalls_Percent_7_Bucket_3: 110591
Critical_ROB_Stalls_Percent_7_Bucket_4: 6433
Non-critical_ROB_Stalls_Percent_7_Bucket_4: 78022
Critical_ROB_Stalls_Percent_7_Bucket_5: 3981
Non-critical_ROB_Stalls_Percent_7_Bucket_5: 69549
Critical_ROB_Stalls_Percent_7_Bucket_6: 3551
Non-critical_ROB_Stalls_Percent_7_Bucket_6: 108667
Critical_ROB_Stalls_Percent_8_Bucket_0: 2011
Non-critical_ROB_Stalls_Percent_8_Bucket_0: 696960
Critical_ROB_Stalls_Percent_8_Bucket_1: 29040
Non-critical_ROB_Stalls_Percent_8_Bucket_1: 659177
Critical_ROB_Stalls_Percent_8_Bucket_2: 65870
Non-critical_ROB_Stalls_Percent_8_Bucket_2: 238926
Critical_ROB_Stalls_Percent_8_Bucket_3: 9125
Non-critical_ROB_Stalls_Percent_8_Bucket_3: 110591
Critical_ROB_Stalls_Percent_8_Bucket_4: 6433
Non-critical_ROB_Stalls_Percent_8_Bucket_4: 78022
Critical_ROB_Stalls_Percent_8_Bucket_5: 3981
Non-critical_ROB_Stalls_Percent_8_Bucket_5: 69549
Critical_ROB_Stalls_Percent_8_Bucket_6: 3551
Non-critical_ROB_Stalls_Percent_8_Bucket_6: 108667
Average ROB occupancy Load Stall Begin: 80.8721
Average ROB occupancy Load Stall End: 98.4207
Min ROB occupancy Load Stall Begin: 1
Max ROB occupancy Load Stall Begin: 352
Min ROB occupancy Load Stall End: 1
Max ROB occupancy Load Stall End: 352
Average ROB occupancy Critical Load Stall Begin: 97.9846
Average ROB occupancy Critical Load Stall End: 115.92
Min ROB occupancy Critical Load Stall Begin: 1
Max ROB occupancy Critical Load Stall Begin: 352
Min ROB occupancy Critical Load Stall End: 1
Max ROB occupancy Critical Load Stall End: 352
 ROB Load Stall Begin Bucket Count 0: 934470
 ROB Load Stall End Bucket Count 0: 698971
 ROB Critical Load Stall Begin Bucket Count 0: 206528
 ROB Critical Load Stall End Bucket Count 0: 121354
 ROB Load Stall Begin Bucket Count 1: 593739
 ROB Load Stall End Bucket Count 1: 688217
 ROB Critical Load Stall Begin Bucket Count 1: 209173
 ROB Critical Load Stall End Bucket Count 1: 246132
 ROB Load Stall Begin Bucket Count 2: 231819
 ROB Load Stall End Bucket Count 2: 304796
 ROB Critical Load Stall Begin Bucket Count 2: 101833
 ROB Critical Load Stall End Bucket Count 2: 129039
 ROB Load Stall Begin Bucket Count 3: 105694
 ROB Load Stall End Bucket Count 3: 119716
 ROB Critical Load Stall Begin Bucket Count 3: 45548
 ROB Critical Load Stall End Bucket Count 3: 50352
 ROB Load Stall Begin Bucket Count 4: 74503
 ROB Load Stall End Bucket Count 4: 84455
 ROB Critical Load Stall Begin Bucket Count 4: 32153
 ROB Critical Load Stall End Bucket Count 4: 35420
 ROB Load Stall Begin Bucket Count 5: 64854
 ROB Load Stall End Bucket Count 5: 73530
 ROB Critical Load Stall Begin Bucket Count 5: 25713
 ROB Critical Load Stall End Bucket Count 5: 26628
 ROB Load Stall Begin Bucket Count 6: 76824
 ROB Load Stall End Bucket Count 6: 112218
 ROB Critical Load Stall Begin Bucket Count 6: 29218
 ROB Critical Load Stall End Bucket Count 6: 41263
PIST Tag Read Accesses: 0
PIST Read Accesses: 0
PIST Tag Write Accesses: 0
PIST Write Accesses: 0
Criticality detector called times: 0
Max global_stall_cycles_count: 0
Threshold Modified: 0 times, factor: 0
Sturdy critical IP cache stats: 
 Unused entries: 0
CIC Tag Read Accesses: 0
CIC Read Accesses: 0
CIC Tag Write Accesses: 0
CIC Write Accesses: 0
Wobbly critical IP cache stats: 
 Unused entries: 0
CIC Tag Read Accesses: 92807590
CIC Read Accesses: 0
CIC Tag Write Accesses: 5711677
CIC Write Accesses: 0
ITLB TOTAL     ACCESS:    8700952  HIT:    6418835  MISS:    2282117  HIT %:    73.7716  MISS %:    26.2284   MPKI: 45.6423
ITLB LOAD TRANSLATION ACCESS:    8700952  HIT:    6418835  MISS:    2282117  HIT %:    73.7716  MISS %:    26.2284   MPKI: 45.6423
ITLB PREFETCH  REQUESTED:          0  ISSUED:          0  USEFUL:          0  USELESS:          0
ITLB USEFUL LOAD PREFETCHES:          0 PREFETCH ISSUED TO LOWER LEVEL:          0  ACCURACY: -nan
ITLB TIMELY PREFETCHES:          0 LATE PREFETCHES: 0 DROPPED PREFETCHES: 0
ITLB PREFETCHES SAME FILL-ORIGIN LEVEL: 0 DIFFERENT FILL-ORIGIN LEVEL: 0
ITLB AVERAGE MISS LATENCY: 33.4987 cycles
ITLB RQ	ACCESS:   11057271	FORWARD:          0	MERGED:    1512869	TO_CACHE:    9544402

DTLB TOTAL     ACCESS:    5927760  HIT:    3499852  MISS:    2427908  HIT %:    59.0417  MISS %:    40.9583   MPKI: 48.5582
DTLB LOAD TRANSLATION ACCESS:    5927760  HIT:    3499852  MISS:    2427908  HIT %:    59.0417  MISS %:    40.9583   MPKI: 48.5582
DTLB PREFETCH  REQUESTED:          0  ISSUED:          0  USEFUL:          0  USELESS:          0
DTLB USEFUL LOAD PREFETCHES:          0 PREFETCH ISSUED TO LOWER LEVEL:          0  ACCURACY: -nan
DTLB TIMELY PREFETCHES:          0 LATE PREFETCHES: 0 DROPPED PREFETCHES: 0
DTLB PREFETCHES SAME FILL-ORIGIN LEVEL: 0 DIFFERENT FILL-ORIGIN LEVEL: 0
DTLB AVERAGE MISS LATENCY: 32.9643 cycles
DTLB RQ	ACCESS:    8142003	FORWARD:          0	MERGED:    1903785	TO_CACHE:    6238218

STLB TOTAL     ACCESS:    4710025  HIT:     905348  MISS:    3804677  HIT %:    19.2217  MISS %:    80.7783   MPKI: 76.0935
STLB LOAD TRANSLATION ACCESS:    4710025  HIT:     905348  MISS:    3804677  HIT %:    19.2217  MISS %:    80.7783   MPKI: 76.0935
STLB PREFETCH  REQUESTED:          0  ISSUED:          0  USEFUL:          0  USELESS:          0
STLB USEFUL LOAD PREFETCHES:          0 PREFETCH ISSUED TO LOWER LEVEL:          0  ACCURACY: -nan
STLB TIMELY PREFETCHES:          0 LATE PREFETCHES: 0 DROPPED PREFETCHES: 0
STLB PREFETCHES SAME FILL-ORIGIN LEVEL: 0 DIFFERENT FILL-ORIGIN LEVEL: 0
STLB AVERAGE MISS LATENCY: 29.9056 cycles
STLB RQ	ACCESS:    4710022	FORWARD:          0	MERGED:          0	TO_CACHE:    4710022

STLB Hit, L1D data hit: 0
STLB Hit, L2C data hit: 0
STLB Hit, LLC data hit: 0
STLB Hit, LLC data miss: 0
STLB STLB hints to L2: 0
L1D TOTAL     ACCESS:    8057024  HIT:    7720730  MISS:     336294  HIT %:    95.8261  MISS %:    4.17392   MPKI: 6.72588
L1D LOAD      ACCESS:    4726922  HIT:    4418069  MISS:     308853  HIT %:    93.4661  MISS %:    6.53391   MPKI: 6.17706
L1D RFO       ACCESS:    3330102  HIT:    3302661  MISS:      27441  HIT %:     99.176  MISS %:   0.824029   MPKI: 0.54882
L1D PREFETCH  REQUESTED:          0  ISSUED:          0  USEFUL:          0  USELESS:          0
L1D USEFUL LOAD PREFETCHES:          0 PREFETCH ISSUED TO LOWER LEVEL:          0  ACCURACY: -nan
L1D TIMELY PREFETCHES:          0 LATE PREFETCHES: 0 DROPPED PREFETCHES: 0
L1D PREFETCHES SAME FILL-ORIGIN LEVEL: 0 DIFFERENT FILL-ORIGIN LEVEL: 0
L1D AVERAGE MISS LATENCY: 161.242 cycles
L1D RQ	ACCESS:    6916183	FORWARD:          0	MERGED:    2135814	TO_CACHE:    4737401
L1D WQ	ACCESS:    3607749	FORWARD:      42968	MERGED:     203147	TO_CACHE:    3404602

L1D UNIQUE REGIONS ACCESSED: 0
L1D REGIONS CONFLICTS: 0
L1D Cross Page Prefetch Requests: 0
L1D Same Page Prefetch Requests: 0
L1D ROI Sum of L1D PQ occupancy: 0
L1D PREFETCHES PUSHED FROM L2C: 0
L1I TOTAL     ACCESS:   11015664  HIT:   10886057  MISS:     129607  HIT %:    98.8234  MISS %:    1.17657   MPKI: 2.59214
L1I LOAD      ACCESS:   11015664  HIT:   10886057  MISS:     129607  HIT %:    98.8234  MISS %:    1.17657   MPKI: 2.59214
L1I PREFETCH  REQUESTED:          0  ISSUED:          0  USEFUL:          0  USELESS:          0
L1I USEFUL LOAD PREFETCHES:          0 PREFETCH ISSUED TO LOWER LEVEL:          0  ACCURACY: -nan
L1I TIMELY PREFETCHES:          0 LATE PREFETCHES: 0 DROPPED PREFETCHES: 0
L1I PREFETCHES SAME FILL-ORIGIN LEVEL: 0 DIFFERENT FILL-ORIGIN LEVEL: 0
L1I AVERAGE MISS LATENCY: 17.7324 cycles
L1I RQ	ACCESS:   20568062	FORWARD:          0	MERGED:    9510791	TO_CACHE:   11057271

BTB BRANCH_DIRECT_JUMP	ACCESS:          0  HIT:          0  MISS:          0
BTB BRANCH_INDIRECT	ACCESS:          0  HIT:          0  MISS:          0
BTB BRANCH_CONDITIONAL	ACCESS:          0  HIT:          0  MISS:          0
BTB BRANCH_DIRECT_CALL	ACCESS:          0  HIT:          0  MISS:          0
BTB BRANCH_INDIRECT_CALL	ACCESS:          0  HIT:          0  MISS:          0
BTB BRANCH_RETURN	ACCESS:          0  HIT:          0  MISS:          0
BTB BRANCH_OTHER ACCESS:          0  HIT:          0  MISS:          0

L2C TOTAL     ACCESS:    4625804  HIT:    4147634  MISS:     478170  HIT %:     89.663  MISS %:     10.337   MPKI: 9.5634
L2C LOAD      ACCESS:     438459  HIT:     180588  MISS:     257871  HIT %:     41.187  MISS %:     58.813   MPKI: 5.15742
L2C DATA LOAD MPKI: 5.1066
L2C INSTRUCTION LOAD MPKI: 0.05082
L2C RFO       ACCESS:      27441  HIT:       3305  MISS:      24136  HIT %:     12.044  MISS %:     87.956   MPKI: 0.48272
L2C PREFETCH  ACCESS:     179049  HIT:      26496  MISS:     152553  HIT %:    14.7982  MISS %:    85.2018   MPKI: 3.05106
L2C DATA PREFETCH MPKI: 3.05106
L2C INSTRUCTION PREFETCH MPKI: 0
L2C WRITEBACK ACCESS:     122169  HIT:     116623  MISS:       5546  HIT %:    95.4604  MISS %:    4.53961   MPKI: 0.11092
L2C LOAD TRANSLATION ACCESS:    3858686  HIT:    3820622  MISS:      38064  HIT %:    99.0136  MISS %:    0.98645   MPKI: 0.76128
L2C PREFETCH  REQUESTED:     181711  ISSUED:     181711  USEFUL:      22005  USELESS:     131679
L2C USEFUL LOAD PREFETCHES:      22005 PREFETCH ISSUED TO LOWER LEVEL:     153483  ACCURACY: 14.3371
L2C TIMELY PREFETCHES:      22005 LATE PREFETCHES: 930 DROPPED PREFETCHES: 0
L2C PREFETCHES SAME FILL-ORIGIN LEVEL: 153483 DIFFERENT FILL-ORIGIN LEVEL: 0
L2C AVERAGE MISS LATENCY: 176.867 cycles
L2C RQ	ACCESS:    4324587	FORWARD:          0	MERGED:          0	TO_CACHE:    4324586
L2C WQ	ACCESS:     122169	FORWARD:          2	MERGED:          0	TO_CACHE:     122169
L2C PQ	ACCESS:     181711	FORWARD:          0	MERGED:          0	TO_CACHE:     181710

L2C Instructions Evicting Data 2364
L2C Translations Evicting Data 34074
L2C Data Evicting Data 395986
L2C Instructions Evicting Instructions 38
L2C Translations Evicting Instructions 106
L2C Data Evicting Instructions 2306
L2C Instructions Evicting Translations 139
L2C Translations Evicting Translations 3884
L2C Data Evicting Translations 33727
L2C Dense regions hint from L2: 0
PSCL5 TOTAL     ACCESS:    3804676  HIT:    3804676  MISS:          0  HIT %:        100  MISS %:          0   MPKI: 0
PSCL5 LOAD TRANSLATION ACCESS:    3804676  HIT:    3804676  MISS:          0  HIT %:        100  MISS %:          0   MPKI: 0
PSCL5 PREFETCH  REQUESTED:          0  ISSUED:          0  USEFUL:          0  USELESS:          0
PSCL5 USEFUL LOAD PREFETCHES:          0 PREFETCH ISSUED TO LOWER LEVEL:          0  ACCURACY: -nan
PSCL5 TIMELY PREFETCHES:          0 LATE PREFETCHES: 0 DROPPED PREFETCHES: 0
PSCL5 PREFETCHES SAME FILL-ORIGIN LEVEL: 0 DIFFERENT FILL-ORIGIN LEVEL: 0

PSCL4 TOTAL     ACCESS:    1762753  HIT:    1762753  MISS:          0  HIT %:        100  MISS %:          0   MPKI: 0
PSCL4 LOAD TRANSLATION ACCESS:    1762753  HIT:    1762753  MISS:          0  HIT %:        100  MISS %:          0   MPKI: 0
PSCL4 PREFETCH  REQUESTED:          0  ISSUED:          0  USEFUL:          0  USELESS:          0
PSCL4 USEFUL LOAD PREFETCHES:          0 PREFETCH ISSUED TO LOWER LEVEL:          0  ACCURACY: -nan
PSCL4 TIMELY PREFETCHES:          0 LATE PREFETCHES: 0 DROPPED PREFETCHES: 0
PSCL4 PREFETCHES SAME FILL-ORIGIN LEVEL: 0 DIFFERENT FILL-ORIGIN LEVEL: 0

PSCL3 TOTAL     ACCESS:    3803841  HIT:    3803763  MISS:         78  HIT %:    99.9979  MISS %: 0.00205056   MPKI: 0.00156
PSCL3 LOAD TRANSLATION ACCESS:    3803841  HIT:    3803763  MISS:         78  HIT %:    99.9979  MISS %: 0.00205056   MPKI: 0.00156
PSCL3 PREFETCH  REQUESTED:          0  ISSUED:          0  USEFUL:          0  USELESS:          0
PSCL3 USEFUL LOAD PREFETCHES:          0 PREFETCH ISSUED TO LOWER LEVEL:          0  ACCURACY: -nan
PSCL3 TIMELY PREFETCHES:          0 LATE PREFETCHES: 0 DROPPED PREFETCHES: 0
PSCL3 PREFETCHES SAME FILL-ORIGIN LEVEL: 0 DIFFERENT FILL-ORIGIN LEVEL: 0

PSCL2 TOTAL     ACCESS:    3804676  HIT:    3750744  MISS:      53932  HIT %:    98.5825  MISS %:    1.41752   MPKI: 1.07864
PSCL2 LOAD TRANSLATION ACCESS:    3804676  HIT:    3750744  MISS:      53932  HIT %:    98.5825  MISS %:    1.41752   MPKI: 1.07864
PSCL2 PREFETCH  REQUESTED:          0  ISSUED:          0  USEFUL:          0  USELESS:          0
PSCL2 USEFUL LOAD PREFETCHES:          0 PREFETCH ISSUED TO LOWER LEVEL:          0  ACCURACY: -nan
PSCL2 TIMELY PREFETCHES:          0 LATE PREFETCHES: 0 DROPPED PREFETCHES: 0
PSCL2 PREFETCHES SAME FILL-ORIGIN LEVEL: 0 DIFFERENT FILL-ORIGIN LEVEL: 0

LLC TOTAL     ACCESS:     579082  HIT:     156476  MISS:     422606  HIT %:    27.0214  MISS %:    72.9786   MPKI: 8.45212
LLC LOAD      ACCESS:     256942  HIT:      27127  MISS:     229815  HIT %:    10.5576  MISS %:    89.4424   MPKI: 4.5963
LLC RFO       ACCESS:      24135  HIT:       1925  MISS:      22210  HIT %:    7.97597  MISS %:     92.024   MPKI: 0.4442
LLC PREFETCH  ACCESS:     153483  HIT:      19148  MISS:     134335  HIT %:    12.4756  MISS %:    87.5244   MPKI: 2.6867
LLC WRITEBACK ACCESS:     106458  HIT:     102897  MISS:       3561  HIT %:     96.655  MISS %:    3.34498   MPKI: 0.07122
LLC LOAD TRANSLATION ACCESS:      38064  HIT:       5379  MISS:      32685  HIT %:    14.1315  MISS %:    85.8685   MPKI: 0.6537
LLC PREFETCH  REQUESTED:          0  ISSUED:          0  USEFUL:       5749  USELESS:     132223
LLC USEFUL LOAD PREFETCHES:       5749 PREFETCH ISSUED TO LOWER LEVEL:     134335  ACCURACY: 4.2796
LLC TIMELY PREFETCHES:       5749 LATE PREFETCHES: 0 DROPPED PREFETCHES: 0
LLC PREFETCHES SAME FILL-ORIGIN LEVEL: 0 DIFFERENT FILL-ORIGIN LEVEL: 0
LLC AVERAGE MISS LATENCY: 166.877 cycles
LLC RQ	ACCESS:     319141	FORWARD:          0	MERGED:          0	TO_CACHE:     319141
LLC WQ	ACCESS:     106458	FORWARD:          0	MERGED:          0	TO_CACHE:     106458
LLC PQ	ACCESS:     153483	FORWARD:          0	MERGED:          0	TO_CACHE:     153483

LLC Dense regions hint to LLC: 0

RAW hits: 763413
Loads Generated: 7679597
Loads sent to L1D: 6916183
Stores Generated: 3607749
Stores sent to L1D: 3607749
Major fault: 0 Minor fault: 72903
Allocated PAGES: 72903
[Bingo] PHT Access: 75457
[Bingo] PHT Hit PC+Addr: 1874
[Bingo] PHT Hit PC+Offs: 73231
[Bingo] PHT Miss: 352
[Bingo] Prefetch PC+Addr: 0
[Bingo] Prefetch PC+Offs: 0
[Bingo] Useful PC+Addr: 0
[Bingo] Useful PC+Offs: 0
[Bingo] Useless PC+Addr: 0
[Bingo] Useless PC+Offs: 0
[Bingo] L1 Prefetch per Region: 0
[Bingo] L2 Prefetch per Region: 3.43237
[Bingo] L3 Prefetch per Region: 0
[Bingo] No Prefetch per Region: 28.5676
[Bingo] Number of Voters Mean: 15.264
[Bingo] Number of Voters SD: 15.8124
PHT read accesses: 1146855
PHT write accesses: 12568
AT read accesses: 44775
AT write accesses: 50845
FT read accesses: 43372
FT write accesses: 75457
PS read accesses: 151188
PS write accesses: 75105
PHT tag read accesses: 1580726
PHT tag write accesses: 14442
AT tag read accesses: 9890767
AT tag write accesses: 57360
FT tag read accesses: 11423898
FT tag write accesses: 106014
PS tag read accesses: 4727363
PS tag write accesses: 226082

DRAM Statistics
 CHANNEL 0
 RQ ROW_BUFFER_HIT:      99218  ROW_BUFFER_MISS:     319814
 DBUS_CONGESTED:        602
 WQ ROW_BUFFER_HIT:      37976  ROW_BUFFER_MISS:      58577  FULL:          0

 AVG_CONGESTED_CYCLE: 4
 All warmup complete: 2
Channel 0 Bank busy for read cycles: 0
Channel 0 Bank busy for write cycles: 0
Channel 0
Rank 0
0banks busy for read cycles: 66346936
0banks busy for write cycles: 28082
1banks busy for read cycles: 17388816
1banks busy for write cycles: 5056988
2banks busy for read cycles: 6561486
2banks busy for write cycles: 1937613
3banks busy for read cycles: 3399080
3banks busy for write cycles: 1099151
4banks busy for read cycles: 1408239
4banks busy for write cycles: 754957
5banks busy for read cycles: 507814
5banks busy for write cycles: 553277
6banks busy for read cycles: 244504
6banks busy for write cycles: 577952
7banks busy for read cycles: 203704
7banks busy for write cycles: 713597
8banks busy for read cycles: 147097
8banks busy for write cycles: 751814

CPU 0 Branch Prediction Accuracy: 99.4972% MPKI: 1.03356 Average ROB Occupancy at Mispredict: 124.89
Branch types
NOT_BRANCH: 0 0%
BRANCH_DIRECT_JUMP: 0 0%
BRANCH_INDIRECT: 0 0%
BRANCH_CONDITIONAL: 0 0%
BRANCH_DIRECT_CALL: 0 0%
BRANCH_INDIRECT_CALL: 0 0%
BRANCH_RETURN: 0 0%
BRANCH_OTHER: 0 0%

DRAM PAGES: 1048576
Allocated PAGES: 72903
