
*** ChampSim Multicore Out-of-Order Simulator ***

Warmup Instructions: 50000000
Simulation Instructions: 50000000
Number of CPUs: 1
LLC sets: 2048
LLC ways: 16
Off-chip DRAM Size: 4096 MB Channels: 1 Width: 64-bit Data Rate: 6400 MT/s
CPU 0 runs ../cloudsuite_traces//nutch_phase2_core0.trace.gz
.gz
BTB has LRU replacement policy
ITLB has LRU replacement policy
DTLB has LRU replacement policy
STLB has LRU replacement policy
L1I has LRU replacement policy
IP Table Entries: 64
L1D has LRU replacement policy
Initialize SRRIP state for L2C
Initialize DRRIP state for LLC
UNIQUE_ASID[0] = €
UNIQUE_ASID[1] = 
Heartbeat CPU 0 instructions: 10000002 cycles: 2768217 heartbeat IPC: 3.61243 cumulative IPC: 3.61243 (Simulation time: 0 hr 1 min 0 sec) 
Heartbeat CPU 0 instructions: 20000001 cycles: 5402818 heartbeat IPC: 3.79564 cumulative IPC: 3.70177 (Simulation time: 0 hr 2 min 5 sec) 
Heartbeat CPU 0 instructions: 30000000 cycles: 8380331 heartbeat IPC: 3.35851 cumulative IPC: 3.57981 (Simulation time: 0 hr 3 min 11 sec) 
Heartbeat CPU 0 instructions: 40000003 cycles: 11059654 heartbeat IPC: 3.73229 cumulative IPC: 3.61675 (Simulation time: 0 hr 4 min 5 sec) 
Heartbeat CPU 0 instructions: 50000002 cycles: 13934808 heartbeat IPC: 3.47807 cumulative IPC: 3.58814 (Simulation time: 0 hr 4 min 49 sec) 

Warmup complete CPU 0 instructions: 50000002 cycles: 13934808 (Simulation time: 0 hr 4 min 49 sec) 

Heartbeat CPU 0 instructions: 60000002 cycles: 28031040 heartbeat IPC: 0.709409 cumulative IPC: 0.709409 (Simulation time: 0 hr 5 min 58 sec) 
Heartbeat CPU 0 instructions: 70000000 cycles: 44116675 heartbeat IPC: 0.621673 cumulative IPC: 0.662649 (Simulation time: 0 hr 6 min 49 sec) 
Heartbeat CPU 0 instructions: 80000001 cycles: 61254406 heartbeat IPC: 0.583508 cumulative IPC: 0.633987 (Simulation time: 0 hr 7 min 23 sec) 
Heartbeat CPU 0 instructions: 90000001 cycles: 78435814 heartbeat IPC: 0.582024 cumulative IPC: 0.620145 (Simulation time: 0 hr 7 min 58 sec) 
Heartbeat CPU 0 instructions: 100000001 cycles: 99479185 heartbeat IPC: 0.475209 cumulative IPC: 0.584492 (Simulation time: 0 hr 8 min 38 sec) 
Finished CPU 0 instructions: 50000003 cycles: 85544408 cumulative IPC: 0.584492 (Simulation time: 0 hr 8 min 38 sec) 

ChampSim completed all CPUs

Region of Interest Statistics

CPU 0 cumulative IPC: 0.584492 instructions: 50000003 cycles: 85544408

CPU 0 Average Load ROB stall cycles: 2.08349e+07
CPU 0 Fraction of times ROB stalled by Loads: 39.6218
CPU 0 Percentage of Load stall cycles in Total stall cycles: 1.36686e+08
Issued all: 46230597
Issued LT all: 40637754
rob_not_full_when_issued_lt_all: 18496586
Issued LT one: 35332451
rob_not_full_when_issued_lt_one: 15197027
HPCA_2009 critical_dynamic_instances_0: 532024
HPCA_2009 unique_critical_ips_0: 1319
multiple_destinations_0: 0
load_to_same_dest_0: 0
low_issue_rate_0: 9661531
total_issue_rate_checked_count_0: 9955678
 Total stall cycles: 72443374
 Total load stall cycles: 99019643494739
Unique Load IPs: 1392
CPU 0 NUM of IPS identified critical: 0
CPU 0 Num of Load IPs stalling ROB: 0
Threshold modification factor: 0
Trouble in retire width: -nan
MaC = Marked as critical.
lt_50_percent_before_Mac: 0
gt_90_percent_before_Mac: 0
gt_75_percent_before_Mac: 0
gt_50_percent_before_Mac: 0
stall_proportion_bin_same_before_after: 0
stall_proportion_bin_lower_before_after: 0
stall_proportion_bin_upper_before_after: 0
average_stall_proportion_before: -nan
average_stall_proportion_after: -nan
Critical IP stalls, total frequency: 0
Non-critical IP stalls, total frequency: 0
Total Freq all stalling IPs: 0
Critical_IP_Detector_Accuracy_70: 0.00075815
Critical_IP_Detector_Accuracy_80: 0.00075815
Critical_IP_Detector_Accuracy_90: 0.00075815
Critical_IP_Detector_Coverage_70: 1
Critical_IP_Detector_Coverage_80: 1
Critical_IP_Detector_Coverage_90: 1
stat_90_percent_critical_ip_stalls_freq: 241225
stat_90_percent_non_critical_ip_stalls_freq: 18446744073709310391
AVERAGE_ROB_Occupancy_90_Percent_Critical_IP_Stalls: 259.247
AVERAGE_ROB_Occupancy_90_Percent_Non_Critical_IP_Stalls: 1.56003e-11
Critical_IP_ROB_Stalls_Bucket_0: 0
Non-critical_IP_ROB_Stalls_Bucket_0: 514607
Critical_IP_ROB_Stalls_Bucket_1: 0
Non-critical_IP_ROB_Stalls_Bucket_1: 237286
Critical_IP_ROB_Stalls_Bucket_2: 0
Non-critical_IP_ROB_Stalls_Bucket_2: 154832
Critical_IP_ROB_Stalls_Bucket_3: 0
Non-critical_IP_ROB_Stalls_Bucket_3: 97939
Critical_IP_ROB_Stalls_Bucket_4: 0
Non-critical_IP_ROB_Stalls_Bucket_4: 88199
Critical_IP_ROB_Stalls_Bucket_5: 0
Non-critical_IP_ROB_Stalls_Bucket_5: 137465
Critical_IP_ROB_Stalls_Bucket_6: 0
Non-critical_IP_ROB_Stalls_Bucket_6: 652729
0 => IPs accounting for >50 percent of stalls, 1 => 55, 2 => 60, 3 => 65 and so on till 90.
percent50: inf num IPs:  1
percent55: inf num IPs: 1
percent60: inf num IPs: 1
percent65: inf num IPs: 1
percent70: inf num IPs: 1
percent75: inf num IPs: 1
percent80: inf num IPs: 1
percent85: inf num IPs: 1
percent90: inf num IPs: 1
Critical_ROB_Stalls_Percent_0_Bucket_0: 4435
Non-critical_ROB_Stalls_Percent_0_Bucket_0: 510172
Critical_ROB_Stalls_Percent_0_Bucket_1: 39847
Non-critical_ROB_Stalls_Percent_0_Bucket_1: 197439
Critical_ROB_Stalls_Percent_0_Bucket_2: 18618
Non-critical_ROB_Stalls_Percent_0_Bucket_2: 136214
Critical_ROB_Stalls_Percent_0_Bucket_3: 12286
Non-critical_ROB_Stalls_Percent_0_Bucket_3: 85653
Critical_ROB_Stalls_Percent_0_Bucket_4: 9591
Non-critical_ROB_Stalls_Percent_0_Bucket_4: 78608
Critical_ROB_Stalls_Percent_0_Bucket_5: 21311
Non-critical_ROB_Stalls_Percent_0_Bucket_5: 116154
Critical_ROB_Stalls_Percent_0_Bucket_6: 135137
Non-critical_ROB_Stalls_Percent_0_Bucket_6: 517592
Critical_ROB_Stalls_Percent_1_Bucket_0: 4435
Non-critical_ROB_Stalls_Percent_1_Bucket_0: 510172
Critical_ROB_Stalls_Percent_1_Bucket_1: 39847
Non-critical_ROB_Stalls_Percent_1_Bucket_1: 197439
Critical_ROB_Stalls_Percent_1_Bucket_2: 18618
Non-critical_ROB_Stalls_Percent_1_Bucket_2: 136214
Critical_ROB_Stalls_Percent_1_Bucket_3: 12286
Non-critical_ROB_Stalls_Percent_1_Bucket_3: 85653
Critical_ROB_Stalls_Percent_1_Bucket_4: 9591
Non-critical_ROB_Stalls_Percent_1_Bucket_4: 78608
Critical_ROB_Stalls_Percent_1_Bucket_5: 21311
Non-critical_ROB_Stalls_Percent_1_Bucket_5: 116154
Critical_ROB_Stalls_Percent_1_Bucket_6: 135137
Non-critical_ROB_Stalls_Percent_1_Bucket_6: 517592
Critical_ROB_Stalls_Percent_2_Bucket_0: 4435
Non-critical_ROB_Stalls_Percent_2_Bucket_0: 510172
Critical_ROB_Stalls_Percent_2_Bucket_1: 39847
Non-critical_ROB_Stalls_Percent_2_Bucket_1: 197439
Critical_ROB_Stalls_Percent_2_Bucket_2: 18618
Non-critical_ROB_Stalls_Percent_2_Bucket_2: 136214
Critical_ROB_Stalls_Percent_2_Bucket_3: 12286
Non-critical_ROB_Stalls_Percent_2_Bucket_3: 85653
Critical_ROB_Stalls_Percent_2_Bucket_4: 9591
Non-critical_ROB_Stalls_Percent_2_Bucket_4: 78608
Critical_ROB_Stalls_Percent_2_Bucket_5: 21311
Non-critical_ROB_Stalls_Percent_2_Bucket_5: 116154
Critical_ROB_Stalls_Percent_2_Bucket_6: 135137
Non-critical_ROB_Stalls_Percent_2_Bucket_6: 517592
Critical_ROB_Stalls_Percent_3_Bucket_0: 4435
Non-critical_ROB_Stalls_Percent_3_Bucket_0: 510172
Critical_ROB_Stalls_Percent_3_Bucket_1: 39847
Non-critical_ROB_Stalls_Percent_3_Bucket_1: 197439
Critical_ROB_Stalls_Percent_3_Bucket_2: 18618
Non-critical_ROB_Stalls_Percent_3_Bucket_2: 136214
Critical_ROB_Stalls_Percent_3_Bucket_3: 12286
Non-critical_ROB_Stalls_Percent_3_Bucket_3: 85653
Critical_ROB_Stalls_Percent_3_Bucket_4: 9591
Non-critical_ROB_Stalls_Percent_3_Bucket_4: 78608
Critical_ROB_Stalls_Percent_3_Bucket_5: 21311
Non-critical_ROB_Stalls_Percent_3_Bucket_5: 116154
Critical_ROB_Stalls_Percent_3_Bucket_6: 135137
Non-critical_ROB_Stalls_Percent_3_Bucket_6: 517592
Critical_ROB_Stalls_Percent_4_Bucket_0: 4435
Non-critical_ROB_Stalls_Percent_4_Bucket_0: 510172
Critical_ROB_Stalls_Percent_4_Bucket_1: 39847
Non-critical_ROB_Stalls_Percent_4_Bucket_1: 197439
Critical_ROB_Stalls_Percent_4_Bucket_2: 18618
Non-critical_ROB_Stalls_Percent_4_Bucket_2: 136214
Critical_ROB_Stalls_Percent_4_Bucket_3: 12286
Non-critical_ROB_Stalls_Percent_4_Bucket_3: 85653
Critical_ROB_Stalls_Percent_4_Bucket_4: 9591
Non-critical_ROB_Stalls_Percent_4_Bucket_4: 78608
Critical_ROB_Stalls_Percent_4_Bucket_5: 21311
Non-critical_ROB_Stalls_Percent_4_Bucket_5: 116154
Critical_ROB_Stalls_Percent_4_Bucket_6: 135137
Non-critical_ROB_Stalls_Percent_4_Bucket_6: 517592
Critical_ROB_Stalls_Percent_5_Bucket_0: 4435
Non-critical_ROB_Stalls_Percent_5_Bucket_0: 510172
Critical_ROB_Stalls_Percent_5_Bucket_1: 39847
Non-critical_ROB_Stalls_Percent_5_Bucket_1: 197439
Critical_ROB_Stalls_Percent_5_Bucket_2: 18618
Non-critical_ROB_Stalls_Percent_5_Bucket_2: 136214
Critical_ROB_Stalls_Percent_5_Bucket_3: 12286
Non-critical_ROB_Stalls_Percent_5_Bucket_3: 85653
Critical_ROB_Stalls_Percent_5_Bucket_4: 9591
Non-critical_ROB_Stalls_Percent_5_Bucket_4: 78608
Critical_ROB_Stalls_Percent_5_Bucket_5: 21311
Non-critical_ROB_Stalls_Percent_5_Bucket_5: 116154
Critical_ROB_Stalls_Percent_5_Bucket_6: 135137
Non-critical_ROB_Stalls_Percent_5_Bucket_6: 517592
Critical_ROB_Stalls_Percent_6_Bucket_0: 4435
Non-critical_ROB_Stalls_Percent_6_Bucket_0: 510172
Critical_ROB_Stalls_Percent_6_Bucket_1: 39847
Non-critical_ROB_Stalls_Percent_6_Bucket_1: 197439
Critical_ROB_Stalls_Percent_6_Bucket_2: 18618
Non-critical_ROB_Stalls_Percent_6_Bucket_2: 136214
Critical_ROB_Stalls_Percent_6_Bucket_3: 12286
Non-critical_ROB_Stalls_Percent_6_Bucket_3: 85653
Critical_ROB_Stalls_Percent_6_Bucket_4: 9591
Non-critical_ROB_Stalls_Percent_6_Bucket_4: 78608
Critical_ROB_Stalls_Percent_6_Bucket_5: 21311
Non-critical_ROB_Stalls_Percent_6_Bucket_5: 116154
Critical_ROB_Stalls_Percent_6_Bucket_6: 135137
Non-critical_ROB_Stalls_Percent_6_Bucket_6: 517592
Critical_ROB_Stalls_Percent_7_Bucket_0: 4435
Non-critical_ROB_Stalls_Percent_7_Bucket_0: 510172
Critical_ROB_Stalls_Percent_7_Bucket_1: 39847
Non-critical_ROB_Stalls_Percent_7_Bucket_1: 197439
Critical_ROB_Stalls_Percent_7_Bucket_2: 18618
Non-critical_ROB_Stalls_Percent_7_Bucket_2: 136214
Critical_ROB_Stalls_Percent_7_Bucket_3: 12286
Non-critical_ROB_Stalls_Percent_7_Bucket_3: 85653
Critical_ROB_Stalls_Percent_7_Bucket_4: 9591
Non-critical_ROB_Stalls_Percent_7_Bucket_4: 78608
Critical_ROB_Stalls_Percent_7_Bucket_5: 21311
Non-critical_ROB_Stalls_Percent_7_Bucket_5: 116154
Critical_ROB_Stalls_Percent_7_Bucket_6: 135137
Non-critical_ROB_Stalls_Percent_7_Bucket_6: 517592
Critical_ROB_Stalls_Percent_8_Bucket_0: 4435
Non-critical_ROB_Stalls_Percent_8_Bucket_0: 510172
Critical_ROB_Stalls_Percent_8_Bucket_1: 39847
Non-critical_ROB_Stalls_Percent_8_Bucket_1: 197439
Critical_ROB_Stalls_Percent_8_Bucket_2: 18618
Non-critical_ROB_Stalls_Percent_8_Bucket_2: 136214
Critical_ROB_Stalls_Percent_8_Bucket_3: 12286
Non-critical_ROB_Stalls_Percent_8_Bucket_3: 85653
Critical_ROB_Stalls_Percent_8_Bucket_4: 9591
Non-critical_ROB_Stalls_Percent_8_Bucket_4: 78608
Critical_ROB_Stalls_Percent_8_Bucket_5: 21311
Non-critical_ROB_Stalls_Percent_8_Bucket_5: 116154
Critical_ROB_Stalls_Percent_8_Bucket_6: 135137
Non-critical_ROB_Stalls_Percent_8_Bucket_6: 517592
Average ROB occupancy Load Stall Begin: 169.419
Average ROB occupancy Load Stall End: 186.034
Min ROB occupancy Load Stall Begin: 1
Max ROB occupancy Load Stall Begin: 352
Min ROB occupancy Load Stall End: 1
Max ROB occupancy Load Stall End: 352
Average ROB occupancy Critical Load Stall Begin: -nan
Average ROB occupancy Critical Load Stall End: -nan
Min ROB occupancy Critical Load Stall Begin: 400
Max ROB occupancy Critical Load Stall Begin: 0
Min ROB occupancy Critical Load Stall End: 400
Max ROB occupancy Critical Load Stall End: 0
 ROB Load Stall Begin Bucket Count 0: 633903
 ROB Load Stall End Bucket Count 0: 514607
 ROB Critical Load Stall Begin Bucket Count 0: 0
 ROB Critical Load Stall End Bucket Count 0: 0
 ROB Load Stall Begin Bucket Count 1: 204388
 ROB Load Stall End Bucket Count 1: 237286
 ROB Critical Load Stall Begin Bucket Count 1: 0
 ROB Critical Load Stall End Bucket Count 1: 0
 ROB Load Stall Begin Bucket Count 2: 124390
 ROB Load Stall End Bucket Count 2: 154832
 ROB Critical Load Stall Begin Bucket Count 2: 0
 ROB Critical Load Stall End Bucket Count 2: 0
 ROB Load Stall Begin Bucket Count 3: 86598
 ROB Load Stall End Bucket Count 3: 97939
 ROB Critical Load Stall Begin Bucket Count 3: 0
 ROB Critical Load Stall End Bucket Count 3: 0
 ROB Load Stall Begin Bucket Count 4: 100572
 ROB Load Stall End Bucket Count 4: 88199
 ROB Critical Load Stall Begin Bucket Count 4: 0
 ROB Critical Load Stall End Bucket Count 4: 0
 ROB Load Stall Begin Bucket Count 5: 193320
 ROB Load Stall End Bucket Count 5: 137465
 ROB Critical Load Stall Begin Bucket Count 5: 0
 ROB Critical Load Stall End Bucket Count 5: 0
 ROB Load Stall Begin Bucket Count 6: 539886
 ROB Load Stall End Bucket Count 6: 652729
 ROB Critical Load Stall Begin Bucket Count 6: 0
 ROB Critical Load Stall End Bucket Count 6: 0
PIST Tag Read Accesses: 0
PIST Read Accesses: 0
PIST Tag Write Accesses: 0
PIST Write Accesses: 0
Criticality detector called times: 0
Max global_stall_cycles_count: 0
Threshold Modified: 0 times, factor: 0
ITLB TOTAL     ACCESS:    8336397  HIT:    8109475  MISS:     226922  HIT %:    97.2779  MISS %:    2.72206   MPKI: 4.53844
ITLB LOAD TRANSLATION ACCESS:    8336397  HIT:    8109475  MISS:     226922  HIT %:    97.2779  MISS %:    2.72206   MPKI: 4.53844
ITLB PREFETCH  REQUESTED:          0  ISSUED:          0  USEFUL:          0  USELESS:          0
ITLB USEFUL LOAD PREFETCHES:          0 PREFETCH ISSUED TO LOWER LEVEL:          0  ACCURACY: -nan
ITLB TIMELY PREFETCHES:          0 LATE PREFETCHES: 0 DROPPED PREFETCHES: 0
ITLB PREFETCHES SAME FILL-ORIGIN LEVEL: 0 DIFFERENT FILL-ORIGIN LEVEL: 0
ITLB AVERAGE MISS LATENCY: 20.348 cycles
ITLB RQ	ACCESS:   10277828	FORWARD:          0	MERGED:    1834407	TO_CACHE:    8443421

DTLB TOTAL     ACCESS:    5554615  HIT:    4279023  MISS:    1275592  HIT %:    77.0355  MISS %:    22.9645   MPKI: 25.5118
DTLB LOAD TRANSLATION ACCESS:    5554615  HIT:    4279023  MISS:    1275592  HIT %:    77.0355  MISS %:    22.9645   MPKI: 25.5118
DTLB PREFETCH  REQUESTED:          0  ISSUED:          0  USEFUL:          0  USELESS:          0
DTLB USEFUL LOAD PREFETCHES:          0 PREFETCH ISSUED TO LOWER LEVEL:          0  ACCURACY: -nan
DTLB TIMELY PREFETCHES:          0 LATE PREFETCHES: 0 DROPPED PREFETCHES: 0
DTLB PREFETCHES SAME FILL-ORIGIN LEVEL: 0 DIFFERENT FILL-ORIGIN LEVEL: 0
DTLB AVERAGE MISS LATENCY: 14.8738 cycles
DTLB RQ	ACCESS:    6406511	FORWARD:          0	MERGED:     692381	TO_CACHE:    5714130

STLB TOTAL     ACCESS:    1509042  HIT:    1125210  MISS:     383832  HIT %:    74.5645  MISS %:    25.4355   MPKI: 7.67664
STLB LOAD TRANSLATION ACCESS:    1502514  HIT:    1121007  MISS:     381507  HIT %:    74.6088  MISS %:    25.3912   MPKI: 7.63014
STLB TRANSLATION FROM L1D PREFETCHER ACCESS:       6528  HIT:       4203  MISS:       2325  HIT %:    64.3842  MISS %:    35.6158   MPKI: 0.0465
STLB PREFETCH  REQUESTED:          0  ISSUED:          0  USEFUL:        982  USELESS:       1346
STLB USEFUL LOAD PREFETCHES:        982 PREFETCH ISSUED TO LOWER LEVEL:          0  ACCURACY: inf
STLB TIMELY PREFETCHES:        982 LATE PREFETCHES: 0 DROPPED PREFETCHES: 0
STLB PREFETCHES SAME FILL-ORIGIN LEVEL: 0 DIFFERENT FILL-ORIGIN LEVEL: 0
STLB AVERAGE MISS LATENCY: 26.1607 cycles
STLB RQ	ACCESS:    1510199	FORWARD:          0	MERGED:       1102	TO_CACHE:    1509097

STLB Hit, L1D data hit: 0
STLB Hit, L2C data hit: 0
STLB Hit, LLC data hit: 0
STLB Hit, LLC data miss: 0
STLB STLB hints to L2: 0
L1D TOTAL     ACCESS:    6011087  HIT:    5356827  MISS:     654260  HIT %:    89.1158  MISS %:    10.8842   MPKI: 13.0852
L1D LOAD      ACCESS:    5221642  HIT:    4685841  MISS:     535801  HIT %:    89.7388  MISS %:    10.2612   MPKI: 10.716
L1D RFO       ACCESS:     782917  HIT:     667783  MISS:     115134  HIT %:    85.2942  MISS %:    14.7058   MPKI: 2.30268
L1D PREFETCH  ACCESS:       6528  HIT:       3203  MISS:       3325  HIT %:    49.0656  MISS %:    50.9344   MPKI: 0.0665
L1D PREFETCH  REQUESTED:      15370  ISSUED:      15370  USEFUL:       1428  USELESS:       1899
L1D USEFUL LOAD PREFETCHES:       1428 PREFETCH ISSUED TO LOWER LEVEL:       3743  ACCURACY: 38.1512
L1D TIMELY PREFETCHES:       1428 LATE PREFETCHES: 418 DROPPED PREFETCHES: 0
L1D PREFETCHES SAME FILL-ORIGIN LEVEL: 3743 DIFFERENT FILL-ORIGIN LEVEL: 0
L1D AVERAGE MISS LATENCY: 35127.2 cycles
L1D RQ	ACCESS:    8942116	FORWARD:          0	MERGED:    3404660	TO_CACHE:    5515201
L1D WQ	ACCESS:    1013562	FORWARD:      22255	MERGED:     122252	TO_CACHE:     891310
L1D PQ	ACCESS:       7685	FORWARD:          0	MERGED:          0	TO_CACHE:       7685

L1D UNIQUE REGIONS ACCESSED: 0
L1D REGIONS CONFLICTS: 0
L1D Cross Page Prefetch Requests: 0
L1D Same Page Prefetch Requests: 42213
L1D ROI Sum of L1D PQ occupancy: 160333
L1D PREFETCHES PUSHED FROM L2C: 0
L1I TOTAL     ACCESS:   10277633  HIT:   10276759  MISS:        874  HIT %:    99.9915  MISS %:  0.0085039   MPKI: 0.01748
L1I LOAD      ACCESS:   10277633  HIT:   10276759  MISS:        874  HIT %:    99.9915  MISS %:  0.0085039   MPKI: 0.01748
L1I PREFETCH  REQUESTED:          0  ISSUED:          0  USEFUL:          0  USELESS:          0
L1I USEFUL LOAD PREFETCHES:          0 PREFETCH ISSUED TO LOWER LEVEL:          0  ACCURACY: -nan
L1I TIMELY PREFETCHES:          0 LATE PREFETCHES: 0 DROPPED PREFETCHES: 0
L1I PREFETCHES SAME FILL-ORIGIN LEVEL: 0 DIFFERENT FILL-ORIGIN LEVEL: 0
L1I AVERAGE MISS LATENCY: 204.833 cycles
L1I RQ	ACCESS:   17347007	FORWARD:          0	MERGED:    7069179	TO_CACHE:   10277828

BTB BRANCH_DIRECT_JUMP	ACCESS:          0  HIT:          0  MISS:          0
BTB BRANCH_INDIRECT	ACCESS:          0  HIT:          0  MISS:          0
BTB BRANCH_CONDITIONAL	ACCESS:          0  HIT:          0  MISS:          0
BTB BRANCH_DIRECT_CALL	ACCESS:          0  HIT:          0  MISS:          0
BTB BRANCH_INDIRECT_CALL	ACCESS:          0  HIT:          0  MISS:          0
BTB BRANCH_RETURN	ACCESS:          0  HIT:          0  MISS:          0
BTB BRANCH_OTHER ACCESS:          0  HIT:          0  MISS:          0

L2C TOTAL     ACCESS:    1185101  HIT:     581956  MISS:     603145  HIT %:     49.106  MISS %:     50.894   MPKI: 12.0629
L2C LOAD      ACCESS:     536257  HIT:      58956  MISS:     477301  HIT %:     10.994  MISS %:     89.006   MPKI: 9.54602
L2C DATA LOAD MPKI: 9.52854
L2C INSTRUCTION LOAD MPKI: 0.01748
L2C RFO       ACCESS:     115134  HIT:        789  MISS:     114345  HIT %:   0.685288  MISS %:    99.3147   MPKI: 2.2869
L2C PREFETCH  ACCESS:       3743  HIT:        617  MISS:       3126  HIT %:    16.4841  MISS %:    83.5159   MPKI: 0.06252
L2C DATA PREFETCH MPKI: 0.06252
L2C INSTRUCTION PREFETCH MPKI: 0
L2C WRITEBACK ACCESS:     145569  HIT:     141929  MISS:       3640  HIT %:    97.4995  MISS %:    2.50053   MPKI: 0.0728
L2C LOAD TRANSLATION ACCESS:     382072  HIT:     377339  MISS:       4733  HIT %:    98.7612  MISS %:    1.23877   MPKI: 0.09466
L2C TRANSLATION FROM L1D PREFETCHER ACCESS:       2326  HIT:       2326  MISS:          0  HIT %:        100  MISS %:          0   MPKI: 0
L2C PREFETCH  REQUESTED:          0  ISSUED:          0  USEFUL:         93  USELESS:       3015
L2C USEFUL LOAD PREFETCHES:         93 PREFETCH ISSUED TO LOWER LEVEL:       3126  ACCURACY: 2.97505
L2C TIMELY PREFETCHES:         93 LATE PREFETCHES: 0 DROPPED PREFETCHES: 0
L2C PREFETCHES SAME FILL-ORIGIN LEVEL: 0 DIFFERENT FILL-ORIGIN LEVEL: 0
L2C AVERAGE MISS LATENCY: 177.585 cycles
L2C RQ	ACCESS:    1035789	FORWARD:          0	MERGED:          0	TO_CACHE:    1035789
L2C WQ	ACCESS:     145569	FORWARD:          0	MERGED:          0	TO_CACHE:     145569
L2C PQ	ACCESS:       3743	FORWARD:          0	MERGED:          0	TO_CACHE:       3743

L2C Instructions Evicting Data 858
L2C Translations Evicting Data 4694
L2C Data Evicting Data 588563
L2C Instructions Evicting Instructions 3
L2C Translations Evicting Instructions 16
L2C Data Evicting Instructions 834
L2C Instructions Evicting Translations 13
L2C Translations Evicting Translations 23
L2C Data Evicting Translations 4501
L2C Dense regions hint from L2: 0
PSCL5 TOTAL     ACCESS:     383832  HIT:     383832  MISS:          0  HIT %:        100  MISS %:          0   MPKI: 0
PSCL5 LOAD TRANSLATION ACCESS:     381507  HIT:     381507  MISS:          0  HIT %:        100  MISS %:          0   MPKI: 0
PSCL5 TRANSLATION FROM L1D PREFETCHER ACCESS:       2325  HIT:       2325  MISS:          0  HIT %:        100  MISS %:          0   MPKI: 0
PSCL5 PREFETCH  REQUESTED:          0  ISSUED:          0  USEFUL:          0  USELESS:          0
PSCL5 USEFUL LOAD PREFETCHES:          0 PREFETCH ISSUED TO LOWER LEVEL:          0  ACCURACY: -nan
PSCL5 TIMELY PREFETCHES:          0 LATE PREFETCHES: 0 DROPPED PREFETCHES: 0
PSCL5 PREFETCHES SAME FILL-ORIGIN LEVEL: 0 DIFFERENT FILL-ORIGIN LEVEL: 0

PSCL4 TOTAL     ACCESS:     383832  HIT:     383832  MISS:          0  HIT %:        100  MISS %:          0   MPKI: 0
PSCL4 LOAD TRANSLATION ACCESS:     381507  HIT:     381507  MISS:          0  HIT %:        100  MISS %:          0   MPKI: 0
PSCL4 TRANSLATION FROM L1D PREFETCHER ACCESS:       2325  HIT:       2325  MISS:          0  HIT %:        100  MISS %:          0   MPKI: 0
PSCL4 PREFETCH  REQUESTED:          0  ISSUED:          0  USEFUL:          0  USELESS:          0
PSCL4 USEFUL LOAD PREFETCHES:          0 PREFETCH ISSUED TO LOWER LEVEL:          0  ACCURACY: -nan
PSCL4 TIMELY PREFETCHES:          0 LATE PREFETCHES: 0 DROPPED PREFETCHES: 0
PSCL4 PREFETCHES SAME FILL-ORIGIN LEVEL: 0 DIFFERENT FILL-ORIGIN LEVEL: 0

PSCL3 TOTAL     ACCESS:     383827  HIT:     383823  MISS:          4  HIT %:     99.999  MISS %: 0.00104214   MPKI: 8e-05
PSCL3 LOAD TRANSLATION ACCESS:     381502  HIT:     381498  MISS:          4  HIT %:     99.999  MISS %: 0.00104849   MPKI: 8e-05
PSCL3 TRANSLATION FROM L1D PREFETCHER ACCESS:       2325  HIT:       2325  MISS:          0  HIT %:        100  MISS %:          0   MPKI: 0
PSCL3 PREFETCH  REQUESTED:          0  ISSUED:          0  USEFUL:          0  USELESS:          0
PSCL3 USEFUL LOAD PREFETCHES:          0 PREFETCH ISSUED TO LOWER LEVEL:          0  ACCURACY: -nan
PSCL3 TIMELY PREFETCHES:          0 LATE PREFETCHES: 0 DROPPED PREFETCHES: 0
PSCL3 PREFETCHES SAME FILL-ORIGIN LEVEL: 0 DIFFERENT FILL-ORIGIN LEVEL: 0

PSCL2 TOTAL     ACCESS:     383832  HIT:     383268  MISS:        564  HIT %:    99.8531  MISS %:   0.146939   MPKI: 0.01128
PSCL2 LOAD TRANSLATION ACCESS:     381508  HIT:     380944  MISS:        564  HIT %:    99.8522  MISS %:   0.147834   MPKI: 0.01128
PSCL2 TRANSLATION FROM L1D PREFETCHER ACCESS:       2324  HIT:       2324  MISS:          0  HIT %:        100  MISS %:          0   MPKI: 0
PSCL2 PREFETCH  REQUESTED:          0  ISSUED:          0  USEFUL:          0  USELESS:          0
PSCL2 USEFUL LOAD PREFETCHES:          0 PREFETCH ISSUED TO LOWER LEVEL:          0  ACCURACY: -nan
PSCL2 TIMELY PREFETCHES:          0 LATE PREFETCHES: 0 DROPPED PREFETCHES: 0
PSCL2 PREFETCHES SAME FILL-ORIGIN LEVEL: 0 DIFFERENT FILL-ORIGIN LEVEL: 0

LLC TOTAL     ACCESS:     739648  HIT:     181167  MISS:     558481  HIT %:    24.4937  MISS %:    75.5063   MPKI: 11.1696
LLC LOAD      ACCESS:     477301  HIT:      41392  MISS:     435909  HIT %:     8.6721  MISS %:    91.3279   MPKI: 8.71818
LLC RFO       ACCESS:     114345  HIT:        164  MISS:     114181  HIT %:   0.143426  MISS %:    99.8566   MPKI: 2.28362
LLC PREFETCH  ACCESS:       3126  HIT:        330  MISS:       2796  HIT %:    10.5566  MISS %:    89.4434   MPKI: 0.05592
LLC WRITEBACK ACCESS:     140143  HIT:     137965  MISS:       2178  HIT %:    98.4459  MISS %:    1.55413   MPKI: 0.04356
LLC LOAD TRANSLATION ACCESS:       4733  HIT:       1316  MISS:       3417  HIT %:    27.8048  MISS %:    72.1952   MPKI: 0.06834
LLC PREFETCH  REQUESTED:          0  ISSUED:          0  USEFUL:        146  USELESS:       2547
LLC USEFUL LOAD PREFETCHES:        146 PREFETCH ISSUED TO LOWER LEVEL:       2796  ACCURACY: 5.22175
LLC TIMELY PREFETCHES:        146 LATE PREFETCHES: 0 DROPPED PREFETCHES: 0
LLC PREFETCHES SAME FILL-ORIGIN LEVEL: 0 DIFFERENT FILL-ORIGIN LEVEL: 0
LLC AVERAGE MISS LATENCY: 159.512 cycles
LLC RQ	ACCESS:     596379	FORWARD:          0	MERGED:          0	TO_CACHE:     596379
LLC WQ	ACCESS:     140143	FORWARD:          0	MERGED:          0	TO_CACHE:     140143
LLC PQ	ACCESS:       3126	FORWARD:          0	MERGED:          0	TO_CACHE:       3126

LLC Dense regions hint to LLC: 0

RAW hits: 381989
Loads Generated: 9324105
Loads sent to L1D: 8942116
Stores Generated: 1013562
Stores sent to L1D: 1013562
Major fault: 0 Minor fault: 11007
Allocated PAGES: 11007

stream: 
stream:times selected: 51735
stream:pref_filled: 15359
stream:pref_useful: 4684
stream:pref_late: 670
stream:misses: 2217
stream:misses_by_poll: 0

CS: 
CS:times selected: 2544
CS:pref_filled: 1000
CS:pref_useful: 928
CS:pref_late: 52
CS:misses: 90
CS:misses_by_poll: 0

CPLX: 
CPLX:times selected: 48798
CPLX:pref_filled: 1467
CPLX:pref_useful: 381
CPLX:pref_late: 38
CPLX:misses: 7253
CPLX:misses_by_poll: 1

NL_L1: 
NL:times selected: 411
NL:pref_filled: 212
NL:pref_useful: 95
NL:pref_late: 7
NL:misses: 138
NL:misses_by_poll: 0

total selections: 103488
total_filled: 3325
total_useful: 1428
total_late: 779
total_polluted: 1
total_misses_after_warmup: 3594
conflicts: 4112
Degree Incremented Times: 9
Degree Decremented Times: 1640

L1 IP Table Write Accesses: 23363
L1 IP Table Read Accesses: 19251
L1 RST Write Accesses: 8871
L1 RST Read Accesses: 17742
L1 CSPT Write Accesses: 8871
L1 CSPT Read Accesses: 15656
L1 RR Filter Tag Write Accesses: 7685
L1 RR Filter Tag Read Accesses: 474700
L1 IP Table Tag Write Accesses: 30063
L1 IP Table Tag Read Accesses: 30063
L1 RST Tag Write Accesses: 0
L1 RST Tag Read Accesses: 82098
L1 RR Filter Write Accesses: 0
L1 RR Filter Read Accesses: 15410
test: 27564

DRAM Statistics
 CHANNEL 0
 RQ ROW_BUFFER_HIT:     269831  ROW_BUFFER_MISS:     286472
 DBUS_CONGESTED:        231
 WQ ROW_BUFFER_HIT:      36300  ROW_BUFFER_MISS:      92856  FULL:          0

 AVG_CONGESTED_CYCLE: 5
 All warmup complete: 2
Channel 0 Bank busy for read cycles: 0
Channel 0 Bank busy for write cycles: 0
Channel 0
Rank 0
0banks busy for read cycles: 47151291
0banks busy for write cycles: 16431
1banks busy for read cycles: 20790529
1banks busy for write cycles: 2997150
2banks busy for read cycles: 5106206
2banks busy for write cycles: 717775
3banks busy for read cycles: 1739941
3banks busy for write cycles: 348741
4banks busy for read cycles: 1025598
4banks busy for write cycles: 214832
5banks busy for read cycles: 631255
5banks busy for write cycles: 121553
6banks busy for read cycles: 674381
6banks busy for write cycles: 82665
7banks busy for read cycles: 620354
7banks busy for write cycles: 208352
8banks busy for read cycles: 683919
8banks busy for write cycles: 2413436

CPU 0 Branch Prediction Accuracy: 98.792% MPKI: 2.54542 Average ROB Occupancy at Mispredict: 88.5346
Branch types
NOT_BRANCH: 0 0%
BRANCH_DIRECT_JUMP: 0 0%
BRANCH_INDIRECT: 0 0%
BRANCH_CONDITIONAL: 0 0%
BRANCH_DIRECT_CALL: 0 0%
BRANCH_INDIRECT_CALL: 0 0%
BRANCH_RETURN: 0 0%
BRANCH_OTHER: 0 0%

DRAM PAGES: 1048576
Allocated PAGES: 11007
