
*** ChampSim Multicore Out-of-Order Simulator ***

Warmup Instructions: 50000000
Simulation Instructions: 50000000
Number of CPUs: 1
LLC sets: 2048
LLC ways: 16
Off-chip DRAM Size: 4096 MB Channels: 1 Width: 64-bit Data Rate: 6400 MT/s
CPU 0 runs ../cloudsuite_traces//nutch_phase2_core0.trace.gz
.gz
NUM_OF_IPS_IN_CRITICAL_IP_TRAINING: 64
NUM_OF_CRITICAL_IP_TRAINING_TABLE_WAYS: 2
NUM_OF_CRITICAL_IP_TRAINING_TABLE_SETS: 32
WOBBLY_CRITICAL_IP_CACHE_SETS: 32
WOBBLY_CRITICAL_IP_CACHE_WAYS: 4
BTB has LRU replacement policy
ITLB has LRU replacement policy
DTLB has LRU replacement policy
STLB has LRU replacement policy
L1I has LRU replacement policy
IP Table Entries: 64
L1D has LRU replacement policy
Initialize SRRIP state for L2C
Initialize DRRIP state for LLC
UNIQUE_ASID[0] = €
UNIQUE_ASID[1] = 
Heartbeat CPU 0 instructions: 10000002 cycles: 2781446 heartbeat IPC: 3.59525 cumulative IPC: 3.59525 (Simulation time: 0 hr 6 min 59 sec) 
Heartbeat CPU 0 instructions: 20000001 cycles: 5415599 heartbeat IPC: 3.79629 cumulative IPC: 3.69304 (Simulation time: 0 hr 13 min 46 sec) 
Heartbeat CPU 0 instructions: 30000001 cycles: 8448683 heartbeat IPC: 3.29697 cumulative IPC: 3.55085 (Simulation time: 0 hr 21 min 21 sec) 
Heartbeat CPU 0 instructions: 40000003 cycles: 11128695 heartbeat IPC: 3.73133 cumulative IPC: 3.59431 (Simulation time: 0 hr 27 min 58 sec) 
Heartbeat CPU 0 instructions: 50000002 cycles: 14009708 heartbeat IPC: 3.471 cumulative IPC: 3.56895 (Simulation time: 0 hr 33 min 50 sec) 

Warmup complete CPU 0 instructions: 50000002 cycles: 14009708 (Simulation time: 0 hr 33 min 50 sec) 

% increase in all ip prefetch 248.427
% increase in all ip prefetch -4.17063
Heartbeat CPU 0 instructions: 60000000 cycles: 25202383 heartbeat IPC: 0.893441 cumulative IPC: 0.893441 (Simulation time: 0 hr 38 min 54 sec) 
Heartbeat CPU 0 instructions: 70000000 cycles: 38626226 heartbeat IPC: 0.744943 cumulative IPC: 0.812463 (Simulation time: 0 hr 44 min 0 sec) 
Heartbeat CPU 0 instructions: 80000001 cycles: 52747529 heartbeat IPC: 0.70815 cumulative IPC: 0.774437 (Simulation time: 0 hr 48 min 27 sec) 
Heartbeat CPU 0 instructions: 90000001 cycles: 67025281 heartbeat IPC: 0.70039 cumulative IPC: 0.754495 (Simulation time: 0 hr 53 min 1 sec) 
Heartbeat CPU 0 instructions: 100000001 cycles: 83488114 heartbeat IPC: 0.607429 cumulative IPC: 0.719648 (Simulation time: 0 hr 58 min 37 sec) 
Finished CPU 0 instructions: 50000003 cycles: 69478437 cumulative IPC: 0.719648 (Simulation time: 0 hr 58 min 37 sec) 

ChampSim completed all CPUs

Region of Interest Statistics

CPU 0 cumulative IPC: 0.719648 instructions: 50000003 cycles: 69478437

CPU 0 Average Load ROB stall cycles: 1.79284e+07
CPU 0 Fraction of times ROB stalled by Loads: 40.4251
CPU 0 Percentage of Load stall cycles in Total stall cycles: 1.78368e+08
Issued all: 33737882
Issued LT all: 27595653
rob_not_full_when_issued_lt_all: 19873952
Issued LT one: 23414659
rob_not_full_when_issued_lt_one: 16356233
 Total stall cycles: 56411970
 Total load stall cycles: 100620777736590
CPU 0 NUM of IPS identified critical: 0
CPU 0 Num of Load IPs stalling ROB: 1100
Threshold modification factor: -1
Max PIST entries: 64
Min PIST entries: 0
Avg PIST entries: 21.18
Trouble in retire width: 0.954382
MaC = Marked as critical.
lt_50_percent_before_Mac: 0
gt_90_percent_before_Mac: 0
gt_75_percent_before_Mac: 0
gt_50_percent_before_Mac: 0
stall_proportion_bin_same_before_after: 0
stall_proportion_bin_lower_before_after: 0
stall_proportion_bin_upper_before_after: 0
average_stall_proportion_before: -nan
average_stall_proportion_after: -nan
Critical IP stalls, total frequency: 0
Non-critical IP stalls, total frequency: 2268813
Total Freq all stalling IPs: 2268813
stat_90_percent_critical_ip_stalls_freq: 2045874
stat_90_percent_non_critical_ip_stalls_freq: 222939
Critical_IP_ROB_Stalls_Bucket_0: 0
Non-critical_IP_ROB_Stalls_Bucket_0: 1045028
Critical_IP_ROB_Stalls_Bucket_1: 0
Non-critical_IP_ROB_Stalls_Bucket_1: 598744
Critical_IP_ROB_Stalls_Bucket_2: 0
Non-critical_IP_ROB_Stalls_Bucket_2: 182894
Critical_IP_ROB_Stalls_Bucket_3: 0
Non-critical_IP_ROB_Stalls_Bucket_3: 83014
Critical_IP_ROB_Stalls_Bucket_4: 0
Non-critical_IP_ROB_Stalls_Bucket_4: 68005
Critical_IP_ROB_Stalls_Bucket_5: 0
Non-critical_IP_ROB_Stalls_Bucket_5: 72902
Critical_IP_ROB_Stalls_Bucket_6: 0
Non-critical_IP_ROB_Stalls_Bucket_6: 218226
0 => IPs accounting for >50 percent of stalls, 1 => 55, 2 => 60, 3 => 65 and so on till 90.
percent50: 50.9228 num IPs:  7
percent55: 57.8754 num IPs: 9
percent60: 60.8864 num IPs: 10
percent65: 65.4986 num IPs: 12
percent70: 70.8926 num IPs: 16
percent75: 75.4036 num IPs: 21
percent80: 80.3974 num IPs: 30
percent85: 85.2046 num IPs: 41
percent90: 90.1738 num IPs: 59
Critical_ROB_Stalls_Percent_0_Bucket_0: 446781
Non-critical_ROB_Stalls_Percent_0_Bucket_0: 598247
Critical_ROB_Stalls_Percent_0_Bucket_1: 373704
Non-critical_ROB_Stalls_Percent_0_Bucket_1: 225040
Critical_ROB_Stalls_Percent_0_Bucket_2: 99359
Non-critical_ROB_Stalls_Percent_0_Bucket_2: 83535
Critical_ROB_Stalls_Percent_0_Bucket_3: 38665
Non-critical_ROB_Stalls_Percent_0_Bucket_3: 44349
Critical_ROB_Stalls_Percent_0_Bucket_4: 31422
Non-critical_ROB_Stalls_Percent_0_Bucket_4: 36583
Critical_ROB_Stalls_Percent_0_Bucket_5: 34053
Non-critical_ROB_Stalls_Percent_0_Bucket_5: 38849
Critical_ROB_Stalls_Percent_0_Bucket_6: 131358
Non-critical_ROB_Stalls_Percent_0_Bucket_6: 86868
Critical_ROB_Stalls_Percent_1_Bucket_0: 565129
Non-critical_ROB_Stalls_Percent_1_Bucket_0: 479899
Critical_ROB_Stalls_Percent_1_Bucket_1: 382907
Non-critical_ROB_Stalls_Percent_1_Bucket_1: 215837
Critical_ROB_Stalls_Percent_1_Bucket_2: 105220
Non-critical_ROB_Stalls_Percent_1_Bucket_2: 77674
Critical_ROB_Stalls_Percent_1_Bucket_3: 44105
Non-critical_ROB_Stalls_Percent_1_Bucket_3: 38909
Critical_ROB_Stalls_Percent_1_Bucket_4: 37088
Non-critical_ROB_Stalls_Percent_1_Bucket_4: 30917
Critical_ROB_Stalls_Percent_1_Bucket_5: 39716
Non-critical_ROB_Stalls_Percent_1_Bucket_5: 33186
Critical_ROB_Stalls_Percent_1_Bucket_6: 138920
Non-critical_ROB_Stalls_Percent_1_Bucket_6: 79306
Critical_ROB_Stalls_Percent_2_Bucket_0: 588197
Non-critical_ROB_Stalls_Percent_2_Bucket_0: 456831
Critical_ROB_Stalls_Percent_2_Bucket_1: 411985
Non-critical_ROB_Stalls_Percent_2_Bucket_1: 186759
Critical_ROB_Stalls_Percent_2_Bucket_2: 115383
Non-critical_ROB_Stalls_Percent_2_Bucket_2: 67511
Critical_ROB_Stalls_Percent_2_Bucket_3: 46385
Non-critical_ROB_Stalls_Percent_2_Bucket_3: 36629
Critical_ROB_Stalls_Percent_2_Bucket_4: 38751
Non-critical_ROB_Stalls_Percent_2_Bucket_4: 29254
Critical_ROB_Stalls_Percent_2_Bucket_5: 40782
Non-critical_ROB_Stalls_Percent_2_Bucket_5: 32120
Critical_ROB_Stalls_Percent_2_Bucket_6: 139915
Non-critical_ROB_Stalls_Percent_2_Bucket_6: 78311
Critical_ROB_Stalls_Percent_3_Bucket_0: 668248
Non-critical_ROB_Stalls_Percent_3_Bucket_0: 376780
Critical_ROB_Stalls_Percent_3_Bucket_1: 425629
Non-critical_ROB_Stalls_Percent_3_Bucket_1: 173115
Critical_ROB_Stalls_Percent_3_Bucket_2: 117312
Non-critical_ROB_Stalls_Percent_3_Bucket_2: 65582
Critical_ROB_Stalls_Percent_3_Bucket_3: 47876
Non-critical_ROB_Stalls_Percent_3_Bucket_3: 35138
Critical_ROB_Stalls_Percent_3_Bucket_4: 39980
Non-critical_ROB_Stalls_Percent_3_Bucket_4: 28025
Critical_ROB_Stalls_Percent_3_Bucket_5: 42100
Non-critical_ROB_Stalls_Percent_3_Bucket_5: 30802
Critical_ROB_Stalls_Percent_3_Bucket_6: 144895
Non-critical_ROB_Stalls_Percent_3_Bucket_6: 73331
Critical_ROB_Stalls_Percent_4_Bucket_0: 759965
Non-critical_ROB_Stalls_Percent_4_Bucket_0: 285063
Critical_ROB_Stalls_Percent_4_Bucket_1: 447157
Non-critical_ROB_Stalls_Percent_4_Bucket_1: 151587
Critical_ROB_Stalls_Percent_4_Bucket_2: 122461
Non-critical_ROB_Stalls_Percent_4_Bucket_2: 60433
Critical_ROB_Stalls_Percent_4_Bucket_3: 49328
Non-critical_ROB_Stalls_Percent_4_Bucket_3: 33686
Critical_ROB_Stalls_Percent_4_Bucket_4: 40886
Non-critical_ROB_Stalls_Percent_4_Bucket_4: 27119
Critical_ROB_Stalls_Percent_4_Bucket_5: 42788
Non-critical_ROB_Stalls_Percent_4_Bucket_5: 30114
Critical_ROB_Stalls_Percent_4_Bucket_6: 145836
Non-critical_ROB_Stalls_Percent_4_Bucket_6: 72390
Critical_ROB_Stalls_Percent_5_Bucket_0: 819799
Non-critical_ROB_Stalls_Percent_5_Bucket_0: 225229
Critical_ROB_Stalls_Percent_5_Bucket_1: 479743
Non-critical_ROB_Stalls_Percent_5_Bucket_1: 119001
Critical_ROB_Stalls_Percent_5_Bucket_2: 128449
Non-critical_ROB_Stalls_Percent_5_Bucket_2: 54445
Critical_ROB_Stalls_Percent_5_Bucket_3: 51095
Non-critical_ROB_Stalls_Percent_5_Bucket_3: 31919
Critical_ROB_Stalls_Percent_5_Bucket_4: 41985
Non-critical_ROB_Stalls_Percent_5_Bucket_4: 26020
Critical_ROB_Stalls_Percent_5_Bucket_5: 43435
Non-critical_ROB_Stalls_Percent_5_Bucket_5: 29467
Critical_ROB_Stalls_Percent_5_Bucket_6: 146260
Non-critical_ROB_Stalls_Percent_5_Bucket_6: 71966
Critical_ROB_Stalls_Percent_6_Bucket_0: 847531
Non-critical_ROB_Stalls_Percent_6_Bucket_0: 197497
Critical_ROB_Stalls_Percent_6_Bucket_1: 512820
Non-critical_ROB_Stalls_Percent_6_Bucket_1: 85924
Critical_ROB_Stalls_Percent_6_Bucket_2: 141878
Non-critical_ROB_Stalls_Percent_6_Bucket_2: 41016
Critical_ROB_Stalls_Percent_6_Bucket_3: 55020
Non-critical_ROB_Stalls_Percent_6_Bucket_3: 27994
Critical_ROB_Stalls_Percent_6_Bucket_4: 46577
Non-critical_ROB_Stalls_Percent_6_Bucket_4: 21428
Critical_ROB_Stalls_Percent_6_Bucket_5: 50829
Non-critical_ROB_Stalls_Percent_6_Bucket_5: 22073
Critical_ROB_Stalls_Percent_6_Bucket_6: 169411
Non-critical_ROB_Stalls_Percent_6_Bucket_6: 48815
Critical_ROB_Stalls_Percent_7_Bucket_0: 876652
Non-critical_ROB_Stalls_Percent_7_Bucket_0: 168376
Critical_ROB_Stalls_Percent_7_Bucket_1: 535829
Non-critical_ROB_Stalls_Percent_7_Bucket_1: 62915
Critical_ROB_Stalls_Percent_7_Bucket_2: 154910
Non-critical_ROB_Stalls_Percent_7_Bucket_2: 27984
Critical_ROB_Stalls_Percent_7_Bucket_3: 65155
Non-critical_ROB_Stalls_Percent_7_Bucket_3: 17859
Critical_ROB_Stalls_Percent_7_Bucket_4: 54131
Non-critical_ROB_Stalls_Percent_7_Bucket_4: 13874
Critical_ROB_Stalls_Percent_7_Bucket_5: 59315
Non-critical_ROB_Stalls_Percent_7_Bucket_5: 13587
Critical_ROB_Stalls_Percent_7_Bucket_6: 187140
Non-critical_ROB_Stalls_Percent_7_Bucket_6: 31086
Critical_ROB_Stalls_Percent_8_Bucket_0: 951131
Non-critical_ROB_Stalls_Percent_8_Bucket_0: 93897
Critical_ROB_Stalls_Percent_8_Bucket_1: 552602
Non-critical_ROB_Stalls_Percent_8_Bucket_1: 46142
Critical_ROB_Stalls_Percent_8_Bucket_2: 160708
Non-critical_ROB_Stalls_Percent_8_Bucket_2: 22186
Critical_ROB_Stalls_Percent_8_Bucket_3: 68799
Non-critical_ROB_Stalls_Percent_8_Bucket_3: 14215
Critical_ROB_Stalls_Percent_8_Bucket_4: 57350
Non-critical_ROB_Stalls_Percent_8_Bucket_4: 10655
Critical_ROB_Stalls_Percent_8_Bucket_5: 62146
Non-critical_ROB_Stalls_Percent_8_Bucket_5: 10756
Critical_ROB_Stalls_Percent_8_Bucket_6: 193138
Non-critical_ROB_Stalls_Percent_8_Bucket_6: 25088
Average ROB occupancy Load Stall Begin: 82.619
Average ROB occupancy Load Stall End: 96.1568
Min ROB occupancy Load Stall Begin: 1
Max ROB occupancy Load Stall Begin: 352
Min ROB occupancy Load Stall End: 1
Max ROB occupancy Load Stall End: 352
Average ROB occupancy Critical Load Stall Begin: -nan
Average ROB occupancy Critical Load Stall End: -nan
Min ROB occupancy Critical Load Stall Begin: 400
Max ROB occupancy Critical Load Stall Begin: 0
Min ROB occupancy Critical Load Stall End: 400
Max ROB occupancy Critical Load Stall End: 0
 ROB Load Stall Begin Bucket Count 0: 1283976
 ROB Load Stall End Bucket Count 0: 1045028
 ROB Critical Load Stall Begin Bucket Count 0: 0
 ROB Critical Load Stall End Bucket Count 0: 0
 ROB Load Stall Begin Bucket Count 1: 469066
 ROB Load Stall End Bucket Count 1: 598744
 ROB Critical Load Stall Begin Bucket Count 1: 0
 ROB Critical Load Stall End Bucket Count 1: 0
 ROB Load Stall Begin Bucket Count 2: 120704
 ROB Load Stall End Bucket Count 2: 182894
 ROB Critical Load Stall Begin Bucket Count 2: 0
 ROB Critical Load Stall End Bucket Count 2: 0
 ROB Load Stall Begin Bucket Count 3: 71541
 ROB Load Stall End Bucket Count 3: 83014
 ROB Critical Load Stall Begin Bucket Count 3: 0
 ROB Critical Load Stall End Bucket Count 3: 0
 ROB Load Stall Begin Bucket Count 4: 68044
 ROB Load Stall End Bucket Count 4: 68005
 ROB Critical Load Stall Begin Bucket Count 4: 0
 ROB Critical Load Stall End Bucket Count 4: 0
 ROB Load Stall Begin Bucket Count 5: 80889
 ROB Load Stall End Bucket Count 5: 72902
 ROB Critical Load Stall Begin Bucket Count 5: 0
 ROB Critical Load Stall End Bucket Count 5: 0
 ROB Load Stall Begin Bucket Count 6: 174593
 ROB Load Stall End Bucket Count 6: 218226
 ROB Critical Load Stall Begin Bucket Count 6: 0
 ROB Critical Load Stall End Bucket Count 6: 0
PIST Tag Read Accesses: 320638
PIST Read Accesses: 160319
PIST Tag Write Accesses: 320638
PIST Write Accesses: 160319
Criticality detector called times: 288402
Max global_stall_cycles_count: 2775425
Threshold Modified: 1 times, factor: -1
Sturdy critical IP cache stats: 
 Unused entries: 0
CIC Tag Read Accesses: 0
CIC Read Accesses: 0
CIC Tag Write Accesses: 0
CIC Write Accesses: 0
Wobbly critical IP cache stats: 
 Unused entries: 30
CIC Tag Read Accesses: 59640690
CIC Read Accesses: 0
CIC Tag Write Accesses: 713093
CIC Write Accesses: 0
ITLB TOTAL     ACCESS:    8135526  HIT:    7908731  MISS:     226795  HIT %:    97.2123  MISS %:    2.78771   MPKI: 4.5359
ITLB LOAD TRANSLATION ACCESS:    8135526  HIT:    7908731  MISS:     226795  HIT %:    97.2123  MISS %:    2.78771   MPKI: 4.5359
ITLB PREFETCH  REQUESTED:          0  ISSUED:          0  USEFUL:          0  USELESS:          0
ITLB USEFUL LOAD PREFETCHES:          0 PREFETCH ISSUED TO LOWER LEVEL:          0  ACCURACY: -nan
ITLB TIMELY PREFETCHES:          0 LATE PREFETCHES: 0 DROPPED PREFETCHES: 0
ITLB PREFETCHES SAME FILL-ORIGIN LEVEL: 0 DIFFERENT FILL-ORIGIN LEVEL: 0
ITLB AVERAGE MISS LATENCY: 20.7042 cycles
ITLB RQ	ACCESS:   10048432	FORWARD:          0	MERGED:    1804918	TO_CACHE:    8243514

DTLB TOTAL     ACCESS:    6079138  HIT:    4808511  MISS:    1270627  HIT %:    79.0986  MISS %:    20.9014   MPKI: 25.4125
DTLB LOAD TRANSLATION ACCESS:    6079138  HIT:    4808511  MISS:    1270627  HIT %:    79.0986  MISS %:    20.9014   MPKI: 25.4125
DTLB PREFETCH  REQUESTED:          0  ISSUED:          0  USEFUL:          0  USELESS:          0
DTLB USEFUL LOAD PREFETCHES:          0 PREFETCH ISSUED TO LOWER LEVEL:          0  ACCURACY: -nan
DTLB TIMELY PREFETCHES:          0 LATE PREFETCHES: 0 DROPPED PREFETCHES: 0
DTLB PREFETCHES SAME FILL-ORIGIN LEVEL: 0 DIFFERENT FILL-ORIGIN LEVEL: 0
DTLB AVERAGE MISS LATENCY: 15.4741 cycles
DTLB RQ	ACCESS:    6878380	FORWARD:          0	MERGED:     655958	TO_CACHE:    6222422

STLB TOTAL     ACCESS:    2090219  HIT:    1607702  MISS:     482517  HIT %:    76.9155  MISS %:    23.0845   MPKI: 9.65034
STLB LOAD TRANSLATION ACCESS:    1497422  HIT:    1111768  MISS:     385654  HIT %:    74.2455  MISS %:    25.7545   MPKI: 7.71308
STLB TRANSLATION FROM L1D PREFETCHER ACCESS:     592797  HIT:     495934  MISS:      96863  HIT %:      83.66  MISS %:      16.34   MPKI: 1.93726
STLB PREFETCH  REQUESTED:          0  ISSUED:          0  USEFUL:      42452  USELESS:      54411
STLB USEFUL LOAD PREFETCHES:      42452 PREFETCH ISSUED TO LOWER LEVEL:          0  ACCURACY: inf
STLB TIMELY PREFETCHES:      42452 LATE PREFETCHES: 0 DROPPED PREFETCHES: 0
STLB PREFETCHES SAME FILL-ORIGIN LEVEL: 0 DIFFERENT FILL-ORIGIN LEVEL: 0
STLB AVERAGE MISS LATENCY: 26.6622 cycles
STLB RQ	ACCESS:    2237185	FORWARD:          0	MERGED:     145238	TO_CACHE:    2091947

STLB Hit, L1D data hit: 0
STLB Hit, L2C data hit: 0
STLB Hit, LLC data hit: 0
STLB Hit, LLC data miss: 0
STLB STLB hints to L2: 0
L1D TOTAL     ACCESS:    7345448  HIT:    6581775  MISS:     763673  HIT %:    89.6035  MISS %:    10.3965   MPKI: 15.2735
L1D LOAD      ACCESS:    5894624  HIT:    5581885  MISS:     312739  HIT %:    94.6945  MISS %:     5.3055   MPKI: 6.25478
L1D RFO       ACCESS:     789383  HIT:     674628  MISS:     114755  HIT %:    85.4627  MISS %:    14.5373   MPKI: 2.2951
L1D PREFETCH  ACCESS:     661441  HIT:     325262  MISS:     336179  HIT %:    49.1748  MISS %:    50.8252   MPKI: 6.72358
L1D PREFETCH  REQUESTED:    1479622  ISSUED:    1479611  USEFUL:     234774  USELESS:     101373
L1D USEFUL LOAD PREFETCHES:     234774 PREFETCH ISSUED TO LOWER LEVEL:     378251  ACCURACY: 62.0683
L1D TIMELY PREFETCHES:     234774 LATE PREFETCHES: 41966 DROPPED PREFETCHES: 0
L1D PREFETCHES SAME FILL-ORIGIN LEVEL: 378251 DIFFERENT FILL-ORIGIN LEVEL: 0
L1D AVERAGE MISS LATENCY: 2.82783e+06 cycles
L1D RQ	ACCESS:    8952255	FORWARD:          0	MERGED:    2947890	TO_CACHE:    5980989
L1D WQ	ACCESS:    1013559	FORWARD:      23461	MERGED:     116168	TO_CACHE:     897391
L1D PQ	ACCESS:     739848	FORWARD:          0	MERGED:          0	TO_CACHE:     739763

L1D UNIQUE REGIONS ACCESSED: 0
L1D REGIONS CONFLICTS: 0
L1D Cross Page Prefetch Requests: 0
L1D Same Page Prefetch Requests: 2089199
L1D ROI Sum of L1D PQ occupancy: 16975643
L1D PREFETCHES PUSHED FROM L2C: 0
L1I TOTAL     ACCESS:   10048241  HIT:   10047367  MISS:        874  HIT %:    99.9913  MISS %: 0.00869804   MPKI: 0.01748
L1I LOAD      ACCESS:   10048241  HIT:   10047367  MISS:        874  HIT %:    99.9913  MISS %: 0.00869804   MPKI: 0.01748
L1I PREFETCH  REQUESTED:          0  ISSUED:          0  USEFUL:          0  USELESS:          0
L1I USEFUL LOAD PREFETCHES:          0 PREFETCH ISSUED TO LOWER LEVEL:          0  ACCURACY: -nan
L1I TIMELY PREFETCHES:          0 LATE PREFETCHES: 0 DROPPED PREFETCHES: 0
L1I PREFETCHES SAME FILL-ORIGIN LEVEL: 0 DIFFERENT FILL-ORIGIN LEVEL: 0
L1I AVERAGE MISS LATENCY: 205.949 cycles
L1I RQ	ACCESS:   17027310	FORWARD:          0	MERGED:    6978878	TO_CACHE:   10048432

BTB BRANCH_DIRECT_JUMP	ACCESS:          0  HIT:          0  MISS:          0
BTB BRANCH_INDIRECT	ACCESS:          0  HIT:          0  MISS:          0
BTB BRANCH_CONDITIONAL	ACCESS:          0  HIT:          0  MISS:          0
BTB BRANCH_DIRECT_CALL	ACCESS:          0  HIT:          0  MISS:          0
BTB BRANCH_INDIRECT_CALL	ACCESS:          0  HIT:          0  MISS:          0
BTB BRANCH_RETURN	ACCESS:          0  HIT:          0  MISS:          0
BTB BRANCH_OTHER ACCESS:          0  HIT:          0  MISS:          0

L2C TOTAL     ACCESS:    1803608  HIT:    1135792  MISS:     667816  HIT %:    62.9733  MISS %:    37.0267   MPKI: 13.3563
L2C LOAD      ACCESS:     271647  HIT:      81585  MISS:     190062  HIT %:    30.0335  MISS %:    69.9665   MPKI: 3.80124
L2C DATA LOAD MPKI: 3.78376
L2C INSTRUCTION LOAD MPKI: 0.01748
L2C RFO       ACCESS:     114650  HIT:       1128  MISS:     113522  HIT %:   0.983864  MISS %:    99.0161   MPKI: 2.27044
L2C PREFETCH  ACCESS:     788411  HIT:     434381  MISS:     354030  HIT %:    55.0958  MISS %:    44.9042   MPKI: 7.0806
L2C DATA PREFETCH MPKI: 7.0806
L2C INSTRUCTION PREFETCH MPKI: 0
L2C WRITEBACK ACCESS:     145817  HIT:     140945  MISS:       4872  HIT %:    96.6588  MISS %:    3.34117   MPKI: 0.09744
L2C LOAD TRANSLATION ACCESS:     386219  HIT:     380892  MISS:       5327  HIT %:    98.6207  MISS %:    1.37927   MPKI: 0.10654
L2C TRANSLATION FROM L1D PREFETCHER ACCESS:      96864  HIT:      96861  MISS:          3  HIT %:    99.9969  MISS %: 0.00309713   MPKI: 6e-05
L2C PREFETCH  REQUESTED:     589545  ISSUED:     589544  USEFUL:      36371  USELESS:     323699
L2C USEFUL LOAD PREFETCHES:      36371 PREFETCH ISSUED TO LOWER LEVEL:     366270  ACCURACY: 9.93011
L2C TIMELY PREFETCHES:      36371 LATE PREFETCHES: 12240 DROPPED PREFETCHES: 0
L2C PREFETCHES SAME FILL-ORIGIN LEVEL: 223375 DIFFERENT FILL-ORIGIN LEVEL: 0
L2C AVERAGE MISS LATENCY: 206.352 cycles
L2C RQ	ACCESS:     869382	FORWARD:          0	MERGED:          0	TO_CACHE:     869380
L2C WQ	ACCESS:     145817	FORWARD:          2	MERGED:          0	TO_CACHE:     145817
L2C PQ	ACCESS:     967792	FORWARD:          0	MERGED:      72147	TO_CACHE:     895645

L2C Instructions Evicting Data 851
L2C Translations Evicting Data 5285
L2C Data Evicting Data 650820
L2C Instructions Evicting Instructions 14
L2C Translations Evicting Instructions 19
L2C Data Evicting Instructions 819
L2C Instructions Evicting Translations 9
L2C Translations Evicting Translations 26
L2C Data Evicting Translations 5101
L2C Dense regions hint from L2: 0
PSCL5 TOTAL     ACCESS:     482517  HIT:     482517  MISS:          0  HIT %:        100  MISS %:          0   MPKI: 0
PSCL5 LOAD TRANSLATION ACCESS:     385654  HIT:     385654  MISS:          0  HIT %:        100  MISS %:          0   MPKI: 0
PSCL5 TRANSLATION FROM L1D PREFETCHER ACCESS:      96863  HIT:      96863  MISS:          0  HIT %:        100  MISS %:          0   MPKI: 0
PSCL5 PREFETCH  REQUESTED:          0  ISSUED:          0  USEFUL:          0  USELESS:          0
PSCL5 USEFUL LOAD PREFETCHES:          0 PREFETCH ISSUED TO LOWER LEVEL:          0  ACCURACY: -nan
PSCL5 TIMELY PREFETCHES:          0 LATE PREFETCHES: 0 DROPPED PREFETCHES: 0
PSCL5 PREFETCHES SAME FILL-ORIGIN LEVEL: 0 DIFFERENT FILL-ORIGIN LEVEL: 0

PSCL4 TOTAL     ACCESS:     482517  HIT:     482517  MISS:          0  HIT %:        100  MISS %:          0   MPKI: 0
PSCL4 LOAD TRANSLATION ACCESS:     385654  HIT:     385654  MISS:          0  HIT %:        100  MISS %:          0   MPKI: 0
PSCL4 TRANSLATION FROM L1D PREFETCHER ACCESS:      96863  HIT:      96863  MISS:          0  HIT %:        100  MISS %:          0   MPKI: 0
PSCL4 PREFETCH  REQUESTED:          0  ISSUED:          0  USEFUL:          0  USELESS:          0
PSCL4 USEFUL LOAD PREFETCHES:          0 PREFETCH ISSUED TO LOWER LEVEL:          0  ACCURACY: -nan
PSCL4 TIMELY PREFETCHES:          0 LATE PREFETCHES: 0 DROPPED PREFETCHES: 0
PSCL4 PREFETCHES SAME FILL-ORIGIN LEVEL: 0 DIFFERENT FILL-ORIGIN LEVEL: 0

PSCL3 TOTAL     ACCESS:     482512  HIT:     482508  MISS:          4  HIT %:    99.9992  MISS %: 0.000828995   MPKI: 8e-05
PSCL3 LOAD TRANSLATION ACCESS:     385649  HIT:     385645  MISS:          4  HIT %:     99.999  MISS %: 0.00103721   MPKI: 8e-05
PSCL3 TRANSLATION FROM L1D PREFETCHER ACCESS:      96863  HIT:      96863  MISS:          0  HIT %:        100  MISS %:          0   MPKI: 0
PSCL3 PREFETCH  REQUESTED:          0  ISSUED:          0  USEFUL:          0  USELESS:          0
PSCL3 USEFUL LOAD PREFETCHES:          0 PREFETCH ISSUED TO LOWER LEVEL:          0  ACCURACY: -nan
PSCL3 TIMELY PREFETCHES:          0 LATE PREFETCHES: 0 DROPPED PREFETCHES: 0
PSCL3 PREFETCHES SAME FILL-ORIGIN LEVEL: 0 DIFFERENT FILL-ORIGIN LEVEL: 0

PSCL2 TOTAL     ACCESS:     482517  HIT:     481953  MISS:        564  HIT %:    99.8831  MISS %:   0.116887   MPKI: 0.01128
PSCL2 LOAD TRANSLATION ACCESS:     385655  HIT:     385091  MISS:        564  HIT %:    99.8538  MISS %:   0.146245   MPKI: 0.01128
PSCL2 TRANSLATION FROM L1D PREFETCHER ACCESS:      96862  HIT:      96862  MISS:          0  HIT %:        100  MISS %:          0   MPKI: 0
PSCL2 PREFETCH  REQUESTED:          0  ISSUED:          0  USEFUL:          0  USELESS:          0
PSCL2 USEFUL LOAD PREFETCHES:          0 PREFETCH ISSUED TO LOWER LEVEL:          0  ACCURACY: -nan
PSCL2 TIMELY PREFETCHES:          0 LATE PREFETCHES: 0 DROPPED PREFETCHES: 0
PSCL2 PREFETCHES SAME FILL-ORIGIN LEVEL: 0 DIFFERENT FILL-ORIGIN LEVEL: 0

LLC TOTAL     ACCESS:     803417  HIT:     207537  MISS:     595880  HIT %:    25.8318  MISS %:    74.1682   MPKI: 11.9176
LLC LOAD      ACCESS:     177823  HIT:      18875  MISS:     158948  HIT %:    10.6145  MISS %:    89.3855   MPKI: 3.17896
LLC RFO       ACCESS:     113521  HIT:        163  MISS:     113358  HIT %:   0.143586  MISS %:    99.8564   MPKI: 2.26716
LLC PREFETCH  ACCESS:     366270  HIT:      48365  MISS:     317905  HIT %:    13.2047  MISS %:    86.7953   MPKI: 6.3581
LLC WRITEBACK ACCESS:     140473  HIT:     138346  MISS:       2127  HIT %:    98.4858  MISS %:    1.51417   MPKI: 0.04254
LLC LOAD TRANSLATION ACCESS:       5327  HIT:       1786  MISS:       3541  HIT %:    33.5273  MISS %:    66.4727   MPKI: 0.07082
LLC TRANSLATION FROM L1D PREFETCHER ACCESS:          3  HIT:          2  MISS:          1  HIT %:    66.6667  MISS %:    33.3333   MPKI: 2e-05
LLC PREFETCH  REQUESTED:          0  ISSUED:          0  USEFUL:       4936  USELESS:     334478
LLC USEFUL LOAD PREFETCHES:       4936 PREFETCH ISSUED TO LOWER LEVEL:     317905  ACCURACY: 1.55267
LLC TIMELY PREFETCHES:       4936 LATE PREFETCHES: 0 DROPPED PREFETCHES: 0
LLC PREFETCHES SAME FILL-ORIGIN LEVEL: 0 DIFFERENT FILL-ORIGIN LEVEL: 0
LLC AVERAGE MISS LATENCY: 199.641 cycles
LLC RQ	ACCESS:     296674	FORWARD:          0	MERGED:          0	TO_CACHE:     296674
LLC WQ	ACCESS:     140473	FORWARD:          0	MERGED:          0	TO_CACHE:     140473
LLC PQ	ACCESS:     366270	FORWARD:          0	MERGED:          0	TO_CACHE:     366270

LLC Dense regions hint to LLC: 0

RAW hits: 371850
Loads Generated: 9324105
Loads sent to L1D: 8952255
Stores Generated: 1013562
Stores sent to L1D: 1013562
Major fault: 0 Minor fault: 11007
Allocated PAGES: 11007

stream: 
stream:times selected: 3894391
stream:pref_filled: 387842
stream:pref_useful: 122811
stream:pref_late: 20148
stream:misses: 63029
stream:misses_by_poll: 0

CS: 
CS:times selected: 1188620
CS:pref_filled: 537764
CS:pref_useful: 507450
CS:pref_late: 22241
CS:misses: 63338
CS:misses_by_poll: 925

CPLX: 
CPLX:times selected: 2699774
CPLX:pref_filled: 66303
CPLX:pref_useful: 26867
CPLX:pref_late: 3141
CPLX:misses: 281222
CPLX:misses_by_poll: 58

NL_L1: 
NL:times selected: 7567
NL:pref_filled: 2837
NL:pref_useful: 750
NL:pref_late: 74
NL:misses: 3754
NL:misses_by_poll: 0

total selections: 7790352
total_filled: 336179
total_useful: 234774
total_late: 46798
total_polluted: 983
total_misses_after_warmup: 399103
conflicts: 554576
Degree Incremented Times: 45906
Degree Decremented Times: 84242

L1 IP Table Write Accesses: 4599424
L1 IP Table Read Accesses: 4044848
L1 RST Write Accesses: 1494365
L1 RST Read Accesses: 2988730
L1 CSPT Write Accesses: 1494365
L1 CSPT Read Accesses: 2619138
L1 RR Filter Tag Write Accesses: 739859
L1 RR Filter Tag Read Accesses: 66451844
L1 IP Table Tag Write Accesses: 5980988
L1 IP Table Tag Read Accesses: 5980988
L1 RST Tag Write Accesses: 0
L1 RST Tag Read Accesses: 14259718
L1 RR Filter Write Accesses: 0
L1 RR Filter Read Accesses: 2600573
test: 1700382
L2 IP Table Read Accesses: 1146295
L2 IP Table Write Accesses: 944288
L2 IP Table Tag Read Accesses: 599499
L2 IP Table Tag Write Accesses: 599499

DRAM Statistics
 CHANNEL 0
 RQ ROW_BUFFER_HIT:     297809  ROW_BUFFER_MISS:     295944
 DBUS_CONGESTED:        258
 WQ ROW_BUFFER_HIT:      25762  ROW_BUFFER_MISS:     104392  FULL:          0

 AVG_CONGESTED_CYCLE: 4
 All warmup complete: 2
Channel 0 Bank busy for read cycles: 0
Channel 0 Bank busy for write cycles: 0
Channel 0
Rank 0
0banks busy for read cycles: 37787801
0banks busy for write cycles: 12537
1banks busy for read cycles: 13309539
1banks busy for write cycles: 2050253
2banks busy for read cycles: 5139316
2banks busy for write cycles: 635983
3banks busy for read cycles: 2080980
3banks busy for write cycles: 275593
4banks busy for read cycles: 1399804
4banks busy for write cycles: 185630
5banks busy for read cycles: 906330
5banks busy for write cycles: 120846
6banks busy for read cycles: 767438
6banks busy for write cycles: 86975
7banks busy for read cycles: 781965
7banks busy for write cycles: 207407
8banks busy for read cycles: 1379991
8banks busy for write cycles: 2350050

CPU 0 Branch Prediction Accuracy: 98.792% MPKI: 2.54542 Average ROB Occupancy at Mispredict: 68.9517
Branch types
NOT_BRANCH: 0 0%
BRANCH_DIRECT_JUMP: 0 0%
BRANCH_INDIRECT: 0 0%
BRANCH_CONDITIONAL: 0 0%
BRANCH_DIRECT_CALL: 0 0%
BRANCH_INDIRECT_CALL: 0 0%
BRANCH_RETURN: 0 0%
BRANCH_OTHER: 0 0%

DRAM PAGES: 1048576
Allocated PAGES: 11007
