
*** ChampSim Multicore Out-of-Order Simulator ***

Warmup Instructions: 50000000
Simulation Instructions: 50000000
Number of CPUs: 1
LLC sets: 2048
LLC ways: 16
Off-chip DRAM Size: 4096 MB Channels: 1 Width: 64-bit Data Rate: 6400 MT/s
CPU 0 runs ../cloudsuite_traces//nutch_phase2_core0.trace.gz
.gz
NUM_OF_IPS_IN_CRITICAL_IP_TRAINING: 64
NUM_OF_CRITICAL_IP_TRAINING_TABLE_WAYS: 2
NUM_OF_CRITICAL_IP_TRAINING_TABLE_SETS: 32
WOBBLY_CRITICAL_IP_CACHE_SETS: 32
WOBBLY_CRITICAL_IP_CACHE_WAYS: 4
BTB has LRU replacement policy
ITLB has LRU replacement policy
DTLB has LRU replacement policy
STLB has LRU replacement policy
L1I has LRU replacement policy
IP Table Entries: 64
L1D has LRU replacement policy
Initialize SRRIP state for L2C
Initialize DRRIP state for LLC
UNIQUE_ASID[0] = €
UNIQUE_ASID[1] = 
Heartbeat CPU 0 instructions: 10000002 cycles: 2781417 heartbeat IPC: 3.59529 cumulative IPC: 3.59529 (Simulation time: 0 hr 3 min 33 sec) 
Heartbeat CPU 0 instructions: 20000001 cycles: 5415498 heartbeat IPC: 3.79639 cumulative IPC: 3.6931 (Simulation time: 0 hr 6 min 37 sec) 
Heartbeat CPU 0 instructions: 30000001 cycles: 8448508 heartbeat IPC: 3.29705 cumulative IPC: 3.55092 (Simulation time: 0 hr 10 min 5 sec) 
Heartbeat CPU 0 instructions: 40000003 cycles: 11128590 heartbeat IPC: 3.73123 cumulative IPC: 3.59435 (Simulation time: 0 hr 12 min 56 sec) 
Heartbeat CPU 0 instructions: 50000002 cycles: 14009655 heartbeat IPC: 3.47094 cumulative IPC: 3.56897 (Simulation time: 0 hr 15 min 15 sec) 

Warmup complete CPU 0 instructions: 50000002 cycles: 14009655 (Simulation time: 0 hr 15 min 15 sec) 

% increase in all ip prefetch 248.364
% increase in all ip prefetch -4.26222
Heartbeat CPU 0 instructions: 60000000 cycles: 25199794 heartbeat IPC: 0.893644 cumulative IPC: 0.893644 (Simulation time: 0 hr 17 min 26 sec) 
Heartbeat CPU 0 instructions: 70000000 cycles: 38598102 heartbeat IPC: 0.746363 cumulative IPC: 0.81339 (Simulation time: 0 hr 19 min 30 sec) 
Heartbeat CPU 0 instructions: 80000001 cycles: 52683474 heartbeat IPC: 0.709956 cumulative IPC: 0.775719 (Simulation time: 0 hr 21 min 9 sec) 
Heartbeat CPU 0 instructions: 90000001 cycles: 66963986 heartbeat IPC: 0.700255 cumulative IPC: 0.755368 (Simulation time: 0 hr 22 min 34 sec) 
Heartbeat CPU 0 instructions: 100000001 cycles: 83127833 heartbeat IPC: 0.618665 cumulative IPC: 0.723399 (Simulation time: 0 hr 23 min 52 sec) 
Finished CPU 0 instructions: 50000003 cycles: 69118209 cumulative IPC: 0.723398 (Simulation time: 0 hr 23 min 52 sec) 

ChampSim completed all CPUs

Region of Interest Statistics

CPU 0 cumulative IPC: 0.723398 instructions: 50000003 cycles: 69118209

CPU 0 Average Load ROB stall cycles: 1.79352e+07
CPU 0 Fraction of times ROB stalled by Loads: 40.4179
CPU 0 Percentage of Load stall cycles in Total stall cycles: 1.8024e+08
Issued all: 33603850
Issued LT all: 27455588
rob_not_full_when_issued_lt_all: 19895033
Issued LT one: 23287204
rob_not_full_when_issued_lt_one: 16371024
 Total stall cycles: 56046856
 Total load stall cycles: 101018770665209
CPU 0 NUM of IPS identified critical: 0
CPU 0 Num of Load IPs stalling ROB: 1097
Threshold modification factor: -1
Max PIST entries: 64
Min PIST entries: 0
Avg PIST entries: 21.24
Trouble in retire width: 0.954399
MaC = Marked as critical.
lt_50_percent_before_Mac: 0
gt_90_percent_before_Mac: 0
gt_75_percent_before_Mac: 0
gt_50_percent_before_Mac: 0
stall_proportion_bin_same_before_after: 0
stall_proportion_bin_lower_before_after: 0
stall_proportion_bin_upper_before_after: 0
average_stall_proportion_before: -nan
average_stall_proportion_after: -nan
Critical IP stalls, total frequency: 0
Non-critical IP stalls, total frequency: 2276510
Total Freq all stalling IPs: 2276510
stat_90_percent_critical_ip_stalls_freq: 2052107
stat_90_percent_non_critical_ip_stalls_freq: 224403
Critical_IP_ROB_Stalls_Bucket_0: 0
Non-critical_IP_ROB_Stalls_Bucket_0: 1055677
Critical_IP_ROB_Stalls_Bucket_1: 0
Non-critical_IP_ROB_Stalls_Bucket_1: 610133
Critical_IP_ROB_Stalls_Bucket_2: 0
Non-critical_IP_ROB_Stalls_Bucket_2: 183491
Critical_IP_ROB_Stalls_Bucket_3: 0
Non-critical_IP_ROB_Stalls_Bucket_3: 81339
Critical_IP_ROB_Stalls_Bucket_4: 0
Non-critical_IP_ROB_Stalls_Bucket_4: 64896
Critical_IP_ROB_Stalls_Bucket_5: 0
Non-critical_IP_ROB_Stalls_Bucket_5: 70210
Critical_IP_ROB_Stalls_Bucket_6: 0
Non-critical_IP_ROB_Stalls_Bucket_6: 210764
0 => IPs accounting for >50 percent of stalls, 1 => 55, 2 => 60, 3 => 65 and so on till 90.
percent50: 50.7814 num IPs:  7
percent55: 57.7146 num IPs: 9
percent60: 60.7196 num IPs: 10
percent65: 65.3318 num IPs: 12
percent70: 70.7259 num IPs: 16
percent75: 75.2571 num IPs: 21
percent80: 80.2218 num IPs: 30
percent85: 85.0939 num IPs: 41
percent90: 90.1427 num IPs: 59
Critical_ROB_Stalls_Percent_0_Bucket_0: 447770
Non-critical_ROB_Stalls_Percent_0_Bucket_0: 607907
Critical_ROB_Stalls_Percent_0_Bucket_1: 374091
Non-critical_ROB_Stalls_Percent_0_Bucket_1: 236042
Critical_ROB_Stalls_Percent_0_Bucket_2: 98900
Non-critical_ROB_Stalls_Percent_0_Bucket_2: 84591
Critical_ROB_Stalls_Percent_0_Bucket_3: 38324
Non-critical_ROB_Stalls_Percent_0_Bucket_3: 43015
Critical_ROB_Stalls_Percent_0_Bucket_4: 31227
Non-critical_ROB_Stalls_Percent_0_Bucket_4: 33669
Critical_ROB_Stalls_Percent_0_Bucket_5: 33947
Non-critical_ROB_Stalls_Percent_0_Bucket_5: 36263
Critical_ROB_Stalls_Percent_0_Bucket_6: 131785
Non-critical_ROB_Stalls_Percent_0_Bucket_6: 78979
Critical_ROB_Stalls_Percent_1_Bucket_0: 565743
Non-critical_ROB_Stalls_Percent_1_Bucket_0: 489934
Critical_ROB_Stalls_Percent_1_Bucket_1: 383208
Non-critical_ROB_Stalls_Percent_1_Bucket_1: 226925
Critical_ROB_Stalls_Percent_1_Bucket_2: 104635
Non-critical_ROB_Stalls_Percent_1_Bucket_2: 78856
Critical_ROB_Stalls_Percent_1_Bucket_3: 43749
Non-critical_ROB_Stalls_Percent_1_Bucket_3: 37590
Critical_ROB_Stalls_Percent_1_Bucket_4: 37000
Non-critical_ROB_Stalls_Percent_1_Bucket_4: 27896
Critical_ROB_Stalls_Percent_1_Bucket_5: 39823
Non-critical_ROB_Stalls_Percent_1_Bucket_5: 30387
Critical_ROB_Stalls_Percent_1_Bucket_6: 139721
Non-critical_ROB_Stalls_Percent_1_Bucket_6: 71043
Critical_ROB_Stalls_Percent_2_Bucket_0: 589182
Non-critical_ROB_Stalls_Percent_2_Bucket_0: 466495
Critical_ROB_Stalls_Percent_2_Bucket_1: 412399
Non-critical_ROB_Stalls_Percent_2_Bucket_1: 197734
Critical_ROB_Stalls_Percent_2_Bucket_2: 114727
Non-critical_ROB_Stalls_Percent_2_Bucket_2: 68764
Critical_ROB_Stalls_Percent_2_Bucket_3: 45993
Non-critical_ROB_Stalls_Percent_2_Bucket_3: 35346
Critical_ROB_Stalls_Percent_2_Bucket_4: 38555
Non-critical_ROB_Stalls_Percent_2_Bucket_4: 26341
Critical_ROB_Stalls_Percent_2_Bucket_5: 40805
Non-critical_ROB_Stalls_Percent_2_Bucket_5: 29405
Critical_ROB_Stalls_Percent_2_Bucket_6: 140626
Non-critical_ROB_Stalls_Percent_2_Bucket_6: 70138
Critical_ROB_Stalls_Percent_3_Bucket_0: 669498
Non-critical_ROB_Stalls_Percent_3_Bucket_0: 386179
Critical_ROB_Stalls_Percent_3_Bucket_1: 426147
Non-critical_ROB_Stalls_Percent_3_Bucket_1: 183986
Critical_ROB_Stalls_Percent_3_Bucket_2: 116587
Non-critical_ROB_Stalls_Percent_3_Bucket_2: 66904
Critical_ROB_Stalls_Percent_3_Bucket_3: 47540
Non-critical_ROB_Stalls_Percent_3_Bucket_3: 33799
Critical_ROB_Stalls_Percent_3_Bucket_4: 39734
Non-critical_ROB_Stalls_Percent_3_Bucket_4: 25162
Critical_ROB_Stalls_Percent_3_Bucket_5: 42152
Non-critical_ROB_Stalls_Percent_3_Bucket_5: 28058
Critical_ROB_Stalls_Percent_3_Bucket_6: 145628
Non-critical_ROB_Stalls_Percent_3_Bucket_6: 65136
Critical_ROB_Stalls_Percent_4_Bucket_0: 761683
Non-critical_ROB_Stalls_Percent_4_Bucket_0: 293994
Critical_ROB_Stalls_Percent_4_Bucket_1: 447773
Non-critical_ROB_Stalls_Percent_4_Bucket_1: 162360
Critical_ROB_Stalls_Percent_4_Bucket_2: 121681
Non-critical_ROB_Stalls_Percent_4_Bucket_2: 61810
Critical_ROB_Stalls_Percent_4_Bucket_3: 48970
Non-critical_ROB_Stalls_Percent_4_Bucket_3: 32369
Critical_ROB_Stalls_Percent_4_Bucket_4: 40617
Non-critical_ROB_Stalls_Percent_4_Bucket_4: 24279
Critical_ROB_Stalls_Percent_4_Bucket_5: 42816
Non-critical_ROB_Stalls_Percent_4_Bucket_5: 27394
Critical_ROB_Stalls_Percent_4_Bucket_6: 146543
Non-critical_ROB_Stalls_Percent_4_Bucket_6: 64221
Critical_ROB_Stalls_Percent_5_Bucket_0: 822434
Non-critical_ROB_Stalls_Percent_5_Bucket_0: 233243
Critical_ROB_Stalls_Percent_5_Bucket_1: 480464
Non-critical_ROB_Stalls_Percent_5_Bucket_1: 129669
Critical_ROB_Stalls_Percent_5_Bucket_2: 127662
Non-critical_ROB_Stalls_Percent_5_Bucket_2: 55829
Critical_ROB_Stalls_Percent_5_Bucket_3: 50648
Non-critical_ROB_Stalls_Percent_5_Bucket_3: 30691
Critical_ROB_Stalls_Percent_5_Bucket_4: 41669
Non-critical_ROB_Stalls_Percent_5_Bucket_4: 23227
Critical_ROB_Stalls_Percent_5_Bucket_5: 43417
Non-critical_ROB_Stalls_Percent_5_Bucket_5: 26793
Critical_ROB_Stalls_Percent_5_Bucket_6: 146941
Non-critical_ROB_Stalls_Percent_5_Bucket_6: 63823
Critical_ROB_Stalls_Percent_6_Bucket_0: 848258
Non-critical_ROB_Stalls_Percent_6_Bucket_0: 207419
Critical_ROB_Stalls_Percent_6_Bucket_1: 516859
Non-critical_ROB_Stalls_Percent_6_Bucket_1: 93274
Critical_ROB_Stalls_Percent_6_Bucket_2: 140841
Non-critical_ROB_Stalls_Percent_6_Bucket_2: 42650
Critical_ROB_Stalls_Percent_6_Bucket_3: 54682
Non-critical_ROB_Stalls_Percent_6_Bucket_3: 26657
Critical_ROB_Stalls_Percent_6_Bucket_4: 45565
Non-critical_ROB_Stalls_Percent_6_Bucket_4: 19331
Critical_ROB_Stalls_Percent_6_Bucket_5: 51444
Non-critical_ROB_Stalls_Percent_6_Bucket_5: 18766
Critical_ROB_Stalls_Percent_6_Bucket_6: 168608
Non-critical_ROB_Stalls_Percent_6_Bucket_6: 42156
Critical_ROB_Stalls_Percent_7_Bucket_0: 882662
Non-critical_ROB_Stalls_Percent_7_Bucket_0: 173015
Critical_ROB_Stalls_Percent_7_Bucket_1: 544546
Non-critical_ROB_Stalls_Percent_7_Bucket_1: 65587
Critical_ROB_Stalls_Percent_7_Bucket_2: 155541
Non-critical_ROB_Stalls_Percent_7_Bucket_2: 27950
Critical_ROB_Stalls_Percent_7_Bucket_3: 63761
Non-critical_ROB_Stalls_Percent_7_Bucket_3: 17578
Critical_ROB_Stalls_Percent_7_Bucket_4: 51905
Non-critical_ROB_Stalls_Percent_7_Bucket_4: 12991
Critical_ROB_Stalls_Percent_7_Bucket_5: 57237
Non-critical_ROB_Stalls_Percent_7_Bucket_5: 12973
Critical_ROB_Stalls_Percent_7_Bucket_6: 181518
Non-critical_ROB_Stalls_Percent_7_Bucket_6: 29246
Critical_ROB_Stalls_Percent_8_Bucket_0: 959570
Non-critical_ROB_Stalls_Percent_8_Bucket_0: 96107
Critical_ROB_Stalls_Percent_8_Bucket_1: 562320
Non-critical_ROB_Stalls_Percent_8_Bucket_1: 47813
Critical_ROB_Stalls_Percent_8_Bucket_2: 161363
Non-critical_ROB_Stalls_Percent_8_Bucket_2: 22128
Critical_ROB_Stalls_Percent_8_Bucket_3: 67213
Non-critical_ROB_Stalls_Percent_8_Bucket_3: 14126
Critical_ROB_Stalls_Percent_8_Bucket_4: 54871
Non-critical_ROB_Stalls_Percent_8_Bucket_4: 10025
Critical_ROB_Stalls_Percent_8_Bucket_5: 59840
Non-critical_ROB_Stalls_Percent_8_Bucket_5: 10370
Critical_ROB_Stalls_Percent_8_Bucket_6: 186930
Non-critical_ROB_Stalls_Percent_8_Bucket_6: 23834
Average ROB occupancy Load Stall Begin: 81.011
Average ROB occupancy Load Stall End: 94.49
Min ROB occupancy Load Stall Begin: 1
Max ROB occupancy Load Stall Begin: 352
Min ROB occupancy Load Stall End: 1
Max ROB occupancy Load Stall End: 352
Average ROB occupancy Critical Load Stall Begin: -nan
Average ROB occupancy Critical Load Stall End: -nan
Min ROB occupancy Critical Load Stall Begin: 400
Max ROB occupancy Critical Load Stall Begin: 0
Min ROB occupancy Critical Load Stall End: 400
Max ROB occupancy Critical Load Stall End: 0
 ROB Load Stall Begin Bucket Count 0: 1297789
 ROB Load Stall End Bucket Count 0: 1055677
 ROB Critical Load Stall Begin Bucket Count 0: 0
 ROB Critical Load Stall End Bucket Count 0: 0
 ROB Load Stall Begin Bucket Count 1: 477920
 ROB Load Stall End Bucket Count 1: 610133
 ROB Critical Load Stall Begin Bucket Count 1: 0
 ROB Critical Load Stall End Bucket Count 1: 0
 ROB Load Stall Begin Bucket Count 2: 119686
 ROB Load Stall End Bucket Count 2: 183491
 ROB Critical Load Stall Begin Bucket Count 2: 0
 ROB Critical Load Stall End Bucket Count 2: 0
 ROB Load Stall Begin Bucket Count 3: 69392
 ROB Load Stall End Bucket Count 3: 81339
 ROB Critical Load Stall Begin Bucket Count 3: 0
 ROB Critical Load Stall End Bucket Count 3: 0
 ROB Load Stall Begin Bucket Count 4: 64976
 ROB Load Stall End Bucket Count 4: 64896
 ROB Critical Load Stall Begin Bucket Count 4: 0
 ROB Critical Load Stall End Bucket Count 4: 0
 ROB Load Stall Begin Bucket Count 5: 78301
 ROB Load Stall End Bucket Count 5: 70210
 ROB Critical Load Stall Begin Bucket Count 5: 0
 ROB Critical Load Stall End Bucket Count 5: 0
 ROB Load Stall Begin Bucket Count 6: 168446
 ROB Load Stall End Bucket Count 6: 210764
 ROB Critical Load Stall Begin Bucket Count 6: 0
 ROB Critical Load Stall End Bucket Count 6: 0
PIST Tag Read Accesses: 320982
PIST Read Accesses: 160491
PIST Tag Write Accesses: 320982
PIST Write Accesses: 160491
Criticality detector called times: 292781
Max global_stall_cycles_count: 2429158
Threshold Modified: 1 times, factor: -1
Sturdy critical IP cache stats: 
 Unused entries: 0
CIC Tag Read Accesses: 0
CIC Read Accesses: 0
CIC Tag Write Accesses: 0
CIC Write Accesses: 0
Wobbly critical IP cache stats: 
 Unused entries: 35
CIC Tag Read Accesses: 59549720
CIC Read Accesses: 0
CIC Tag Write Accesses: 698295
CIC Write Accesses: 0
ITLB TOTAL     ACCESS:    8133886  HIT:    7907101  MISS:     226785  HIT %:    97.2118  MISS %:    2.78815   MPKI: 4.5357
ITLB LOAD TRANSLATION ACCESS:    8133886  HIT:    7907101  MISS:     226785  HIT %:    97.2118  MISS %:    2.78815   MPKI: 4.5357
ITLB PREFETCH  REQUESTED:          0  ISSUED:          0  USEFUL:          0  USELESS:          0
ITLB USEFUL LOAD PREFETCHES:          0 PREFETCH ISSUED TO LOWER LEVEL:          0  ACCURACY: -nan
ITLB TIMELY PREFETCHES:          0 LATE PREFETCHES: 0 DROPPED PREFETCHES: 0
ITLB PREFETCHES SAME FILL-ORIGIN LEVEL: 0 DIFFERENT FILL-ORIGIN LEVEL: 0
ITLB AVERAGE MISS LATENCY: 20.9486 cycles
ITLB RQ	ACCESS:   10047461	FORWARD:          0	MERGED:    1805265	TO_CACHE:    8242196

DTLB TOTAL     ACCESS:    6087275  HIT:    4816847  MISS:    1270428  HIT %:    79.1298  MISS %:    20.8702   MPKI: 25.4086
DTLB LOAD TRANSLATION ACCESS:    6087275  HIT:    4816847  MISS:    1270428  HIT %:    79.1298  MISS %:    20.8702   MPKI: 25.4086
DTLB PREFETCH  REQUESTED:          0  ISSUED:          0  USEFUL:          0  USELESS:          0
DTLB USEFUL LOAD PREFETCHES:          0 PREFETCH ISSUED TO LOWER LEVEL:          0  ACCURACY: -nan
DTLB TIMELY PREFETCHES:          0 LATE PREFETCHES: 0 DROPPED PREFETCHES: 0
DTLB PREFETCHES SAME FILL-ORIGIN LEVEL: 0 DIFFERENT FILL-ORIGIN LEVEL: 0
DTLB AVERAGE MISS LATENCY: 15.4838 cycles
DTLB RQ	ACCESS:    6887420	FORWARD:          0	MERGED:     657205	TO_CACHE:    6230215

STLB TOTAL     ACCESS:    2126993  HIT:    1633616  MISS:     493377  HIT %:     76.804  MISS %:     23.196   MPKI: 9.86754
STLB LOAD TRANSLATION ACCESS:    1497213  HIT:    1107084  MISS:     390129  HIT %:     73.943  MISS %:     26.057   MPKI: 7.80258
STLB TRANSLATION FROM L1D PREFETCHER ACCESS:     629780  HIT:     526532  MISS:     103248  HIT %:    83.6057  MISS %:    16.3943   MPKI: 2.06496
STLB PREFETCH  REQUESTED:          0  ISSUED:          0  USEFUL:      45857  USELESS:      57391
STLB USEFUL LOAD PREFETCHES:      45857 PREFETCH ISSUED TO LOWER LEVEL:          0  ACCURACY: inf
STLB TIMELY PREFETCHES:      45857 LATE PREFETCHES: 0 DROPPED PREFETCHES: 0
STLB PREFETCHES SAME FILL-ORIGIN LEVEL: 0 DIFFERENT FILL-ORIGIN LEVEL: 0
STLB AVERAGE MISS LATENCY: 26.4775 cycles
STLB RQ	ACCESS:    2277608	FORWARD:          0	MERGED:     148685	TO_CACHE:    2128923

STLB Hit, L1D data hit: 0
STLB Hit, L2C data hit: 0
STLB Hit, LLC data hit: 0
STLB Hit, LLC data miss: 0
STLB STLB hints to L2: 0
L1D TOTAL     ACCESS:    7394940  HIT:    6628393  MISS:     766547  HIT %:    89.6342  MISS %:    10.3658   MPKI: 15.3309
L1D LOAD      ACCESS:    5903408  HIT:    5596972  MISS:     306436  HIT %:    94.8092  MISS %:    5.19083   MPKI: 6.12872
L1D RFO       ACCESS:     790884  HIT:     676152  MISS:     114732  HIT %:    85.4932  MISS %:    14.5068   MPKI: 2.29464
L1D PREFETCH  ACCESS:     700648  HIT:     355269  MISS:     345379  HIT %:    50.7058  MISS %:    49.2942   MPKI: 6.90758
L1D PREFETCH  REQUESTED:    1560881  ISSUED:    1560872  USEFUL:     241238  USELESS:     104010
L1D USEFUL LOAD PREFETCHES:     241238 PREFETCH ISSUED TO LOWER LEVEL:     389598  ACCURACY: 61.9197
L1D TIMELY PREFETCHES:     241238 LATE PREFETCHES: 44115 DROPPED PREFETCHES: 0
L1D PREFETCHES SAME FILL-ORIGIN LEVEL: 389598 DIFFERENT FILL-ORIGIN LEVEL: 0
L1D AVERAGE MISS LATENCY: 2.9986e+06 cycles
L1D RQ	ACCESS:    8956238	FORWARD:          0	MERGED:    2944444	TO_CACHE:    5988499
L1D WQ	ACCESS:    1013559	FORWARD:      23377	MERGED:     114638	TO_CACHE:     898921
L1D PQ	ACCESS:     780477	FORWARD:          0	MERGED:          0	TO_CACHE:     780395

L1D UNIQUE REGIONS ACCESSED: 0
L1D REGIONS CONFLICTS: 0
L1D Cross Page Prefetch Requests: 0
L1D Same Page Prefetch Requests: 2129238
L1D ROI Sum of L1D PQ occupancy: 17634793
L1D PREFETCHES PUSHED FROM L2C: 0
L1I TOTAL     ACCESS:   10047265  HIT:   10046391  MISS:        874  HIT %:    99.9913  MISS %: 0.00869888   MPKI: 0.01748
L1I LOAD      ACCESS:   10047265  HIT:   10046391  MISS:        874  HIT %:    99.9913  MISS %: 0.00869888   MPKI: 0.01748
L1I PREFETCH  REQUESTED:          0  ISSUED:          0  USEFUL:          0  USELESS:          0
L1I USEFUL LOAD PREFETCHES:          0 PREFETCH ISSUED TO LOWER LEVEL:          0  ACCURACY: -nan
L1I TIMELY PREFETCHES:          0 LATE PREFETCHES: 0 DROPPED PREFETCHES: 0
L1I PREFETCHES SAME FILL-ORIGIN LEVEL: 0 DIFFERENT FILL-ORIGIN LEVEL: 0
L1I AVERAGE MISS LATENCY: 206.628 cycles
L1I RQ	ACCESS:   17023860	FORWARD:          0	MERGED:    6976399	TO_CACHE:   10047461

BTB BRANCH_DIRECT_JUMP	ACCESS:          0  HIT:          0  MISS:          0
BTB BRANCH_INDIRECT	ACCESS:          0  HIT:          0  MISS:          0
BTB BRANCH_CONDITIONAL	ACCESS:          0  HIT:          0  MISS:          0
BTB BRANCH_DIRECT_CALL	ACCESS:          0  HIT:          0  MISS:          0
BTB BRANCH_INDIRECT_CALL	ACCESS:          0  HIT:          0  MISS:          0
BTB BRANCH_RETURN	ACCESS:          0  HIT:          0  MISS:          0
BTB BRANCH_OTHER ACCESS:          0  HIT:          0  MISS:          0

L2C TOTAL     ACCESS:    1819237  HIT:    1147851  MISS:     671386  HIT %:    63.0952  MISS %:    36.9048   MPKI: 13.4277
L2C LOAD      ACCESS:     263195  HIT:      79769  MISS:     183426  HIT %:    30.3079  MISS %:    69.6921   MPKI: 3.66852
L2C DATA LOAD MPKI: 3.65104
L2C INSTRUCTION LOAD MPKI: 0.01748
L2C RFO       ACCESS:     114631  HIT:       1094  MISS:     113537  HIT %:   0.954367  MISS %:    99.0456   MPKI: 2.27074
L2C PREFETCH  ACCESS:     801611  HIT:     437347  MISS:     364264  HIT %:    54.5585  MISS %:    45.4415   MPKI: 7.28528
L2C DATA PREFETCH MPKI: 7.28528
L2C INSTRUCTION PREFETCH MPKI: 0
L2C WRITEBACK ACCESS:     145855  HIT:     141019  MISS:       4836  HIT %:    96.6844  MISS %:    3.31562   MPKI: 0.09672
L2C LOAD TRANSLATION ACCESS:     390697  HIT:     385376  MISS:       5321  HIT %:    98.6381  MISS %:    1.36192   MPKI: 0.10642
L2C TRANSLATION FROM L1D PREFETCHER ACCESS:     103248  HIT:     103246  MISS:          2  HIT %:    99.9981  MISS %: 0.00193708   MPKI: 4e-05
L2C PREFETCH  REQUESTED:     589622  ISSUED:     589621  USEFUL:      34458  USELESS:     332809
L2C USEFUL LOAD PREFETCHES:      34458 PREFETCH ISSUED TO LOWER LEVEL:     374594  ACCURACY: 9.19876
L2C TIMELY PREFETCHES:      34458 LATE PREFETCHES: 10330 DROPPED PREFETCHES: 0
L2C PREFETCHES SAME FILL-ORIGIN LEVEL: 224479 DIFFERENT FILL-ORIGIN LEVEL: 0
L2C AVERAGE MISS LATENCY: 206.383 cycles
L2C RQ	ACCESS:     871771	FORWARD:          0	MERGED:          0	TO_CACHE:     871771
L2C WQ	ACCESS:     145855	FORWARD:          0	MERGED:          0	TO_CACHE:     145855
L2C PQ	ACCESS:     979216	FORWARD:          0	MERGED:      74919	TO_CACHE:     904297

L2C Instructions Evicting Data 856
L2C Translations Evicting Data 5279
L2C Data Evicting Data 654389
L2C Instructions Evicting Instructions 13
L2C Translations Evicting Instructions 13
L2C Data Evicting Instructions 828
L2C Instructions Evicting Translations 5
L2C Translations Evicting Translations 31
L2C Data Evicting Translations 5136
L2C Dense regions hint from L2: 0
PSCL5 TOTAL     ACCESS:     493377  HIT:     493377  MISS:          0  HIT %:        100  MISS %:          0   MPKI: 0
PSCL5 LOAD TRANSLATION ACCESS:     390129  HIT:     390129  MISS:          0  HIT %:        100  MISS %:          0   MPKI: 0
PSCL5 TRANSLATION FROM L1D PREFETCHER ACCESS:     103248  HIT:     103248  MISS:          0  HIT %:        100  MISS %:          0   MPKI: 0
PSCL5 PREFETCH  REQUESTED:          0  ISSUED:          0  USEFUL:          0  USELESS:          0
PSCL5 USEFUL LOAD PREFETCHES:          0 PREFETCH ISSUED TO LOWER LEVEL:          0  ACCURACY: -nan
PSCL5 TIMELY PREFETCHES:          0 LATE PREFETCHES: 0 DROPPED PREFETCHES: 0
PSCL5 PREFETCHES SAME FILL-ORIGIN LEVEL: 0 DIFFERENT FILL-ORIGIN LEVEL: 0

PSCL4 TOTAL     ACCESS:     493377  HIT:     493377  MISS:          0  HIT %:        100  MISS %:          0   MPKI: 0
PSCL4 LOAD TRANSLATION ACCESS:     390129  HIT:     390129  MISS:          0  HIT %:        100  MISS %:          0   MPKI: 0
PSCL4 TRANSLATION FROM L1D PREFETCHER ACCESS:     103248  HIT:     103248  MISS:          0  HIT %:        100  MISS %:          0   MPKI: 0
PSCL4 PREFETCH  REQUESTED:          0  ISSUED:          0  USEFUL:          0  USELESS:          0
PSCL4 USEFUL LOAD PREFETCHES:          0 PREFETCH ISSUED TO LOWER LEVEL:          0  ACCURACY: -nan
PSCL4 TIMELY PREFETCHES:          0 LATE PREFETCHES: 0 DROPPED PREFETCHES: 0
PSCL4 PREFETCHES SAME FILL-ORIGIN LEVEL: 0 DIFFERENT FILL-ORIGIN LEVEL: 0

PSCL3 TOTAL     ACCESS:     493372  HIT:     493368  MISS:          4  HIT %:    99.9992  MISS %: 0.000810747   MPKI: 8e-05
PSCL3 LOAD TRANSLATION ACCESS:     390124  HIT:     390120  MISS:          4  HIT %:     99.999  MISS %: 0.00102532   MPKI: 8e-05
PSCL3 TRANSLATION FROM L1D PREFETCHER ACCESS:     103248  HIT:     103248  MISS:          0  HIT %:        100  MISS %:          0   MPKI: 0
PSCL3 PREFETCH  REQUESTED:          0  ISSUED:          0  USEFUL:          0  USELESS:          0
PSCL3 USEFUL LOAD PREFETCHES:          0 PREFETCH ISSUED TO LOWER LEVEL:          0  ACCURACY: -nan
PSCL3 TIMELY PREFETCHES:          0 LATE PREFETCHES: 0 DROPPED PREFETCHES: 0
PSCL3 PREFETCHES SAME FILL-ORIGIN LEVEL: 0 DIFFERENT FILL-ORIGIN LEVEL: 0

PSCL2 TOTAL     ACCESS:     493377  HIT:     492811  MISS:        566  HIT %:    99.8853  MISS %:    0.11472   MPKI: 0.01132
PSCL2 LOAD TRANSLATION ACCESS:     390129  HIT:     389563  MISS:        566  HIT %:    99.8549  MISS %:    0.14508   MPKI: 0.01132
PSCL2 TRANSLATION FROM L1D PREFETCHER ACCESS:     103248  HIT:     103248  MISS:          0  HIT %:        100  MISS %:          0   MPKI: 0
PSCL2 PREFETCH  REQUESTED:          0  ISSUED:          0  USEFUL:          0  USELESS:          0
PSCL2 USEFUL LOAD PREFETCHES:          0 PREFETCH ISSUED TO LOWER LEVEL:          0  ACCURACY: -nan
PSCL2 TIMELY PREFETCHES:          0 LATE PREFETCHES: 0 DROPPED PREFETCHES: 0
PSCL2 PREFETCHES SAME FILL-ORIGIN LEVEL: 0 DIFFERENT FILL-ORIGIN LEVEL: 0

LLC TOTAL     ACCESS:     807719  HIT:     208078  MISS:     599641  HIT %:    25.7612  MISS %:    74.2388   MPKI: 11.9928
LLC LOAD      ACCESS:     173097  HIT:      18763  MISS:     154334  HIT %:    10.8396  MISS %:    89.1604   MPKI: 3.08668
LLC RFO       ACCESS:     113536  HIT:        177  MISS:     113359  HIT %:   0.155898  MISS %:    99.8441   MPKI: 2.26718
LLC PREFETCH  ACCESS:     374594  HIT:      48352  MISS:     326242  HIT %:    12.9078  MISS %:    87.0922   MPKI: 6.52484
LLC WRITEBACK ACCESS:     141169  HIT:     139012  MISS:       2157  HIT %:     98.472  MISS %:    1.52796   MPKI: 0.04314
LLC LOAD TRANSLATION ACCESS:       5321  HIT:       1773  MISS:       3548  HIT %:    33.3208  MISS %:    66.6792   MPKI: 0.07096
LLC TRANSLATION FROM L1D PREFETCHER ACCESS:          2  HIT:          1  MISS:          1  HIT %:         50  MISS %:         50   MPKI: 2e-05
LLC PREFETCH  REQUESTED:          0  ISSUED:          0  USEFUL:       4976  USELESS:     338146
LLC USEFUL LOAD PREFETCHES:       4976 PREFETCH ISSUED TO LOWER LEVEL:     326242  ACCURACY: 1.52525
LLC TIMELY PREFETCHES:       4976 LATE PREFETCHES: 0 DROPPED PREFETCHES: 0
LLC PREFETCHES SAME FILL-ORIGIN LEVEL: 0 DIFFERENT FILL-ORIGIN LEVEL: 0
LLC AVERAGE MISS LATENCY: 199.203 cycles
LLC RQ	ACCESS:     291956	FORWARD:          0	MERGED:          0	TO_CACHE:     291956
LLC WQ	ACCESS:     141169	FORWARD:          0	MERGED:          0	TO_CACHE:     141169
LLC PQ	ACCESS:     374594	FORWARD:          0	MERGED:          0	TO_CACHE:     374594

LLC Dense regions hint to LLC: 0

RAW hits: 367867
Loads Generated: 9324105
Loads sent to L1D: 8956238
Stores Generated: 1013562
Stores sent to L1D: 1013562
Major fault: 0 Minor fault: 11007
Allocated PAGES: 11007

stream: 
stream:times selected: 3851557
stream:pref_filled: 390402
stream:pref_useful: 124339
stream:pref_late: 20444
stream:misses: 63454
stream:misses_by_poll: 0

CS: 
CS:times selected: 1192414
CS:pref_filled: 545433
CS:pref_useful: 513673
CS:pref_late: 24305
CS:misses: 59527
CS:misses_by_poll: 1178

CPLX: 
CPLX:times selected: 2653128
CPLX:pref_filled: 65596
CPLX:pref_useful: 26099
CPLX:pref_late: 2908
CPLX:misses: 279924
CPLX:misses_by_poll: 63

NL_L1: 
NL:times selected: 7624
NL:pref_filled: 2943
NL:pref_useful: 829
NL:pref_late: 79
NL:misses: 3740
NL:misses_by_poll: 0

total selections: 7704723
total_filled: 345379
total_useful: 241238
total_late: 48873
total_polluted: 1241
total_misses_after_warmup: 333063
conflicts: 196961
Degree Incremented Times: 43909
Degree Decremented Times: 82088

L1 IP Table Write Accesses: 3704736
L1 IP Table Read Accesses: 3507775
L1 RST Write Accesses: 1451551
L1 RST Read Accesses: 2903102
L1 CSPT Write Accesses: 1451551
L1 CSPT Read Accesses: 2529185
L1 RR Filter Tag Write Accesses: 780486
L1 RR Filter Tag Read Accesses: 75669570
L1 IP Table Tag Write Accesses: 4400098
L1 IP Table Tag Read Accesses: 4400098
L1 RST Tag Write Accesses: 0
L1 RST Tag Read Accesses: 13979376
L1 RR Filter Write Accesses: 0
L1 RR Filter Read Accesses: 2965560
test: 1690294
L2 IP Table Read Accesses: 1093992
L2 IP Table Write Accesses: 899444
L2 IP Table Tag Read Accesses: 561851
L2 IP Table Tag Write Accesses: 561851

DRAM Statistics
 CHANNEL 0
 RQ ROW_BUFFER_HIT:     298335  ROW_BUFFER_MISS:     299149
 DBUS_CONGESTED:        242
 WQ ROW_BUFFER_HIT:      26578  ROW_BUFFER_MISS:     105777  FULL:          0

 AVG_CONGESTED_CYCLE: 4
 All warmup complete: 2
Channel 0 Bank busy for read cycles: 0
Channel 0 Bank busy for write cycles: 0
Channel 0
Rank 0
0banks busy for read cycles: 37497882
0banks busy for write cycles: 11988
1banks busy for read cycles: 12975838
1banks busy for write cycles: 1919658
2banks busy for read cycles: 5211350
2banks busy for write cycles: 647445
3banks busy for read cycles: 2178636
3banks busy for write cycles: 314372
4banks busy for read cycles: 1483557
4banks busy for write cycles: 201385
5banks busy for read cycles: 922344
5banks busy for write cycles: 131659
6banks busy for read cycles: 766509
6banks busy for write cycles: 108978
7banks busy for read cycles: 778475
7banks busy for write cycles: 237196
8banks busy for read cycles: 1378969
8banks busy for write cycles: 2351969

CPU 0 Branch Prediction Accuracy: 98.792% MPKI: 2.54542 Average ROB Occupancy at Mispredict: 67.724
Branch types
NOT_BRANCH: 0 0%
BRANCH_DIRECT_JUMP: 0 0%
BRANCH_INDIRECT: 0 0%
BRANCH_CONDITIONAL: 0 0%
BRANCH_DIRECT_CALL: 0 0%
BRANCH_INDIRECT_CALL: 0 0%
BRANCH_RETURN: 0 0%
BRANCH_OTHER: 0 0%

DRAM PAGES: 1048576
Allocated PAGES: 11007
