
*** ChampSim Multicore Out-of-Order Simulator ***

Warmup Instructions: 50000000
Simulation Instructions: 50000000
Number of CPUs: 1
LLC sets: 2048
LLC ways: 16
Off-chip DRAM Size: 4096 MB Channels: 1 Width: 64-bit Data Rate: 6400 MT/s
CPU 0 runs ../cloudsuite_traces//nutch_phase1_core2.trace.gz
.gz
NUM_OF_IPS_IN_CRITICAL_IP_TRAINING: 64
NUM_OF_CRITICAL_IP_TRAINING_TABLE_WAYS: 2
NUM_OF_CRITICAL_IP_TRAINING_TABLE_SETS: 32
WOBBLY_CRITICAL_IP_CACHE_SETS: 32
WOBBLY_CRITICAL_IP_CACHE_WAYS: 4
BTB has LRU replacement policy
ITLB has LRU replacement policy
DTLB has LRU replacement policy
STLB has LRU replacement policy
L1I has LRU replacement policy
L1D has LRU replacement policy
Bingo PHT WAYS: 16 and PHT_SIZE: 16384
Initialize SRRIP state for L2C
Initialize DRRIP state for LLC
UNIQUE_ASID[0] = €
UNIQUE_ASID[1] = 
Heartbeat CPU 0 instructions: 10000000 cycles: 2890215 heartbeat IPC: 3.45995 cumulative IPC: 3.45995 (Simulation time: 0 hr 3 min 44 sec) 
Heartbeat CPU 0 instructions: 20000002 cycles: 5787637 heartbeat IPC: 3.45134 cumulative IPC: 3.45564 (Simulation time: 0 hr 7 min 13 sec) 
Heartbeat CPU 0 instructions: 30000000 cycles: 8677671 heartbeat IPC: 3.46017 cumulative IPC: 3.45715 (Simulation time: 0 hr 10 min 50 sec) 
Heartbeat CPU 0 instructions: 40000001 cycles: 11545253 heartbeat IPC: 3.48726 cumulative IPC: 3.46463 (Simulation time: 0 hr 13 min 43 sec) 
Heartbeat CPU 0 instructions: 50000003 cycles: 14414661 heartbeat IPC: 3.48504 cumulative IPC: 3.46869 (Simulation time: 0 hr 16 min 14 sec) 

Warmup complete CPU 0 instructions: 50000003 cycles: 14414661 (Simulation time: 0 hr 16 min 14 sec) 

% increase in all ip prefetch 315.759
% increase in all ip prefetch 53.1368
% increase in all ip prefetch 3.62922
Heartbeat CPU 0 instructions: 60000002 cycles: 29387856 heartbeat IPC: 0.66786 cumulative IPC: 0.66786 (Simulation time: 0 hr 20 min 8 sec) 
Heartbeat CPU 0 instructions: 70000002 cycles: 42631185 heartbeat IPC: 0.755097 cumulative IPC: 0.708804 (Simulation time: 0 hr 23 min 43 sec) 
Heartbeat CPU 0 instructions: 80000002 cycles: 56182211 heartbeat IPC: 0.737952 cumulative IPC: 0.718261 (Simulation time: 0 hr 27 min 21 sec) 
Heartbeat CPU 0 instructions: 90000000 cycles: 69031005 heartbeat IPC: 0.778283 cumulative IPC: 0.732381 (Simulation time: 0 hr 30 min 51 sec) 
Heartbeat CPU 0 instructions: 100000001 cycles: 82494084 heartbeat IPC: 0.742772 cumulative IPC: 0.734436 (Simulation time: 0 hr 33 min 59 sec) 
Finished CPU 0 instructions: 50000001 cycles: 68079424 cumulative IPC: 0.734436 (Simulation time: 0 hr 33 min 59 sec) 

ChampSim completed all CPUs

Region of Interest Statistics

CPU 0 cumulative IPC: 0.734436 instructions: 50000001 cycles: 68079424

CPU 0 Average Load ROB stall cycles: 6.02744e+06
CPU 0 Fraction of times ROB stalled by Loads: 12.3067
CPU 0 Percentage of Load stall cycles in Total stall cycles: 8.24124e+07
 Total stall cycles: 35981881
 Total load stall cycles: 29653537443724
CPU 0 NUM of IPS identified critical: 0
CPU 0 Num of Load IPs stalling ROB: 3447
Threshold modification factor: -2
Max PIST entries: 64
Min PIST entries: 0
Avg PIST entries: 31.75
Critical IP stalls, total frequency: 0
rob stalling non-critical load ip: 16783496 freq: 42
rob stalling non-critical load ip: 16783504 freq: 2
rob stalling non-critical load ip: 16783516 freq: 1
rob stalling non-critical load ip: 16783524 freq: 2
rob stalling non-critical load ip: 16783544 freq: 6
rob stalling non-critical load ip: 16783552 freq: 73
rob stalling non-critical load ip: 16783556 freq: 1
rob stalling non-critical load ip: 16783564 freq: 81
rob stalling non-critical load ip: 16783572 freq: 17
rob stalling non-critical load ip: 16783752 freq: 261
rob stalling non-critical load ip: 16783760 freq: 16
rob stalling non-critical load ip: 16783768 freq: 16
rob stalling non-critical load ip: 16783772 freq: 6
rob stalling non-critical load ip: 16783780 freq: 161
rob stalling non-critical load ip: 16783788 freq: 354
rob stalling non-critical load ip: 16783800 freq: 34
rob stalling non-critical load ip: 16783804 freq: 3
rob stalling non-critical load ip: 16783808 freq: 454
rob stalling non-critical load ip: 16783820 freq: 349
rob stalling non-critical load ip: 16783828 freq: 112
rob stalling non-critical load ip: 16784128 freq: 70
rob stalling non-critical load ip: 16784152 freq: 303
rob stalling non-critical load ip: 16800136 freq: 2
rob stalling non-critical load ip: 16800176 freq: 2
rob stalling non-critical load ip: 16806692 freq: 10
rob stalling non-critical load ip: 16807120 freq: 509
rob stalling non-critical load ip: 16807124 freq: 15
rob stalling non-critical load ip: 16807128 freq: 7
rob stalling non-critical load ip: 16807136 freq: 5
rob stalling non-critical load ip: 16807188 freq: 14
rob stalling non-critical load ip: 16807200 freq: 12
rob stalling non-critical load ip: 16807208 freq: 8
rob stalling non-critical load ip: 16807216 freq: 2
rob stalling non-critical load ip: 16807220 freq: 10
rob stalling non-critical load ip: 16807228 freq: 19
rob stalling non-critical load ip: 16807232 freq: 1
rob stalling non-critical load ip: 16807244 freq: 5
rob stalling non-critical load ip: 16807256 freq: 4
rob stalling non-critical load ip: 16807260 freq: 11
rob stalling non-critical load ip: 16807264 freq: 4
rob stalling non-critical load ip: 16807268 freq: 40
rob stalling non-critical load ip: 16807344 freq: 43
rob stalling non-critical load ip: 16807392 freq: 633
rob stalling non-critical load ip: 16807864 freq: 1
rob stalling non-critical load ip: 16807956 freq: 4
rob stalling non-critical load ip: 16812716 freq: 138
rob stalling non-critical load ip: 16812908 freq: 8
rob stalling non-critical load ip: 16813176 freq: 112
rob stalling non-critical load ip: 16813308 freq: 52
rob stalling non-critical load ip: 16821296 freq: 6
rob stalling non-critical load ip: 16821452 freq: 4
rob stalling non-critical load ip: 16821912 freq: 2
rob stalling non-critical load ip: 16822116 freq: 2
rob stalling non-critical load ip: 16822500 freq: 3
rob stalling non-critical load ip: 16822788 freq: 4
rob stalling non-critical load ip: 16822888 freq: 4
rob stalling non-critical load ip: 16822900 freq: 1
rob stalling non-critical load ip: 16823128 freq: 6
rob stalling non-critical load ip: 16823180 freq: 3
rob stalling non-critical load ip: 16823192 freq: 4
rob stalling non-critical load ip: 16827588 freq: 2
rob stalling non-critical load ip: 16845328 freq: 5
rob stalling non-critical load ip: 16891612 freq: 4
rob stalling non-critical load ip: 16891620 freq: 9
rob stalling non-critical load ip: 16892324 freq: 3
rob stalling non-critical load ip: 16900600 freq: 4
rob stalling non-critical load ip: 16917116 freq: 215
rob stalling non-critical load ip: 16917124 freq: 323
rob stalling non-critical load ip: 16917760 freq: 5
rob stalling non-critical load ip: 16917772 freq: 145
rob stalling non-critical load ip: 17022708 freq: 30
rob stalling non-critical load ip: 17022764 freq: 8
rob stalling non-critical load ip: 17077688 freq: 2
rob stalling non-critical load ip: 17078104 freq: 1
rob stalling non-critical load ip: 17084128 freq: 15
rob stalling non-critical load ip: 17084332 freq: 220
rob stalling non-critical load ip: 17084340 freq: 3
rob stalling non-critical load ip: 17084388 freq: 129
rob stalling non-critical load ip: 17084544 freq: 420
rob stalling non-critical load ip: 17084652 freq: 554
rob stalling non-critical load ip: 17084656 freq: 449
rob stalling non-critical load ip: 17084752 freq: 266
rob stalling non-critical load ip: 17084780 freq: 124
rob stalling non-critical load ip: 17088808 freq: 7
rob stalling non-critical load ip: 17089924 freq: 26
rob stalling non-critical load ip: 17089932 freq: 2
rob stalling non-critical load ip: 17089988 freq: 274
rob stalling non-critical load ip: 17090008 freq: 12
rob stalling non-critical load ip: 17090036 freq: 14
rob stalling non-critical load ip: 17090060 freq: 26
rob stalling non-critical load ip: 17090160 freq: 2
rob stalling non-critical load ip: 17090192 freq: 13
rob stalling non-critical load ip: 17090196 freq: 218
rob stalling non-critical load ip: 17100620 freq: 56
rob stalling non-critical load ip: 17109116 freq: 3
rob stalling non-critical load ip: 17109496 freq: 5
rob stalling non-critical load ip: 17109516 freq: 2
rob stalling non-critical load ip: 17147696 freq: 4
rob stalling non-critical load ip: 17148832 freq: 251
rob stalling non-critical load ip: 17148868 freq: 4
rob stalling non-critical load ip: 17148904 freq: 4
rob stalling non-critical load ip: 17148972 freq: 266
rob stalling non-critical load ip: 17148988 freq: 8
rob stalling non-critical load ip: 17149012 freq: 9
rob stalling non-critical load ip: 17149168 freq: 2
rob stalling non-critical load ip: 17149172 freq: 3
rob stalling non-critical load ip: 17149208 freq: 11
rob stalling non-critical load ip: 17149340 freq: 10
rob stalling non-critical load ip: 17149344 freq: 7
rob stalling non-critical load ip: 17149400 freq: 152
rob stalling non-critical load ip: 17149504 freq: 15
rob stalling non-critical load ip: 17149516 freq: 1
rob stalling non-critical load ip: 17149600 freq: 70
rob stalling non-critical load ip: 17149604 freq: 4
rob stalling non-critical load ip: 17183108 freq: 7
rob stalling non-critical load ip: 17183140 freq: 2
rob stalling non-critical load ip: 17183232 freq: 3
rob stalling non-critical load ip: 17183248 freq: 8
rob stalling non-critical load ip: 17183380 freq: 9
rob stalling non-critical load ip: 17183424 freq: 3
rob stalling non-critical load ip: 17183560 freq: 9
rob stalling non-critical load ip: 17183960 freq: 17
rob stalling non-critical load ip: 17184072 freq: 10
rob stalling non-critical load ip: 17184084 freq: 7
rob stalling non-critical load ip: 17184740 freq: 2
rob stalling non-critical load ip: 17184900 freq: 2
rob stalling non-critical load ip: 17184968 freq: 2
rob stalling non-critical load ip: 17185064 freq: 1
rob stalling non-critical load ip: 17185196 freq: 2
rob stalling non-critical load ip: 17185704 freq: 1
rob stalling non-critical load ip: 17185856 freq: 3
rob stalling non-critical load ip: 17186588 freq: 7
rob stalling non-critical load ip: 17186596 freq: 1
rob stalling non-critical load ip: 17186656 freq: 3
rob stalling non-critical load ip: 17187260 freq: 3
rob stalling non-critical load ip: 17187276 freq: 1
rob stalling non-critical load ip: 17187948 freq: 1
rob stalling non-critical load ip: 17188292 freq: 10
rob stalling non-critical load ip: 17188556 freq: 1
rob stalling non-critical load ip: 17188700 freq: 2
rob stalling non-critical load ip: 17188792 freq: 1
rob stalling non-critical load ip: 17189432 freq: 3
rob stalling non-critical load ip: 17225292 freq: 1
rob stalling non-critical load ip: 17226948 freq: 304
rob stalling non-critical load ip: 17245100 freq: 18
rob stalling non-critical load ip: 17245104 freq: 2
rob stalling non-critical load ip: 17252100 freq: 2
rob stalling non-critical load ip: 17253688 freq: 22
rob stalling non-critical load ip: 17267896 freq: 4
rob stalling non-critical load ip: 17267924 freq: 9
rob stalling non-critical load ip: 17503864 freq: 1
rob stalling non-critical load ip: 17504256 freq: 3
rob stalling non-critical load ip: 17504760 freq: 8
rob stalling non-critical load ip: 17506076 freq: 8
rob stalling non-critical load ip: 17506192 freq: 5
rob stalling non-critical load ip: 17506872 freq: 4
rob stalling non-critical load ip: 17507044 freq: 1
rob stalling non-critical load ip: 17507160 freq: 2
rob stalling non-critical load ip: 17507396 freq: 4
rob stalling non-critical load ip: 17507476 freq: 2
rob stalling non-critical load ip: 17511888 freq: 9
rob stalling non-critical load ip: 17511980 freq: 6
rob stalling non-critical load ip: 17546088 freq: 78
rob stalling non-critical load ip: 17546908 freq: 9
rob stalling non-critical load ip: 17546944 freq: 2
rob stalling non-critical load ip: 17547352 freq: 16
rob stalling non-critical load ip: 17547760 freq: 3
rob stalling non-critical load ip: 17548040 freq: 31
rob stalling non-critical load ip: 17613884 freq: 3
rob stalling non-critical load ip: 17613980 freq: 3
rob stalling non-critical load ip: 17614016 freq: 1
rob stalling non-critical load ip: 17614160 freq: 3
rob stalling non-critical load ip: 17614184 freq: 3
rob stalling non-critical load ip: 17614240 freq: 4
rob stalling non-critical load ip: 17614300 freq: 8
rob stalling non-critical load ip: 17614460 freq: 1
rob stalling non-critical load ip: 17614660 freq: 1
rob stalling non-critical load ip: 17616908 freq: 1
rob stalling non-critical load ip: 17616996 freq: 2
rob stalling non-critical load ip: 17617840 freq: 1
rob stalling non-critical load ip: 17617868 freq: 1
rob stalling non-critical load ip: 17617944 freq: 1
rob stalling non-critical load ip: 17619076 freq: 1
rob stalling non-critical load ip: 17641292 freq: 1
rob stalling non-critical load ip: 17644276 freq: 589
rob stalling non-critical load ip: 17682628 freq: 4
rob stalling non-critical load ip: 17682804 freq: 3
rob stalling non-critical load ip: 17682824 freq: 4
rob stalling non-critical load ip: 17682900 freq: 2
rob stalling non-critical load ip: 17683040 freq: 5
rob stalling non-critical load ip: 17683132 freq: 1
rob stalling non-critical load ip: 17683164 freq: 4
rob stalling non-critical load ip: 17683228 freq: 10
rob stalling non-critical load ip: 17683248 freq: 4
rob stalling non-critical load ip: 17683252 freq: 1
rob stalling non-critical load ip: 17683312 freq: 2
rob stalling non-critical load ip: 17683364 freq: 1
rob stalling non-critical load ip: 17683380 freq: 8
rob stalling non-critical load ip: 17683888 freq: 5
rob stalling non-critical load ip: 17686100 freq: 4
rob stalling non-critical load ip: 17782316 freq: 6
rob stalling non-critical load ip: 17782380 freq: 213
rob stalling non-critical load ip: 17782400 freq: 23
rob stalling non-critical load ip: 17782428 freq: 2
rob stalling non-critical load ip: 17782600 freq: 2
rob stalling non-critical load ip: 17783272 freq: 4
rob stalling non-critical load ip: 17906336 freq: 23
rob stalling non-critical load ip: 17906384 freq: 9
rob stalling non-critical load ip: 17906400 freq: 38
rob stalling non-critical load ip: 17906620 freq: 6
rob stalling non-critical load ip: 17906644 freq: 4
rob stalling non-critical load ip: 17906844 freq: 534
rob stalling non-critical load ip: 17906888 freq: 20
rob stalling non-critical load ip: 17906912 freq: 5
rob stalling non-critical load ip: 17906968 freq: 7
rob stalling non-critical load ip: 17906980 freq: 4
rob stalling non-critical load ip: 17907064 freq: 671
rob stalling non-critical load ip: 17908272 freq: 185
rob stalling non-critical load ip: 17908296 freq: 13
rob stalling non-critical load ip: 17908312 freq: 5
rob stalling non-critical load ip: 17908368 freq: 3
rob stalling non-critical load ip: 18025240 freq: 3
rob stalling non-critical load ip: 18025276 freq: 5
rob stalling non-critical load ip: 18025296 freq: 15
rob stalling non-critical load ip: 18025304 freq: 4
rob stalling non-critical load ip: 18025320 freq: 1
rob stalling non-critical load ip: 18025340 freq: 12
rob stalling non-critical load ip: 18026668 freq: 2
rob stalling non-critical load ip: 18026908 freq: 6
rob stalling non-critical load ip: 18026928 freq: 3
rob stalling non-critical load ip: 18027120 freq: 6
rob stalling non-critical load ip: 18027156 freq: 204
rob stalling non-critical load ip: 18027236 freq: 9
rob stalling non-critical load ip: 18027924 freq: 85
rob stalling non-critical load ip: 18027932 freq: 7
rob stalling non-critical load ip: 18049648 freq: 20
rob stalling non-critical load ip: 18049664 freq: 50
rob stalling non-critical load ip: 18049728 freq: 1
rob stalling non-critical load ip: 18049736 freq: 14
rob stalling non-critical load ip: 18049920 freq: 304
rob stalling non-critical load ip: 18049936 freq: 13
rob stalling non-critical load ip: 18049996 freq: 29
rob stalling non-critical load ip: 18050004 freq: 184
rob stalling non-critical load ip: 18073772 freq: 4
rob stalling non-critical load ip: 18073932 freq: 5
rob stalling non-critical load ip: 18074072 freq: 1
rob stalling non-critical load ip: 18074896 freq: 8
rob stalling non-critical load ip: 18088656 freq: 4
rob stalling non-critical load ip: 18088704 freq: 1
rob stalling non-critical load ip: 18088808 freq: 1
rob stalling non-critical load ip: 18093688 freq: 3
rob stalling non-critical load ip: 18093808 freq: 1
rob stalling non-critical load ip: 18094548 freq: 5
rob stalling non-critical load ip: 18095592 freq: 4
rob stalling non-critical load ip: 18095596 freq: 8
rob stalling non-critical load ip: 18095628 freq: 1
rob stalling non-critical load ip: 18095784 freq: 2
rob stalling non-critical load ip: 18095824 freq: 2
rob stalling non-critical load ip: 18095836 freq: 1
rob stalling non-critical load ip: 18095928 freq: 6
rob stalling non-critical load ip: 18095948 freq: 3
rob stalling non-critical load ip: 18097092 freq: 3
rob stalling non-critical load ip: 18107588 freq: 1
rob stalling non-critical load ip: 18128468 freq: 294
rob stalling non-critical load ip: 18128484 freq: 5
rob stalling non-critical load ip: 18128540 freq: 229
rob stalling non-critical load ip: 18128592 freq: 224
rob stalling non-critical load ip: 18128744 freq: 14
rob stalling non-critical load ip: 18128808 freq: 2
rob stalling non-critical load ip: 18132720 freq: 450
rob stalling non-critical load ip: 18132760 freq: 442
rob stalling non-critical load ip: 18132804 freq: 14
rob stalling non-critical load ip: 18132832 freq: 67
rob stalling non-critical load ip: 18132844 freq: 14
rob stalling non-critical load ip: 18132856 freq: 2
rob stalling non-critical load ip: 18132872 freq: 6
rob stalling non-critical load ip: 18132896 freq: 215
rob stalling non-critical load ip: 18132908 freq: 71
rob stalling non-critical load ip: 18132980 freq: 14
rob stalling non-critical load ip: 18132996 freq: 32
rob stalling non-critical load ip: 18133012 freq: 7
rob stalling non-critical load ip: 18133080 freq: 963
rob stalling non-critical load ip: 18133112 freq: 67
rob stalling non-critical load ip: 18133280 freq: 2
rob stalling non-critical load ip: 18133368 freq: 40
rob stalling non-critical load ip: 18133388 freq: 5
rob stalling non-critical load ip: 18133392 freq: 9
rob stalling non-critical load ip: 18133408 freq: 5
rob stalling non-critical load ip: 18133592 freq: 11
rob stalling non-critical load ip: 18133608 freq: 10
rob stalling non-critical load ip: 18133936 freq: 6
rob stalling non-critical load ip: 18133964 freq: 8
rob stalling non-critical load ip: 18134192 freq: 6
rob stalling non-critical load ip: 18134316 freq: 4
rob stalling non-critical load ip: 18134436 freq: 8
rob stalling non-critical load ip: 18302544 freq: 2
rob stalling non-critical load ip: 18302572 freq: 4
rob stalling non-critical load ip: 18303116 freq: 16
rob stalling non-critical load ip: 18303200 freq: 39
rob stalling non-critical load ip: 18303228 freq: 3
rob stalling non-critical load ip: 18303276 freq: 5
rob stalling non-critical load ip: 18309048 freq: 4
rob stalling non-critical load ip: 18309516 freq: 1
rob stalling non-critical load ip: 18309592 freq: 2
rob stalling non-critical load ip: 18309616 freq: 2
rob stalling non-critical load ip: 18457504 freq: 8
rob stalling non-critical load ip: 18457520 freq: 1
rob stalling non-critical load ip: 18466760 freq: 1
rob stalling non-critical load ip: 18466768 freq: 6
rob stalling non-critical load ip: 18467084 freq: 2
rob stalling non-critical load ip: 18471588 freq: 4
rob stalling non-critical load ip: 18471604 freq: 5
rob stalling non-critical load ip: 18471696 freq: 4
rob stalling non-critical load ip: 18471712 freq: 1
rob stalling non-critical load ip: 18471852 freq: 5
rob stalling non-critical load ip: 18471884 freq: 2
rob stalling non-critical load ip: 18776508 freq: 1
rob stalling non-critical load ip: 18777480 freq: 2
rob stalling non-critical load ip: 18783856 freq: 6
rob stalling non-critical load ip: 18783960 freq: 2
rob stalling non-critical load ip: 18791880 freq: 2
rob stalling non-critical load ip: 18792888 freq: 2
rob stalling non-critical load ip: 18956808 freq: 7
rob stalling non-critical load ip: 18956860 freq: 2
rob stalling non-critical load ip: 18956864 freq: 10
rob stalling non-critical load ip: 18956880 freq: 7
rob stalling non-critical load ip: 18957128 freq: 3
rob stalling non-critical load ip: 18957516 freq: 6
rob stalling non-critical load ip: 18957576 freq: 8
rob stalling non-critical load ip: 18957592 freq: 11
rob stalling non-critical load ip: 18957636 freq: 2
rob stalling non-critical load ip: 18960512 freq: 6
rob stalling non-critical load ip: 18960536 freq: 9
rob stalling non-critical load ip: 18960552 freq: 4
rob stalling non-critical load ip: 18960568 freq: 1
rob stalling non-critical load ip: 18960584 freq: 11
rob stalling non-critical load ip: 18960628 freq: 3
rob stalling non-critical load ip: 18960688 freq: 3
rob stalling non-critical load ip: 18960700 freq: 8
rob stalling non-critical load ip: 18960780 freq: 48
rob stalling non-critical load ip: 18960836 freq: 24
rob stalling non-critical load ip: 18960860 freq: 30
rob stalling non-critical load ip: 18960892 freq: 4
rob stalling non-critical load ip: 18960908 freq: 9
rob stalling non-critical load ip: 18960940 freq: 2
rob stalling non-critical load ip: 18960972 freq: 6
rob stalling non-critical load ip: 18970396 freq: 8
rob stalling non-critical load ip: 18980028 freq: 14
rob stalling non-critical load ip: 19454556 freq: 2
rob stalling non-critical load ip: 19471884 freq: 3
rob stalling non-critical load ip: 19492860 freq: 2
rob stalling non-critical load ip: 19493148 freq: 217
rob stalling non-critical load ip: 19493164 freq: 65
rob stalling non-critical load ip: 19493176 freq: 489
rob stalling non-critical load ip: 19493220 freq: 17
rob stalling non-critical load ip: 19493328 freq: 12
rob stalling non-critical load ip: 19493344 freq: 9
rob stalling non-critical load ip: 19493360 freq: 34
rob stalling non-critical load ip: 19493372 freq: 59
rob stalling non-critical load ip: 19493692 freq: 3
rob stalling non-critical load ip: 19493820 freq: 5
rob stalling non-critical load ip: 19493832 freq: 6
rob stalling non-critical load ip: 19493844 freq: 11
rob stalling non-critical load ip: 19493880 freq: 2
rob stalling non-critical load ip: 19493912 freq: 3
rob stalling non-critical load ip: 19493916 freq: 28
rob stalling non-critical load ip: 19493920 freq: 23
rob stalling non-critical load ip: 19493924 freq: 31
rob stalling non-critical load ip: 19493928 freq: 9
rob stalling non-critical load ip: 19493932 freq: 93
rob stalling non-critical load ip: 19493936 freq: 5
rob stalling non-critical load ip: 19493940 freq: 36
rob stalling non-critical load ip: 19493944 freq: 3
rob stalling non-critical load ip: 19493948 freq: 45
rob stalling non-critical load ip: 19493956 freq: 40
rob stalling non-critical load ip: 19493960 freq: 175
rob stalling non-critical load ip: 19493984 freq: 4
rob stalling non-critical load ip: 19494000 freq: 4
rob stalling non-critical load ip: 19494032 freq: 163
rob stalling non-critical load ip: 19494040 freq: 60
rob stalling non-critical load ip: 19494052 freq: 189
rob stalling non-critical load ip: 19494060 freq: 76
rob stalling non-critical load ip: 19494068 freq: 140
rob stalling non-critical load ip: 19494076 freq: 6580
rob stalling non-critical load ip: 19494084 freq: 91
rob stalling non-critical load ip: 19494096 freq: 99
rob stalling non-critical load ip: 19494104 freq: 14063
rob stalling non-critical load ip: 19494112 freq: 368
rob stalling non-critical load ip: 19494292 freq: 515
rob stalling non-critical load ip: 19494380 freq: 6
rob stalling non-critical load ip: 19494412 freq: 100
rob stalling non-critical load ip: 19494452 freq: 1
rob stalling non-critical load ip: 19494664 freq: 95
rob stalling non-critical load ip: 19495484 freq: 21
rob stalling non-critical load ip: 19495556 freq: 18
rob stalling non-critical load ip: 19496036 freq: 3
rob stalling non-critical load ip: 19496092 freq: 1
rob stalling non-critical load ip: 19499416 freq: 2
rob stalling non-critical load ip: 19499480 freq: 28
rob stalling non-critical load ip: 19499492 freq: 1
rob stalling non-critical load ip: 19499604 freq: 1
rob stalling non-critical load ip: 19499632 freq: 2
rob stalling non-critical load ip: 19688424 freq: 3
rob stalling non-critical load ip: 19689376 freq: 1
rob stalling non-critical load ip: 19689452 freq: 1
rob stalling non-critical load ip: 19689484 freq: 1
rob stalling non-critical load ip: 19689532 freq: 2
rob stalling non-critical load ip: 19689548 freq: 1
rob stalling non-critical load ip: 19691852 freq: 1
rob stalling non-critical load ip: 19692680 freq: 1
rob stalling non-critical load ip: 19692692 freq: 2
rob stalling non-critical load ip: 19692820 freq: 2
rob stalling non-critical load ip: 19695740 freq: 22
rob stalling non-critical load ip: 19695780 freq: 28
rob stalling non-critical load ip: 19695796 freq: 63
rob stalling non-critical load ip: 19698128 freq: 2
rob stalling non-critical load ip: 19698132 freq: 5
rob stalling non-critical load ip: 19698200 freq: 3
rob stalling non-critical load ip: 19698204 freq: 14
rob stalling non-critical load ip: 19698228 freq: 23
rob stalling non-critical load ip: 19698288 freq: 5
rob stalling non-critical load ip: 19698324 freq: 7
rob stalling non-critical load ip: 19698420 freq: 5
rob stalling non-critical load ip: 19699940 freq: 7
rob stalling non-critical load ip: 19699952 freq: 5
rob stalling non-critical load ip: 19699968 freq: 7
rob stalling non-critical load ip: 19699980 freq: 1
rob stalling non-critical load ip: 19701420 freq: 4
rob stalling non-critical load ip: 19701452 freq: 2
rob stalling non-critical load ip: 19701552 freq: 7
rob stalling non-critical load ip: 19707028 freq: 13
rob stalling non-critical load ip: 19707092 freq: 2
rob stalling non-critical load ip: 19707104 freq: 1
rob stalling non-critical load ip: 19707268 freq: 8
rob stalling non-critical load ip: 19713232 freq: 1
rob stalling non-critical load ip: 19713736 freq: 1
rob stalling non-critical load ip: 19723200 freq: 2
rob stalling non-critical load ip: 19723236 freq: 306
rob stalling non-critical load ip: 19723248 freq: 4
rob stalling non-critical load ip: 19723312 freq: 1
rob stalling non-critical load ip: 19723320 freq: 18
rob stalling non-critical load ip: 19723336 freq: 2
rob stalling non-critical load ip: 19723352 freq: 11
rob stalling non-critical load ip: 19723368 freq: 7
rob stalling non-critical load ip: 19723408 freq: 3
rob stalling non-critical load ip: 19724432 freq: 14
rob stalling non-critical load ip: 19724576 freq: 36
rob stalling non-critical load ip: 19725616 freq: 128
rob stalling non-critical load ip: 19725644 freq: 2
rob stalling non-critical load ip: 19725656 freq: 5
rob stalling non-critical load ip: 19725660 freq: 71
rob stalling non-critical load ip: 19725672 freq: 10
rob stalling non-critical load ip: 19725688 freq: 10
rob stalling non-critical load ip: 19725704 freq: 60
rob stalling non-critical load ip: 19725720 freq: 94
rob stalling non-critical load ip: 19725736 freq: 6
rob stalling non-critical load ip: 19725844 freq: 1
rob stalling non-critical load ip: 19725880 freq: 6
rob stalling non-critical load ip: 19725904 freq: 29
rob stalling non-critical load ip: 19727968 freq: 4
rob stalling non-critical load ip: 19728104 freq: 3
rob stalling non-critical load ip: 19728172 freq: 1
rob stalling non-critical load ip: 19729824 freq: 1
rob stalling non-critical load ip: 19732288 freq: 10
rob stalling non-critical load ip: 19732304 freq: 6
rob stalling non-critical load ip: 19732392 freq: 4
rob stalling non-critical load ip: 19732408 freq: 5
rob stalling non-critical load ip: 19732644 freq: 25
rob stalling non-critical load ip: 19732912 freq: 22
rob stalling non-critical load ip: 19732928 freq: 2
rob stalling non-critical load ip: 19732940 freq: 16
rob stalling non-critical load ip: 19732956 freq: 6
rob stalling non-critical load ip: 19733000 freq: 2
rob stalling non-critical load ip: 19733036 freq: 4
rob stalling non-critical load ip: 19733048 freq: 3
rob stalling non-critical load ip: 19733500 freq: 252
rob stalling non-critical load ip: 19745436 freq: 3
rob stalling non-critical load ip: 19745720 freq: 7
rob stalling non-critical load ip: 19745748 freq: 1
rob stalling non-critical load ip: 19746080 freq: 3
rob stalling non-critical load ip: 19746244 freq: 291
rob stalling non-critical load ip: 19746296 freq: 262
rob stalling non-critical load ip: 19746308 freq: 222
rob stalling non-critical load ip: 19746320 freq: 3
rob stalling non-critical load ip: 19748964 freq: 259
rob stalling non-critical load ip: 19748980 freq: 6
rob stalling non-critical load ip: 19749032 freq: 3
rob stalling non-critical load ip: 19749112 freq: 21
rob stalling non-critical load ip: 19749256 freq: 2
rob stalling non-critical load ip: 19752872 freq: 22
rob stalling non-critical load ip: 19752892 freq: 3
rob stalling non-critical load ip: 19782676 freq: 1
rob stalling non-critical load ip: 19783172 freq: 1
rob stalling non-critical load ip: 19783188 freq: 3
rob stalling non-critical load ip: 19783200 freq: 1
rob stalling non-critical load ip: 19783248 freq: 1
rob stalling non-critical load ip: 19784032 freq: 3
rob stalling non-critical load ip: 19784140 freq: 3
rob stalling non-critical load ip: 19791896 freq: 7
rob stalling non-critical load ip: 19791900 freq: 15
rob stalling non-critical load ip: 19803780 freq: 1
rob stalling non-critical load ip: 19804164 freq: 2
rob stalling non-critical load ip: 19804168 freq: 2
rob stalling non-critical load ip: 19804236 freq: 1
rob stalling non-critical load ip: 19804680 freq: 1
rob stalling non-critical load ip: 19805060 freq: 3
rob stalling non-critical load ip: 19837224 freq: 2
rob stalling non-critical load ip: 19850084 freq: 4
rob stalling non-critical load ip: 19850100 freq: 2
rob stalling non-critical load ip: 19850108 freq: 2
rob stalling non-critical load ip: 19851160 freq: 5
rob stalling non-critical load ip: 19851192 freq: 11
rob stalling non-critical load ip: 19851196 freq: 17
rob stalling non-critical load ip: 19851292 freq: 167
rob stalling non-critical load ip: 19851312 freq: 4
rob stalling non-critical load ip: 19851632 freq: 6
rob stalling non-critical load ip: 19852592 freq: 19
rob stalling non-critical load ip: 19852960 freq: 3
rob stalling non-critical load ip: 19852964 freq: 1
rob stalling non-critical load ip: 19853208 freq: 2
rob stalling non-critical load ip: 19853236 freq: 18
rob stalling non-critical load ip: 19939376 freq: 3
rob stalling non-critical load ip: 19957964 freq: 305
rob stalling non-critical load ip: 19957972 freq: 1
rob stalling non-critical load ip: 19957992 freq: 1
rob stalling non-critical load ip: 19958012 freq: 2
rob stalling non-critical load ip: 20024224 freq: 21
rob stalling non-critical load ip: 20024232 freq: 1
rob stalling non-critical load ip: 20024236 freq: 10
rob stalling non-critical load ip: 20024256 freq: 160
rob stalling non-critical load ip: 20032904 freq: 2
rob stalling non-critical load ip: 20042204 freq: 1
rob stalling non-critical load ip: 20047492 freq: 569
rob stalling non-critical load ip: 20048080 freq: 1455
rob stalling non-critical load ip: 20048388 freq: 1
rob stalling non-critical load ip: 20048424 freq: 1
rob stalling non-critical load ip: 20048792 freq: 5
rob stalling non-critical load ip: 20048856 freq: 23
rob stalling non-critical load ip: 20049060 freq: 293
rob stalling non-critical load ip: 20052924 freq: 6
rob stalling non-critical load ip: 20053048 freq: 3
rob stalling non-critical load ip: 20053068 freq: 2
rob stalling non-critical load ip: 20053108 freq: 2
rob stalling non-critical load ip: 20053164 freq: 291
rob stalling non-critical load ip: 20054744 freq: 277
rob stalling non-critical load ip: 20061440 freq: 138
rob stalling non-critical load ip: 20061492 freq: 273
rob stalling non-critical load ip: 20061560 freq: 117
rob stalling non-critical load ip: 20061676 freq: 5
rob stalling non-critical load ip: 20061832 freq: 1
rob stalling non-critical load ip: 20061844 freq: 2
rob stalling non-critical load ip: 20061856 freq: 1
rob stalling non-critical load ip: 20062272 freq: 7
rob stalling non-critical load ip: 20062696 freq: 13
rob stalling non-critical load ip: 20062784 freq: 297
rob stalling non-critical load ip: 20062836 freq: 100
rob stalling non-critical load ip: 20062904 freq: 264
rob stalling non-critical load ip: 20063036 freq: 17
rob stalling non-critical load ip: 20079064 freq: 7
rob stalling non-critical load ip: 20079080 freq: 2
rob stalling non-critical load ip: 20079096 freq: 9
rob stalling non-critical load ip: 20079444 freq: 3
rob stalling non-critical load ip: 20079476 freq: 7
rob stalling non-critical load ip: 20145932 freq: 2
rob stalling non-critical load ip: 20153348 freq: 1
rob stalling non-critical load ip: 20155144 freq: 7
rob stalling non-critical load ip: 20155176 freq: 132
rob stalling non-critical load ip: 20155208 freq: 3
rob stalling non-critical load ip: 20160980 freq: 1
rob stalling non-critical load ip: 20170580 freq: 123
rob stalling non-critical load ip: 20170592 freq: 3
rob stalling non-critical load ip: 20170616 freq: 274
rob stalling non-critical load ip: 20170656 freq: 5
rob stalling non-critical load ip: 20170968 freq: 124
rob stalling non-critical load ip: 20170972 freq: 136
rob stalling non-critical load ip: 20171000 freq: 1
rob stalling non-critical load ip: 20171036 freq: 5
rob stalling non-critical load ip: 20171204 freq: 1
rob stalling non-critical load ip: 20171628 freq: 1
rob stalling non-critical load ip: 20171784 freq: 3
rob stalling non-critical load ip: 20172004 freq: 3
rob stalling non-critical load ip: 20172040 freq: 2
rob stalling non-critical load ip: 20172136 freq: 1
rob stalling non-critical load ip: 20172164 freq: 1
rob stalling non-critical load ip: 20172396 freq: 1
rob stalling non-critical load ip: 20172848 freq: 1
rob stalling non-critical load ip: 20172968 freq: 1
rob stalling non-critical load ip: 20172996 freq: 1
rob stalling non-critical load ip: 20173052 freq: 1
rob stalling non-critical load ip: 20182888 freq: 120
rob stalling non-critical load ip: 20182900 freq: 118
rob stalling non-critical load ip: 20182940 freq: 77
rob stalling non-critical load ip: 20182980 freq: 3
rob stalling non-critical load ip: 20182992 freq: 2
rob stalling non-critical load ip: 20183140 freq: 1
rob stalling non-critical load ip: 20183164 freq: 1
rob stalling non-critical load ip: 20183184 freq: 170
rob stalling non-critical load ip: 20185016 freq: 125
rob stalling non-critical load ip: 20197540 freq: 6
rob stalling non-critical load ip: 20197564 freq: 3
rob stalling non-critical load ip: 20201964 freq: 2
rob stalling non-critical load ip: 3101835032 freq: 6
rob stalling non-critical load ip: 4227904760 freq: 3
rob stalling non-critical load ip: 4227905480 freq: 1
rob stalling non-critical load ip: 4227907012 freq: 1
rob stalling non-critical load ip: 4227907064 freq: 1
rob stalling non-critical load ip: 4227913204 freq: 1
rob stalling non-critical load ip: 4227916208 freq: 1
rob stalling non-critical load ip: 4227920672 freq: 2
rob stalling non-critical load ip: 4227920992 freq: 1
rob stalling non-critical load ip: 4227923300 freq: 3
rob stalling non-critical load ip: 4227923620 freq: 4
rob stalling non-critical load ip: 4227928036 freq: 2
rob stalling non-critical load ip: 4227949688 freq: 1
rob stalling non-critical load ip: 4227950800 freq: 1
rob stalling non-critical load ip: 4227953420 freq: 1
rob stalling non-critical load ip: 4227953904 freq: 1
rob stalling non-critical load ip: 4227961532 freq: 2
rob stalling non-critical load ip: 4227965204 freq: 1
rob stalling non-critical load ip: 4228102548 freq: 23
rob stalling non-critical load ip: 4228102620 freq: 8
rob stalling non-critical load ip: 4228103232 freq: 794
rob stalling non-critical load ip: 4228103288 freq: 57
rob stalling non-critical load ip: 4228103296 freq: 1185
rob stalling non-critical load ip: 4228103304 freq: 426
rob stalling non-critical load ip: 4228103368 freq: 277
rob stalling non-critical load ip: 4228103456 freq: 405
rob stalling non-critical load ip: 4228103460 freq: 6
rob stalling non-critical load ip: 4228103472 freq: 6
rob stalling non-critical load ip: 4228103488 freq: 19
rob stalling non-critical load ip: 4228103492 freq: 5
rob stalling non-critical load ip: 4228103504 freq: 364
rob stalling non-critical load ip: 4228103552 freq: 45
rob stalling non-critical load ip: 4228103556 freq: 25
rob stalling non-critical load ip: 4228103596 freq: 14
rob stalling non-critical load ip: 4228103632 freq: 948
rob stalling non-critical load ip: 4228103700 freq: 568
rob stalling non-critical load ip: 4228103728 freq: 12
rob stalling non-critical load ip: 4228103736 freq: 9
rob stalling non-critical load ip: 4228103788 freq: 61
rob stalling non-critical load ip: 4228103808 freq: 227
rob stalling non-critical load ip: 4228103816 freq: 394
rob stalling non-critical load ip: 4228103880 freq: 21
rob stalling non-critical load ip: 4228103968 freq: 522
rob stalling non-critical load ip: 4228103972 freq: 139
rob stalling non-critical load ip: 4228103984 freq: 71
rob stalling non-critical load ip: 4228103988 freq: 10
rob stalling non-critical load ip: 4228104000 freq: 478
rob stalling non-critical load ip: 4228104004 freq: 24
rob stalling non-critical load ip: 4228104016 freq: 551
rob stalling non-critical load ip: 4228104020 freq: 6
rob stalling non-critical load ip: 4228104064 freq: 362
rob stalling non-critical load ip: 4228104068 freq: 23
rob stalling non-critical load ip: 4228104108 freq: 8
rob stalling non-critical load ip: 4228104144 freq: 7872
rob stalling non-critical load ip: 4228104256 freq: 65
rob stalling non-critical load ip: 4228104264 freq: 15
rob stalling non-critical load ip: 4228104532 freq: 2
rob stalling non-critical load ip: 4228104624 freq: 10
rob stalling non-critical load ip: 4228104656 freq: 2
rob stalling non-critical load ip: 4228104720 freq: 727
rob stalling non-critical load ip: 4228104724 freq: 279
rob stalling non-critical load ip: 4228104764 freq: 456
rob stalling non-critical load ip: 4228105072 freq: 2
rob stalling non-critical load ip: 4228105140 freq: 1
rob stalling non-critical load ip: 4228105684 freq: 65
rob stalling non-critical load ip: 4228105904 freq: 2
rob stalling non-critical load ip: 4228105952 freq: 2
rob stalling non-critical load ip: 4228106000 freq: 860
rob stalling non-critical load ip: 4228106004 freq: 17
rob stalling non-critical load ip: 4228106044 freq: 25
rob stalling non-critical load ip: 4228106080 freq: 8969
rob stalling non-critical load ip: 4228106132 freq: 14
rob stalling non-critical load ip: 4228106160 freq: 3
rob stalling non-critical load ip: 4228106288 freq: 856
rob stalling non-critical load ip: 4228106292 freq: 178
rob stalling non-critical load ip: 4228106304 freq: 75
rob stalling non-critical load ip: 4228106320 freq: 89
rob stalling non-critical load ip: 4228106324 freq: 10
rob stalling non-critical load ip: 4228106336 freq: 281
rob stalling non-critical load ip: 4228106340 freq: 36
rob stalling non-critical load ip: 4228106384 freq: 56
rob stalling non-critical load ip: 4228106388 freq: 21
rob stalling non-critical load ip: 4228106428 freq: 10
rob stalling non-critical load ip: 4228106452 freq: 28
rob stalling non-critical load ip: 4228109236 freq: 3
rob stalling non-critical load ip: 4228109252 freq: 1692
rob stalling non-critical load ip: 4228175108 freq: 4
rob stalling non-critical load ip: 4228175132 freq: 14
rob stalling non-critical load ip: 4228179436 freq: 8
rob stalling non-critical load ip: 4228189128 freq: 1
rob stalling non-critical load ip: 4228189284 freq: 8
rob stalling non-critical load ip: 4228189300 freq: 1
rob stalling non-critical load ip: 4228189320 freq: 1
rob stalling non-critical load ip: 4228190588 freq: 3
rob stalling non-critical load ip: 4228204672 freq: 245
rob stalling non-critical load ip: 4228204688 freq: 94
rob stalling non-critical load ip: 4228204704 freq: 115
rob stalling non-critical load ip: 4228204712 freq: 207
rob stalling non-critical load ip: 4228204760 freq: 765
rob stalling non-critical load ip: 4228204860 freq: 114
rob stalling non-critical load ip: 4228204876 freq: 194
rob stalling non-critical load ip: 4228204892 freq: 106
rob stalling non-critical load ip: 4228204908 freq: 45
rob stalling non-critical load ip: 4228204952 freq: 2100
rob stalling non-critical load ip: 4228204988 freq: 1384
rob stalling non-critical load ip: 4228212780 freq: 20
rob stalling non-critical load ip: 4228215712 freq: 155
rob stalling non-critical load ip: 4228215716 freq: 605
rob stalling non-critical load ip: 4228215720 freq: 169
rob stalling non-critical load ip: 4228216096 freq: 2710
rob stalling non-critical load ip: 4228216100 freq: 8
rob stalling non-critical load ip: 4228216104 freq: 16
rob stalling non-critical load ip: 4228216160 freq: 1754
rob stalling non-critical load ip: 4228216164 freq: 203
rob stalling non-critical load ip: 4228216168 freq: 467
rob stalling non-critical load ip: 4228216224 freq: 39
rob stalling non-critical load ip: 4228247148 freq: 2
rob stalling non-critical load ip: 4228247280 freq: 3
rob stalling non-critical load ip: 4228286108 freq: 3
rob stalling non-critical load ip: 4228290964 freq: 1
rob stalling non-critical load ip: 4228290984 freq: 3
rob stalling non-critical load ip: 4228291256 freq: 4
rob stalling non-critical load ip: 4228291312 freq: 2
rob stalling non-critical load ip: 4228291324 freq: 3
rob stalling non-critical load ip: 4228291372 freq: 3
rob stalling non-critical load ip: 4228291400 freq: 1
rob stalling non-critical load ip: 4228291464 freq: 7
rob stalling non-critical load ip: 4228291472 freq: 2
rob stalling non-critical load ip: 4228291500 freq: 1
rob stalling non-critical load ip: 4228291504 freq: 9
rob stalling non-critical load ip: 4228291576 freq: 15
rob stalling non-critical load ip: 4228291584 freq: 26
rob stalling non-critical load ip: 4228291612 freq: 18
rob stalling non-critical load ip: 4228291632 freq: 2
rob stalling non-critical load ip: 4228291640 freq: 12
rob stalling non-critical load ip: 4228291652 freq: 1
rob stalling non-critical load ip: 4228291660 freq: 17
rob stalling non-critical load ip: 4228291668 freq: 45
rob stalling non-critical load ip: 4228291680 freq: 1
rob stalling non-critical load ip: 4228291688 freq: 1
rob stalling non-critical load ip: 4228291696 freq: 7
rob stalling non-critical load ip: 4228291708 freq: 1
rob stalling non-critical load ip: 4228291712 freq: 10
rob stalling non-critical load ip: 4228291864 freq: 11
rob stalling non-critical load ip: 4228291900 freq: 15
rob stalling non-critical load ip: 4228291904 freq: 4
rob stalling non-critical load ip: 4228291952 freq: 3
rob stalling non-critical load ip: 4228291972 freq: 2
rob stalling non-critical load ip: 4228291984 freq: 23
rob stalling non-critical load ip: 4228292028 freq: 3
rob stalling non-critical load ip: 4228292040 freq: 47
rob stalling non-critical load ip: 4228292112 freq: 1
rob stalling non-critical load ip: 4228292124 freq: 51
rob stalling non-critical load ip: 4228292172 freq: 13
rob stalling non-critical load ip: 4228292248 freq: 13
rob stalling non-critical load ip: 4228292276 freq: 5
rob stalling non-critical load ip: 4228292344 freq: 7
rob stalling non-critical load ip: 4228292384 freq: 1
rob stalling non-critical load ip: 4228292412 freq: 6
rob stalling non-critical load ip: 4228292496 freq: 4
rob stalling non-critical load ip: 4228292556 freq: 1
rob stalling non-critical load ip: 4228292724 freq: 1
rob stalling non-critical load ip: 4228292744 freq: 1
rob stalling non-critical load ip: 4228292804 freq: 1
rob stalling non-critical load ip: 4228292936 freq: 4
rob stalling non-critical load ip: 4228293292 freq: 2
rob stalling non-critical load ip: 4228293372 freq: 2
rob stalling non-critical load ip: 4228293380 freq: 2
rob stalling non-critical load ip: 4228293512 freq: 2
rob stalling non-critical load ip: 4228293524 freq: 1
rob stalling non-critical load ip: 4228293700 freq: 1
rob stalling non-critical load ip: 4228293716 freq: 4
rob stalling non-critical load ip: 4228293784 freq: 3
rob stalling non-critical load ip: 4228294140 freq: 2
rob stalling non-critical load ip: 4228335484 freq: 19
rob stalling non-critical load ip: 4228342248 freq: 8
rob stalling non-critical load ip: 4228342272 freq: 7
rob stalling non-critical load ip: 4228342304 freq: 1
rob stalling non-critical load ip: 4228342332 freq: 6
rob stalling non-critical load ip: 4228344572 freq: 6
rob stalling non-critical load ip: 4228347680 freq: 1
rob stalling non-critical load ip: 4228351872 freq: 10
rob stalling non-critical load ip: 4228351900 freq: 20
rob stalling non-critical load ip: 4228351920 freq: 8
rob stalling non-critical load ip: 4228351932 freq: 919
rob stalling non-critical load ip: 4228351972 freq: 17
rob stalling non-critical load ip: 4228351988 freq: 15
rob stalling non-critical load ip: 4228352000 freq: 16
rob stalling non-critical load ip: 4228352032 freq: 7
rob stalling non-critical load ip: 4228352040 freq: 4
rob stalling non-critical load ip: 4228352056 freq: 14
rob stalling non-critical load ip: 4228352068 freq: 28
rob stalling non-critical load ip: 4228352072 freq: 21
rob stalling non-critical load ip: 4228352124 freq: 9
rob stalling non-critical load ip: 4228352164 freq: 8
rob stalling non-critical load ip: 4228352184 freq: 13
rob stalling non-critical load ip: 4228352204 freq: 6
rob stalling non-critical load ip: 4228352216 freq: 67
rob stalling non-critical load ip: 4228352264 freq: 7
rob stalling non-critical load ip: 4228352276 freq: 10
rob stalling non-critical load ip: 4228352332 freq: 5
rob stalling non-critical load ip: 4228352708 freq: 19
rob stalling non-critical load ip: 4228353008 freq: 3
rob stalling non-critical load ip: 4228374508 freq: 8
rob stalling non-critical load ip: 4228374520 freq: 2
rob stalling non-critical load ip: 4228374536 freq: 1
rob stalling non-critical load ip: 4228374552 freq: 15
rob stalling non-critical load ip: 4228374556 freq: 13
rob stalling non-critical load ip: 4228374588 freq: 21
rob stalling non-critical load ip: 4228374604 freq: 10
rob stalling non-critical load ip: 4228374628 freq: 3090
rob stalling non-critical load ip: 4228374708 freq: 121
rob stalling non-critical load ip: 4228374752 freq: 13
rob stalling non-critical load ip: 4228374764 freq: 13
rob stalling non-critical load ip: 4228379228 freq: 54
rob stalling non-critical load ip: 4228379284 freq: 39
rob stalling non-critical load ip: 4228379288 freq: 107
rob stalling non-critical load ip: 4228379356 freq: 45
rob stalling non-critical load ip: 4228379372 freq: 875
rob stalling non-critical load ip: 4228382172 freq: 19
rob stalling non-critical load ip: 4228382180 freq: 164
rob stalling non-critical load ip: 4228382192 freq: 4
rob stalling non-critical load ip: 4228382208 freq: 211
rob stalling non-critical load ip: 4228382212 freq: 29
rob stalling non-critical load ip: 4228382216 freq: 27
rob stalling non-critical load ip: 4228382224 freq: 5
rob stalling non-critical load ip: 4228382244 freq: 9
rob stalling non-critical load ip: 4228382320 freq: 318
rob stalling non-critical load ip: 4228382332 freq: 62
rob stalling non-critical load ip: 4228382388 freq: 4
rob stalling non-critical load ip: 4228382392 freq: 1
rob stalling non-critical load ip: 4228382404 freq: 6
rob stalling non-critical load ip: 4228382428 freq: 6
rob stalling non-critical load ip: 4228382440 freq: 26
rob stalling non-critical load ip: 4228382484 freq: 8
rob stalling non-critical load ip: 4228382496 freq: 36
rob stalling non-critical load ip: 4228382520 freq: 4
rob stalling non-critical load ip: 4228382540 freq: 6
rob stalling non-critical load ip: 4228382552 freq: 90
rob stalling non-critical load ip: 4228382568 freq: 1
rob stalling non-critical load ip: 4228382644 freq: 8
rob stalling non-critical load ip: 4228382660 freq: 1
rob stalling non-critical load ip: 4228382676 freq: 8
rob stalling non-critical load ip: 4228382744 freq: 135
rob stalling non-critical load ip: 4228382752 freq: 39
rob stalling non-critical load ip: 4228382764 freq: 523
rob stalling non-critical load ip: 4228382812 freq: 5
rob stalling non-critical load ip: 4228382824 freq: 733
rob stalling non-critical load ip: 4228382900 freq: 4
rob stalling non-critical load ip: 4228383004 freq: 4
rob stalling non-critical load ip: 4228383268 freq: 84
rob stalling non-critical load ip: 4228383280 freq: 24
rob stalling non-critical load ip: 4228383332 freq: 33
rob stalling non-critical load ip: 4228383364 freq: 1
rob stalling non-critical load ip: 4228383440 freq: 2
rob stalling non-critical load ip: 4228383456 freq: 13
rob stalling non-critical load ip: 4228383496 freq: 4
rob stalling non-critical load ip: 4228383680 freq: 1
rob stalling non-critical load ip: 4228383696 freq: 9
rob stalling non-critical load ip: 4228454808 freq: 2
rob stalling non-critical load ip: 4228455096 freq: 2
rob stalling non-critical load ip: 4228455132 freq: 2
rob stalling non-critical load ip: 4228455180 freq: 4
rob stalling non-critical load ip: 4228455196 freq: 1
rob stalling non-critical load ip: 4228455368 freq: 1
rob stalling non-critical load ip: 4228527020 freq: 3
rob stalling non-critical load ip: 4228527220 freq: 79
rob stalling non-critical load ip: 4228527252 freq: 3
rob stalling non-critical load ip: 4228527308 freq: 72
rob stalling non-critical load ip: 4228527612 freq: 14
rob stalling non-critical load ip: 4228549216 freq: 2
rob stalling non-critical load ip: 4228549248 freq: 3
rob stalling non-critical load ip: 4228549328 freq: 9
rob stalling non-critical load ip: 4228551228 freq: 1
rob stalling non-critical load ip: 4228551236 freq: 4
rob stalling non-critical load ip: 4228551284 freq: 4
rob stalling non-critical load ip: 4228551292 freq: 4
rob stalling non-critical load ip: 4228551328 freq: 2
rob stalling non-critical load ip: 4228551344 freq: 1
rob stalling non-critical load ip: 4228559036 freq: 35
rob stalling non-critical load ip: 4228559160 freq: 5
rob stalling non-critical load ip: 4228559180 freq: 1
rob stalling non-critical load ip: 4228559288 freq: 6
rob stalling non-critical load ip: 4228559316 freq: 2
rob stalling non-critical load ip: 4228559352 freq: 4
rob stalling non-critical load ip: 4228559552 freq: 6
rob stalling non-critical load ip: 4228559580 freq: 4
rob stalling non-critical load ip: 4228559708 freq: 1
rob stalling non-critical load ip: 4228559872 freq: 1
rob stalling non-critical load ip: 4228559880 freq: 2
rob stalling non-critical load ip: 4228560136 freq: 1
rob stalling non-critical load ip: 4228560276 freq: 1
rob stalling non-critical load ip: 4228560388 freq: 3
rob stalling non-critical load ip: 4228560396 freq: 3
rob stalling non-critical load ip: 4228560948 freq: 2
rob stalling non-critical load ip: 4228561056 freq: 3
rob stalling non-critical load ip: 4228561064 freq: 3
rob stalling non-critical load ip: 4228561180 freq: 2
rob stalling non-critical load ip: 4228561284 freq: 1
rob stalling non-critical load ip: 4228566024 freq: 14
rob stalling non-critical load ip: 4228566088 freq: 135
rob stalling non-critical load ip: 4228566104 freq: 32
rob stalling non-critical load ip: 4228566112 freq: 8
rob stalling non-critical load ip: 4228566128 freq: 3
rob stalling non-critical load ip: 4228566176 freq: 9
rob stalling non-critical load ip: 4228566204 freq: 17
rob stalling non-critical load ip: 4228566224 freq: 19
rob stalling non-critical load ip: 4228566244 freq: 9
rob stalling non-critical load ip: 4228566248 freq: 18
rob stalling non-critical load ip: 4228566288 freq: 13
rob stalling non-critical load ip: 4228566300 freq: 27
rob stalling non-critical load ip: 4228566320 freq: 1
rob stalling non-critical load ip: 4228566340 freq: 70
rob stalling non-critical load ip: 4228566364 freq: 11
rob stalling non-critical load ip: 4228566368 freq: 80
rob stalling non-critical load ip: 4228566408 freq: 9
rob stalling non-critical load ip: 4228566420 freq: 33
rob stalling non-critical load ip: 4228566460 freq: 5
rob stalling non-critical load ip: 4228566472 freq: 114
rob stalling non-critical load ip: 4228566512 freq: 6
rob stalling non-critical load ip: 4228566528 freq: 12
rob stalling non-critical load ip: 4228566540 freq: 15
rob stalling non-critical load ip: 4228566584 freq: 50
rob stalling non-critical load ip: 4228567312 freq: 17
rob stalling non-critical load ip: 4228574672 freq: 7
rob stalling non-critical load ip: 4228575444 freq: 8
rob stalling non-critical load ip: 4228588604 freq: 4
rob stalling non-critical load ip: 4228588608 freq: 8
rob stalling non-critical load ip: 4228588948 freq: 2
rob stalling non-critical load ip: 4228588964 freq: 3
rob stalling non-critical load ip: 4228590160 freq: 4
rob stalling non-critical load ip: 4228590200 freq: 2
rob stalling non-critical load ip: 4228590268 freq: 1
rob stalling non-critical load ip: 4228598304 freq: 2
rob stalling non-critical load ip: 4228600608 freq: 14
rob stalling non-critical load ip: 4228603004 freq: 148
rob stalling non-critical load ip: 4228603036 freq: 171
rob stalling non-critical load ip: 4228603076 freq: 64
rob stalling non-critical load ip: 4228603092 freq: 6
rob stalling non-critical load ip: 4228603096 freq: 13
rob stalling non-critical load ip: 4228603120 freq: 31
rob stalling non-critical load ip: 4228603136 freq: 22
rob stalling non-critical load ip: 4228603272 freq: 5
rob stalling non-critical load ip: 4228603280 freq: 6
rob stalling non-critical load ip: 4228603388 freq: 4
rob stalling non-critical load ip: 4228603412 freq: 2
rob stalling non-critical load ip: 4228603416 freq: 2
rob stalling non-critical load ip: 4228603436 freq: 57
rob stalling non-critical load ip: 4228603440 freq: 66
rob stalling non-critical load ip: 4228603552 freq: 154
rob stalling non-critical load ip: 4228603580 freq: 737
rob stalling non-critical load ip: 4228603704 freq: 2
rob stalling non-critical load ip: 4228603724 freq: 1
rob stalling non-critical load ip: 4228603872 freq: 14
rob stalling non-critical load ip: 4228615364 freq: 3
rob stalling non-critical load ip: 4228619976 freq: 1
rob stalling non-critical load ip: 4228620008 freq: 5
rob stalling non-critical load ip: 4228620140 freq: 3
rob stalling non-critical load ip: 4228620156 freq: 5
rob stalling non-critical load ip: 4228620200 freq: 1
rob stalling non-critical load ip: 4228620204 freq: 7
rob stalling non-critical load ip: 4228620416 freq: 11
rob stalling non-critical load ip: 4228620564 freq: 34
rob stalling non-critical load ip: 4228620576 freq: 2
rob stalling non-critical load ip: 4228620584 freq: 14
rob stalling non-critical load ip: 4228620588 freq: 11
rob stalling non-critical load ip: 4228620608 freq: 4
rob stalling non-critical load ip: 4228620620 freq: 17
rob stalling non-critical load ip: 4228620652 freq: 58
rob stalling non-critical load ip: 4228620656 freq: 51
rob stalling non-critical load ip: 4228620732 freq: 33
rob stalling non-critical load ip: 4228620828 freq: 10
rob stalling non-critical load ip: 4228620832 freq: 13
rob stalling non-critical load ip: 4228620848 freq: 60
rob stalling non-critical load ip: 4228620852 freq: 64
rob stalling non-critical load ip: 4228620912 freq: 16
rob stalling non-critical load ip: 4228620972 freq: 1
rob stalling non-critical load ip: 4228621260 freq: 8
rob stalling non-critical load ip: 4228624828 freq: 26
rob stalling non-critical load ip: 4228624876 freq: 30
rob stalling non-critical load ip: 4228624880 freq: 48
rob stalling non-critical load ip: 4228624900 freq: 5
rob stalling non-critical load ip: 4228624920 freq: 27
rob stalling non-critical load ip: 4228624932 freq: 7
rob stalling non-critical load ip: 4228624972 freq: 58
rob stalling non-critical load ip: 4228625008 freq: 4
rob stalling non-critical load ip: 4228625012 freq: 43
rob stalling non-critical load ip: 4228625028 freq: 4
rob stalling non-critical load ip: 4228625048 freq: 5
rob stalling non-critical load ip: 4228625060 freq: 181
rob stalling non-critical load ip: 4228625104 freq: 6
rob stalling non-critical load ip: 4228625112 freq: 7
rob stalling non-critical load ip: 4228625128 freq: 29
rob stalling non-critical load ip: 4228625152 freq: 1
rob stalling non-critical load ip: 4228625184 freq: 2
rob stalling non-critical load ip: 4228625196 freq: 94
rob stalling non-critical load ip: 4228625260 freq: 68
rob stalling non-critical load ip: 4228625280 freq: 3
rob stalling non-critical load ip: 4228625304 freq: 8
rob stalling non-critical load ip: 4228626040 freq: 11
rob stalling non-critical load ip: 4228630236 freq: 8
rob stalling non-critical load ip: 4228630256 freq: 3
rob stalling non-critical load ip: 4228630280 freq: 2
rob stalling non-critical load ip: 4228630284 freq: 1
rob stalling non-critical load ip: 4228630312 freq: 7
rob stalling non-critical load ip: 4228630332 freq: 3
rob stalling non-critical load ip: 4228630352 freq: 5
rob stalling non-critical load ip: 4228630356 freq: 3
rob stalling non-critical load ip: 4228630372 freq: 6
rob stalling non-critical load ip: 4228630600 freq: 2
rob stalling non-critical load ip: 4228630616 freq: 4
rob stalling non-critical load ip: 4228630664 freq: 5
rob stalling non-critical load ip: 4228630672 freq: 9
rob stalling non-critical load ip: 4228630712 freq: 5
rob stalling non-critical load ip: 4228630756 freq: 16
rob stalling non-critical load ip: 4228630760 freq: 15
rob stalling non-critical load ip: 4228630772 freq: 1
rob stalling non-critical load ip: 4228630788 freq: 3
rob stalling non-critical load ip: 4228630804 freq: 12
rob stalling non-critical load ip: 4228630824 freq: 9
rob stalling non-critical load ip: 4228630840 freq: 34
rob stalling non-critical load ip: 4228630864 freq: 1
rob stalling non-critical load ip: 4228630992 freq: 1
rob stalling non-critical load ip: 4228631108 freq: 3
rob stalling non-critical load ip: 4228631112 freq: 2
rob stalling non-critical load ip: 4228631116 freq: 37
rob stalling non-critical load ip: 4228631196 freq: 1
rob stalling non-critical load ip: 4228631204 freq: 31
rob stalling non-critical load ip: 4228631220 freq: 27
rob stalling non-critical load ip: 4228631260 freq: 3
rob stalling non-critical load ip: 4228631296 freq: 13
rob stalling non-critical load ip: 4228631308 freq: 43
rob stalling non-critical load ip: 4228631312 freq: 64
rob stalling non-critical load ip: 4228631332 freq: 5
rob stalling non-critical load ip: 4228631336 freq: 20
rob stalling non-critical load ip: 4228631396 freq: 37
rob stalling non-critical load ip: 4228631404 freq: 3
rob stalling non-critical load ip: 4228631416 freq: 4
rob stalling non-critical load ip: 4228631424 freq: 4
rob stalling non-critical load ip: 4228631432 freq: 6
rob stalling non-critical load ip: 4228631452 freq: 6
rob stalling non-critical load ip: 4228631460 freq: 3
rob stalling non-critical load ip: 4228631488 freq: 6
rob stalling non-critical load ip: 4228631516 freq: 9
rob stalling non-critical load ip: 4228631528 freq: 2
rob stalling non-critical load ip: 4228631532 freq: 5
rob stalling non-critical load ip: 4228631576 freq: 3
rob stalling non-critical load ip: 4228631616 freq: 10
rob stalling non-critical load ip: 4228631636 freq: 1
rob stalling non-critical load ip: 4228631684 freq: 1
rob stalling non-critical load ip: 4228631696 freq: 41
rob stalling non-critical load ip: 4228631732 freq: 14
rob stalling non-critical load ip: 4228631736 freq: 11
rob stalling non-critical load ip: 4228631752 freq: 2
rob stalling non-critical load ip: 4228631776 freq: 4
rob stalling non-critical load ip: 4228631808 freq: 2
rob stalling non-critical load ip: 4228631820 freq: 55
rob stalling non-critical load ip: 4228631864 freq: 3
rob stalling non-critical load ip: 4228631876 freq: 40
rob stalling non-critical load ip: 4228631920 freq: 4
rob stalling non-critical load ip: 4228631944 freq: 6
rob stalling non-critical load ip: 4228631956 freq: 42
rob stalling non-critical load ip: 4228632004 freq: 13
rob stalling non-critical load ip: 4228632064 freq: 10
rob stalling non-critical load ip: 4228632092 freq: 1
rob stalling non-critical load ip: 4228632152 freq: 30
rob stalling non-critical load ip: 4228632172 freq: 5
rob stalling non-critical load ip: 4228632184 freq: 1
rob stalling non-critical load ip: 4228632200 freq: 2
rob stalling non-critical load ip: 4228632212 freq: 35
rob stalling non-critical load ip: 4228632260 freq: 28
rob stalling non-critical load ip: 4228632276 freq: 1
rob stalling non-critical load ip: 4228632296 freq: 3
rob stalling non-critical load ip: 4228632340 freq: 1
rob stalling non-critical load ip: 4228632424 freq: 1
rob stalling non-critical load ip: 4228632448 freq: 4
rob stalling non-critical load ip: 4228632480 freq: 1
rob stalling non-critical load ip: 4228632556 freq: 1
rob stalling non-critical load ip: 4228632680 freq: 1
rob stalling non-critical load ip: 4228632752 freq: 2
rob stalling non-critical load ip: 4228632892 freq: 1
rob stalling non-critical load ip: 4228633208 freq: 2
rob stalling non-critical load ip: 4228633320 freq: 2
rob stalling non-critical load ip: 4228633384 freq: 1
rob stalling non-critical load ip: 4228633412 freq: 2
rob stalling non-critical load ip: 4228633672 freq: 3
rob stalling non-critical load ip: 4228633764 freq: 3
rob stalling non-critical load ip: 4228634000 freq: 3
rob stalling non-critical load ip: 4228634008 freq: 4
rob stalling non-critical load ip: 4228634128 freq: 2
rob stalling non-critical load ip: 4228634232 freq: 1
rob stalling non-critical load ip: 4228634340 freq: 2
rob stalling non-critical load ip: 4228634412 freq: 1
rob stalling non-critical load ip: 4228634452 freq: 3
rob stalling non-critical load ip: 4228634460 freq: 2
rob stalling non-critical load ip: 4228634468 freq: 4
rob stalling non-critical load ip: 4228634984 freq: 3
rob stalling non-critical load ip: 4228635096 freq: 3
rob stalling non-critical load ip: 4228635200 freq: 2
rob stalling non-critical load ip: 4228635208 freq: 2
rob stalling non-critical load ip: 4228635300 freq: 2
rob stalling non-critical load ip: 4228635516 freq: 2
rob stalling non-critical load ip: 4228635740 freq: 4
rob stalling non-critical load ip: 4228688320 freq: 18
rob stalling non-critical load ip: 4228692292 freq: 3
rob stalling non-critical load ip: 4228692672 freq: 23
rob stalling non-critical load ip: 4228695764 freq: 3
rob stalling non-critical load ip: 4228705148 freq: 6
rob stalling non-critical load ip: 4228705164 freq: 2
rob stalling non-critical load ip: 4228705460 freq: 3
rob stalling non-critical load ip: 4228705500 freq: 3
rob stalling non-critical load ip: 4228707396 freq: 3
rob stalling non-critical load ip: 4228707432 freq: 4
rob stalling non-critical load ip: 4228814652 freq: 8
rob stalling non-critical load ip: 4228814800 freq: 3
rob stalling non-critical load ip: 4228814876 freq: 7
rob stalling non-critical load ip: 4228814884 freq: 4
rob stalling non-critical load ip: 4228814944 freq: 2
rob stalling non-critical load ip: 4228815176 freq: 6
rob stalling non-critical load ip: 4228827140 freq: 393
rob stalling non-critical load ip: 4228827144 freq: 273
rob stalling non-critical load ip: 4228827208 freq: 134
rob stalling non-critical load ip: 4228827216 freq: 1406
rob stalling non-critical load ip: 4228827260 freq: 73
rob stalling non-critical load ip: 4228827280 freq: 2653
rob stalling non-critical load ip: 4228827296 freq: 311
rob stalling non-critical load ip: 4228827348 freq: 15
rob stalling non-critical load ip: 4228827364 freq: 15
rob stalling non-critical load ip: 4228827368 freq: 35
rob stalling non-critical load ip: 4228827384 freq: 18
rob stalling non-critical load ip: 4228827388 freq: 58
rob stalling non-critical load ip: 4228827392 freq: 110
rob stalling non-critical load ip: 4228827396 freq: 238
rob stalling non-critical load ip: 4228827476 freq: 37
rob stalling non-critical load ip: 4228827480 freq: 1141
rob stalling non-critical load ip: 4228827516 freq: 191
rob stalling non-critical load ip: 4228827520 freq: 1212
rob stalling non-critical load ip: 4228827628 freq: 417
rob stalling non-critical load ip: 4228827636 freq: 863
rob stalling non-critical load ip: 4228827656 freq: 77
rob stalling non-critical load ip: 4228839356 freq: 68
rob stalling non-critical load ip: 4228926752 freq: 2
rob stalling non-critical load ip: 4228926796 freq: 86
rob stalling non-critical load ip: 4228926824 freq: 10
rob stalling non-critical load ip: 4228926844 freq: 4
rob stalling non-critical load ip: 4228926852 freq: 6
rob stalling non-critical load ip: 4228926856 freq: 2
rob stalling non-critical load ip: 4228926872 freq: 2
rob stalling non-critical load ip: 4228926920 freq: 8
rob stalling non-critical load ip: 4228926924 freq: 10
rob stalling non-critical load ip: 4229001148 freq: 19
rob stalling non-critical load ip: 4229001164 freq: 2
rob stalling non-critical load ip: 4229001168 freq: 6
rob stalling non-critical load ip: 4229001184 freq: 10
rob stalling non-critical load ip: 4229001224 freq: 27
rob stalling non-critical load ip: 4229001284 freq: 40
rob stalling non-critical load ip: 4229001404 freq: 2
rob stalling non-critical load ip: 4229001420 freq: 1
rob stalling non-critical load ip: 4229001452 freq: 2
rob stalling non-critical load ip: 4229019116 freq: 7
rob stalling non-critical load ip: 4229019168 freq: 5
rob stalling non-critical load ip: 4229020672 freq: 2008
rob stalling non-critical load ip: 4229020684 freq: 1958
rob stalling non-critical load ip: 4229020760 freq: 10558
rob stalling non-critical load ip: 4229020796 freq: 7473
rob stalling non-critical load ip: 4229020800 freq: 557
rob stalling non-critical load ip: 4229020824 freq: 222
rob stalling non-critical load ip: 4229020840 freq: 235
rob stalling non-critical load ip: 4229020860 freq: 22599
rob stalling non-critical load ip: 4229020884 freq: 9410
rob stalling non-critical load ip: 4229020896 freq: 99
rob stalling non-critical load ip: 4229020904 freq: 18241
rob stalling non-critical load ip: 4229020924 freq: 379
rob stalling non-critical load ip: 4229020928 freq: 195
rob stalling non-critical load ip: 4229020940 freq: 378
rob stalling non-critical load ip: 4229020952 freq: 7456
rob stalling non-critical load ip: 4229021040 freq: 1118
rob stalling non-critical load ip: 4229021048 freq: 538
rob stalling non-critical load ip: 4229021128 freq: 1578
rob stalling non-critical load ip: 4229021144 freq: 33
rob stalling non-critical load ip: 4229021200 freq: 11
rob stalling non-critical load ip: 4229021424 freq: 2
rob stalling non-critical load ip: 4229021504 freq: 319
rob stalling non-critical load ip: 4229021512 freq: 348
rob stalling non-critical load ip: 4229021600 freq: 3
rob stalling non-critical load ip: 4229022032 freq: 20
rob stalling non-critical load ip: 4229022052 freq: 14234
rob stalling non-critical load ip: 4229022072 freq: 317
rob stalling non-critical load ip: 4229022080 freq: 1505
rob stalling non-critical load ip: 4229022132 freq: 2150
rob stalling non-critical load ip: 4229022172 freq: 13396
rob stalling non-critical load ip: 4229022240 freq: 26448
rob stalling non-critical load ip: 4229022256 freq: 165
rob stalling non-critical load ip: 4229022292 freq: 330
rob stalling non-critical load ip: 4229022316 freq: 560
rob stalling non-critical load ip: 4229022356 freq: 4855
rob stalling non-critical load ip: 4229022372 freq: 185
rob stalling non-critical load ip: 4229022408 freq: 151
rob stalling non-critical load ip: 4229022480 freq: 37
rob stalling non-critical load ip: 4229022620 freq: 2
rob stalling non-critical load ip: 4229022756 freq: 34
rob stalling non-critical load ip: 4229023252 freq: 4474
rob stalling non-critical load ip: 4229023256 freq: 126
rob stalling non-critical load ip: 4229023268 freq: 43
rob stalling non-critical load ip: 4229023332 freq: 5
rob stalling non-critical load ip: 4229023420 freq: 4
rob stalling non-critical load ip: 4229023424 freq: 6
rob stalling non-critical load ip: 4229023488 freq: 3
rob stalling non-critical load ip: 4229023556 freq: 2
rob stalling non-critical load ip: 4229023644 freq: 2
rob stalling non-critical load ip: 4229023712 freq: 5
rob stalling non-critical load ip: 4229023848 freq: 4
rob stalling non-critical load ip: 4229023864 freq: 2
rob stalling non-critical load ip: 4229024060 freq: 4
rob stalling non-critical load ip: 4229024068 freq: 12
rob stalling non-critical load ip: 4229024100 freq: 1
rob stalling non-critical load ip: 4229024256 freq: 1
rob stalling non-critical load ip: 4229024648 freq: 8
rob stalling non-critical load ip: 4229024708 freq: 13
rob stalling non-critical load ip: 4229024864 freq: 7
rob stalling non-critical load ip: 4229047340 freq: 5
rob stalling non-critical load ip: 4229047808 freq: 1
rob stalling non-critical load ip: 4229048020 freq: 3
rob stalling non-critical load ip: 4229048088 freq: 3
rob stalling non-critical load ip: 4229048304 freq: 220
rob stalling non-critical load ip: 4229048312 freq: 33
rob stalling non-critical load ip: 4229048356 freq: 9259
rob stalling non-critical load ip: 4229048364 freq: 3908
rob stalling non-critical load ip: 4229048376 freq: 5933
rob stalling non-critical load ip: 4229048468 freq: 3997
rob stalling non-critical load ip: 4229048472 freq: 9199
rob stalling non-critical load ip: 4229048476 freq: 44
rob stalling non-critical load ip: 4229048528 freq: 93
rob stalling non-critical load ip: 4229048540 freq: 20
rob stalling non-critical load ip: 4229048660 freq: 13
rob stalling non-critical load ip: 4229048692 freq: 112
rob stalling non-critical load ip: 4229048708 freq: 2
rob stalling non-critical load ip: 4229048712 freq: 33
rob stalling non-critical load ip: 4229048720 freq: 128
rob stalling non-critical load ip: 4229048728 freq: 110
rob stalling non-critical load ip: 4229048780 freq: 23
rob stalling non-critical load ip: 4229048892 freq: 31
rob stalling non-critical load ip: 4229048900 freq: 63
rob stalling non-critical load ip: 4229048908 freq: 67
rob stalling non-critical load ip: 4229049056 freq: 5
rob stalling non-critical load ip: 4229049064 freq: 5
rob stalling non-critical load ip: 4229057352 freq: 2911
rob stalling non-critical load ip: 4229057356 freq: 719
rob stalling non-critical load ip: 4229057372 freq: 58
rob stalling non-critical load ip: 4229057388 freq: 80
rob stalling non-critical load ip: 4229057408 freq: 340
rob stalling non-critical load ip: 4229057428 freq: 175
rob stalling non-critical load ip: 4229057472 freq: 508
rob stalling non-critical load ip: 4229057484 freq: 1482
rob stalling non-critical load ip: 4229057488 freq: 2736
rob stalling non-critical load ip: 4229057496 freq: 2040
rob stalling non-critical load ip: 4229057512 freq: 76
rob stalling non-critical load ip: 4229057544 freq: 30
rob stalling non-critical load ip: 4229057572 freq: 154
rob stalling non-critical load ip: 4229057624 freq: 448
rob stalling non-critical load ip: 4229057628 freq: 1993
rob stalling non-critical load ip: 4229057640 freq: 64
rob stalling non-critical load ip: 4229057656 freq: 983
rob stalling non-critical load ip: 4229057676 freq: 60
rob stalling non-critical load ip: 4229057680 freq: 168
rob stalling non-critical load ip: 4229057692 freq: 2431
rob stalling non-critical load ip: 4229057704 freq: 57
rob stalling non-critical load ip: 4229057720 freq: 105
rob stalling non-critical load ip: 4229057728 freq: 2342
rob stalling non-critical load ip: 4229057768 freq: 591
rob stalling non-critical load ip: 4229058044 freq: 5
rob stalling non-critical load ip: 4229058432 freq: 1
rob stalling non-critical load ip: 4229069704 freq: 511
rob stalling non-critical load ip: 4229069708 freq: 385
rob stalling non-critical load ip: 4229069724 freq: 114
rob stalling non-critical load ip: 4229069732 freq: 1191
rob stalling non-critical load ip: 4229069776 freq: 350
rob stalling non-critical load ip: 4229069796 freq: 2349
rob stalling non-critical load ip: 4229069824 freq: 2799
rob stalling non-critical load ip: 4229069840 freq: 412
rob stalling non-critical load ip: 4229069868 freq: 237
rob stalling non-critical load ip: 4229069892 freq: 116
rob stalling non-critical load ip: 4229069904 freq: 113
rob stalling non-critical load ip: 4229069924 freq: 42
rob stalling non-critical load ip: 4229069944 freq: 116
rob stalling non-critical load ip: 4229070000 freq: 18
rob stalling non-critical load ip: 4229070040 freq: 99
rob stalling non-critical load ip: 4229070052 freq: 1410
rob stalling non-critical load ip: 4229070064 freq: 104
rob stalling non-critical load ip: 4229070140 freq: 301
rob stalling non-critical load ip: 4229070160 freq: 13
rob stalling non-critical load ip: 4229070188 freq: 13
rob stalling non-critical load ip: 4229070204 freq: 106
rob stalling non-critical load ip: 4229070220 freq: 16
rob stalling non-critical load ip: 4229070256 freq: 39
rob stalling non-critical load ip: 4229070280 freq: 188
rob stalling non-critical load ip: 4229070324 freq: 4
rob stalling non-critical load ip: 4229070368 freq: 92
rob stalling non-critical load ip: 4229070372 freq: 8
rob stalling non-critical load ip: 4229070412 freq: 383
rob stalling non-critical load ip: 4229070420 freq: 481
rob stalling non-critical load ip: 4229070428 freq: 1918
rob stalling non-critical load ip: 4229070552 freq: 3690
rob stalling non-critical load ip: 4229070568 freq: 101
rob stalling non-critical load ip: 4229070576 freq: 326
rob stalling non-critical load ip: 4229070580 freq: 7
rob stalling non-critical load ip: 4229070592 freq: 183
rob stalling non-critical load ip: 4229070608 freq: 45
rob stalling non-critical load ip: 4229070612 freq: 1042
rob stalling non-critical load ip: 4229070616 freq: 1
rob stalling non-critical load ip: 4229070620 freq: 15
rob stalling non-critical load ip: 4229070624 freq: 147
rob stalling non-critical load ip: 4229070652 freq: 229
rob stalling non-critical load ip: 4229070668 freq: 77
rob stalling non-critical load ip: 4229070712 freq: 342
rob stalling non-critical load ip: 4229070828 freq: 251
rob stalling non-critical load ip: 4229070832 freq: 2
rob stalling non-critical load ip: 4229070876 freq: 2553
rob stalling non-critical load ip: 4229070884 freq: 7036
rob stalling non-critical load ip: 4229070892 freq: 7261
rob stalling non-critical load ip: 4229070916 freq: 648
rob stalling non-critical load ip: 4229070980 freq: 667
rob stalling non-critical load ip: 4229071008 freq: 10
rob stalling non-critical load ip: 4229071032 freq: 46
rob stalling non-critical load ip: 4229071036 freq: 17
rob stalling non-critical load ip: 4229071040 freq: 4
rob stalling non-critical load ip: 4229071084 freq: 110
rob stalling non-critical load ip: 4229071148 freq: 608
rob stalling non-critical load ip: 4229071168 freq: 231
rob stalling non-critical load ip: 4229071180 freq: 7
rob stalling non-critical load ip: 4229071708 freq: 1
rob stalling non-critical load ip: 4229071764 freq: 6
rob stalling non-critical load ip: 4229071940 freq: 3
rob stalling non-critical load ip: 4229072420 freq: 148
rob stalling non-critical load ip: 4229072468 freq: 14
rob stalling non-critical load ip: 4229072488 freq: 8
rob stalling non-critical load ip: 4229072836 freq: 3
rob stalling non-critical load ip: 4229073028 freq: 2
rob stalling non-critical load ip: 4229073512 freq: 6
rob stalling non-critical load ip: 4229074052 freq: 3
rob stalling non-critical load ip: 4229121212 freq: 521
rob stalling non-critical load ip: 4229121276 freq: 58
rob stalling non-critical load ip: 4229121328 freq: 36
rob stalling non-critical load ip: 4229121344 freq: 21
rob stalling non-critical load ip: 4229121360 freq: 9
rob stalling non-critical load ip: 4229121380 freq: 2099
rob stalling non-critical load ip: 4229121404 freq: 57
rob stalling non-critical load ip: 4229121428 freq: 36
rob stalling non-critical load ip: 4229121448 freq: 33
rob stalling non-critical load ip: 4229121544 freq: 41
rob stalling non-critical load ip: 4229121548 freq: 221
rob stalling non-critical load ip: 4229127580 freq: 3511
rob stalling non-critical load ip: 4229127636 freq: 46
rob stalling non-critical load ip: 4229127652 freq: 35
rob stalling non-critical load ip: 4229127668 freq: 24
rob stalling non-critical load ip: 4229127688 freq: 235
rob stalling non-critical load ip: 4229127692 freq: 382
rob stalling non-critical load ip: 4229127696 freq: 1
rob stalling non-critical load ip: 4229127732 freq: 33
rob stalling non-critical load ip: 4229127748 freq: 38
rob stalling non-critical load ip: 4229127760 freq: 31
rob stalling non-critical load ip: 4229127776 freq: 27
rob stalling non-critical load ip: 4229127788 freq: 18
rob stalling non-critical load ip: 4229127800 freq: 23
rob stalling non-critical load ip: 4229127812 freq: 36
rob stalling non-critical load ip: 4229127828 freq: 34
rob stalling non-critical load ip: 4229127840 freq: 505
rob stalling non-critical load ip: 4229127928 freq: 5
rob stalling non-critical load ip: 4229128636 freq: 346
rob stalling non-critical load ip: 4229128656 freq: 45
rob stalling non-critical load ip: 4229128752 freq: 55
rob stalling non-critical load ip: 4229128756 freq: 477
rob stalling non-critical load ip: 4229130196 freq: 7
rob stalling non-critical load ip: 4229135840 freq: 1
rob stalling non-critical load ip: 4229136012 freq: 4
rob stalling non-critical load ip: 4229136452 freq: 13
rob stalling non-critical load ip: 4229138236 freq: 354
rob stalling non-critical load ip: 4229138296 freq: 61
rob stalling non-critical load ip: 4229138316 freq: 19
rob stalling non-critical load ip: 4229138324 freq: 25
rob stalling non-critical load ip: 4229138340 freq: 2400
rob stalling non-critical load ip: 4229138424 freq: 3537
rob stalling non-critical load ip: 4229138432 freq: 76
rob stalling non-critical load ip: 4229138436 freq: 269
rob stalling non-critical load ip: 4229138532 freq: 166
rob stalling non-critical load ip: 4229138572 freq: 140
rob stalling non-critical load ip: 4229138608 freq: 42
rob stalling non-critical load ip: 4229138740 freq: 2
rob stalling non-critical load ip: 4229138820 freq: 3
rob stalling non-critical load ip: 4229138932 freq: 22
rob stalling non-critical load ip: 4229139196 freq: 7
rob stalling non-critical load ip: 4229139508 freq: 1153
rob stalling non-critical load ip: 4229139672 freq: 214
rob stalling non-critical load ip: 4229139676 freq: 3751
rob stalling non-critical load ip: 4229139752 freq: 71
rob stalling non-critical load ip: 4229174560 freq: 81
rob stalling non-critical load ip: 4229174580 freq: 31
rob stalling non-critical load ip: 4229174612 freq: 11
rob stalling non-critical load ip: 4229174624 freq: 11
rob stalling non-critical load ip: 4229174636 freq: 7
rob stalling non-critical load ip: 4229174684 freq: 1445
rob stalling non-critical load ip: 4229174716 freq: 73
rob stalling non-critical load ip: 4229174736 freq: 21
rob stalling non-critical load ip: 4229174740 freq: 155
rob stalling non-critical load ip: 4229174764 freq: 51
rob stalling non-critical load ip: 4229174768 freq: 2
rob stalling non-critical load ip: 4229174792 freq: 61
rob stalling non-critical load ip: 4229174808 freq: 50
rob stalling non-critical load ip: 4229174832 freq: 438
rob stalling non-critical load ip: 4229174852 freq: 125
rob stalling non-critical load ip: 4229174872 freq: 33
rob stalling non-critical load ip: 4229174900 freq: 10
rob stalling non-critical load ip: 4229174940 freq: 56
rob stalling non-critical load ip: 4229174964 freq: 162
rob stalling non-critical load ip: 4229174996 freq: 95
rob stalling non-critical load ip: 4229175012 freq: 33
rob stalling non-critical load ip: 4229175056 freq: 43
rob stalling non-critical load ip: 4229175080 freq: 92
rob stalling non-critical load ip: 4229175096 freq: 89
rob stalling non-critical load ip: 4229175100 freq: 2
rob stalling non-critical load ip: 4229175116 freq: 20
rob stalling non-critical load ip: 4229175140 freq: 70
rob stalling non-critical load ip: 4229175160 freq: 155
rob stalling non-critical load ip: 4229175172 freq: 1
rob stalling non-critical load ip: 4229175228 freq: 5
[...]
Non-critical_ROB_Stalls_Percent_1_Bucket_5: 838
Critical_ROB_Stalls_Percent_1_Bucket_6: 1336
Non-critical_ROB_Stalls_Percent_1_Bucket_6: 3187
Critical_ROB_Stalls_Percent_2_Bucket_0: 294131
Non-critical_ROB_Stalls_Percent_2_Bucket_0: 192732
Critical_ROB_Stalls_Percent_2_Bucket_1: 56430
Non-critical_ROB_Stalls_Percent_2_Bucket_1: 37933
Critical_ROB_Stalls_Percent_2_Bucket_2: 4015
Non-critical_ROB_Stalls_Percent_2_Bucket_2: 5146
Critical_ROB_Stalls_Percent_2_Bucket_3: 2424
Non-critical_ROB_Stalls_Percent_2_Bucket_3: 2326
Critical_ROB_Stalls_Percent_2_Bucket_4: 2344
Non-critical_ROB_Stalls_Percent_2_Bucket_4: 1178
Critical_ROB_Stalls_Percent_2_Bucket_5: 1444
Non-critical_ROB_Stalls_Percent_2_Bucket_5: 835
Critical_ROB_Stalls_Percent_2_Bucket_6: 1336
Non-critical_ROB_Stalls_Percent_2_Bucket_6: 3187
Critical_ROB_Stalls_Percent_3_Bucket_0: 319802
Non-critical_ROB_Stalls_Percent_3_Bucket_0: 167061
Critical_ROB_Stalls_Percent_3_Bucket_1: 59729
Non-critical_ROB_Stalls_Percent_3_Bucket_1: 34634
Critical_ROB_Stalls_Percent_3_Bucket_2: 4139
Non-critical_ROB_Stalls_Percent_3_Bucket_2: 5022
Critical_ROB_Stalls_Percent_3_Bucket_3: 2430
Non-critical_ROB_Stalls_Percent_3_Bucket_3: 2320
Critical_ROB_Stalls_Percent_3_Bucket_4: 2348
Non-critical_ROB_Stalls_Percent_3_Bucket_4: 1174
Critical_ROB_Stalls_Percent_3_Bucket_5: 1444
Non-critical_ROB_Stalls_Percent_3_Bucket_5: 835
Critical_ROB_Stalls_Percent_3_Bucket_6: 1336
Non-critical_ROB_Stalls_Percent_3_Bucket_6: 3187
Critical_ROB_Stalls_Percent_4_Bucket_0: 340926
Non-critical_ROB_Stalls_Percent_4_Bucket_0: 145937
Critical_ROB_Stalls_Percent_4_Bucket_1: 64859
Non-critical_ROB_Stalls_Percent_4_Bucket_1: 29504
Critical_ROB_Stalls_Percent_4_Bucket_2: 4497
Non-critical_ROB_Stalls_Percent_4_Bucket_2: 4664
Critical_ROB_Stalls_Percent_4_Bucket_3: 2938
Non-critical_ROB_Stalls_Percent_4_Bucket_3: 1812
Critical_ROB_Stalls_Percent_4_Bucket_4: 2497
Non-critical_ROB_Stalls_Percent_4_Bucket_4: 1025
Critical_ROB_Stalls_Percent_4_Bucket_5: 1723
Non-critical_ROB_Stalls_Percent_4_Bucket_5: 556
Critical_ROB_Stalls_Percent_4_Bucket_6: 2211
Non-critical_ROB_Stalls_Percent_4_Bucket_6: 2312
Critical_ROB_Stalls_Percent_5_Bucket_0: 366371
Non-critical_ROB_Stalls_Percent_5_Bucket_0: 120492
Critical_ROB_Stalls_Percent_5_Bucket_1: 68452
Non-critical_ROB_Stalls_Percent_5_Bucket_1: 25911
Critical_ROB_Stalls_Percent_5_Bucket_2: 4870
Non-critical_ROB_Stalls_Percent_5_Bucket_2: 4291
Critical_ROB_Stalls_Percent_5_Bucket_3: 3134
Non-critical_ROB_Stalls_Percent_5_Bucket_3: 1616
Critical_ROB_Stalls_Percent_5_Bucket_4: 2735
Non-critical_ROB_Stalls_Percent_5_Bucket_4: 787
Critical_ROB_Stalls_Percent_5_Bucket_5: 1748
Non-critical_ROB_Stalls_Percent_5_Bucket_5: 531
Critical_ROB_Stalls_Percent_5_Bucket_6: 2216
Non-critical_ROB_Stalls_Percent_5_Bucket_6: 2307
Critical_ROB_Stalls_Percent_6_Bucket_0: 390906
Non-critical_ROB_Stalls_Percent_6_Bucket_0: 95957
Critical_ROB_Stalls_Percent_6_Bucket_1: 72453
Non-critical_ROB_Stalls_Percent_6_Bucket_1: 21910
Critical_ROB_Stalls_Percent_6_Bucket_2: 5502
Non-critical_ROB_Stalls_Percent_6_Bucket_2: 3659
Critical_ROB_Stalls_Percent_6_Bucket_3: 3282
Non-critical_ROB_Stalls_Percent_6_Bucket_3: 1468
Critical_ROB_Stalls_Percent_6_Bucket_4: 2829
Non-critical_ROB_Stalls_Percent_6_Bucket_4: 693
Critical_ROB_Stalls_Percent_6_Bucket_5: 1819
Non-critical_ROB_Stalls_Percent_6_Bucket_5: 460
Critical_ROB_Stalls_Percent_6_Bucket_6: 3050
Non-critical_ROB_Stalls_Percent_6_Bucket_6: 1473
Critical_ROB_Stalls_Percent_7_Bucket_0: 413742
Non-critical_ROB_Stalls_Percent_7_Bucket_0: 73121
Critical_ROB_Stalls_Percent_7_Bucket_1: 77265
Non-critical_ROB_Stalls_Percent_7_Bucket_1: 17098
Critical_ROB_Stalls_Percent_7_Bucket_2: 6293
Non-critical_ROB_Stalls_Percent_7_Bucket_2: 2868
Critical_ROB_Stalls_Percent_7_Bucket_3: 3589
Non-critical_ROB_Stalls_Percent_7_Bucket_3: 1161
Critical_ROB_Stalls_Percent_7_Bucket_4: 2974
Non-critical_ROB_Stalls_Percent_7_Bucket_4: 548
Critical_ROB_Stalls_Percent_7_Bucket_5: 1990
Non-critical_ROB_Stalls_Percent_7_Bucket_5: 289
Critical_ROB_Stalls_Percent_7_Bucket_6: 3467
Non-critical_ROB_Stalls_Percent_7_Bucket_6: 1056
Critical_ROB_Stalls_Percent_8_Bucket_0: 439290
Non-critical_ROB_Stalls_Percent_8_Bucket_0: 47573
Critical_ROB_Stalls_Percent_8_Bucket_1: 80566
Non-critical_ROB_Stalls_Percent_8_Bucket_1: 13797
Critical_ROB_Stalls_Percent_8_Bucket_2: 7158
Non-critical_ROB_Stalls_Percent_8_Bucket_2: 2003
Critical_ROB_Stalls_Percent_8_Bucket_3: 3754
Non-critical_ROB_Stalls_Percent_8_Bucket_3: 996
Critical_ROB_Stalls_Percent_8_Bucket_4: 3025
Non-critical_ROB_Stalls_Percent_8_Bucket_4: 497
Critical_ROB_Stalls_Percent_8_Bucket_5: 2009
Non-critical_ROB_Stalls_Percent_8_Bucket_5: 270
Critical_ROB_Stalls_Percent_8_Bucket_6: 3476
Non-critical_ROB_Stalls_Percent_8_Bucket_6: 1047
Average ROB occupancy Load Stall Begin: 32.9103
Average ROB occupancy Load Stall End: 38.9152
Min ROB occupancy Load Stall Begin: 1
Max ROB occupancy Load Stall Begin: 351
Min ROB occupancy Load Stall End: 1
Max ROB occupancy Load Stall End: 352
Average ROB occupancy Critical Load Stall Begin: -nan
Average ROB occupancy Critical Load Stall End: -nan
Min ROB occupancy Critical Load Stall Begin: 400
Max ROB occupancy Critical Load Stall Begin: 0
Min ROB occupancy Critical Load Stall End: 400
Max ROB occupancy Critical Load Stall End: 0
 ROB Load Stall Begin Bucket Count 0: 501840
 ROB Load Stall End Bucket Count 0: 486863
 ROB Critical Load Stall Begin Bucket Count 0: 0
 ROB Critical Load Stall End Bucket Count 0: 0
 ROB Load Stall Begin Bucket Count 1: 83602
 ROB Load Stall End Bucket Count 1: 94363
 ROB Critical Load Stall Begin Bucket Count 1: 0
 ROB Critical Load Stall End Bucket Count 1: 0
 ROB Load Stall Begin Bucket Count 2: 7474
 ROB Load Stall End Bucket Count 2: 9161
 ROB Critical Load Stall Begin Bucket Count 2: 0
 ROB Critical Load Stall End Bucket Count 2: 0
 ROB Load Stall Begin Bucket Count 3: 3481
 ROB Load Stall End Bucket Count 3: 4750
 ROB Critical Load Stall Begin Bucket Count 3: 0
 ROB Critical Load Stall End Bucket Count 3: 0
 ROB Load Stall Begin Bucket Count 4: 2960
 ROB Load Stall End Bucket Count 4: 3522
 ROB Critical Load Stall Begin Bucket Count 4: 0
 ROB Critical Load Stall End Bucket Count 4: 0
 ROB Load Stall Begin Bucket Count 5: 2441
 ROB Load Stall End Bucket Count 5: 2279
 ROB Critical Load Stall Begin Bucket Count 5: 0
 ROB Critical Load Stall End Bucket Count 5: 0
 ROB Load Stall Begin Bucket Count 6: 3663
 ROB Load Stall End Bucket Count 6: 4523
 ROB Critical Load Stall Begin Bucket Count 6: 0
 ROB Critical Load Stall End Bucket Count 6: 0
PIST Tag Read Accesses: 208038
PIST Read Accesses: 104019
PIST Tag Write Accesses: 208038
PIST Write Accesses: 104019
Criticality detector called times: 264698
Max global_stall_cycles_count: 185960
Threshold Modified: 2 times, factor: -2
Sturdy critical IP cache stats: 
 Unused entries: 0
CIC Tag Read Accesses: 0
CIC Read Accesses: 0
CIC Tag Write Accesses: 0
CIC Write Accesses: 0
Wobbly critical IP cache stats: 
 Unused entries: 113
CIC Tag Read Accesses: 51818076
CIC Read Accesses: 0
CIC Tag Write Accesses: 26
CIC Write Accesses: 0
ITLB TOTAL     ACCESS:    7379143  HIT:    6852905  MISS:     526238  HIT %:    92.8686  MISS %:    7.13142   MPKI: 10.5248
ITLB LOAD TRANSLATION ACCESS:    7379143  HIT:    6852905  MISS:     526238  HIT %:    92.8686  MISS %:    7.13142   MPKI: 10.5248
ITLB PREFETCH  REQUESTED:          0  ISSUED:          0  USEFUL:          0  USELESS:          0
ITLB USEFUL LOAD PREFETCHES:          0 PREFETCH ISSUED TO LOWER LEVEL:          0  ACCURACY: -nan
ITLB TIMELY PREFETCHES:          0 LATE PREFETCHES: 0 DROPPED PREFETCHES: 0
ITLB PREFETCHES SAME FILL-ORIGIN LEVEL: 0 DIFFERENT FILL-ORIGIN LEVEL: 0
ITLB AVERAGE MISS LATENCY: 29.4936 cycles
ITLB RQ	ACCESS:    9572521	FORWARD:          0	MERGED:    1981957	TO_CACHE:    7590564

DTLB TOTAL     ACCESS:    7802458  HIT:    5966009  MISS:    1836449  HIT %:    76.4632  MISS %:    23.5368   MPKI: 36.729
DTLB LOAD TRANSLATION ACCESS:    7802458  HIT:    5966009  MISS:    1836449  HIT %:    76.4632  MISS %:    23.5368   MPKI: 36.729
DTLB PREFETCH  REQUESTED:          0  ISSUED:          0  USEFUL:          0  USELESS:          0
DTLB USEFUL LOAD PREFETCHES:          0 PREFETCH ISSUED TO LOWER LEVEL:          0  ACCURACY: -nan
DTLB TIMELY PREFETCHES:          0 LATE PREFETCHES: 0 DROPPED PREFETCHES: 0
DTLB PREFETCHES SAME FILL-ORIGIN LEVEL: 0 DIFFERENT FILL-ORIGIN LEVEL: 0
DTLB AVERAGE MISS LATENCY: 20.703 cycles
DTLB RQ	ACCESS:   10300392	FORWARD:          0	MERGED:    2295761	TO_CACHE:    8004631

STLB TOTAL     ACCESS:    2362687  HIT:    1013021  MISS:    1349666  HIT %:    42.8758  MISS %:    57.1242   MPKI: 26.9933
STLB LOAD TRANSLATION ACCESS:    2362687  HIT:    1013021  MISS:    1349666  HIT %:    42.8758  MISS %:    57.1242   MPKI: 26.9933
STLB PREFETCH  REQUESTED:          0  ISSUED:          0  USEFUL:          0  USELESS:          0
STLB USEFUL LOAD PREFETCHES:          0 PREFETCH ISSUED TO LOWER LEVEL:          0  ACCURACY: -nan
STLB TIMELY PREFETCHES:          0 LATE PREFETCHES: 0 DROPPED PREFETCHES: 0
STLB PREFETCHES SAME FILL-ORIGIN LEVEL: 0 DIFFERENT FILL-ORIGIN LEVEL: 0
STLB AVERAGE MISS LATENCY: 23.8467 cycles
STLB RQ	ACCESS:    2362688	FORWARD:          0	MERGED:          0	TO_CACHE:    2362688

STLB Hit, L1D data hit: 0
STLB Hit, L2C data hit: 0
STLB Hit, LLC data hit: 0
STLB Hit, LLC data miss: 0
STLB STLB hints to L2: 0
L1D TOTAL     ACCESS:   10149084  HIT:    9939823  MISS:     209261  HIT %:    97.9381  MISS %:    2.06187   MPKI: 4.18522
L1D LOAD      ACCESS:    5576700  HIT:    5401264  MISS:     175436  HIT %:    96.8541  MISS %:    3.14587   MPKI: 3.50872
L1D RFO       ACCESS:    4572384  HIT:    4538559  MISS:      33825  HIT %:    99.2602  MISS %:   0.739767   MPKI: 0.6765
L1D PREFETCH  REQUESTED:          0  ISSUED:          0  USEFUL:          0  USELESS:          0
L1D USEFUL LOAD PREFETCHES:          0 PREFETCH ISSUED TO LOWER LEVEL:          0  ACCURACY: -nan
L1D TIMELY PREFETCHES:          0 LATE PREFETCHES: 0 DROPPED PREFETCHES: 0
L1D PREFETCHES SAME FILL-ORIGIN LEVEL: 0 DIFFERENT FILL-ORIGIN LEVEL: 0
L1D AVERAGE MISS LATENCY: 47.744 cycles
L1D RQ	ACCESS:    8380518	FORWARD:          0	MERGED:    2738615	TO_CACHE:    5581831
L1D WQ	ACCESS:    4966447	FORWARD:      60072	MERGED:     247886	TO_CACHE:    4718561

L1D UNIQUE REGIONS ACCESSED: 0
L1D REGIONS CONFLICTS: 0
L1D Cross Page Prefetch Requests: 0
L1D Same Page Prefetch Requests: 0
L1D ROI Sum of L1D PQ occupancy: 0
L1D PREFETCHES PUSHED FROM L2C: 0
L1I TOTAL     ACCESS:    9504357  HIT:    9291879  MISS:     212478  HIT %:    97.7644  MISS %:    2.23559   MPKI: 4.24956
L1I LOAD      ACCESS:    9504357  HIT:    9291879  MISS:     212478  HIT %:    97.7644  MISS %:    2.23559   MPKI: 4.24956
L1I PREFETCH  REQUESTED:          0  ISSUED:          0  USEFUL:          0  USELESS:          0
L1I USEFUL LOAD PREFETCHES:          0 PREFETCH ISSUED TO LOWER LEVEL:          0  ACCURACY: -nan
L1I TIMELY PREFETCHES:          0 LATE PREFETCHES: 0 DROPPED PREFETCHES: 0
L1I PREFETCHES SAME FILL-ORIGIN LEVEL: 0 DIFFERENT FILL-ORIGIN LEVEL: 0
L1I AVERAGE MISS LATENCY: 24.0724 cycles
L1I RQ	ACCESS:   15431363	FORWARD:          0	MERGED:    5858842	TO_CACHE:    9572521

BTB BRANCH_DIRECT_JUMP	ACCESS:          0  HIT:          0  MISS:          0
BTB BRANCH_INDIRECT	ACCESS:          0  HIT:          0  MISS:          0
BTB BRANCH_CONDITIONAL	ACCESS:          0  HIT:          0  MISS:          0
BTB BRANCH_DIRECT_CALL	ACCESS:          0  HIT:          0  MISS:          0
BTB BRANCH_INDIRECT_CALL	ACCESS:          0  HIT:          0  MISS:          0
BTB BRANCH_RETURN	ACCESS:          0  HIT:          0  MISS:          0
BTB BRANCH_OTHER ACCESS:          0  HIT:          0  MISS:          0

L2C TOTAL     ACCESS:    2103259  HIT:    1886090  MISS:     217169  HIT %:    89.6746  MISS %:    10.3254   MPKI: 4.34338
L2C LOAD      ACCESS:     387912  HIT:     332898  MISS:      55014  HIT %:    85.8179  MISS %:    14.1821   MPKI: 1.10028
L2C DATA LOAD MPKI: 0.546
L2C INSTRUCTION LOAD MPKI: 0.55428
L2C RFO       ACCESS:      33823  HIT:      15801  MISS:      18022  HIT %:    46.7167  MISS %:    53.2833   MPKI: 0.36044
L2C PREFETCH  ACCESS:     158523  HIT:      21053  MISS:     137470  HIT %:    13.2807  MISS %:    86.7193   MPKI: 2.7494
L2C DATA PREFETCH MPKI: 2.7494
L2C INSTRUCTION PREFETCH MPKI: 0
L2C WRITEBACK ACCESS:     141124  HIT:     138798  MISS:       2326  HIT %:    98.3518  MISS %:     1.6482   MPKI: 0.04652
L2C LOAD TRANSLATION ACCESS:    1381877  HIT:    1377540  MISS:       4337  HIT %:    99.6862  MISS %:   0.313848   MPKI: 0.08674
L2C PREFETCH  REQUESTED:     163176  ISSUED:     163176  USEFUL:     118340  USELESS:      17588
L2C USEFUL LOAD PREFETCHES:     118340 PREFETCH ISSUED TO LOWER LEVEL:     139964  ACCURACY: 84.5503
L2C TIMELY PREFETCHES:     118340 LATE PREFETCHES: 2494 DROPPED PREFETCHES: 0
L2C PREFETCHES SAME FILL-ORIGIN LEVEL: 139964 DIFFERENT FILL-ORIGIN LEVEL: 0
L2C AVERAGE MISS LATENCY: 161.504 cycles
L2C RQ	ACCESS:    1803616	FORWARD:          0	MERGED:          0	TO_CACHE:    1803615
L2C WQ	ACCESS:     141124	FORWARD:          1	MERGED:          0	TO_CACHE:     141124
L2C PQ	ACCESS:     163176	FORWARD:          0	MERGED:          0	TO_CACHE:     163176

L2C Instructions Evicting Data 23295
L2C Translations Evicting Data 3753
L2C Data Evicting Data 156533
L2C Instructions Evicting Instructions 3895
L2C Translations Evicting Instructions 524
L2C Data Evicting Instructions 22693
L2C Instructions Evicting Translations 524
L2C Translations Evicting Translations 60
L2C Data Evicting Translations 3566
L2C Dense regions hint from L2: 0
PSCL5 TOTAL     ACCESS:    1349666  HIT:    1349666  MISS:          0  HIT %:        100  MISS %:          0   MPKI: 0
PSCL5 LOAD TRANSLATION ACCESS:    1349666  HIT:    1349666  MISS:          0  HIT %:        100  MISS %:          0   MPKI: 0
PSCL5 PREFETCH  REQUESTED:          0  ISSUED:          0  USEFUL:          0  USELESS:          0
PSCL5 USEFUL LOAD PREFETCHES:          0 PREFETCH ISSUED TO LOWER LEVEL:          0  ACCURACY: -nan
PSCL5 TIMELY PREFETCHES:          0 LATE PREFETCHES: 0 DROPPED PREFETCHES: 0
PSCL5 PREFETCHES SAME FILL-ORIGIN LEVEL: 0 DIFFERENT FILL-ORIGIN LEVEL: 0

PSCL4 TOTAL     ACCESS:    1349327  HIT:    1349317  MISS:         10  HIT %:    99.9993  MISS %: 0.00074111   MPKI: 0.0002
PSCL4 LOAD TRANSLATION ACCESS:    1349327  HIT:    1349317  MISS:         10  HIT %:    99.9993  MISS %: 0.00074111   MPKI: 0.0002
PSCL4 PREFETCH  REQUESTED:          0  ISSUED:          0  USEFUL:          0  USELESS:          0
PSCL4 USEFUL LOAD PREFETCHES:          0 PREFETCH ISSUED TO LOWER LEVEL:          0  ACCURACY: -nan
PSCL4 TIMELY PREFETCHES:          0 LATE PREFETCHES: 0 DROPPED PREFETCHES: 0
PSCL4 PREFETCHES SAME FILL-ORIGIN LEVEL: 0 DIFFERENT FILL-ORIGIN LEVEL: 0

PSCL3 TOTAL     ACCESS:    1338911  HIT:    1337561  MISS:       1350  HIT %:    99.8992  MISS %:   0.100828   MPKI: 0.027
PSCL3 LOAD TRANSLATION ACCESS:    1338911  HIT:    1337561  MISS:       1350  HIT %:    99.8992  MISS %:   0.100828   MPKI: 0.027
PSCL3 PREFETCH  REQUESTED:          0  ISSUED:          0  USEFUL:          0  USELESS:          0
PSCL3 USEFUL LOAD PREFETCHES:          0 PREFETCH ISSUED TO LOWER LEVEL:          0  ACCURACY: -nan
PSCL3 TIMELY PREFETCHES:          0 LATE PREFETCHES: 0 DROPPED PREFETCHES: 0
PSCL3 PREFETCHES SAME FILL-ORIGIN LEVEL: 0 DIFFERENT FILL-ORIGIN LEVEL: 0

PSCL2 TOTAL     ACCESS:    1349666  HIT:    1318785  MISS:      30881  HIT %:     97.712  MISS %:    2.28805   MPKI: 0.61762
PSCL2 LOAD TRANSLATION ACCESS:    1349666  HIT:    1318785  MISS:      30881  HIT %:     97.712  MISS %:    2.28805   MPKI: 0.61762
PSCL2 PREFETCH  REQUESTED:          0  ISSUED:          0  USEFUL:          0  USELESS:          0
PSCL2 USEFUL LOAD PREFETCHES:          0 PREFETCH ISSUED TO LOWER LEVEL:          0  ACCURACY: -nan
PSCL2 TIMELY PREFETCHES:          0 LATE PREFETCHES: 0 DROPPED PREFETCHES: 0
PSCL2 PREFETCHES SAME FILL-ORIGIN LEVEL: 0 DIFFERENT FILL-ORIGIN LEVEL: 0

LLC TOTAL     ACCESS:     342673  HIT:     186507  MISS:     156166  HIT %:    54.4271  MISS %:    45.5729   MPKI: 3.12332
LLC LOAD      ACCESS:      52538  HIT:      33031  MISS:      19507  HIT %:    62.8707  MISS %:    37.1293   MPKI: 0.39014
LLC RFO       ACCESS:      18004  HIT:       2727  MISS:      15277  HIT %:    15.1466  MISS %:    84.8534   MPKI: 0.30554
LLC PREFETCH  ACCESS:     139964  HIT:      23043  MISS:     116921  HIT %:    16.4635  MISS %:    83.5365   MPKI: 2.33842
LLC WRITEBACK ACCESS:     127830  HIT:     124774  MISS:       3056  HIT %:    97.6093  MISS %:    2.39068   MPKI: 0.06112
LLC LOAD TRANSLATION ACCESS:       4337  HIT:       2932  MISS:       1405  HIT %:    67.6043  MISS %:    32.3957   MPKI: 0.0281
LLC PREFETCH  REQUESTED:          0  ISSUED:          0  USEFUL:       7581  USELESS:     106646
LLC USEFUL LOAD PREFETCHES:       7581 PREFETCH ISSUED TO LOWER LEVEL:     116921  ACCURACY: 6.48387
LLC TIMELY PREFETCHES:       7581 LATE PREFETCHES: 0 DROPPED PREFETCHES: 0
LLC PREFETCHES SAME FILL-ORIGIN LEVEL: 0 DIFFERENT FILL-ORIGIN LEVEL: 0
LLC AVERAGE MISS LATENCY: 184.057 cycles
LLC RQ	ACCESS:      74879	FORWARD:          0	MERGED:          0	TO_CACHE:      74879
LLC WQ	ACCESS:     127830	FORWARD:          0	MERGED:          0	TO_CACHE:     127830
LLC PQ	ACCESS:     139964	FORWARD:          0	MERGED:          0	TO_CACHE:     139964

LLC Dense regions hint to LLC: 0

RAW hits: 416695
Loads Generated: 8797213
Loads sent to L1D: 8380518
Stores Generated: 4966445
Stores sent to L1D: 4966447
Major fault: 0 Minor fault: 7154
Allocated PAGES: 7154
[Bingo] PHT Access: 16006
[Bingo] PHT Hit PC+Addr: 2797
[Bingo] PHT Hit PC+Offs: 9778
[Bingo] PHT Miss: 3431
[Bingo] Prefetch PC+Addr: 0
[Bingo] Prefetch PC+Offs: 0
[Bingo] Useful PC+Addr: 0
[Bingo] Useful PC+Offs: 0
[Bingo] Useless PC+Addr: 0
[Bingo] Useless PC+Offs: 0
[Bingo] L1 Prefetch per Region: 0
[Bingo] L2 Prefetch per Region: 14.0002
[Bingo] L3 Prefetch per Region: 0
[Bingo] No Prefetch per Region: 17.9998
[Bingo] Number of Voters Mean: 13.1945
[Bingo] Number of Voters SD: 8.04952
PHT read accesses: 179753
PHT write accesses: 11620
AT read accesses: 162390
AT write accesses: 168775
FT read accesses: 41009
FT write accesses: 16006
PS read accesses: 31529
PS write accesses: 12575
PHT tag read accesses: 553214
PHT tag write accesses: 14417
AT tag read accesses: 6797417
AT tag write accesses: 173989
FT tag read accesses: 4508152
FT tag write accesses: 43162
PS tag read accesses: 3246867
PS tag write accesses: 44079

DRAM Statistics
 CHANNEL 0
 RQ ROW_BUFFER_HIT:      76488  ROW_BUFFER_MISS:      76620
 DBUS_CONGESTED:         93
 WQ ROW_BUFFER_HIT:      13129  ROW_BUFFER_MISS:     104270  FULL:          0

 AVG_CONGESTED_CYCLE: 4
 All warmup complete: 2
Channel 0 Bank busy for read cycles: 0
Channel 0 Bank busy for write cycles: 0
Channel 0
Rank 0
0banks busy for read cycles: 59850000
0banks busy for write cycles: 9870
1banks busy for read cycles: 1725303
1banks busy for write cycles: 930461
2banks busy for read cycles: 512178
2banks busy for write cycles: 399305
3banks busy for read cycles: 185988
3banks busy for write cycles: 312281
4banks busy for read cycles: 111688
4banks busy for write cycles: 292777
5banks busy for read cycles: 110856
5banks busy for write cycles: 292741
6banks busy for read cycles: 108781
6banks busy for write cycles: 320067
7banks busy for read cycles: 258521
7banks busy for write cycles: 433463
8banks busy for read cycles: 1073381
8banks busy for write cycles: 1151764

CPU 0 Branch Prediction Accuracy: 98.6531% MPKI: 2.24234 Average ROB Occupancy at Mispredict: 34.2384
Branch types
NOT_BRANCH: 0 0%
BRANCH_DIRECT_JUMP: 0 0%
BRANCH_INDIRECT: 0 0%
BRANCH_CONDITIONAL: 0 0%
BRANCH_DIRECT_CALL: 0 0%
BRANCH_INDIRECT_CALL: 0 0%
BRANCH_RETURN: 0 0%
BRANCH_OTHER: 0 0%

DRAM PAGES: 1048576
Allocated PAGES: 7154
