
*** ChampSim Multicore Out-of-Order Simulator ***

Warmup Instructions: 50000000
Simulation Instructions: 50000000
Number of CPUs: 1
LLC sets: 2048
LLC ways: 16
Off-chip DRAM Size: 4096 MB Channels: 1 Width: 64-bit Data Rate: 6400 MT/s
CPU 0 runs ../cloudsuite_traces//nutch_phase4_core3.trace.gz
.gz
NUM_OF_IPS_IN_CRITICAL_IP_TRAINING: 64
NUM_OF_CRITICAL_IP_TRAINING_TABLE_WAYS: 2
NUM_OF_CRITICAL_IP_TRAINING_TABLE_SETS: 32
WOBBLY_CRITICAL_IP_CACHE_SETS: 32
WOBBLY_CRITICAL_IP_CACHE_WAYS: 4
BTB has LRU replacement policy
ITLB has LRU replacement policy
DTLB has LRU replacement policy
STLB has LRU replacement policy
L1I has LRU replacement policy
L1D has LRU replacement policy
Bingo PHT WAYS: 16 and PHT_SIZE: 16384
Initialize SRRIP state for L2C
Initialize DRRIP state for LLC
UNIQUE_ASID[0] = €
UNIQUE_ASID[1] = 
Heartbeat CPU 0 instructions: 10000001 cycles: 2838036 heartbeat IPC: 3.52356 cumulative IPC: 3.52356 (Simulation time: 0 hr 3 min 13 sec) 
Heartbeat CPU 0 instructions: 20000001 cycles: 5760004 heartbeat IPC: 3.42235 cumulative IPC: 3.47222 (Simulation time: 0 hr 6 min 29 sec) 
Heartbeat CPU 0 instructions: 30000003 cycles: 8625481 heartbeat IPC: 3.48982 cumulative IPC: 3.47807 (Simulation time: 0 hr 10 min 7 sec) 
Heartbeat CPU 0 instructions: 40000002 cycles: 11561477 heartbeat IPC: 3.406 cumulative IPC: 3.45977 (Simulation time: 0 hr 13 min 26 sec) 
Heartbeat CPU 0 instructions: 50000002 cycles: 14422690 heartbeat IPC: 3.49502 cumulative IPC: 3.46676 (Simulation time: 0 hr 16 min 0 sec) 

Warmup complete CPU 0 instructions: 50000002 cycles: 14422690 (Simulation time: 0 hr 16 min 0 sec) 

% increase in all ip prefetch 352.172
% increase in all ip prefetch 4.9251
% increase in all ip prefetch -0.620387
Heartbeat CPU 0 instructions: 60000002 cycles: 27844941 heartbeat IPC: 0.745032 cumulative IPC: 0.745032 (Simulation time: 0 hr 19 min 48 sec) 
Heartbeat CPU 0 instructions: 70000000 cycles: 40824363 heartbeat IPC: 0.77045 cumulative IPC: 0.757528 (Simulation time: 0 hr 23 min 29 sec) 
Heartbeat CPU 0 instructions: 80000000 cycles: 58262405 heartbeat IPC: 0.573459 cumulative IPC: 0.684311 (Simulation time: 0 hr 27 min 26 sec) 
Heartbeat CPU 0 instructions: 90000000 cycles: 72722980 heartbeat IPC: 0.691535 cumulative IPC: 0.686103 (Simulation time: 0 hr 30 min 56 sec) 
Heartbeat CPU 0 instructions: 100000000 cycles: 86084772 heartbeat IPC: 0.748403 cumulative IPC: 0.697719 (Simulation time: 0 hr 33 min 59 sec) 
Finished CPU 0 instructions: 50000001 cycles: 71662083 cumulative IPC: 0.697719 (Simulation time: 0 hr 33 min 59 sec) 

ChampSim completed all CPUs

Region of Interest Statistics

CPU 0 cumulative IPC: 0.697719 instructions: 50000001 cycles: 71662083

CPU 0 Average Load ROB stall cycles: 6.2425e+06
CPU 0 Fraction of times ROB stalled by Loads: 12.206
CPU 0 Percentage of Load stall cycles in Total stall cycles: 8.30211e+07
 Total stall cycles: 37365814
 Total load stall cycles: 31021497766126
CPU 0 NUM of IPS identified critical: 0
CPU 0 Num of Load IPs stalling ROB: 5778
Threshold modification factor: -2
Max PIST entries: 64
Min PIST entries: 0
Avg PIST entries: 31.72
Critical IP stalls, total frequency: 0
rob stalling non-critical load ip: 16783496 freq: 73
rob stalling non-critical load ip: 16783504 freq: 4
rob stalling non-critical load ip: 16783512 freq: 9
rob stalling non-critical load ip: 16783524 freq: 12
rob stalling non-critical load ip: 16783532 freq: 111
rob stalling non-critical load ip: 16783536 freq: 1
rob stalling non-critical load ip: 16783544 freq: 7
rob stalling non-critical load ip: 16783552 freq: 192
rob stalling non-critical load ip: 16783556 freq: 7
rob stalling non-critical load ip: 16783564 freq: 118
rob stalling non-critical load ip: 16783572 freq: 82
rob stalling non-critical load ip: 16783576 freq: 2
rob stalling non-critical load ip: 16783752 freq: 356
rob stalling non-critical load ip: 16783760 freq: 15
rob stalling non-critical load ip: 16783768 freq: 35
rob stalling non-critical load ip: 16783780 freq: 121
rob stalling non-critical load ip: 16783784 freq: 2
rob stalling non-critical load ip: 16783788 freq: 392
rob stalling non-critical load ip: 16783792 freq: 40
rob stalling non-critical load ip: 16783800 freq: 38
rob stalling non-critical load ip: 16783808 freq: 403
rob stalling non-critical load ip: 16783820 freq: 352
rob stalling non-critical load ip: 16783824 freq: 1
rob stalling non-critical load ip: 16783828 freq: 92
rob stalling non-critical load ip: 16783832 freq: 3
rob stalling non-critical load ip: 16784128 freq: 163
rob stalling non-critical load ip: 16784144 freq: 2
rob stalling non-critical load ip: 16784148 freq: 1
rob stalling non-critical load ip: 16784152 freq: 320
rob stalling non-critical load ip: 16784160 freq: 8
rob stalling non-critical load ip: 16784168 freq: 6
rob stalling non-critical load ip: 16800136 freq: 4
rob stalling non-critical load ip: 16807120 freq: 419
rob stalling non-critical load ip: 16807124 freq: 14
rob stalling non-critical load ip: 16807136 freq: 6
rob stalling non-critical load ip: 16807188 freq: 14
rob stalling non-critical load ip: 16807200 freq: 15
rob stalling non-critical load ip: 16807208 freq: 3
rob stalling non-critical load ip: 16807220 freq: 15
rob stalling non-critical load ip: 16807228 freq: 25
rob stalling non-critical load ip: 16807244 freq: 3
rob stalling non-critical load ip: 16807252 freq: 2
rob stalling non-critical load ip: 16807256 freq: 3
rob stalling non-critical load ip: 16807260 freq: 10
rob stalling non-critical load ip: 16807264 freq: 3
rob stalling non-critical load ip: 16807268 freq: 40
rob stalling non-critical load ip: 16807344 freq: 47
rob stalling non-critical load ip: 16807392 freq: 545
rob stalling non-critical load ip: 16807956 freq: 2
rob stalling non-critical load ip: 16808020 freq: 2
rob stalling non-critical load ip: 16812716 freq: 113
rob stalling non-critical load ip: 16812908 freq: 23
rob stalling non-critical load ip: 16813176 freq: 87
rob stalling non-critical load ip: 16813308 freq: 192
rob stalling non-critical load ip: 16813444 freq: 3
rob stalling non-critical load ip: 16813448 freq: 3
rob stalling non-critical load ip: 16813580 freq: 2
rob stalling non-critical load ip: 16813584 freq: 5
rob stalling non-critical load ip: 16815252 freq: 4
rob stalling non-critical load ip: 16815308 freq: 1
rob stalling non-critical load ip: 16817700 freq: 1
rob stalling non-critical load ip: 16817900 freq: 4
rob stalling non-critical load ip: 16819192 freq: 2
rob stalling non-critical load ip: 16820772 freq: 2
rob stalling non-critical load ip: 16820836 freq: 2
rob stalling non-critical load ip: 16820956 freq: 3
rob stalling non-critical load ip: 16821296 freq: 5
rob stalling non-critical load ip: 16821308 freq: 12
rob stalling non-critical load ip: 16821340 freq: 4
rob stalling non-critical load ip: 16821600 freq: 2
rob stalling non-critical load ip: 16822020 freq: 3
rob stalling non-critical load ip: 16822276 freq: 4
rob stalling non-critical load ip: 16822500 freq: 1
rob stalling non-critical load ip: 16822788 freq: 2
rob stalling non-critical load ip: 16822848 freq: 2
rob stalling non-critical load ip: 16822888 freq: 2
rob stalling non-critical load ip: 16822900 freq: 1
rob stalling non-critical load ip: 16823180 freq: 8
rob stalling non-critical load ip: 16823192 freq: 8
rob stalling non-critical load ip: 16823344 freq: 1
rob stalling non-critical load ip: 16845056 freq: 1
rob stalling non-critical load ip: 16845328 freq: 2
rob stalling non-critical load ip: 16851080 freq: 9
rob stalling non-critical load ip: 16851340 freq: 6
rob stalling non-critical load ip: 16851388 freq: 28
rob stalling non-critical load ip: 16851436 freq: 6
rob stalling non-critical load ip: 16851552 freq: 150
rob stalling non-critical load ip: 16851576 freq: 5
rob stalling non-critical load ip: 16851588 freq: 122
rob stalling non-critical load ip: 16851600 freq: 6
rob stalling non-critical load ip: 16851612 freq: 4
rob stalling non-critical load ip: 16851624 freq: 1
rob stalling non-critical load ip: 16851632 freq: 9
rob stalling non-critical load ip: 16851652 freq: 141
rob stalling non-critical load ip: 16851728 freq: 8
rob stalling non-critical load ip: 16865740 freq: 1
rob stalling non-critical load ip: 16891612 freq: 15
rob stalling non-critical load ip: 16891628 freq: 8
rob stalling non-critical load ip: 16891648 freq: 1
rob stalling non-critical load ip: 16891944 freq: 9
rob stalling non-critical load ip: 16891964 freq: 2
rob stalling non-critical load ip: 16892028 freq: 3
rob stalling non-critical load ip: 16892172 freq: 2
rob stalling non-critical load ip: 16892324 freq: 8
rob stalling non-critical load ip: 16898724 freq: 3
rob stalling non-critical load ip: 16898936 freq: 6
rob stalling non-critical load ip: 16899252 freq: 4
rob stalling non-critical load ip: 16900600 freq: 10
rob stalling non-critical load ip: 16908808 freq: 6
rob stalling non-critical load ip: 16908944 freq: 8
rob stalling non-critical load ip: 16909136 freq: 19
rob stalling non-critical load ip: 16917116 freq: 206
rob stalling non-critical load ip: 16917124 freq: 457
rob stalling non-critical load ip: 16917760 freq: 8
rob stalling non-critical load ip: 16917772 freq: 85
rob stalling non-critical load ip: 16924716 freq: 19
rob stalling non-critical load ip: 16924760 freq: 6
rob stalling non-critical load ip: 16946620 freq: 9
rob stalling non-critical load ip: 16958700 freq: 1
rob stalling non-critical load ip: 16959880 freq: 1
rob stalling non-critical load ip: 16960204 freq: 1
rob stalling non-critical load ip: 16965316 freq: 1
rob stalling non-critical load ip: 16965380 freq: 6
rob stalling non-critical load ip: 16966272 freq: 1
rob stalling non-critical load ip: 16966772 freq: 7
rob stalling non-critical load ip: 16966800 freq: 4
rob stalling non-critical load ip: 16967368 freq: 1
rob stalling non-critical load ip: 16990072 freq: 5
rob stalling non-critical load ip: 16990228 freq: 2
rob stalling non-critical load ip: 17002776 freq: 2
rob stalling non-critical load ip: 17002964 freq: 3
rob stalling non-critical load ip: 17002992 freq: 1
rob stalling non-critical load ip: 17003036 freq: 5
rob stalling non-critical load ip: 17003072 freq: 16
rob stalling non-critical load ip: 17003116 freq: 3
rob stalling non-critical load ip: 17003184 freq: 1
rob stalling non-critical load ip: 17018104 freq: 1
rob stalling non-critical load ip: 17022708 freq: 25
rob stalling non-critical load ip: 17022764 freq: 4
rob stalling non-critical load ip: 17077688 freq: 5
rob stalling non-critical load ip: 17078080 freq: 1
rob stalling non-critical load ip: 17078100 freq: 6
rob stalling non-critical load ip: 17078104 freq: 3
rob stalling non-critical load ip: 17084128 freq: 14
rob stalling non-critical load ip: 17084192 freq: 4
rob stalling non-critical load ip: 17084300 freq: 9
rob stalling non-critical load ip: 17084332 freq: 163
rob stalling non-critical load ip: 17084340 freq: 5
rob stalling non-critical load ip: 17084388 freq: 176
rob stalling non-critical load ip: 17084544 freq: 586
rob stalling non-critical load ip: 17084652 freq: 688
rob stalling non-critical load ip: 17084656 freq: 586
rob stalling non-critical load ip: 17084692 freq: 2
rob stalling non-critical load ip: 17084752 freq: 222
rob stalling non-critical load ip: 17084772 freq: 24
rob stalling non-critical load ip: 17084780 freq: 141
rob stalling non-critical load ip: 17087264 freq: 1
rob stalling non-critical load ip: 17088396 freq: 3
rob stalling non-critical load ip: 17088412 freq: 1
rob stalling non-critical load ip: 17088796 freq: 3
rob stalling non-critical load ip: 17088808 freq: 9
rob stalling non-critical load ip: 17089924 freq: 18
rob stalling non-critical load ip: 17089932 freq: 5
rob stalling non-critical load ip: 17089968 freq: 2
rob stalling non-critical load ip: 17089988 freq: 313
rob stalling non-critical load ip: 17090008 freq: 15
rob stalling non-critical load ip: 17090036 freq: 9
rob stalling non-critical load ip: 17090060 freq: 14
rob stalling non-critical load ip: 17090092 freq: 2
rob stalling non-critical load ip: 17090160 freq: 5
rob stalling non-critical load ip: 17090192 freq: 12
rob stalling non-critical load ip: 17090196 freq: 327
rob stalling non-critical load ip: 17100588 freq: 3
rob stalling non-critical load ip: 17100620 freq: 105
rob stalling non-critical load ip: 17109104 freq: 6
rob stalling non-critical load ip: 17109116 freq: 7
rob stalling non-critical load ip: 17109144 freq: 7
rob stalling non-critical load ip: 17109496 freq: 5
rob stalling non-critical load ip: 17109516 freq: 3
rob stalling non-critical load ip: 17109616 freq: 10
rob stalling non-critical load ip: 17109620 freq: 3
rob stalling non-critical load ip: 17147696 freq: 6
rob stalling non-critical load ip: 17147700 freq: 1
rob stalling non-critical load ip: 17148832 freq: 211
rob stalling non-critical load ip: 17148868 freq: 5
rob stalling non-critical load ip: 17148904 freq: 10
rob stalling non-critical load ip: 17148972 freq: 215
rob stalling non-critical load ip: 17149012 freq: 5
rob stalling non-critical load ip: 17149172 freq: 4
rob stalling non-critical load ip: 17149340 freq: 11
rob stalling non-critical load ip: 17149344 freq: 4
rob stalling non-critical load ip: 17149400 freq: 17
rob stalling non-critical load ip: 17149504 freq: 59
rob stalling non-critical load ip: 17149600 freq: 109
rob stalling non-critical load ip: 17149604 freq: 7
rob stalling non-critical load ip: 17158540 freq: 15
rob stalling non-critical load ip: 17182576 freq: 4
rob stalling non-critical load ip: 17182648 freq: 3
rob stalling non-critical load ip: 17182832 freq: 8
rob stalling non-critical load ip: 17182912 freq: 5
rob stalling non-critical load ip: 17183060 freq: 18
rob stalling non-critical load ip: 17183076 freq: 16
rob stalling non-critical load ip: 17183108 freq: 18
rob stalling non-critical load ip: 17183140 freq: 12
rob stalling non-critical load ip: 17183188 freq: 4
rob stalling non-critical load ip: 17183232 freq: 2
rob stalling non-critical load ip: 17183248 freq: 18
rob stalling non-critical load ip: 17183380 freq: 9
rob stalling non-critical load ip: 17183436 freq: 8
rob stalling non-critical load ip: 17183560 freq: 18
rob stalling non-critical load ip: 17183812 freq: 20
rob stalling non-critical load ip: 17183836 freq: 1
rob stalling non-critical load ip: 17183960 freq: 32
rob stalling non-critical load ip: 17184072 freq: 16
rob stalling non-critical load ip: 17184084 freq: 12
rob stalling non-critical load ip: 17184100 freq: 4
rob stalling non-critical load ip: 17184328 freq: 1
rob stalling non-critical load ip: 17184712 freq: 3
rob stalling non-critical load ip: 17184740 freq: 3
rob stalling non-critical load ip: 17185196 freq: 1
rob stalling non-critical load ip: 17185560 freq: 1
rob stalling non-critical load ip: 17185704 freq: 3
rob stalling non-critical load ip: 17185856 freq: 1
rob stalling non-critical load ip: 17185908 freq: 2
rob stalling non-critical load ip: 17186048 freq: 5
rob stalling non-critical load ip: 17186064 freq: 1
rob stalling non-critical load ip: 17186072 freq: 3
rob stalling non-critical load ip: 17186436 freq: 1
rob stalling non-critical load ip: 17186588 freq: 6
rob stalling non-critical load ip: 17186596 freq: 8
rob stalling non-critical load ip: 17186656 freq: 4
rob stalling non-critical load ip: 17187276 freq: 2
rob stalling non-critical load ip: 17187948 freq: 2
rob stalling non-critical load ip: 17188224 freq: 6
rob stalling non-critical load ip: 17188264 freq: 4
rob stalling non-critical load ip: 17188292 freq: 21
rob stalling non-critical load ip: 17188316 freq: 2
rob stalling non-critical load ip: 17188436 freq: 16
rob stalling non-critical load ip: 17188440 freq: 372
rob stalling non-critical load ip: 17188488 freq: 4
rob stalling non-critical load ip: 17188520 freq: 4
rob stalling non-critical load ip: 17188532 freq: 15
rob stalling non-critical load ip: 17188556 freq: 14
rob stalling non-critical load ip: 17188568 freq: 22
rob stalling non-critical load ip: 17188584 freq: 29
rob stalling non-critical load ip: 17188596 freq: 1
rob stalling non-critical load ip: 17188600 freq: 12
rob stalling non-critical load ip: 17188616 freq: 22
rob stalling non-critical load ip: 17188636 freq: 5
rob stalling non-critical load ip: 17188652 freq: 12
rob stalling non-critical load ip: 17188700 freq: 2
rob stalling non-critical load ip: 17188784 freq: 421
rob stalling non-critical load ip: 17188792 freq: 14
rob stalling non-critical load ip: 17189448 freq: 2
rob stalling non-critical load ip: 17189520 freq: 1
rob stalling non-critical load ip: 17225220 freq: 1
rob stalling non-critical load ip: 17225500 freq: 1
rob stalling non-critical load ip: 17226948 freq: 372
rob stalling non-critical load ip: 17245100 freq: 41
rob stalling non-critical load ip: 17245188 freq: 2
rob stalling non-critical load ip: 17247588 freq: 2
rob stalling non-critical load ip: 17247840 freq: 5
rob stalling non-critical load ip: 17248652 freq: 5
rob stalling non-critical load ip: 17253688 freq: 14
rob stalling non-critical load ip: 17254328 freq: 7
rob stalling non-critical load ip: 17267924 freq: 8
rob stalling non-critical load ip: 17503864 freq: 4
rob stalling non-critical load ip: 17503884 freq: 1
rob stalling non-critical load ip: 17504256 freq: 6
rob stalling non-critical load ip: 17504760 freq: 13
rob stalling non-critical load ip: 17504836 freq: 1
rob stalling non-critical load ip: 17504916 freq: 4
rob stalling non-critical load ip: 17506076 freq: 11
rob stalling non-critical load ip: 17506380 freq: 5
rob stalling non-critical load ip: 17506584 freq: 6
rob stalling non-critical load ip: 17506760 freq: 3
rob stalling non-critical load ip: 17506824 freq: 3
rob stalling non-critical load ip: 17507160 freq: 3
rob stalling non-critical load ip: 17507196 freq: 3
rob stalling non-critical load ip: 17507396 freq: 3
rob stalling non-critical load ip: 17507428 freq: 6
rob stalling non-critical load ip: 17507476 freq: 8
rob stalling non-critical load ip: 17511888 freq: 17
rob stalling non-critical load ip: 17511980 freq: 16
rob stalling non-critical load ip: 17546088 freq: 19
rob stalling non-critical load ip: 17546104 freq: 2
rob stalling non-critical load ip: 17546120 freq: 2
rob stalling non-critical load ip: 17546908 freq: 16
rob stalling non-critical load ip: 17546920 freq: 1
rob stalling non-critical load ip: 17546944 freq: 10
rob stalling non-critical load ip: 17547352 freq: 20
rob stalling non-critical load ip: 17547760 freq: 4
rob stalling non-critical load ip: 17548040 freq: 22
rob stalling non-critical load ip: 17560976 freq: 1
rob stalling non-critical load ip: 17612436 freq: 6
rob stalling non-critical load ip: 17613884 freq: 1
rob stalling non-critical load ip: 17613904 freq: 2
rob stalling non-critical load ip: 17613912 freq: 2
rob stalling non-critical load ip: 17614016 freq: 2
rob stalling non-critical load ip: 17614160 freq: 3
rob stalling non-critical load ip: 17614240 freq: 3
rob stalling non-critical load ip: 17614256 freq: 2
rob stalling non-critical load ip: 17614300 freq: 4
rob stalling non-critical load ip: 17614460 freq: 2
rob stalling non-critical load ip: 17616020 freq: 3
rob stalling non-critical load ip: 17616996 freq: 4
rob stalling non-critical load ip: 17617684 freq: 2
rob stalling non-critical load ip: 17617800 freq: 1
rob stalling non-critical load ip: 17617840 freq: 2
rob stalling non-critical load ip: 17617868 freq: 2
rob stalling non-critical load ip: 17617900 freq: 1
rob stalling non-critical load ip: 17618556 freq: 1
rob stalling non-critical load ip: 17641524 freq: 6
rob stalling non-critical load ip: 17643656 freq: 1
rob stalling non-critical load ip: 17643980 freq: 2
rob stalling non-critical load ip: 17644276 freq: 676
rob stalling non-critical load ip: 17682804 freq: 2
rob stalling non-critical load ip: 17682900 freq: 1
rob stalling non-critical load ip: 17683040 freq: 6
rob stalling non-critical load ip: 17683248 freq: 3
rob stalling non-critical load ip: 17683256 freq: 3
rob stalling non-critical load ip: 17683312 freq: 1
rob stalling non-critical load ip: 17683380 freq: 5
rob stalling non-critical load ip: 17683456 freq: 4
rob stalling non-critical load ip: 17683576 freq: 4
rob stalling non-critical load ip: 17683888 freq: 9
rob stalling non-critical load ip: 17686100 freq: 4
rob stalling non-critical load ip: 17686220 freq: 1
rob stalling non-critical load ip: 17689724 freq: 1
rob stalling non-critical load ip: 17782316 freq: 11
rob stalling non-critical load ip: 17782320 freq: 3
rob stalling non-critical load ip: 17782380 freq: 150
rob stalling non-critical load ip: 17782384 freq: 2
rob stalling non-critical load ip: 17782400 freq: 21
rob stalling non-critical load ip: 17782428 freq: 4
rob stalling non-critical load ip: 17782476 freq: 14
rob stalling non-critical load ip: 17782536 freq: 22
rob stalling non-critical load ip: 17782548 freq: 5
rob stalling non-critical load ip: 17782576 freq: 1
rob stalling non-critical load ip: 17782600 freq: 8
rob stalling non-critical load ip: 17783272 freq: 7
rob stalling non-critical load ip: 17906156 freq: 7
rob stalling non-critical load ip: 17906200 freq: 1
rob stalling non-critical load ip: 17906336 freq: 28
rob stalling non-critical load ip: 17906400 freq: 26
rob stalling non-critical load ip: 17906620 freq: 8
rob stalling non-critical load ip: 17906644 freq: 1
rob stalling non-critical load ip: 17906844 freq: 397
rob stalling non-critical load ip: 17906888 freq: 10
rob stalling non-critical load ip: 17906912 freq: 4
rob stalling non-critical load ip: 17906968 freq: 2
rob stalling non-critical load ip: 17906980 freq: 7
rob stalling non-critical load ip: 17907064 freq: 471
rob stalling non-critical load ip: 17908272 freq: 124
rob stalling non-critical load ip: 17908312 freq: 5
rob stalling non-critical load ip: 17908368 freq: 3
rob stalling non-critical load ip: 18022900 freq: 7
rob stalling non-critical load ip: 18022940 freq: 9
rob stalling non-critical load ip: 18022944 freq: 1
rob stalling non-critical load ip: 18025240 freq: 10
rob stalling non-critical load ip: 18025248 freq: 5
rob stalling non-critical load ip: 18025276 freq: 4
rob stalling non-critical load ip: 18025296 freq: 25
rob stalling non-critical load ip: 18025304 freq: 2
rob stalling non-critical load ip: 18025340 freq: 21
rob stalling non-critical load ip: 18025596 freq: 5
rob stalling non-critical load ip: 18026668 freq: 13
rob stalling non-critical load ip: 18026908 freq: 5
rob stalling non-critical load ip: 18026960 freq: 2
rob stalling non-critical load ip: 18027120 freq: 13
rob stalling non-critical load ip: 18027128 freq: 5
rob stalling non-critical load ip: 18027156 freq: 289
rob stalling non-critical load ip: 18027212 freq: 4
rob stalling non-critical load ip: 18027236 freq: 26
rob stalling non-critical load ip: 18027552 freq: 2
rob stalling non-critical load ip: 18027924 freq: 88
rob stalling non-critical load ip: 18027932 freq: 13
rob stalling non-critical load ip: 18049648 freq: 13
rob stalling non-critical load ip: 18049664 freq: 41
rob stalling non-critical load ip: 18049704 freq: 7
rob stalling non-critical load ip: 18049728 freq: 5
rob stalling non-critical load ip: 18049736 freq: 14
rob stalling non-critical load ip: 18049744 freq: 3
rob stalling non-critical load ip: 18049920 freq: 365
rob stalling non-critical load ip: 18049936 freq: 13
rob stalling non-critical load ip: 18049996 freq: 31
rob stalling non-critical load ip: 18050004 freq: 176
rob stalling non-critical load ip: 18073724 freq: 1
rob stalling non-critical load ip: 18073772 freq: 2
rob stalling non-critical load ip: 18073932 freq: 3
rob stalling non-critical load ip: 18074896 freq: 15
rob stalling non-critical load ip: 18086804 freq: 6
rob stalling non-critical load ip: 18086864 freq: 1
rob stalling non-critical load ip: 18086944 freq: 3
rob stalling non-critical load ip: 18088656 freq: 5
rob stalling non-critical load ip: 18088676 freq: 7
rob stalling non-critical load ip: 18088804 freq: 3
rob stalling non-critical load ip: 18093652 freq: 5
rob stalling non-critical load ip: 18093688 freq: 1
rob stalling non-critical load ip: 18093732 freq: 1
rob stalling non-critical load ip: 18093804 freq: 1
rob stalling non-critical load ip: 18093808 freq: 2
rob stalling non-critical load ip: 18094548 freq: 7
rob stalling non-critical load ip: 18094636 freq: 1
rob stalling non-critical load ip: 18094816 freq: 1
rob stalling non-critical load ip: 18095040 freq: 1
rob stalling non-critical load ip: 18095240 freq: 4
rob stalling non-critical load ip: 18095408 freq: 7
rob stalling non-critical load ip: 18095488 freq: 2
rob stalling non-critical load ip: 18095580 freq: 2
rob stalling non-critical load ip: 18095592 freq: 13
rob stalling non-critical load ip: 18095596 freq: 12
rob stalling non-critical load ip: 18095724 freq: 1
rob stalling non-critical load ip: 18095816 freq: 8
rob stalling non-critical load ip: 18095824 freq: 7
rob stalling non-critical load ip: 18095836 freq: 2
rob stalling non-critical load ip: 18095840 freq: 6
rob stalling non-critical load ip: 18095928 freq: 6
rob stalling non-critical load ip: 18095948 freq: 1
rob stalling non-critical load ip: 18096056 freq: 3
rob stalling non-critical load ip: 18096840 freq: 1
rob stalling non-critical load ip: 18096872 freq: 6
rob stalling non-critical load ip: 18097092 freq: 2
rob stalling non-critical load ip: 18097120 freq: 4
rob stalling non-critical load ip: 18107588 freq: 2
rob stalling non-critical load ip: 18128468 freq: 277
rob stalling non-critical load ip: 18128484 freq: 6
rob stalling non-critical load ip: 18128540 freq: 153
rob stalling non-critical load ip: 18128592 freq: 146
rob stalling non-critical load ip: 18128640 freq: 7
rob stalling non-critical load ip: 18128744 freq: 16
rob stalling non-critical load ip: 18128808 freq: 5
rob stalling non-critical load ip: 18128828 freq: 6
rob stalling non-critical load ip: 18132140 freq: 1
rob stalling non-critical load ip: 18132720 freq: 445
rob stalling non-critical load ip: 18132760 freq: 350
rob stalling non-critical load ip: 18132804 freq: 18
rob stalling non-critical load ip: 18132832 freq: 47
rob stalling non-critical load ip: 18132844 freq: 9
rob stalling non-critical load ip: 18132856 freq: 4
rob stalling non-critical load ip: 18132872 freq: 8
rob stalling non-critical load ip: 18132896 freq: 217
rob stalling non-critical load ip: 18132908 freq: 49
rob stalling non-critical load ip: 18132916 freq: 4
rob stalling non-critical load ip: 18132980 freq: 17
rob stalling non-critical load ip: 18132996 freq: 45
rob stalling non-critical load ip: 18133012 freq: 6
rob stalling non-critical load ip: 18133028 freq: 2
rob stalling non-critical load ip: 18133080 freq: 791
rob stalling non-critical load ip: 18133112 freq: 63
rob stalling non-critical load ip: 18133368 freq: 63
rob stalling non-critical load ip: 18133388 freq: 15
rob stalling non-critical load ip: 18133392 freq: 10
rob stalling non-critical load ip: 18133404 freq: 7
rob stalling non-critical load ip: 18133408 freq: 41
rob stalling non-critical load ip: 18133456 freq: 1
rob stalling non-critical load ip: 18133528 freq: 1
rob stalling non-critical load ip: 18133592 freq: 26
rob stalling non-critical load ip: 18133608 freq: 32
rob stalling non-critical load ip: 18133724 freq: 2
rob stalling non-critical load ip: 18133936 freq: 6
rob stalling non-critical load ip: 18133964 freq: 25
rob stalling non-critical load ip: 18134084 freq: 10
rob stalling non-critical load ip: 18134192 freq: 14
rob stalling non-critical load ip: 18134344 freq: 2
rob stalling non-critical load ip: 18134356 freq: 7
rob stalling non-critical load ip: 18134420 freq: 9
rob stalling non-critical load ip: 18134436 freq: 3
rob stalling non-critical load ip: 18134440 freq: 1
rob stalling non-critical load ip: 18150440 freq: 2
rob stalling non-critical load ip: 18220136 freq: 9
rob stalling non-critical load ip: 18220228 freq: 1
rob stalling non-critical load ip: 18220236 freq: 4
rob stalling non-critical load ip: 18302544 freq: 4
rob stalling non-critical load ip: 18302572 freq: 5
rob stalling non-critical load ip: 18303116 freq: 17
rob stalling non-critical load ip: 18303588 freq: 3
rob stalling non-critical load ip: 18303792 freq: 1
rob stalling non-critical load ip: 18309020 freq: 2
rob stalling non-critical load ip: 18309048 freq: 2
rob stalling non-critical load ip: 18309052 freq: 3
rob stalling non-critical load ip: 18309588 freq: 4
rob stalling non-critical load ip: 18309616 freq: 4
rob stalling non-critical load ip: 18386140 freq: 2
rob stalling non-critical load ip: 18387388 freq: 1
rob stalling non-critical load ip: 18457504 freq: 21
rob stalling non-critical load ip: 18457572 freq: 8
rob stalling non-critical load ip: 18457592 freq: 8
rob stalling non-critical load ip: 18466768 freq: 19
rob stalling non-critical load ip: 18466852 freq: 2
rob stalling non-critical load ip: 18467084 freq: 1
rob stalling non-critical load ip: 18471588 freq: 3
rob stalling non-critical load ip: 18471696 freq: 3
rob stalling non-critical load ip: 18471712 freq: 1
rob stalling non-critical load ip: 18471720 freq: 1
rob stalling non-critical load ip: 18471884 freq: 1
rob stalling non-critical load ip: 18482232 freq: 10
rob stalling non-critical load ip: 18482236 freq: 10
rob stalling non-critical load ip: 18482240 freq: 7
rob stalling non-critical load ip: 18482800 freq: 1
rob stalling non-critical load ip: 18483004 freq: 6
rob stalling non-critical load ip: 18483084 freq: 1
rob stalling non-critical load ip: 18488312 freq: 4
rob stalling non-critical load ip: 18488592 freq: 1
rob stalling non-critical load ip: 18489604 freq: 3
rob stalling non-critical load ip: 18489624 freq: 5
rob stalling non-critical load ip: 18490424 freq: 6
rob stalling non-critical load ip: 18490464 freq: 2
rob stalling non-critical load ip: 18550640 freq: 8
rob stalling non-critical load ip: 18550920 freq: 2
rob stalling non-critical load ip: 18551032 freq: 6
rob stalling non-critical load ip: 18551144 freq: 2
rob stalling non-critical load ip: 18551148 freq: 1
rob stalling non-critical load ip: 18552272 freq: 7
rob stalling non-critical load ip: 18552508 freq: 3
rob stalling non-critical load ip: 18552740 freq: 5
rob stalling non-critical load ip: 18553272 freq: 3
rob stalling non-critical load ip: 18553348 freq: 1
rob stalling non-critical load ip: 18553544 freq: 1
rob stalling non-critical load ip: 18553752 freq: 4
rob stalling non-critical load ip: 18557252 freq: 7
rob stalling non-critical load ip: 18557288 freq: 7
rob stalling non-critical load ip: 18557484 freq: 5
rob stalling non-critical load ip: 18557604 freq: 3
rob stalling non-critical load ip: 18604344 freq: 7
rob stalling non-critical load ip: 18604368 freq: 2
rob stalling non-critical load ip: 18625668 freq: 3
rob stalling non-critical load ip: 18631072 freq: 2
rob stalling non-critical load ip: 18776508 freq: 2
rob stalling non-critical load ip: 18783856 freq: 15
rob stalling non-critical load ip: 18783872 freq: 4
rob stalling non-critical load ip: 18783924 freq: 5
rob stalling non-critical load ip: 18783940 freq: 9
rob stalling non-critical load ip: 18790812 freq: 1
rob stalling non-critical load ip: 18879816 freq: 3
rob stalling non-critical load ip: 18879832 freq: 2
rob stalling non-critical load ip: 18879852 freq: 1
rob stalling non-critical load ip: 18880020 freq: 2
rob stalling non-critical load ip: 18956724 freq: 8
rob stalling non-critical load ip: 18956808 freq: 8
rob stalling non-critical load ip: 18956864 freq: 8
rob stalling non-critical load ip: 18956880 freq: 2
rob stalling non-critical load ip: 18957016 freq: 1
rob stalling non-critical load ip: 18957048 freq: 1
rob stalling non-critical load ip: 18957128 freq: 52
rob stalling non-critical load ip: 18957516 freq: 3
rob stalling non-critical load ip: 18957576 freq: 1
rob stalling non-critical load ip: 18957592 freq: 4
rob stalling non-critical load ip: 18957636 freq: 1
rob stalling non-critical load ip: 18960512 freq: 11
rob stalling non-critical load ip: 18960524 freq: 20
rob stalling non-critical load ip: 18960536 freq: 8
rob stalling non-critical load ip: 18960552 freq: 9
rob stalling non-critical load ip: 18960584 freq: 14
rob stalling non-critical load ip: 18960616 freq: 13
rob stalling non-critical load ip: 18960632 freq: 4
rob stalling non-critical load ip: 18960688 freq: 5
rob stalling non-critical load ip: 18960700 freq: 11
rob stalling non-critical load ip: 18960732 freq: 4
rob stalling non-critical load ip: 18960748 freq: 5
rob stalling non-critical load ip: 18960780 freq: 43
rob stalling non-critical load ip: 18960792 freq: 3
rob stalling non-critical load ip: 18960796 freq: 96
rob stalling non-critical load ip: 18960812 freq: 12
rob stalling non-critical load ip: 18960836 freq: 19
rob stalling non-critical load ip: 18960860 freq: 14
rob stalling non-critical load ip: 18960908 freq: 6
rob stalling non-critical load ip: 18960940 freq: 1
rob stalling non-critical load ip: 18960956 freq: 5
rob stalling non-critical load ip: 18960972 freq: 2
rob stalling non-critical load ip: 18962968 freq: 3
rob stalling non-critical load ip: 18963116 freq: 1
rob stalling non-critical load ip: 18970396 freq: 9
rob stalling non-critical load ip: 18980028 freq: 23
rob stalling non-critical load ip: 19454556 freq: 9
rob stalling non-critical load ip: 19472760 freq: 2
rob stalling non-critical load ip: 19489580 freq: 3
rob stalling non-critical load ip: 19493148 freq: 151
rob stalling non-critical load ip: 19493164 freq: 29
rob stalling non-critical load ip: 19493176 freq: 334
rob stalling non-critical load ip: 19493188 freq: 32
rob stalling non-critical load ip: 19493220 freq: 11
rob stalling non-critical load ip: 19493328 freq: 79
rob stalling non-critical load ip: 19493344 freq: 119
rob stalling non-critical load ip: 19493360 freq: 140
rob stalling non-critical load ip: 19493372 freq: 126
rob stalling non-critical load ip: 19493504 freq: 18
rob stalling non-critical load ip: 19493536 freq: 29
rob stalling non-critical load ip: 19493692 freq: 1
rob stalling non-critical load ip: 19493820 freq: 2
rob stalling non-critical load ip: 19493832 freq: 3
rob stalling non-critical load ip: 19493844 freq: 4
rob stalling non-critical load ip: 19493912 freq: 1
rob stalling non-critical load ip: 19493916 freq: 56
rob stalling non-critical load ip: 19493920 freq: 45
rob stalling non-critical load ip: 19493924 freq: 48
rob stalling non-critical load ip: 19493928 freq: 13
rob stalling non-critical load ip: 19493932 freq: 93
rob stalling non-critical load ip: 19493936 freq: 2
rob stalling non-critical load ip: 19493940 freq: 60
rob stalling non-critical load ip: 19493944 freq: 5
rob stalling non-critical load ip: 19493948 freq: 58
rob stalling non-critical load ip: 19493956 freq: 26
rob stalling non-critical load ip: 19493960 freq: 94
rob stalling non-critical load ip: 19493968 freq: 1
rob stalling non-critical load ip: 19493976 freq: 2
rob stalling non-critical load ip: 19493984 freq: 6
rob stalling non-critical load ip: 19493992 freq: 5
rob stalling non-critical load ip: 19494000 freq: 3
rob stalling non-critical load ip: 19494032 freq: 151
rob stalling non-critical load ip: 19494040 freq: 47
rob stalling non-critical load ip: 19494052 freq: 86
rob stalling non-critical load ip: 19494060 freq: 35
rob stalling non-critical load ip: 19494068 freq: 91
rob stalling non-critical load ip: 19494076 freq: 5070
rob stalling non-critical load ip: 19494084 freq: 66
rob stalling non-critical load ip: 19494096 freq: 85
rob stalling non-critical load ip: 19494104 freq: 9786
rob stalling non-critical load ip: 19494112 freq: 211
rob stalling non-critical load ip: 19494292 freq: 424
rob stalling non-critical load ip: 19494372 freq: 2
rob stalling non-critical load ip: 19494380 freq: 3
rob stalling non-critical load ip: 19494412 freq: 14
rob stalling non-critical load ip: 19494664 freq: 11
rob stalling non-critical load ip: 19494760 freq: 5
rob stalling non-critical load ip: 19495484 freq: 31
rob stalling non-critical load ip: 19495540 freq: 53
rob stalling non-critical load ip: 19495556 freq: 425
rob stalling non-critical load ip: 19495572 freq: 48
rob stalling non-critical load ip: 19495584 freq: 2
rob stalling non-critical load ip: 19495740 freq: 51
rob stalling non-critical load ip: 19495772 freq: 10
rob stalling non-critical load ip: 19495816 freq: 13
rob stalling non-critical load ip: 19496020 freq: 25
rob stalling non-critical load ip: 19496036 freq: 11
rob stalling non-critical load ip: 19496052 freq: 36
rob stalling non-critical load ip: 19496064 freq: 11
rob stalling non-critical load ip: 19496092 freq: 13
rob stalling non-critical load ip: 19496208 freq: 1
rob stalling non-critical load ip: 19496224 freq: 13
rob stalling non-critical load ip: 19496236 freq: 4
rob stalling non-critical load ip: 19496264 freq: 11
rob stalling non-critical load ip: 19496360 freq: 57
rob stalling non-critical load ip: 19496376 freq: 57
rob stalling non-critical load ip: 19496392 freq: 9
rob stalling non-critical load ip: 19496404 freq: 58
rob stalling non-critical load ip: 19496880 freq: 10
rob stalling non-critical load ip: 19496900 freq: 6
rob stalling non-critical load ip: 19496908 freq: 2
rob stalling non-critical load ip: 19496916 freq: 58
rob stalling non-critical load ip: 19496924 freq: 4
rob stalling non-critical load ip: 19496932 freq: 2
rob stalling non-critical load ip: 19496944 freq: 3
rob stalling non-critical load ip: 19496952 freq: 10
rob stalling non-critical load ip: 19496960 freq: 1
rob stalling non-critical load ip: 19497140 freq: 8
rob stalling non-critical load ip: 19499416 freq: 2
rob stalling non-critical load ip: 19499480 freq: 31
rob stalling non-critical load ip: 19499512 freq: 3
rob stalling non-critical load ip: 19499632 freq: 2
rob stalling non-critical load ip: 19500084 freq: 2
rob stalling non-critical load ip: 19502280 freq: 13
rob stalling non-critical load ip: 19502432 freq: 1
rob stalling non-critical load ip: 19688424 freq: 2
rob stalling non-critical load ip: 19688432 freq: 7
rob stalling non-critical load ip: 19689420 freq: 2
rob stalling non-critical load ip: 19689456 freq: 6
rob stalling non-critical load ip: 19689532 freq: 6
rob stalling non-critical load ip: 19692680 freq: 1
rob stalling non-critical load ip: 19692692 freq: 7
rob stalling non-critical load ip: 19695740 freq: 24
rob stalling non-critical load ip: 19695780 freq: 29
rob stalling non-critical load ip: 19695796 freq: 65
rob stalling non-critical load ip: 19698128 freq: 2
rob stalling non-critical load ip: 19698148 freq: 1
rob stalling non-critical load ip: 19698200 freq: 4
rob stalling non-critical load ip: 19698204 freq: 23
rob stalling non-critical load ip: 19698228 freq: 11
rob stalling non-critical load ip: 19698276 freq: 2
rob stalling non-critical load ip: 19698288 freq: 13
rob stalling non-critical load ip: 19698324 freq: 3
rob stalling non-critical load ip: 19698368 freq: 2
rob stalling non-critical load ip: 19698384 freq: 2
rob stalling non-critical load ip: 19698420 freq: 2
rob stalling non-critical load ip: 19699940 freq: 4
rob stalling non-critical load ip: 19699952 freq: 7
rob stalling non-critical load ip: 19699968 freq: 16
rob stalling non-critical load ip: 19699980 freq: 1
rob stalling non-critical load ip: 19700112 freq: 1
rob stalling non-critical load ip: 19701420 freq: 3
rob stalling non-critical load ip: 19701440 freq: 6
rob stalling non-critical load ip: 19701452 freq: 2
rob stalling non-critical load ip: 19701552 freq: 5
rob stalling non-critical load ip: 19707028 freq: 16
rob stalling non-critical load ip: 19707040 freq: 3
rob stalling non-critical load ip: 19707092 freq: 7
rob stalling non-critical load ip: 19707104 freq: 2
rob stalling non-critical load ip: 19707268 freq: 12
rob stalling non-critical load ip: 19711924 freq: 1
rob stalling non-critical load ip: 19711940 freq: 8
rob stalling non-critical load ip: 19713232 freq: 8
rob stalling non-critical load ip: 19713732 freq: 10
rob stalling non-critical load ip: 19713736 freq: 2
rob stalling non-critical load ip: 19713772 freq: 2
rob stalling non-critical load ip: 19713788 freq: 4
rob stalling non-critical load ip: 19723200 freq: 1
rob stalling non-critical load ip: 19723236 freq: 430
rob stalling non-critical load ip: 19723248 freq: 6
rob stalling non-critical load ip: 19723284 freq: 9
rob stalling non-critical load ip: 19723312 freq: 7
rob stalling non-critical load ip: 19723320 freq: 28
rob stalling non-critical load ip: 19723336 freq: 8
rob stalling non-critical load ip: 19723352 freq: 10
rob stalling non-critical load ip: 19723368 freq: 4
rob stalling non-critical load ip: 19723384 freq: 4
rob stalling non-critical load ip: 19723408 freq: 4
rob stalling non-critical load ip: 19724416 freq: 2
rob stalling non-critical load ip: 19724432 freq: 33
rob stalling non-critical load ip: 19724576 freq: 115
rob stalling non-critical load ip: 19725616 freq: 145
rob stalling non-critical load ip: 19725644 freq: 3
rob stalling non-critical load ip: 19725656 freq: 4
rob stalling non-critical load ip: 19725660 freq: 130
rob stalling non-critical load ip: 19725672 freq: 7
rob stalling non-critical load ip: 19725688 freq: 7
rob stalling non-critical load ip: 19725704 freq: 106
rob stalling non-critical load ip: 19725720 freq: 77
rob stalling non-critical load ip: 19725736 freq: 2
rob stalling non-critical load ip: 19725740 freq: 7
rob stalling non-critical load ip: 19725844 freq: 3
rob stalling non-critical load ip: 19725880 freq: 4
rob stalling non-critical load ip: 19725904 freq: 31
rob stalling non-critical load ip: 19725924 freq: 14
rob stalling non-critical load ip: 19726800 freq: 3
rob stalling non-critical load ip: 19727968 freq: 11
rob stalling non-critical load ip: 19727980 freq: 4
rob stalling non-critical load ip: 19728104 freq: 14
rob stalling non-critical load ip: 19728120 freq: 1
rob stalling non-critical load ip: 19728232 freq: 2
rob stalling non-critical load ip: 19729824 freq: 8
rob stalling non-critical load ip: 19732288 freq: 16
rob stalling non-critical load ip: 19732304 freq: 8
rob stalling non-critical load ip: 19732392 freq: 7
rob stalling non-critical load ip: 19732408 freq: 12
rob stalling non-critical load ip: 19732424 freq: 5
rob stalling non-critical load ip: 19732440 freq: 5
rob stalling non-critical load ip: 19732456 freq: 1
rob stalling non-critical load ip: 19732644 freq: 66
rob stalling non-critical load ip: 19732912 freq: 19
rob stalling non-critical load ip: 19732928 freq: 7
rob stalling non-critical load ip: 19732940 freq: 15
rob stalling non-critical load ip: 19732956 freq: 2
rob stalling non-critical load ip: 19732968 freq: 3
rob stalling non-critical load ip: 19732984 freq: 3
rob stalling non-critical load ip: 19733228 freq: 4
rob stalling non-critical load ip: 19733500 freq: 114
rob stalling non-critical load ip: 19745436 freq: 2
rob stalling non-critical load ip: 19745500 freq: 3
rob stalling non-critical load ip: 19746244 freq: 276
rob stalling non-critical load ip: 19746296 freq: 177
rob stalling non-critical load ip: 19746308 freq: 202
rob stalling non-critical load ip: 19746320 freq: 3
rob stalling non-critical load ip: 19746344 freq: 1
rob stalling non-critical load ip: 19748964 freq: 242
rob stalling non-critical load ip: 19748980 freq: 4
rob stalling non-critical load ip: 19749032 freq: 7
rob stalling non-critical load ip: 19749112 freq: 34
rob stalling non-critical load ip: 19749256 freq: 41
rob stalling non-critical load ip: 19749380 freq: 42
rob stalling non-critical load ip: 19749420 freq: 32
rob stalling non-critical load ip: 19752860 freq: 1
rob stalling non-critical load ip: 19752872 freq: 23
rob stalling non-critical load ip: 19752892 freq: 1
rob stalling non-critical load ip: 19782676 freq: 3
rob stalling non-critical load ip: 19782920 freq: 14
rob stalling non-critical load ip: 19783136 freq: 9
rob stalling non-critical load ip: 19783172 freq: 6
rob stalling non-critical load ip: 19783188 freq: 4
rob stalling non-critical load ip: 19783200 freq: 45
rob stalling non-critical load ip: 19783356 freq: 5
rob stalling non-critical load ip: 19783424 freq: 37
rob stalling non-critical load ip: 19783492 freq: 17
rob stalling non-critical load ip: 19783676 freq: 1
rob stalling non-critical load ip: 19783864 freq: 1
rob stalling non-critical load ip: 19784032 freq: 47
rob stalling non-critical load ip: 19784140 freq: 49
rob stalling non-critical load ip: 19784240 freq: 1
rob stalling non-critical load ip: 19784300 freq: 1
rob stalling non-critical load ip: 19784344 freq: 2
rob stalling non-critical load ip: 19784540 freq: 1
rob stalling non-critical load ip: 19784608 freq: 5
rob stalling non-critical load ip: 19787268 freq: 1
rob stalling non-critical load ip: 19787460 freq: 1
rob stalling non-critical load ip: 19787464 freq: 11
rob stalling non-critical load ip: 19787608 freq: 1
rob stalling non-critical load ip: 19787620 freq: 3
rob stalling non-critical load ip: 19787672 freq: 1
rob stalling non-critical load ip: 19787724 freq: 2
rob stalling non-critical load ip: 19787744 freq: 2
rob stalling non-critical load ip: 19788600 freq: 1
rob stalling non-critical load ip: 19791796 freq: 3
rob stalling non-critical load ip: 19791896 freq: 2
rob stalling non-critical load ip: 19791900 freq: 49
rob stalling non-critical load ip: 19803620 freq: 22
rob stalling non-critical load ip: 19803780 freq: 29
rob stalling non-critical load ip: 19804072 freq: 4
rob stalling non-critical load ip: 19804084 freq: 1
rob stalling non-critical load ip: 19804120 freq: 1
rob stalling non-critical load ip: 19804156 freq: 14
rob stalling non-critical load ip: 19804236 freq: 5
rob stalling non-critical load ip: 19804680 freq: 1
rob stalling non-critical load ip: 19805060 freq: 49
rob stalling non-critical load ip: 19805104 freq: 1
rob stalling non-critical load ip: 19805240 freq: 9
rob stalling non-critical load ip: 19837204 freq: 1
rob stalling non-critical load ip: 19837224 freq: 6
rob stalling non-critical load ip: 19837368 freq: 4
rob stalling non-critical load ip: 19850084 freq: 2
rob stalling non-critical load ip: 19850100 freq: 10
rob stalling non-critical load ip: 19850108 freq: 4
rob stalling non-critical load ip: 19851160 freq: 8
rob stalling non-critical load ip: 19851192 freq: 12
rob stalling non-critical load ip: 19851196 freq: 14
rob stalling non-critical load ip: 19851292 freq: 109
rob stalling non-critical load ip: 19851312 freq: 10
rob stalling non-critical load ip: 19852588 freq: 23
rob stalling non-critical load ip: 19852592 freq: 24
rob stalling non-critical load ip: 19852596 freq: 22
rob stalling non-critical load ip: 19852944 freq: 1
rob stalling non-critical load ip: 19852960 freq: 4
rob stalling non-critical load ip: 19853224 freq: 3
rob stalling non-critical load ip: 19853236 freq: 6
rob stalling non-critical load ip: 19933328 freq: 1
rob stalling non-critical load ip: 19957964 freq: 372
rob stalling non-critical load ip: 19957992 freq: 1
rob stalling non-critical load ip: 20024224 freq: 11
rob stalling non-critical load ip: 20024236 freq: 4
rob stalling non-critical load ip: 20024256 freq: 95
rob stalling non-critical load ip: 20032904 freq: 12
rob stalling non-critical load ip: 20032960 freq: 1
rob stalling non-critical load ip: 20032972 freq: 3
rob stalling non-critical load ip: 20032992 freq: 2
rob stalling non-critical load ip: 20042204 freq: 4
rob stalling non-critical load ip: 20047492 freq: 622
rob stalling non-critical load ip: 20048080 freq: 1805
rob stalling non-critical load ip: 20048380 freq: 5
rob stalling non-critical load ip: 20048424 freq: 6
rob stalling non-critical load ip: 20048792 freq: 6
rob stalling non-critical load ip: 20048856 freq: 41
rob stalling non-critical load ip: 20049060 freq: 355
rob stalling non-critical load ip: 20052892 freq: 5
rob stalling non-critical load ip: 20052924 freq: 11
rob stalling non-critical load ip: 20053048 freq: 8
rob stalling non-critical load ip: 20053068 freq: 3
rob stalling non-critical load ip: 20053108 freq: 2
rob stalling non-critical load ip: 20053164 freq: 295
rob stalling non-critical load ip: 20054744 freq: 267
rob stalling non-critical load ip: 20061440 freq: 112
rob stalling non-critical load ip: 20061492 freq: 326
rob stalling non-critical load ip: 20061560 freq: 194
rob stalling non-critical load ip: 20061676 freq: 8
rob stalling non-critical load ip: 20061832 freq: 1
rob stalling non-critical load ip: 20062088 freq: 3
rob stalling non-critical load ip: 20062104 freq: 17
rob stalling non-critical load ip: 20062272 freq: 6
rob stalling non-critical load ip: 20062680 freq: 4
rob stalling non-critical load ip: 20062696 freq: 16
rob stalling non-critical load ip: 20062784 freq: 348
rob stalling non-critical load ip: 20062836 freq: 115
rob stalling non-critical load ip: 20062904 freq: 250
rob stalling non-critical load ip: 20063036 freq: 59
rob stalling non-critical load ip: 20079064 freq: 2
rob stalling non-critical load ip: 20079080 freq: 6
rob stalling non-critical load ip: 20079096 freq: 7
rob stalling non-critical load ip: 20079444 freq: 2
rob stalling non-critical load ip: 20145932 freq: 5
rob stalling non-critical load ip: 20153348 freq: 2
rob stalling non-critical load ip: 20155144 freq: 7
rob stalling non-critical load ip: 20155176 freq: 113
rob stalling non-critical load ip: 20155208 freq: 1
rob stalling non-critical load ip: 20155472 freq: 3
rob stalling non-critical load ip: 20160980 freq: 11
rob stalling non-critical load ip: 20170580 freq: 112
rob stalling non-critical load ip: 20170592 freq: 3
rob stalling non-critical load ip: 20170616 freq: 251
rob stalling non-critical load ip: 20170656 freq: 7
rob stalling non-critical load ip: 20170704 freq: 7
rob stalling non-critical load ip: 20170924 freq: 3
rob stalling non-critical load ip: 20170952 freq: 7
rob stalling non-critical load ip: 20170968 freq: 37
rob stalling non-critical load ip: 20170972 freq: 59
rob stalling non-critical load ip: 20171000 freq: 3
rob stalling non-critical load ip: 20171036 freq: 2
rob stalling non-critical load ip: 20171120 freq: 2
rob stalling non-critical load ip: 20171204 freq: 1
rob stalling non-critical load ip: 20171264 freq: 12
rob stalling non-critical load ip: 20171360 freq: 7
rob stalling non-critical load ip: 20171392 freq: 1
rob stalling non-critical load ip: 20171432 freq: 1
rob stalling non-critical load ip: 20171436 freq: 10
rob stalling non-critical load ip: 20171564 freq: 3
rob stalling non-critical load ip: 20171628 freq: 9
rob stalling non-critical load ip: 20171784 freq: 33
rob stalling non-critical load ip: 20171940 freq: 8
rob stalling non-critical load ip: 20172004 freq: 48
rob stalling non-critical load ip: 20172108 freq: 3
rob stalling non-critical load ip: 20172136 freq: 4
rob stalling non-critical load ip: 20172164 freq: 5
rob stalling non-critical load ip: 20172352 freq: 1
rob stalling non-critical load ip: 20172396 freq: 2
rob stalling non-critical load ip: 20172652 freq: 1
rob stalling non-critical load ip: 20172804 freq: 4
rob stalling non-critical load ip: 20172848 freq: 1
rob stalling non-critical load ip: 20172968 freq: 4
rob stalling non-critical load ip: 20172992 freq: 31
rob stalling non-critical load ip: 20172996 freq: 32
rob stalling non-critical load ip: 20173052 freq: 3
rob stalling non-critical load ip: 20173188 freq: 3
rob stalling non-critical load ip: 20173276 freq: 2
rob stalling non-critical load ip: 20182888 freq: 73
rob stalling non-critical load ip: 20182900 freq: 68
rob stalling non-critical load ip: 20182940 freq: 44
rob stalling non-critical load ip: 20182980 freq: 3
rob stalling non-critical load ip: 20182992 freq: 3
rob stalling non-critical load ip: 20183140 freq: 2
rob stalling non-critical load ip: 20183164 freq: 2
rob stalling non-critical load ip: 20183184 freq: 116
rob stalling non-critical load ip: 20183324 freq: 3
rob stalling non-critical load ip: 20184960 freq: 2
rob stalling non-critical load ip: 20185000 freq: 1
rob stalling non-critical load ip: 20185016 freq: 79
rob stalling non-critical load ip: 20201964 freq: 3
rob stalling non-critical load ip: 20456288 freq: 1
rob stalling non-critical load ip: 20456888 freq: 1
rob stalling non-critical load ip: 20456992 freq: 1
rob stalling non-critical load ip: 20800376 freq: 3
rob stalling non-critical load ip: 20813524 freq: 7
rob stalling non-critical load ip: 20813916 freq: 1
rob stalling non-critical load ip: 2061774116 freq: 5
rob stalling non-critical load ip: 2061774200 freq: 3
rob stalling non-critical load ip: 2061774344 freq: 2
rob stalling non-critical load ip: 2061774488 freq: 2
rob stalling non-critical load ip: 2061774588 freq: 1
rob stalling non-critical load ip: 2061776584 freq: 1
rob stalling non-critical load ip: 2061777040 freq: 3
rob stalling non-critical load ip: 2061777580 freq: 1
rob stalling non-critical load ip: 2071823844 freq: 2
rob stalling non-critical load ip: 2071824328 freq: 3
rob stalling non-critical load ip: 2071825424 freq: 6
rob stalling non-critical load ip: 2074816436 freq: 5
rob stalling non-critical load ip: 2074941612 freq: 3
rob stalling non-critical load ip: 2074941620 freq: 5
rob stalling non-critical load ip: 2074941636 freq: 1
rob stalling non-critical load ip: 2074941744 freq: 4
rob stalling non-critical load ip: 2074941748 freq: 1
rob stalling non-critical load ip: 2074946824 freq: 1
rob stalling non-critical load ip: 2074949692 freq: 3
rob stalling non-critical load ip: 2074950096 freq: 6
rob stalling non-critical load ip: 2074950112 freq: 2
rob stalling non-critical load ip: 2074950176 freq: 2
rob stalling non-critical load ip: 2074950236 freq: 5
rob stalling non-critical load ip: 2074950300 freq: 2
rob stalling non-critical load ip: 2074950940 freq: 1
rob stalling non-critical load ip: 2074950980 freq: 2
rob stalling non-critical load ip: 2074951224 freq: 9
rob stalling non-critical load ip: 2074951236 freq: 11
rob stalling non-critical load ip: 2074951392 freq: 8
rob stalling non-critical load ip: 2074953160 freq: 4
rob stalling non-critical load ip: 2074953208 freq: 3
rob stalling non-critical load ip: 2074953252 freq: 1
rob stalling non-critical load ip: 2074953256 freq: 1
rob stalling non-critical load ip: 2074953336 freq: 2
rob stalling non-critical load ip: 2074953340 freq: 2
rob stalling non-critical load ip: 2074954904 freq: 4
rob stalling non-critical load ip: 2074965740 freq: 4
rob stalling non-critical load ip: 2074965832 freq: 4
rob stalling non-critical load ip: 2074966360 freq: 6
rob stalling non-critical load ip: 2074966808 freq: 5
rob stalling non-critical load ip: 2074966864 freq: 1
rob stalling non-critical load ip: 2074967144 freq: 4
rob stalling non-critical load ip: 2074967212 freq: 11
rob stalling non-critical load ip: 2074967808 freq: 4
rob stalling non-critical load ip: 2074967836 freq: 2
rob stalling non-critical load ip: 2074968212 freq: 7
rob stalling non-critical load ip: 2074968244 freq: 8
rob stalling non-critical load ip: 2074968260 freq: 10
rob stalling non-critical load ip: 2074968384 freq: 6
rob stalling non-critical load ip: 2074968404 freq: 2
rob stalling non-critical load ip: 2074981716 freq: 1
rob stalling non-critical load ip: 2074998328 freq: 4
rob stalling non-critical load ip: 2078543072 freq: 6
rob stalling non-critical load ip: 2078543184 freq: 8
rob stalling non-critical load ip: 2078550532 freq: 1
rob stalling non-critical load ip: 2078550552 freq: 4
rob stalling non-critical load ip: 2078550624 freq: 3
rob stalling non-critical load ip: 2078555256 freq: 4
rob stalling non-critical load ip: 2078555284 freq: 2
rob stalling non-critical load ip: 2078583088 freq: 8
rob stalling non-critical load ip: 2078583096 freq: 5
rob stalling non-critical load ip: 2078583192 freq: 5
rob stalling non-critical load ip: 2078583220 freq: 1
rob stalling non-critical load ip: 2078583588 freq: 7
rob stalling non-critical load ip: 2078583964 freq: 4
rob stalling non-critical load ip: 2078590916 freq: 1
rob stalling non-critical load ip: 3101835032 freq: 6
rob stalling non-critical load ip: 3101839724 freq: 5
rob stalling non-critical load ip: 4227858932 freq: 7
rob stalling non-critical load ip: 4227881404 freq: 1
rob stalling non-critical load ip: 4227881420 freq: 1
rob stalling non-critical load ip: 4227881660 freq: 2
rob stalling non-critical load ip: 4227882604 freq: 1
rob stalling non-critical load ip: 4227904576 freq: 6
rob stalling non-critical load ip: 4227904760 freq: 22
rob stalling non-critical load ip: 4227904776 freq: 4
rob stalling non-critical load ip: 4227904812 freq: 2
rob stalling non-critical load ip: 4227904860 freq: 11
rob stalling non-critical load ip: 4227905036 freq: 2
rob stalling non-critical load ip: 4227907012 freq: 3
rob stalling non-critical load ip: 4227907048 freq: 4
rob stalling non-critical load ip: 4227907064 freq: 4
rob stalling non-critical load ip: 4227913112 freq: 2
rob stalling non-critical load ip: 4227913276 freq: 3
rob stalling non-critical load ip: 4227913396 freq: 10
rob stalling non-critical load ip: 4227913412 freq: 2
rob stalling non-critical load ip: 4227913620 freq: 5
rob stalling non-critical load ip: 4227916208 freq: 1
rob stalling non-critical load ip: 4227918504 freq: 1
rob stalling non-critical load ip: 4227920272 freq: 2
rob stalling non-critical load ip: 4227920292 freq: 6
rob stalling non-critical load ip: 4227920304 freq: 1
rob stalling non-critical load ip: 4227923296 freq: 10
rob stalling non-critical load ip: 4227923300 freq: 12
rob stalling non-critical load ip: 4227923600 freq: 1
rob stalling non-critical load ip: 4227923616 freq: 2
rob stalling non-critical load ip: 4227923620 freq: 13
rob stalling non-critical load ip: 4227937780 freq: 2
rob stalling non-critical load ip: 4227938196 freq: 1
rob stalling non-critical load ip: 4227940100 freq: 1
rob stalling non-critical load ip: 4227945884 freq: 1
rob stalling non-critical load ip: 4227949688 freq: 3
rob stalling non-critical load ip: 4227950052 freq: 1
rob stalling non-critical load ip: 4227953452 freq: 2
rob stalling non-critical load ip: 4227953532 freq: 2
rob stalling non-critical load ip: 4227953800 freq: 5
rob stalling non-critical load ip: 4227953904 freq: 6
rob stalling non-critical load ip: 4227953908 freq: 2
rob stalling non-critical load ip: 4227953916 freq: 3
rob stalling non-critical load ip: 4227953980 freq: 3
rob stalling non-critical load ip: 4227954128 freq: 2
rob stalling non-critical load ip: 4227954152 freq: 3
rob stalling non-critical load ip: 4227954280 freq: 1
rob stalling non-critical load ip: 4227954320 freq: 15
rob stalling non-critical load ip: 4227954608 freq: 1
rob stalling non-critical load ip: 4227955352 freq: 7
rob stalling non-critical load ip: 4227955840 freq: 2
rob stalling non-critical load ip: 4227955864 freq: 3
rob stalling non-critical load ip: 4227955896 freq: 1
rob stalling non-critical load ip: 4227956968 freq: 2
rob stalling non-critical load ip: 4227956984 freq: 2
rob stalling non-critical load ip: 4227957384 freq: 1
rob stalling non-critical load ip: 4227957528 freq: 5
rob stalling non-critical load ip: 4227957736 freq: 1
rob stalling non-critical load ip: 4227959620 freq: 1
rob stalling non-critical load ip: 4227959764 freq: 2
rob stalling non-critical load ip: 4227962528 freq: 1
rob stalling non-critical load ip: 4227962536 freq: 2
rob stalling non-critical load ip: 4227962556 freq: 17
rob stalling non-critical load ip: 4227962580 freq: 2
rob stalling non-critical load ip: 4227962604 freq: 1
rob stalling non-critical load ip: 4227962712 freq: 2
rob stalling non-critical load ip: 4227962740 freq: 2
rob stalling non-critical load ip: 4227963904 freq: 11
rob stalling non-critical load ip: 4227963908 freq: 7
rob stalling non-critical load ip: 4227964240 freq: 1
rob stalling non-critical load ip: 4227964256 freq: 8
rob stalling non-critical load ip: 4227964296 freq: 1
rob stalling non-critical load ip: 4227964300 freq: 3
rob stalling non-critical load ip: 4227965200 freq: 5
rob stalling non-critical load ip: 4227965204 freq: 1
rob stalling non-critical load ip: 4227965224 freq: 1
rob stalling non-critical load ip: 4227965304 freq: 1
rob stalling non-critical load ip: 4228064608 freq: 1
rob stalling non-critical load ip: 4228102548 freq: 54
rob stalling non-critical load ip: 4228102620 freq: 12
rob stalling non-critical load ip: 4228103232 freq: 945
rob stalling non-critical load ip: 4228103288 freq: 45
rob stalling non-critical load ip: 4228103296 freq: 2274
rob stalling non-critical load ip: 4228103304 freq: 621
rob stalling non-critical load ip: 4228103368 freq: 326
rob stalling non-critical load ip: 4228103456 freq: 255
rob stalling non-critical load ip: 4228103460 freq: 4
rob stalling non-critical load ip: 4228103472 freq: 7
rob stalling non-critical load ip: 4228103488 freq: 27
rob stalling non-critical load ip: 4228103504 freq: 186
rob stalling non-critical load ip: 4228103508 freq: 4
rob stalling non-critical load ip: 4228103552 freq: 39
rob stalling non-critical load ip: 4228103556 freq: 30
rob stalling non-critical load ip: 4228103596 freq: 17
rob stalling non-critical load ip: 4228103632 freq: 1102
rob stalling non-critical load ip: 4228103700 freq: 541
rob stalling non-critical load ip: 4228103728 freq: 7
rob stalling non-critical load ip: 4228103736 freq: 2
rob stalling non-critical load ip: 4228103788 freq: 50
rob stalling non-critical load ip: 4228103808 freq: 211
rob stalling non-critical load ip: 4228103816 freq: 667
rob stalling non-critical load ip: 4228103880 freq: 52
rob stalling non-critical load ip: 4228103968 freq: 414
rob stalling non-critical load ip: 4228103972 freq: 222
rob stalling non-critical load ip: 4228103984 freq: 43
rob stalling non-critical load ip: 4228103988 freq: 18
rob stalling non-critical load ip: 4228104000 freq: 257
rob stalling non-critical load ip: 4228104004 freq: 7
rob stalling non-critical load ip: 4228104016 freq: 96
rob stalling non-critical load ip: 4228104020 freq: 21
rob stalling non-critical load ip: 4228104064 freq: 289
rob stalling non-critical load ip: 4228104068 freq: 108
rob stalling non-critical load ip: 4228104108 freq: 18
rob stalling non-critical load ip: 4228104144 freq: 7115
rob stalling non-critical load ip: 4228104256 freq: 107
rob stalling non-critical load ip: 4228104264 freq: 89
rob stalling non-critical load ip: 4228104532 freq: 4
rob stalling non-critical load ip: 4228104624 freq: 130
rob stalling non-critical load ip: 4228104640 freq: 6
rob stalling non-critical load ip: 4228104656 freq: 7
rob stalling non-critical load ip: 4228104672 freq: 77
rob stalling non-critical load ip: 4228104720 freq: 609
rob stalling non-critical load ip: 4228104724 freq: 217
rob stalling non-critical load ip: 4228104764 freq: 374
rob stalling non-critical load ip: 4228104976 freq: 2
rob stalling non-critical load ip: 4228105072 freq: 15
rob stalling non-critical load ip: 4228105076 freq: 3
rob stalling non-critical load ip: 4228105140 freq: 7
rob stalling non-critical load ip: 4228105684 freq: 158
rob stalling non-critical load ip: 4228105904 freq: 8
rob stalling non-critical load ip: 4228105952 freq: 18
rob stalling non-critical load ip: 4228106000 freq: 621
rob stalling non-critical load ip: 4228106004 freq: 9
rob stalling non-critical load ip: 4228106044 freq: 18
rob stalling non-critical load ip: 4228106080 freq: 7420
rob stalling non-critical load ip: 4228106132 freq: 13
rob stalling non-critical load ip: 4228106288 freq: 546
rob stalling non-critical load ip: 4228106292 freq: 128
rob stalling non-critical load ip: 4228106304 freq: 94
rob stalling non-critical load ip: 4228106308 freq: 12
rob stalling non-critical load ip: 4228106320 freq: 12
rob stalling non-critical load ip: 4228106324 freq: 20
rob stalling non-critical load ip: 4228106336 freq: 166
rob stalling non-critical load ip: 4228106340 freq: 29
rob stalling non-critical load ip: 4228106384 freq: 43
rob stalling non-critical load ip: 4228106388 freq: 14
rob stalling non-critical load ip: 4228106428 freq: 5
rob stalling non-critical load ip: 4228106452 freq: 24
rob stalling non-critical load ip: 4228109236 freq: 4
rob stalling non-critical load ip: 4228109252 freq: 1453
rob stalling non-critical load ip: 4228175108 freq: 6
rob stalling non-critical load ip: 4228179436 freq: 16
rob stalling non-critical load ip: 4228179444 freq: 5
rob stalling non-critical load ip: 4228179624 freq: 12
rob stalling non-critical load ip: 4228189284 freq: 8
rob stalling non-critical load ip: 4228189300 freq: 2
rob stalling non-critical load ip: 4228189304 freq: 1
rob stalling non-critical load ip: 4228189320 freq: 2
rob stalling non-critical load ip: 4228190588 freq: 5
rob stalling non-critical load ip: 4228204672 freq: 180
rob stalling non-critical load ip: 4228204688 freq: 126
rob stalling non-critical load ip: 4228204704 freq: 103
rob stalling non-critical load ip: 4228204712 freq: 160
rob stalling non-critical load ip: 4228204760 freq: 728
rob stalling non-critical load ip: 4228204860 freq: 89
rob stalling non-critical load ip: 4228204876 freq: 121
rob stalling non-critical load ip: 4228204892 freq: 89
rob stalling non-critical load ip: 4228204908 freq: 33
rob stalling non-critical load ip: 4228204952 freq: 1742
rob stalling non-critical load ip: 4228204988 freq: 1483
rob stalling non-critical load ip: 4228215584 freq: 42
rob stalling non-critical load ip: 4228215712 freq: 120
rob stalling non-critical load ip: 4228215716 freq: 522
rob stalling non-critical load ip: 4228215720 freq: 177
rob stalling non-critical load ip: 4228215840 freq: 240
rob stalling non-critical load ip: 4228215912 freq: 12
rob stalling non-critical load ip: 4228216096 freq: 769
rob stalling non-critical load ip: 4228216100 freq: 21
rob stalling non-critical load ip: 4228216104 freq: 14
rob stalling non-critical load ip: 4228216160 freq: 1210
rob stalling non-critical load ip: 4228216164 freq: 205
rob stalling non-critical load ip: 4228216168 freq: 304
rob stalling non-critical load ip: 4228216224 freq: 20
rob stalling non-critical load ip: 4228216232 freq: 8
rob stalling non-critical load ip: 4228247280 freq: 4
rob stalling non-critical load ip: 4228259340 freq: 6
rob stalling non-critical load ip: 4228259484 freq: 7
rob stalling non-critical load ip: 4228259528 freq: 2
rob stalling non-critical load ip: 4228259536 freq: 15
rob stalling non-critical load ip: 4228259544 freq: 16
rob stalling non-critical load ip: 4228259652 freq: 5
rob stalling non-critical load ip: 4228259672 freq: 1
rob stalling non-critical load ip: 4228285216 freq: 5
rob stalling non-critical load ip: 4228285224 freq: 7
rob stalling non-critical load ip: 4228286044 freq: 1
rob stalling non-critical load ip: 4228286108 freq: 9
rob stalling non-critical load ip: 4228290940 freq: 57
rob stalling non-critical load ip: 4228290964 freq: 5
rob stalling non-critical load ip: 4228290984 freq: 21
rob stalling non-critical load ip: 4228291004 freq: 3
rob stalling non-critical load ip: 4228291240 freq: 2
rob stalling non-critical load ip: 4228291256 freq: 7
rob stalling non-critical load ip: 4228291312 freq: 1
rob stalling non-critical load ip: 4228291324 freq: 17
rob stalling non-critical load ip: 4228291336 freq: 9
rob stalling non-critical load ip: 4228291372 freq: 21
rob stalling non-critical load ip: 4228291400 freq: 14
rob stalling non-critical load ip: 4228291416 freq: 1
rob stalling non-critical load ip: 4228291464 freq: 26
rob stalling non-critical load ip: 4228291472 freq: 20
rob stalling non-critical load ip: 4228291500 freq: 4
rob stalling non-critical load ip: 4228291504 freq: 79
rob stalling non-critical load ip: 4228291548 freq: 10
rob stalling non-critical load ip: 4228291576 freq: 66
rob stalling non-critical load ip: 4228291584 freq: 122
rob stalling non-critical load ip: 4228291604 freq: 10
rob stalling non-critical load ip: 4228291612 freq: 144
rob stalling non-critical load ip: 4228291624 freq: 4
rob stalling non-critical load ip: 4228291632 freq: 27
rob stalling non-critical load ip: 4228291640 freq: 46
rob stalling non-critical load ip: 4228291652 freq: 4
rob stalling non-critical load ip: 4228291660 freq: 93
rob stalling non-critical load ip: 4228291668 freq: 255
rob stalling non-critical load ip: 4228291680 freq: 1
rob stalling non-critical load ip: 4228291688 freq: 3
rob stalling non-critical load ip: 4228291696 freq: 48
rob stalling non-critical load ip: 4228291708 freq: 4
rob stalling non-critical load ip: 4228291712 freq: 55
rob stalling non-critical load ip: 4228291732 freq: 4
rob stalling non-critical load ip: 4228291736 freq: 6
rob stalling non-critical load ip: 4228291740 freq: 1
rob stalling non-critical load ip: 4228291760 freq: 59
rob stalling non-critical load ip: 4228291764 freq: 74
rob stalling non-critical load ip: 4228291768 freq: 9
rob stalling non-critical load ip: 4228291788 freq: 1
rob stalling non-critical load ip: 4228291800 freq: 3
rob stalling non-critical load ip: 4228291804 freq: 2
rob stalling non-critical load ip: 4228291852 freq: 4
rob stalling non-critical load ip: 4228291864 freq: 125
rob stalling non-critical load ip: 4228291884 freq: 3
rob stalling non-critical load ip: 4228291900 freq: 57
rob stalling non-critical load ip: 4228291904 freq: 31
rob stalling non-critical load ip: 4228291920 freq: 2
rob stalling non-critical load ip: 4228291944 freq: 8
rob stalling non-critical load ip: 4228291952 freq: 11
rob stalling non-critical load ip: 4228291972 freq: 8
rob stalling non-critical load ip: 4228291984 freq: 167
rob stalling non-critical load ip: 4228292028 freq: 18
rob stalling non-critical load ip: 4228292040 freq: 237
rob stalling non-critical load ip: 4228292060 freq: 3
rob stalling non-critical load ip: 4228292112 freq: 3
rob stalling non-critical load ip: 4228292124 freq: 309
rob stalling non-critical load ip: 4228292172 freq: 11
rob stalling non-critical load ip: 4228292236 freq: 1
rob stalling non-critical load ip: 4228292248 freq: 18
rob stalling non-critical load ip: 4228292276 freq: 7
rob stalling non-critical load ip: 4228292296 freq: 19
rob stalling non-critical load ip: 4228292344 freq: 29
rob stalling non-critical load ip: 4228292384 freq: 15
rob stalling non-critical load ip: 4228292400 freq: 9
rob stalling non-critical load ip: 4228292412 freq: 29
rob stalling non-critical load ip: 4228292432 freq: 1
rob stalling non-critical load ip: 4228292444 freq: 6
rob stalling non-critical load ip: 4228292460 freq: 17
rob stalling non-critical load ip: 4228292496 freq: 10
rob stalling non-critical load ip: 4228292540 freq: 8
rob stalling non-critical load ip: 4228292596 freq: 3
rob stalling non-critical load ip: 4228292616 freq: 6
rob stalling non-critical load ip: 4228292632 freq: 4
rob stalling non-critical load ip: 4228292724 freq: 2
rob stalling non-critical load ip: 4228292744 freq: 2
rob stalling non-critical load ip: 4228292756 freq: 2
rob stalling non-critical load ip: 4228292804 freq: 3
rob stalling non-critical load ip: 4228292864 freq: 5
rob stalling non-critical load ip: 4228292920 freq: 7
rob stalling non-critical load ip: 4228292936 freq: 10
rob stalling non-critical load ip: 4228293040 freq: 8
rob stalling non-critical load ip: 4228293080 freq: 8
rob stalling non-critical load ip: 4228293088 freq: 1
rob stalling non-critical load ip: 4228293152 freq: 2
rob stalling non-critical load ip: 4228293220 freq: 11
rob stalling non-critical load ip: 4228293292 freq: 5
rob stalling non-critical load ip: 4228293296 freq: 1
rob stalling non-critical load ip: 4228293308 freq: 6
rob stalling non-critical load ip: 4228293372 freq: 2
rob stalling non-critical load ip: 4228293380 freq: 2
rob stalling non-critical load ip: 4228293512 freq: 2
rob stalling non-critical load ip: 4228293524 freq: 6
rob stalling non-critical load ip: 4228293716 freq: 9
rob stalling non-critical load ip: 4228293740 freq: 2
rob stalling non-critical load ip: 4228293784 freq: 11
rob stalling non-critical load ip: 4228293808 freq: 2
rob stalling non-critical load ip: 4228293832 freq: 4
rob stalling non-critical load ip: 4228293848 freq: 10
rob stalling non-critical load ip: 4228293872 freq: 1
rob stalling non-critical load ip: 4228293916 freq: 6
rob stalling non-critical load ip: 4228294140 freq: 1
rob stalling non-critical load ip: 4228294156 freq: 7
rob stalling non-critical load ip: 4228294404 freq: 2
rob stalling non-critical load ip: 4228294420 freq: 6
rob stalling non-critical load ip: 4228342248 freq: 10
rob stalling non-critical load ip: 4228342268 freq: 2
rob stalling non-critical load ip: 4228342348 freq: 3
rob stalling non-critical load ip: 4228344572 freq: 25
rob stalling non-critical load ip: 4228351872 freq: 4
rob stalling non-critical load ip: 4228351920 freq: 14
rob stalling non-critical load ip: 4228351932 freq: 535
rob stalling non-critical load ip: 4228351972 freq: 7
rob stalling non-critical load ip: 4228351988 freq: 19
rob stalling non-critical load ip: 4228352000 freq: 10
rob stalling non-critical load ip: 4228352032 freq: 6
rob stalling non-critical load ip: 4228352040 freq: 1
rob stalling non-critical load ip: 4228352056 freq: 22
rob stalling non-critical load ip: 4228352068 freq: 14
rob stalling non-critical load ip: 4228352072 freq: 10
rob stalling non-critical load ip: 4228352076 freq: 15
rob stalling non-critical load ip: 4228352096 freq: 6
rob stalling non-critical load ip: 4228352124 freq: 4
rob stalling non-critical load ip: 4228352164 freq: 31
rob stalling non-critical load ip: 4228352204 freq: 4
rob stalling non-critical load ip: 4228352216 freq: 518
rob stalling non-critical load ip: 4228352264 freq: 9
rob stalling non-critical load ip: 4228352276 freq: 3
rob stalling non-critical load ip: 4228352332 freq: 3
rob stalling non-critical load ip: 4228352352 freq: 1
rob stalling non-critical load ip: 4228352708 freq: 15
rob stalling non-critical load ip: 4228353008 freq: 1
rob stalling non-critical load ip: 4228374508 freq: 5
rob stalling non-critical load ip: 4228374520 freq: 2
rob stalling non-critical load ip: 4228374536 freq: 6
rob stalling non-critical load ip: 4228374552 freq: 5
rob stalling non-critical load ip: 4228374588 freq: 26
rob stalling non-critical load ip: 4228374604 freq: 9
rob stalling non-critical load ip: 4228374628 freq: 1418
rob stalling non-critical load ip: 4228374708 freq: 32
rob stalling non-critical load ip: 4228374752 freq: 96
rob stalling non-critical load ip: 4228379228 freq: 49
rob stalling non-critical load ip: 4228379284 freq: 83
rob stalling non-critical load ip: 4228379288 freq: 157
rob stalling non-critical load ip: 4228379356 freq: 349
rob stalling non-critical load ip: 4228379372 freq: 81
rob stalling non-critical load ip: 4228382172 freq: 88
rob stalling non-critical load ip: 4228382208 freq: 86
rob stalling non-critical load ip: 4228382216 freq: 27
rob stalling non-critical load ip: 4228382224 freq: 6
rob stalling non-critical load ip: 4228382244 freq: 2
rob stalling non-critical load ip: 4228382320 freq: 204
rob stalling non-critical load ip: 4228382340 freq: 210
rob stalling non-critical load ip: 4228382388 freq: 5
rob stalling non-critical load ip: 4228382392 freq: 5
rob stalling non-critical load ip: 4228382404 freq: 2
rob stalling non-critical load ip: 4228382428 freq: 50
rob stalling non-critical load ip: 4228382440 freq: 54
rob stalling non-critical load ip: 4228382484 freq: 9
rob stalling non-critical load ip: 4228382488 freq: 3
rob stalling non-critical load ip: 4228382496 freq: 9
rob stalling non-critical load ip: 4228382520 freq: 4
rob stalling non-critical load ip: 4228382540 freq: 5
rob stalling non-critical load ip: 4228382552 freq: 52
rob stalling non-critical load ip: 4228382568 freq: 11
rob stalling non-critical load ip: 4228382644 freq: 7
rob stalling non-critical load ip: 4228382660 freq: 2
rob stalling non-critical load ip: 4228382676 freq: 12
rob stalling non-critical load ip: 4228382728 freq: 2
rob stalling non-critical load ip: 4228382744 freq: 42
rob stalling non-critical load ip: 4228382752 freq: 25
rob stalling non-critical load ip: 4228382764 freq: 36
rob stalling non-critical load ip: 4228382812 freq: 6
rob stalling non-critical load ip: 4228382824 freq: 129
rob stalling non-critical load ip: 4228382840 freq: 6
rob stalling non-critical load ip: 4228382900 freq: 7
rob stalling non-critical load ip: 4228383268 freq: 28
rob stalling non-critical load ip: 4228383280 freq: 14
rob stalling non-critical load ip: 4228383320 freq: 3
rob stalling non-critical load ip: 4228383332 freq: 24
rob stalling non-critical load ip: 4228383440 freq: 3
rob stalling non-critical load ip: 4228383456 freq: 16
rob stalling non-critical load ip: 4228383484 freq: 1
rob stalling non-critical load ip: 4228383496 freq: 12
rob stalling non-critical load ip: 4228383664 freq: 11
rob stalling non-critical load ip: 4228383680 freq: 7
rob stalling non-critical load ip: 4228383696 freq: 14
rob stalling non-critical load ip: 4228383740 freq: 14
rob stalling non-critical load ip: 4228445348 freq: 5
rob stalling non-critical load ip: 4228445368 freq: 4
rob stalling non-critical load ip: 4228445416 freq: 2
rob stalling non-critical load ip: 4228454784 freq: 1
rob stalling non-critical load ip: 4228454808 freq: 13
rob stalling non-critical load ip: 4228454848 freq: 2
rob stalling non-critical load ip: 4228455096 freq: 25
rob stalling non-critical load ip: 4228455104 freq: 7
rob stalling non-critical load ip: 4228455132 freq: 8
rob stalling non-critical load ip: 4228455148 freq: 6
rob stalling non-critical load ip: 4228455164 freq: 7
rob stalling non-critical load ip: 4228455180 freq: 66
rob stalling non-critical load ip: 4228455196 freq: 2
rob stalling non-critical load ip: 4228455212 freq: 4
rob stalling non-critical load ip: 4228455368 freq: 5
rob stalling non-critical load ip: 4228455376 freq: 1
rob stalling non-critical load ip: 4228455480 freq: 39
rob stalling non-critical load ip: 4228519200 freq: 4
rob stalling non-critical load ip: 4228527176 freq: 33
rob stalling non-critical load ip: 4228527220 freq: 30
rob stalling non-critical load ip: 4228527252 freq: 2
rob stalling non-critical load ip: 4228527308 freq: 29
rob stalling non-critical load ip: 4228527612 freq: 197
rob stalling non-critical load ip: 4228527636 freq: 22
rob stalling non-critical load ip: 4228527660 freq: 4
rob stalling non-critical load ip: 4228549216 freq: 3
rob stalling non-critical load ip: 4228549328 freq: 2
rob stalling non-critical load ip: 4228551228 freq: 2
rob stalling non-critical load ip: 4228551236 freq: 7
rob stalling non-critical load ip: 4228551276 freq: 6
rob stalling non-critical load ip: 4228551284 freq: 9
rob stalling non-critical load ip: 4228551292 freq: 8
rob stalling non-critical load ip: 4228551328 freq: 5
rob stalling non-critical load ip: 4228554508 freq: 7
rob stalling non-critical load ip: 4228554524 freq: 1
rob stalling non-critical load ip: 4228554568 freq: 2
rob stalling non-critical load ip: 4228559004 freq: 34
rob stalling non-critical load ip: 4228559032 freq: 5
rob stalling non-critical load ip: 4228559036 freq: 229
rob stalling non-critical load ip: 4228559144 freq: 47
rob stalling non-critical load ip: 4228559160 freq: 33
rob stalling non-critical load ip: 4228559180 freq: 10
rob stalling non-critical load ip: 4228559200 freq: 21
rob stalling non-critical load ip: 4228559256 freq: 10
rob stalling non-critical load ip: 4228559288 freq: 28
rob stalling non-critical load ip: 4228559316 freq: 7
rob stalling non-critical load ip: 4228559336 freq: 7
rob stalling non-critical load ip: 4228559352 freq: 12
rob stalling non-critical load ip: 4228559416 freq: 8
rob stalling non-critical load ip: 4228559552 freq: 40
rob stalling non-critical load ip: 4228559564 freq: 4
rob stalling non-critical load ip: 4228559580 freq: 35
rob stalling non-critical load ip: 4228559600 freq: 2
rob stalling non-critical load ip: 4228559612 freq: 15
rob stalling non-critical load ip: 4228559624 freq: 3
rob stalling non-critical load ip: 4228559636 freq: 15
rob stalling non-critical load ip: 4228559708 freq: 2
[...]
Critical_ROB_Stalls_Percent_1_Bucket_6: 935
Non-critical_ROB_Stalls_Percent_1_Bucket_6: 5053
Critical_ROB_Stalls_Percent_2_Bucket_0: 311785
Non-critical_ROB_Stalls_Percent_2_Bucket_0: 194587
Critical_ROB_Stalls_Percent_2_Bucket_1: 39572
Non-critical_ROB_Stalls_Percent_2_Bucket_1: 34554
Critical_ROB_Stalls_Percent_2_Bucket_2: 2576
Non-critical_ROB_Stalls_Percent_2_Bucket_2: 7244
Critical_ROB_Stalls_Percent_2_Bucket_3: 1970
Non-critical_ROB_Stalls_Percent_2_Bucket_3: 2796
Critical_ROB_Stalls_Percent_2_Bucket_4: 1527
Non-critical_ROB_Stalls_Percent_2_Bucket_4: 1665
Critical_ROB_Stalls_Percent_2_Bucket_5: 908
Non-critical_ROB_Stalls_Percent_2_Bucket_5: 1394
Critical_ROB_Stalls_Percent_2_Bucket_6: 938
Non-critical_ROB_Stalls_Percent_2_Bucket_6: 5050
Critical_ROB_Stalls_Percent_3_Bucket_0: 335949
Non-critical_ROB_Stalls_Percent_3_Bucket_0: 170423
Critical_ROB_Stalls_Percent_3_Bucket_1: 42652
Non-critical_ROB_Stalls_Percent_3_Bucket_1: 31474
Critical_ROB_Stalls_Percent_3_Bucket_2: 3242
Non-critical_ROB_Stalls_Percent_3_Bucket_2: 6578
Critical_ROB_Stalls_Percent_3_Bucket_3: 2088
Non-critical_ROB_Stalls_Percent_3_Bucket_3: 2678
Critical_ROB_Stalls_Percent_3_Bucket_4: 1599
Non-critical_ROB_Stalls_Percent_3_Bucket_4: 1593
Critical_ROB_Stalls_Percent_3_Bucket_5: 1084
Non-critical_ROB_Stalls_Percent_3_Bucket_5: 1218
Critical_ROB_Stalls_Percent_3_Bucket_6: 1905
Non-critical_ROB_Stalls_Percent_3_Bucket_6: 4083
Critical_ROB_Stalls_Percent_4_Bucket_0: 359342
Non-critical_ROB_Stalls_Percent_4_Bucket_0: 147030
Critical_ROB_Stalls_Percent_4_Bucket_1: 46106
Non-critical_ROB_Stalls_Percent_4_Bucket_1: 28020
Critical_ROB_Stalls_Percent_4_Bucket_2: 4262
Non-critical_ROB_Stalls_Percent_4_Bucket_2: 5558
Critical_ROB_Stalls_Percent_4_Bucket_3: 2405
Non-critical_ROB_Stalls_Percent_4_Bucket_3: 2361
Critical_ROB_Stalls_Percent_4_Bucket_4: 1931
Non-critical_ROB_Stalls_Percent_4_Bucket_4: 1261
Critical_ROB_Stalls_Percent_4_Bucket_5: 1279
Non-critical_ROB_Stalls_Percent_4_Bucket_5: 1023
Critical_ROB_Stalls_Percent_4_Bucket_6: 2113
Non-critical_ROB_Stalls_Percent_4_Bucket_6: 3875
Critical_ROB_Stalls_Percent_5_Bucket_0: 383789
Non-critical_ROB_Stalls_Percent_5_Bucket_0: 122583
Critical_ROB_Stalls_Percent_5_Bucket_1: 50068
Non-critical_ROB_Stalls_Percent_5_Bucket_1: 24058
Critical_ROB_Stalls_Percent_5_Bucket_2: 4680
Non-critical_ROB_Stalls_Percent_5_Bucket_2: 5140
Critical_ROB_Stalls_Percent_5_Bucket_3: 2594
Non-critical_ROB_Stalls_Percent_5_Bucket_3: 2172
Critical_ROB_Stalls_Percent_5_Bucket_4: 2070
Non-critical_ROB_Stalls_Percent_5_Bucket_4: 1122
Critical_ROB_Stalls_Percent_5_Bucket_5: 1359
Non-critical_ROB_Stalls_Percent_5_Bucket_5: 943
Critical_ROB_Stalls_Percent_5_Bucket_6: 2865
Non-critical_ROB_Stalls_Percent_5_Bucket_6: 3123
Critical_ROB_Stalls_Percent_6_Bucket_0: 408041
Non-critical_ROB_Stalls_Percent_6_Bucket_0: 98331
Critical_ROB_Stalls_Percent_6_Bucket_1: 54141
Non-critical_ROB_Stalls_Percent_6_Bucket_1: 19985
Critical_ROB_Stalls_Percent_6_Bucket_2: 5487
Non-critical_ROB_Stalls_Percent_6_Bucket_2: 4333
Critical_ROB_Stalls_Percent_6_Bucket_3: 2839
Non-critical_ROB_Stalls_Percent_6_Bucket_3: 1927
Critical_ROB_Stalls_Percent_6_Bucket_4: 2178
Non-critical_ROB_Stalls_Percent_6_Bucket_4: 1014
Critical_ROB_Stalls_Percent_6_Bucket_5: 1411
Non-critical_ROB_Stalls_Percent_6_Bucket_5: 891
Critical_ROB_Stalls_Percent_6_Bucket_6: 3036
Non-critical_ROB_Stalls_Percent_6_Bucket_6: 2952
Critical_ROB_Stalls_Percent_7_Bucket_0: 432228
Non-critical_ROB_Stalls_Percent_7_Bucket_0: 74144
Critical_ROB_Stalls_Percent_7_Bucket_1: 57252
Non-critical_ROB_Stalls_Percent_7_Bucket_1: 16874
Critical_ROB_Stalls_Percent_7_Bucket_2: 6227
Non-critical_ROB_Stalls_Percent_7_Bucket_2: 3593
Critical_ROB_Stalls_Percent_7_Bucket_3: 3201
Non-critical_ROB_Stalls_Percent_7_Bucket_3: 1565
Critical_ROB_Stalls_Percent_7_Bucket_4: 2377
Non-critical_ROB_Stalls_Percent_7_Bucket_4: 815
Critical_ROB_Stalls_Percent_7_Bucket_5: 1672
Non-critical_ROB_Stalls_Percent_7_Bucket_5: 630
Critical_ROB_Stalls_Percent_7_Bucket_6: 4065
Non-critical_ROB_Stalls_Percent_7_Bucket_6: 1923
Critical_ROB_Stalls_Percent_8_Bucket_0: 453685
Non-critical_ROB_Stalls_Percent_8_Bucket_0: 52687
Critical_ROB_Stalls_Percent_8_Bucket_1: 62977
Non-critical_ROB_Stalls_Percent_8_Bucket_1: 11149
Critical_ROB_Stalls_Percent_8_Bucket_2: 7353
Non-critical_ROB_Stalls_Percent_8_Bucket_2: 2467
Critical_ROB_Stalls_Percent_8_Bucket_3: 3625
Non-critical_ROB_Stalls_Percent_8_Bucket_3: 1141
Critical_ROB_Stalls_Percent_8_Bucket_4: 2627
Non-critical_ROB_Stalls_Percent_8_Bucket_4: 565
Critical_ROB_Stalls_Percent_8_Bucket_5: 1861
Non-critical_ROB_Stalls_Percent_8_Bucket_5: 441
Critical_ROB_Stalls_Percent_8_Bucket_6: 4655
Non-critical_ROB_Stalls_Percent_8_Bucket_6: 1333
Average ROB occupancy Load Stall Begin: 32.3141
Average ROB occupancy Load Stall End: 38.3359
Min ROB occupancy Load Stall Begin: 1
Max ROB occupancy Load Stall Begin: 351
Min ROB occupancy Load Stall End: 1
Max ROB occupancy Load Stall End: 352
Average ROB occupancy Critical Load Stall Begin: -nan
Average ROB occupancy Critical Load Stall End: -nan
Min ROB occupancy Critical Load Stall Begin: 400
Max ROB occupancy Critical Load Stall Begin: 0
Min ROB occupancy Critical Load Stall End: 400
Max ROB occupancy Critical Load Stall End: 0
 ROB Load Stall Begin Bucket Count 0: 522389
 ROB Load Stall End Bucket Count 0: 506372
 ROB Critical Load Stall Begin Bucket Count 0: 0
 ROB Critical Load Stall End Bucket Count 0: 0
 ROB Load Stall Begin Bucket Count 1: 62337
 ROB Load Stall End Bucket Count 1: 74126
 ROB Critical Load Stall Begin Bucket Count 1: 0
 ROB Critical Load Stall End Bucket Count 1: 0
 ROB Load Stall Begin Bucket Count 2: 8333
 ROB Load Stall End Bucket Count 2: 9820
 ROB Critical Load Stall Begin Bucket Count 2: 0
 ROB Critical Load Stall End Bucket Count 2: 0
 ROB Load Stall Begin Bucket Count 3: 3494
 ROB Load Stall End Bucket Count 3: 4766
 ROB Critical Load Stall Begin Bucket Count 3: 0
 ROB Critical Load Stall End Bucket Count 3: 0
 ROB Load Stall Begin Bucket Count 4: 2684
 ROB Load Stall End Bucket Count 4: 3192
 ROB Critical Load Stall Begin Bucket Count 4: 0
 ROB Critical Load Stall End Bucket Count 4: 0
 ROB Load Stall Begin Bucket Count 5: 2479
 ROB Load Stall End Bucket Count 5: 2302
 ROB Critical Load Stall Begin Bucket Count 5: 0
 ROB Critical Load Stall End Bucket Count 5: 0
 ROB Load Stall Begin Bucket Count 6: 4850
 ROB Load Stall End Bucket Count 6: 5988
 ROB Critical Load Stall Begin Bucket Count 6: 0
 ROB Critical Load Stall End Bucket Count 6: 0
PIST Tag Read Accesses: 204474
PIST Read Accesses: 102237
PIST Tag Write Accesses: 204474
PIST Write Accesses: 102237
Criticality detector called times: 260447
Max global_stall_cycles_count: 377736
Threshold Modified: 2 times, factor: -2
Sturdy critical IP cache stats: 
 Unused entries: 0
CIC Tag Read Accesses: 0
CIC Read Accesses: 0
CIC Tag Write Accesses: 0
CIC Write Accesses: 0
Wobbly critical IP cache stats: 
 Unused entries: 93
CIC Tag Read Accesses: 51307540
CIC Read Accesses: 0
CIC Tag Write Accesses: 335
CIC Write Accesses: 0
ITLB TOTAL     ACCESS:    7512329  HIT:    6997259  MISS:     515070  HIT %:    93.1437  MISS %:    6.85633   MPKI: 10.3014
ITLB LOAD TRANSLATION ACCESS:    7512329  HIT:    6997259  MISS:     515070  HIT %:    93.1437  MISS %:    6.85633   MPKI: 10.3014
ITLB PREFETCH  REQUESTED:          0  ISSUED:          0  USEFUL:          0  USELESS:          0
ITLB USEFUL LOAD PREFETCHES:          0 PREFETCH ISSUED TO LOWER LEVEL:          0  ACCURACY: -nan
ITLB TIMELY PREFETCHES:          0 LATE PREFETCHES: 0 DROPPED PREFETCHES: 0
ITLB PREFETCHES SAME FILL-ORIGIN LEVEL: 0 DIFFERENT FILL-ORIGIN LEVEL: 0
ITLB AVERAGE MISS LATENCY: 30.0113 cycles
ITLB RQ	ACCESS:    9692646	FORWARD:          0	MERGED:    1975513	TO_CACHE:    7717133

DTLB TOTAL     ACCESS:    7586777  HIT:    5697768  MISS:    1889009  HIT %:    75.1013  MISS %:    24.8987   MPKI: 37.7802
DTLB LOAD TRANSLATION ACCESS:    7586777  HIT:    5697768  MISS:    1889009  HIT %:    75.1013  MISS %:    24.8987   MPKI: 37.7802
DTLB PREFETCH  REQUESTED:          0  ISSUED:          0  USEFUL:          0  USELESS:          0
DTLB USEFUL LOAD PREFETCHES:          0 PREFETCH ISSUED TO LOWER LEVEL:          0  ACCURACY: -nan
DTLB TIMELY PREFETCHES:          0 LATE PREFETCHES: 0 DROPPED PREFETCHES: 0
DTLB PREFETCHES SAME FILL-ORIGIN LEVEL: 0 DIFFERENT FILL-ORIGIN LEVEL: 0
DTLB AVERAGE MISS LATENCY: 20.6047 cycles
DTLB RQ	ACCESS:    9955984	FORWARD:          0	MERGED:    2152587	TO_CACHE:    7803397

STLB TOTAL     ACCESS:    2404079  HIT:    1073302  MISS:    1330777  HIT %:     44.645  MISS %:     55.355   MPKI: 26.6155
STLB LOAD TRANSLATION ACCESS:    2404079  HIT:    1073302  MISS:    1330777  HIT %:     44.645  MISS %:     55.355   MPKI: 26.6155
STLB PREFETCH  REQUESTED:          0  ISSUED:          0  USEFUL:          0  USELESS:          0
STLB USEFUL LOAD PREFETCHES:          0 PREFETCH ISSUED TO LOWER LEVEL:          0  ACCURACY: -nan
STLB TIMELY PREFETCHES:          0 LATE PREFETCHES: 0 DROPPED PREFETCHES: 0
STLB PREFETCHES SAME FILL-ORIGIN LEVEL: 0 DIFFERENT FILL-ORIGIN LEVEL: 0
STLB AVERAGE MISS LATENCY: 24.5237 cycles
STLB RQ	ACCESS:    2404079	FORWARD:          0	MERGED:          0	TO_CACHE:    2404079

STLB Hit, L1D data hit: 0
STLB Hit, L2C data hit: 0
STLB Hit, LLC data hit: 0
STLB Hit, LLC data miss: 0
STLB STLB hints to L2: 0
L1D TOTAL     ACCESS:    9784835  HIT:    9549937  MISS:     234898  HIT %:    97.5994  MISS %:    2.40063   MPKI: 4.69796
L1D LOAD      ACCESS:    5513274  HIT:    5319944  MISS:     193330  HIT %:    96.4934  MISS %:    3.50663   MPKI: 3.8666
L1D RFO       ACCESS:    4271561  HIT:    4229993  MISS:      41568  HIT %:    99.0269  MISS %:   0.973134   MPKI: 0.83136
L1D PREFETCH  REQUESTED:          0  ISSUED:          0  USEFUL:          0  USELESS:          0
L1D USEFUL LOAD PREFETCHES:          0 PREFETCH ISSUED TO LOWER LEVEL:          0  ACCURACY: -nan
L1D TIMELY PREFETCHES:          0 LATE PREFETCHES: 0 DROPPED PREFETCHES: 0
L1D PREFETCHES SAME FILL-ORIGIN LEVEL: 0 DIFFERENT FILL-ORIGIN LEVEL: 0
L1D AVERAGE MISS LATENCY: 71.7331 cycles
L1D RQ	ACCESS:    8431014	FORWARD:          0	MERGED:    2842379	TO_CACHE:    5524872
L1D WQ	ACCESS:    4663889	FORWARD:      63763	MERGED:     232777	TO_CACHE:    4431112

L1D UNIQUE REGIONS ACCESSED: 0
L1D REGIONS CONFLICTS: 0
L1D Cross Page Prefetch Requests: 0
L1D Same Page Prefetch Requests: 0
L1D ROI Sum of L1D PQ occupancy: 0
L1D PREFETCHES PUSHED FROM L2C: 0
L1I TOTAL     ACCESS:    9611300  HIT:    9361819  MISS:     249481  HIT %:    97.4043  MISS %:    2.59571   MPKI: 4.98962
L1I LOAD      ACCESS:    9611300  HIT:    9361819  MISS:     249481  HIT %:    97.4043  MISS %:    2.59571   MPKI: 4.98962
L1I PREFETCH  REQUESTED:          0  ISSUED:          0  USEFUL:          0  USELESS:          0
L1I USEFUL LOAD PREFETCHES:          0 PREFETCH ISSUED TO LOWER LEVEL:          0  ACCURACY: -nan
L1I TIMELY PREFETCHES:          0 LATE PREFETCHES: 0 DROPPED PREFETCHES: 0
L1I PREFETCHES SAME FILL-ORIGIN LEVEL: 0 DIFFERENT FILL-ORIGIN LEVEL: 0
L1I AVERAGE MISS LATENCY: 27.3943 cycles
L1I RQ	ACCESS:   15834432	FORWARD:          0	MERGED:    6141786	TO_CACHE:    9692646

BTB BRANCH_DIRECT_JUMP	ACCESS:          0  HIT:          0  MISS:          0
BTB BRANCH_INDIRECT	ACCESS:          0  HIT:          0  MISS:          0
BTB BRANCH_CONDITIONAL	ACCESS:          0  HIT:          0  MISS:          0
BTB BRANCH_DIRECT_CALL	ACCESS:          0  HIT:          0  MISS:          0
BTB BRANCH_INDIRECT_CALL	ACCESS:          0  HIT:          0  MISS:          0
BTB BRANCH_RETURN	ACCESS:          0  HIT:          0  MISS:          0
BTB BRANCH_OTHER ACCESS:          0  HIT:          0  MISS:          0

L2C TOTAL     ACCESS:    2149530  HIT:    1901940  MISS:     247590  HIT %:    88.4817  MISS %:    11.5183   MPKI: 4.9518
L2C LOAD      ACCESS:     442798  HIT:     359956  MISS:      82842  HIT %:    81.2912  MISS %:    18.7088   MPKI: 1.65684
L2C DATA LOAD MPKI: 0.85952
L2C INSTRUCTION LOAD MPKI: 0.79732
L2C RFO       ACCESS:      41567  HIT:      14882  MISS:      26685  HIT %:    35.8024  MISS %:    64.1976   MPKI: 0.5337
L2C PREFETCH  ACCESS:     153265  HIT:      23922  MISS:     129343  HIT %:    15.6083  MISS %:    84.3917   MPKI: 2.58686
L2C DATA PREFETCH MPKI: 2.58686
L2C INSTRUCTION PREFETCH MPKI: 0
L2C WRITEBACK ACCESS:     141718  HIT:     138920  MISS:       2798  HIT %:    98.0257  MISS %:    1.97434   MPKI: 0.05596
L2C LOAD TRANSLATION ACCESS:    1370182  HIT:    1364260  MISS:       5922  HIT %:    99.5678  MISS %:   0.432205   MPKI: 0.11844
L2C PREFETCH  REQUESTED:     159177  ISSUED:     159177  USEFUL:     106597  USELESS:      22864
L2C USEFUL LOAD PREFETCHES:     106597 PREFETCH ISSUED TO LOWER LEVEL:     132621  ACCURACY: 80.3772
L2C TIMELY PREFETCHES:     106597 LATE PREFETCHES: 3278 DROPPED PREFETCHES: 0
L2C PREFETCHES SAME FILL-ORIGIN LEVEL: 132621 DIFFERENT FILL-ORIGIN LEVEL: 0
L2C AVERAGE MISS LATENCY: 171.492 cycles
L2C RQ	ACCESS:    1854562	FORWARD:          0	MERGED:          0	TO_CACHE:    1854551
L2C WQ	ACCESS:     141718	FORWARD:         12	MERGED:          0	TO_CACHE:     141718
L2C PQ	ACCESS:     159177	FORWARD:          0	MERGED:          0	TO_CACHE:     159176

L2C Instructions Evicting Data 29179
L2C Translations Evicting Data 4664
L2C Data Evicting Data 163650
L2C Instructions Evicting Instructions 9583
L2C Translations Evicting Instructions 1090
L2C Data Evicting Instructions 30490
L2C Instructions Evicting Translations 1104
L2C Translations Evicting Translations 168
L2C Data Evicting Translations 4864
L2C Dense regions hint from L2: 0
PSCL5 TOTAL     ACCESS:    1330777  HIT:    1330777  MISS:          0  HIT %:        100  MISS %:          0   MPKI: 0
PSCL5 LOAD TRANSLATION ACCESS:    1330777  HIT:    1330777  MISS:          0  HIT %:        100  MISS %:          0   MPKI: 0
PSCL5 PREFETCH  REQUESTED:          0  ISSUED:          0  USEFUL:          0  USELESS:          0
PSCL5 USEFUL LOAD PREFETCHES:          0 PREFETCH ISSUED TO LOWER LEVEL:          0  ACCURACY: -nan
PSCL5 TIMELY PREFETCHES:          0 LATE PREFETCHES: 0 DROPPED PREFETCHES: 0
PSCL5 PREFETCHES SAME FILL-ORIGIN LEVEL: 0 DIFFERENT FILL-ORIGIN LEVEL: 0

PSCL4 TOTAL     ACCESS:    1323798  HIT:    1323638  MISS:        160  HIT %:    99.9879  MISS %:  0.0120864   MPKI: 0.0032
PSCL4 LOAD TRANSLATION ACCESS:    1323798  HIT:    1323638  MISS:        160  HIT %:    99.9879  MISS %:  0.0120864   MPKI: 0.0032
PSCL4 PREFETCH  REQUESTED:          0  ISSUED:          0  USEFUL:          0  USELESS:          0
PSCL4 USEFUL LOAD PREFETCHES:          0 PREFETCH ISSUED TO LOWER LEVEL:          0  ACCURACY: -nan
PSCL4 TIMELY PREFETCHES:          0 LATE PREFETCHES: 0 DROPPED PREFETCHES: 0
PSCL4 PREFETCHES SAME FILL-ORIGIN LEVEL: 0 DIFFERENT FILL-ORIGIN LEVEL: 0

PSCL3 TOTAL     ACCESS:    1323854  HIT:    1322517  MISS:       1337  HIT %:     99.899  MISS %:   0.100993   MPKI: 0.02674
PSCL3 LOAD TRANSLATION ACCESS:    1323854  HIT:    1322517  MISS:       1337  HIT %:     99.899  MISS %:   0.100993   MPKI: 0.02674
PSCL3 PREFETCH  REQUESTED:          0  ISSUED:          0  USEFUL:          0  USELESS:          0
PSCL3 USEFUL LOAD PREFETCHES:          0 PREFETCH ISSUED TO LOWER LEVEL:          0  ACCURACY: -nan
PSCL3 TIMELY PREFETCHES:          0 LATE PREFETCHES: 0 DROPPED PREFETCHES: 0
PSCL3 PREFETCHES SAME FILL-ORIGIN LEVEL: 0 DIFFERENT FILL-ORIGIN LEVEL: 0

PSCL2 TOTAL     ACCESS:    1330777  HIT:    1292784  MISS:      37993  HIT %:    97.1451  MISS %:    2.85495   MPKI: 0.75986
PSCL2 LOAD TRANSLATION ACCESS:    1330777  HIT:    1292784  MISS:      37993  HIT %:    97.1451  MISS %:    2.85495   MPKI: 0.75986
PSCL2 PREFETCH  REQUESTED:          0  ISSUED:          0  USEFUL:          0  USELESS:          0
PSCL2 USEFUL LOAD PREFETCHES:          0 PREFETCH ISSUED TO LOWER LEVEL:          0  ACCURACY: -nan
PSCL2 TIMELY PREFETCHES:          0 LATE PREFETCHES: 0 DROPPED PREFETCHES: 0
PSCL2 PREFETCHES SAME FILL-ORIGIN LEVEL: 0 DIFFERENT FILL-ORIGIN LEVEL: 0

LLC TOTAL     ACCESS:     362718  HIT:     185064  MISS:     177654  HIT %:    51.0215  MISS %:    48.9785   MPKI: 3.55308
LLC LOAD      ACCESS:      79567  HIT:      40982  MISS:      38585  HIT %:    51.5063  MISS %:    48.4937   MPKI: 0.7717
LLC RFO       ACCESS:      26682  HIT:       3251  MISS:      23431  HIT %:    12.1842  MISS %:    87.8158   MPKI: 0.46862
LLC PREFETCH  ACCESS:     132621  HIT:      23458  MISS:     109163  HIT %:     17.688  MISS %:     82.312   MPKI: 2.18326
LLC WRITEBACK ACCESS:     117926  HIT:     113855  MISS:       4071  HIT %:    96.5478  MISS %:    3.45216   MPKI: 0.08142
LLC LOAD TRANSLATION ACCESS:       5922  HIT:       3518  MISS:       2404  HIT %:    59.4056  MISS %:    40.5944   MPKI: 0.04808
LLC PREFETCH  REQUESTED:          0  ISSUED:          0  USEFUL:       6159  USELESS:     100153
LLC USEFUL LOAD PREFETCHES:       6159 PREFETCH ISSUED TO LOWER LEVEL:     109163  ACCURACY: 5.64202
LLC TIMELY PREFETCHES:       6159 LATE PREFETCHES: 0 DROPPED PREFETCHES: 0
LLC PREFETCHES SAME FILL-ORIGIN LEVEL: 0 DIFFERENT FILL-ORIGIN LEVEL: 0
LLC AVERAGE MISS LATENCY: 199.637 cycles
LLC RQ	ACCESS:     112173	FORWARD:          0	MERGED:          0	TO_CACHE:     112173
LLC WQ	ACCESS:     117926	FORWARD:          0	MERGED:          0	TO_CACHE:     117926
LLC PQ	ACCESS:     132621	FORWARD:          0	MERGED:          0	TO_CACHE:     132621

LLC Dense regions hint to LLC: 0

RAW hits: 444412
Loads Generated: 8875426
Loads sent to L1D: 8431014
Stores Generated: 4663884
Stores sent to L1D: 4663889
Major fault: 0 Minor fault: 7359
Allocated PAGES: 7359
[Bingo] PHT Access: 24173
[Bingo] PHT Hit PC+Addr: 5823
[Bingo] PHT Hit PC+Offs: 9889
[Bingo] PHT Miss: 8461
[Bingo] Prefetch PC+Addr: 0
[Bingo] Prefetch PC+Offs: 0
[Bingo] Useful PC+Addr: 0
[Bingo] Useful PC+Offs: 0
[Bingo] Useless PC+Addr: 0
[Bingo] Useless PC+Offs: 0
[Bingo] L1 Prefetch per Region: 0
[Bingo] L2 Prefetch per Region: 11.1902
[Bingo] L3 Prefetch per Region: 0
[Bingo] No Prefetch per Region: 20.8098
[Bingo] Number of Voters Mean: 10.8357
[Bingo] Number of Voters SD: 9.51974
PHT read accesses: 210923
PHT write accesses: 14203
AT read accesses: 174032
AT write accesses: 181595
FT read accesses: 48136
FT write accesses: 24173
PS read accesses: 37976
PS write accesses: 15712
PHT tag read accesses: 678603
PHT tag write accesses: 20026
AT tag read accesses: 7683176
AT tag write accesses: 188233
FT tag read accesses: 5446716
FT tag write accesses: 56355
PS tag read accesses: 3673473
PS tag write accesses: 53630

DRAM Statistics
 CHANNEL 0
 RQ ROW_BUFFER_HIT:      79306  ROW_BUFFER_MISS:      94271
 DBUS_CONGESTED:         74
 WQ ROW_BUFFER_HIT:      15171  ROW_BUFFER_MISS:      94754  FULL:          0

 AVG_CONGESTED_CYCLE: 4
 All warmup complete: 2
Channel 0 Bank busy for read cycles: 0
Channel 0 Bank busy for write cycles: 0
Channel 0
Rank 0
0banks busy for read cycles: 60315166
0banks busy for write cycles: 13856
1banks busy for read cycles: 3197158
1banks busy for write cycles: 1601381
2banks busy for read cycles: 924705
2banks busy for write cycles: 723586
3banks busy for read cycles: 346608
3banks busy for write cycles: 494533
4banks busy for read cycles: 195673
4banks busy for write cycles: 387560
5banks busy for read cycles: 151965
5banks busy for write cycles: 329513
6banks busy for read cycles: 173467
6banks busy for write cycles: 327691
7banks busy for read cycles: 261756
7banks busy for write cycles: 397948
8banks busy for read cycles: 966555
8banks busy for write cycles: 852963

CPU 0 Branch Prediction Accuracy: 98.2508% MPKI: 3.03528 Average ROB Occupancy at Mispredict: 32.3901
Branch types
NOT_BRANCH: 0 0%
BRANCH_DIRECT_JUMP: 0 0%
BRANCH_INDIRECT: 0 0%
BRANCH_CONDITIONAL: 0 0%
BRANCH_DIRECT_CALL: 0 0%
BRANCH_INDIRECT_CALL: 0 0%
BRANCH_RETURN: 0 0%
BRANCH_OTHER: 0 0%

DRAM PAGES: 1048576
Allocated PAGES: 7359
