
*** ChampSim Multicore Out-of-Order Simulator ***

Warmup Instructions: 50000000
Simulation Instructions: 50000000
Number of CPUs: 1
LLC sets: 2048
LLC ways: 16
Off-chip DRAM Size: 4096 MB Channels: 1 Width: 64-bit Data Rate: 6400 MT/s
CPU 0 runs ../cloudsuite_traces//nutch_phase3_core1.trace.gz
.gz
NUM_OF_IPS_IN_CRITICAL_IP_TRAINING: 64
NUM_OF_CRITICAL_IP_TRAINING_TABLE_WAYS: 2
NUM_OF_CRITICAL_IP_TRAINING_TABLE_SETS: 32
WOBBLY_CRITICAL_IP_CACHE_SETS: 32
WOBBLY_CRITICAL_IP_CACHE_WAYS: 4
BTB has LRU replacement policy
ITLB has LRU replacement policy
DTLB has LRU replacement policy
STLB has LRU replacement policy
L1I has LRU replacement policy
L1D has LRU replacement policy
Bingo PHT WAYS: 16 and PHT_SIZE: 16384
Initialize SRRIP state for L2C
Initialize DRRIP state for LLC
UNIQUE_ASID[0] = €
UNIQUE_ASID[1] = 
Heartbeat CPU 0 instructions: 10000001 cycles: 2805126 heartbeat IPC: 3.5649 cumulative IPC: 3.5649 (Simulation time: 0 hr 3 min 19 sec) 
Heartbeat CPU 0 instructions: 20000001 cycles: 5656388 heartbeat IPC: 3.50722 cumulative IPC: 3.53583 (Simulation time: 0 hr 6 min 15 sec) 
Heartbeat CPU 0 instructions: 30000003 cycles: 8468625 heartbeat IPC: 3.55589 cumulative IPC: 3.54249 (Simulation time: 0 hr 9 min 5 sec) 
Heartbeat CPU 0 instructions: 40000002 cycles: 11384120 heartbeat IPC: 3.42995 cumulative IPC: 3.51367 (Simulation time: 0 hr 12 min 13 sec) 
Heartbeat CPU 0 instructions: 50000001 cycles: 14183578 heartbeat IPC: 3.57212 cumulative IPC: 3.5252 (Simulation time: 0 hr 14 min 51 sec) 

Warmup complete CPU 0 instructions: 50000001 cycles: 14183578 (Simulation time: 0 hr 14 min 51 sec) 

% increase in all ip prefetch 324.646
% increase in all ip prefetch -3.91777
Heartbeat CPU 0 instructions: 60000000 cycles: 28299862 heartbeat IPC: 0.708402 cumulative IPC: 0.708402 (Simulation time: 0 hr 18 min 51 sec) 
Heartbeat CPU 0 instructions: 70000000 cycles: 43310714 heartbeat IPC: 0.666185 cumulative IPC: 0.686645 (Simulation time: 0 hr 22 min 44 sec) 
Heartbeat CPU 0 instructions: 80000001 cycles: 57312902 heartbeat IPC: 0.714174 cumulative IPC: 0.695582 (Simulation time: 0 hr 26 min 22 sec) 
Heartbeat CPU 0 instructions: 90000000 cycles: 72194763 heartbeat IPC: 0.671959 cumulative IPC: 0.689522 (Simulation time: 0 hr 30 min 2 sec) 
Heartbeat CPU 0 instructions: 100000001 cycles: 83814103 heartbeat IPC: 0.860634 cumulative IPC: 0.718076 (Simulation time: 0 hr 33 min 47 sec) 
Finished CPU 0 instructions: 50000000 cycles: 69630525 cumulative IPC: 0.718076 (Simulation time: 0 hr 33 min 47 sec) 

ChampSim completed all CPUs

Region of Interest Statistics

CPU 0 cumulative IPC: 0.718076 instructions: 50000000 cycles: 69630525

CPU 0 Average Load ROB stall cycles: 5.58047e+06
CPU 0 Fraction of times ROB stalled by Loads: 11.7386
CPU 0 Percentage of Load stall cycles in Total stall cycles: 7.35328e+07
 Total stall cycles: 36427059
 Total load stall cycles: 26785818593030
CPU 0 NUM of IPS identified critical: 0
CPU 0 Num of Load IPs stalling ROB: 4282
Threshold modification factor: -1
Max PIST entries: 64
Min PIST entries: 0
Avg PIST entries: 28.85
Critical IP stalls, total frequency: 0
rob stalling non-critical load ip: 16783496 freq: 27
rob stalling non-critical load ip: 16783504 freq: 3
rob stalling non-critical load ip: 16783512 freq: 13
rob stalling non-critical load ip: 16783516 freq: 1
rob stalling non-critical load ip: 16783524 freq: 2
rob stalling non-critical load ip: 16783532 freq: 46
rob stalling non-critical load ip: 16783536 freq: 2
rob stalling non-critical load ip: 16783552 freq: 103
rob stalling non-critical load ip: 16783556 freq: 4
rob stalling non-critical load ip: 16783564 freq: 81
rob stalling non-critical load ip: 16783572 freq: 18
rob stalling non-critical load ip: 16783752 freq: 483
rob stalling non-critical load ip: 16783760 freq: 22
rob stalling non-critical load ip: 16783768 freq: 72
rob stalling non-critical load ip: 16783780 freq: 196
rob stalling non-critical load ip: 16783784 freq: 19
rob stalling non-critical load ip: 16783788 freq: 465
rob stalling non-critical load ip: 16783800 freq: 49
rob stalling non-critical load ip: 16783804 freq: 5
rob stalling non-critical load ip: 16783808 freq: 522
rob stalling non-critical load ip: 16783820 freq: 492
rob stalling non-critical load ip: 16783824 freq: 1
rob stalling non-critical load ip: 16783828 freq: 102
rob stalling non-critical load ip: 16784128 freq: 300
rob stalling non-critical load ip: 16784148 freq: 10
rob stalling non-critical load ip: 16784152 freq: 500
rob stalling non-critical load ip: 16784176 freq: 17
rob stalling non-critical load ip: 16800136 freq: 3
rob stalling non-critical load ip: 16800176 freq: 2
rob stalling non-critical load ip: 16800192 freq: 33
rob stalling non-critical load ip: 16803568 freq: 1
rob stalling non-critical load ip: 16806692 freq: 10
rob stalling non-critical load ip: 16807120 freq: 495
rob stalling non-critical load ip: 16807124 freq: 41
rob stalling non-critical load ip: 16807128 freq: 7
rob stalling non-critical load ip: 16807136 freq: 15
rob stalling non-critical load ip: 16807188 freq: 10
rob stalling non-critical load ip: 16807200 freq: 20
rob stalling non-critical load ip: 16807208 freq: 1
rob stalling non-critical load ip: 16807220 freq: 31
rob stalling non-critical load ip: 16807228 freq: 37
rob stalling non-critical load ip: 16807244 freq: 8
rob stalling non-critical load ip: 16807256 freq: 9
rob stalling non-critical load ip: 16807260 freq: 16
rob stalling non-critical load ip: 16807264 freq: 2
rob stalling non-critical load ip: 16807268 freq: 58
rob stalling non-critical load ip: 16807344 freq: 111
rob stalling non-critical load ip: 16807392 freq: 795
rob stalling non-critical load ip: 16807908 freq: 6
rob stalling non-critical load ip: 16807956 freq: 5
rob stalling non-critical load ip: 16807984 freq: 1
rob stalling non-critical load ip: 16808012 freq: 1
rob stalling non-critical load ip: 16808024 freq: 4
rob stalling non-critical load ip: 16809664 freq: 1
rob stalling non-critical load ip: 16812716 freq: 188
rob stalling non-critical load ip: 16812908 freq: 11
rob stalling non-critical load ip: 16813176 freq: 94
rob stalling non-critical load ip: 16813308 freq: 106
rob stalling non-critical load ip: 16813436 freq: 16
rob stalling non-critical load ip: 16813584 freq: 38
rob stalling non-critical load ip: 16813680 freq: 5
rob stalling non-critical load ip: 16813704 freq: 15
rob stalling non-critical load ip: 16813760 freq: 14
rob stalling non-critical load ip: 16813800 freq: 3
rob stalling non-critical load ip: 16815308 freq: 3
rob stalling non-critical load ip: 16815860 freq: 3
rob stalling non-critical load ip: 16817700 freq: 1
rob stalling non-critical load ip: 16817844 freq: 3
rob stalling non-critical load ip: 16819192 freq: 4
rob stalling non-critical load ip: 16820836 freq: 1
rob stalling non-critical load ip: 16821280 freq: 6
rob stalling non-critical load ip: 16821296 freq: 5
rob stalling non-critical load ip: 16821308 freq: 8
rob stalling non-critical load ip: 16821452 freq: 3
rob stalling non-critical load ip: 16821464 freq: 1
rob stalling non-critical load ip: 16821732 freq: 7
rob stalling non-critical load ip: 16821800 freq: 1
rob stalling non-critical load ip: 16821840 freq: 4
rob stalling non-critical load ip: 16821912 freq: 13
rob stalling non-critical load ip: 16821956 freq: 1
rob stalling non-critical load ip: 16821980 freq: 3
rob stalling non-critical load ip: 16822004 freq: 9
rob stalling non-critical load ip: 16822020 freq: 2
rob stalling non-critical load ip: 16822116 freq: 3
rob stalling non-critical load ip: 16822264 freq: 4
rob stalling non-critical load ip: 16822276 freq: 7
rob stalling non-critical load ip: 16822500 freq: 1
rob stalling non-critical load ip: 16822788 freq: 3
rob stalling non-critical load ip: 16823128 freq: 6
rob stalling non-critical load ip: 16823852 freq: 10
rob stalling non-critical load ip: 16824200 freq: 1
rob stalling non-critical load ip: 16829384 freq: 1
rob stalling non-critical load ip: 16845328 freq: 4
rob stalling non-critical load ip: 16851080 freq: 10
rob stalling non-critical load ip: 16851160 freq: 2
rob stalling non-critical load ip: 16851340 freq: 4
rob stalling non-critical load ip: 16851388 freq: 22
rob stalling non-critical load ip: 16851472 freq: 3
rob stalling non-critical load ip: 16851552 freq: 7
rob stalling non-critical load ip: 16851564 freq: 2
rob stalling non-critical load ip: 16851576 freq: 1
rob stalling non-critical load ip: 16851588 freq: 50
rob stalling non-critical load ip: 16851600 freq: 4
rob stalling non-critical load ip: 16851632 freq: 4
rob stalling non-critical load ip: 16851652 freq: 62
rob stalling non-critical load ip: 16851728 freq: 13
rob stalling non-critical load ip: 16856788 freq: 1
rob stalling non-critical load ip: 16857048 freq: 1
rob stalling non-critical load ip: 16891612 freq: 6
rob stalling non-critical load ip: 16891620 freq: 9
rob stalling non-critical load ip: 16891628 freq: 9
rob stalling non-critical load ip: 16891664 freq: 1
rob stalling non-critical load ip: 16891924 freq: 1
rob stalling non-critical load ip: 16892024 freq: 1
rob stalling non-critical load ip: 16892028 freq: 3
rob stalling non-critical load ip: 16892172 freq: 1
rob stalling non-critical load ip: 16892324 freq: 5
rob stalling non-critical load ip: 16894836 freq: 1
rob stalling non-critical load ip: 16895856 freq: 1
rob stalling non-critical load ip: 16900600 freq: 6
rob stalling non-critical load ip: 16900708 freq: 2
rob stalling non-critical load ip: 16917116 freq: 343
rob stalling non-critical load ip: 16917124 freq: 413
rob stalling non-critical load ip: 16917772 freq: 176
rob stalling non-critical load ip: 16946620 freq: 4
rob stalling non-critical load ip: 16947160 freq: 1
rob stalling non-critical load ip: 16947784 freq: 1
rob stalling non-critical load ip: 17022708 freq: 30
rob stalling non-critical load ip: 17022764 freq: 2
rob stalling non-critical load ip: 17046116 freq: 269
rob stalling non-critical load ip: 17046128 freq: 408
rob stalling non-critical load ip: 17046160 freq: 1
rob stalling non-critical load ip: 17046224 freq: 183
rob stalling non-critical load ip: 17046228 freq: 373
rob stalling non-critical load ip: 17046240 freq: 64
rob stalling non-critical load ip: 17046320 freq: 22
rob stalling non-critical load ip: 17046324 freq: 1901
rob stalling non-critical load ip: 17046340 freq: 1
rob stalling non-critical load ip: 17046376 freq: 1
rob stalling non-critical load ip: 17046396 freq: 552
rob stalling non-critical load ip: 17051284 freq: 117
rob stalling non-critical load ip: 17051288 freq: 2448
rob stalling non-critical load ip: 17051432 freq: 115
rob stalling non-critical load ip: 17051536 freq: 3203
rob stalling non-critical load ip: 17051560 freq: 748
rob stalling non-critical load ip: 17077640 freq: 1
rob stalling non-critical load ip: 17077684 freq: 4
rob stalling non-critical load ip: 17077688 freq: 3
rob stalling non-critical load ip: 17077844 freq: 1
rob stalling non-critical load ip: 17077916 freq: 4
rob stalling non-critical load ip: 17078012 freq: 3
rob stalling non-critical load ip: 17078088 freq: 4
rob stalling non-critical load ip: 17078100 freq: 4
rob stalling non-critical load ip: 17078420 freq: 1
rob stalling non-critical load ip: 17079636 freq: 1
rob stalling non-critical load ip: 17084128 freq: 9
rob stalling non-critical load ip: 17084300 freq: 3
rob stalling non-critical load ip: 17084332 freq: 265
rob stalling non-critical load ip: 17084340 freq: 8
rob stalling non-critical load ip: 17084388 freq: 558
rob stalling non-critical load ip: 17084544 freq: 747
rob stalling non-critical load ip: 17084652 freq: 782
rob stalling non-critical load ip: 17084656 freq: 657
rob stalling non-critical load ip: 17084692 freq: 4
rob stalling non-critical load ip: 17084752 freq: 375
rob stalling non-critical load ip: 17084772 freq: 26
rob stalling non-critical load ip: 17084780 freq: 331
rob stalling non-critical load ip: 17084836 freq: 12
rob stalling non-critical load ip: 17088228 freq: 3
rob stalling non-critical load ip: 17088808 freq: 6
rob stalling non-critical load ip: 17089924 freq: 28
rob stalling non-critical load ip: 17089932 freq: 8
rob stalling non-critical load ip: 17089968 freq: 5
rob stalling non-critical load ip: 17089988 freq: 314
rob stalling non-critical load ip: 17090008 freq: 9
rob stalling non-critical load ip: 17090036 freq: 11
rob stalling non-critical load ip: 17090060 freq: 20
rob stalling non-critical load ip: 17090092 freq: 1
rob stalling non-critical load ip: 17090160 freq: 2
rob stalling non-critical load ip: 17090192 freq: 10
rob stalling non-critical load ip: 17091732 freq: 1
rob stalling non-critical load ip: 17097372 freq: 1
rob stalling non-critical load ip: 17099908 freq: 4
rob stalling non-critical load ip: 17100104 freq: 19
rob stalling non-critical load ip: 17100416 freq: 7
rob stalling non-critical load ip: 17100588 freq: 1
rob stalling non-critical load ip: 17100620 freq: 76
rob stalling non-critical load ip: 17102216 freq: 1
rob stalling non-critical load ip: 17102280 freq: 1
rob stalling non-critical load ip: 17102468 freq: 1
rob stalling non-critical load ip: 17109104 freq: 6
rob stalling non-critical load ip: 17109116 freq: 7
rob stalling non-critical load ip: 17109164 freq: 2
rob stalling non-critical load ip: 17109496 freq: 3
rob stalling non-critical load ip: 17109516 freq: 1
rob stalling non-critical load ip: 17109588 freq: 3
rob stalling non-critical load ip: 17109620 freq: 3
rob stalling non-critical load ip: 17147696 freq: 7
rob stalling non-critical load ip: 17147700 freq: 2
rob stalling non-critical load ip: 17148832 freq: 370
rob stalling non-critical load ip: 17148868 freq: 10
rob stalling non-critical load ip: 17148904 freq: 17
rob stalling non-critical load ip: 17148972 freq: 399
rob stalling non-critical load ip: 17149012 freq: 11
rob stalling non-critical load ip: 17149168 freq: 5
rob stalling non-critical load ip: 17149172 freq: 4
rob stalling non-critical load ip: 17149204 freq: 6
rob stalling non-critical load ip: 17149340 freq: 7
rob stalling non-critical load ip: 17149344 freq: 16
rob stalling non-critical load ip: 17149400 freq: 19
rob stalling non-critical load ip: 17149504 freq: 72
rob stalling non-critical load ip: 17149600 freq: 170
rob stalling non-critical load ip: 17149604 freq: 13
rob stalling non-critical load ip: 17182576 freq: 3
rob stalling non-critical load ip: 17182648 freq: 5
rob stalling non-critical load ip: 17182664 freq: 3
rob stalling non-critical load ip: 17182832 freq: 2
rob stalling non-critical load ip: 17182836 freq: 10
rob stalling non-critical load ip: 17182912 freq: 7
rob stalling non-critical load ip: 17182972 freq: 1
rob stalling non-critical load ip: 17183060 freq: 7
rob stalling non-critical load ip: 17183080 freq: 1
rob stalling non-critical load ip: 17183108 freq: 6
rob stalling non-critical load ip: 17183140 freq: 4
rob stalling non-critical load ip: 17183248 freq: 9
rob stalling non-critical load ip: 17183380 freq: 6
rob stalling non-critical load ip: 17183424 freq: 3
rob stalling non-critical load ip: 17183436 freq: 2
rob stalling non-critical load ip: 17183520 freq: 1
rob stalling non-critical load ip: 17183560 freq: 6
rob stalling non-critical load ip: 17183812 freq: 14
rob stalling non-critical load ip: 17183892 freq: 1
rob stalling non-critical load ip: 17183960 freq: 18
rob stalling non-critical load ip: 17184072 freq: 7
rob stalling non-critical load ip: 17184100 freq: 3
rob stalling non-critical load ip: 17184712 freq: 3
rob stalling non-critical load ip: 17184740 freq: 8
rob stalling non-critical load ip: 17184792 freq: 1
rob stalling non-critical load ip: 17184900 freq: 1
rob stalling non-critical load ip: 17184968 freq: 2
rob stalling non-critical load ip: 17185072 freq: 5
rob stalling non-critical load ip: 17185180 freq: 2
rob stalling non-critical load ip: 17185196 freq: 2
rob stalling non-critical load ip: 17185632 freq: 2
rob stalling non-critical load ip: 17185704 freq: 1
rob stalling non-critical load ip: 17185764 freq: 3
rob stalling non-critical load ip: 17186072 freq: 3
rob stalling non-critical load ip: 17186520 freq: 1
rob stalling non-critical load ip: 17186680 freq: 1
rob stalling non-critical load ip: 17187196 freq: 3
rob stalling non-critical load ip: 17188224 freq: 6
rob stalling non-critical load ip: 17188264 freq: 5
rob stalling non-critical load ip: 17188292 freq: 13
rob stalling non-critical load ip: 17188436 freq: 21
rob stalling non-critical load ip: 17188440 freq: 202
rob stalling non-critical load ip: 17188488 freq: 3
rob stalling non-critical load ip: 17188532 freq: 10
rob stalling non-critical load ip: 17188556 freq: 10
rob stalling non-critical load ip: 17188568 freq: 16
rob stalling non-critical load ip: 17188584 freq: 12
rob stalling non-critical load ip: 17188600 freq: 7
rob stalling non-critical load ip: 17188616 freq: 52
rob stalling non-critical load ip: 17188636 freq: 3
rob stalling non-critical load ip: 17188652 freq: 106
rob stalling non-critical load ip: 17188700 freq: 7
rob stalling non-critical load ip: 17188784 freq: 235
rob stalling non-critical load ip: 17188792 freq: 9
rob stalling non-critical load ip: 17188948 freq: 1
rob stalling non-critical load ip: 17189432 freq: 4
rob stalling non-critical load ip: 17189536 freq: 2
rob stalling non-critical load ip: 17190288 freq: 3
rob stalling non-critical load ip: 17225220 freq: 11
rob stalling non-critical load ip: 17226532 freq: 10
rob stalling non-critical load ip: 17226872 freq: 2
rob stalling non-critical load ip: 17226948 freq: 490
rob stalling non-critical load ip: 17229716 freq: 857
rob stalling non-critical load ip: 17229724 freq: 14
rob stalling non-critical load ip: 17229760 freq: 11
rob stalling non-critical load ip: 17229780 freq: 13
rob stalling non-critical load ip: 17245100 freq: 20
rob stalling non-critical load ip: 17247576 freq: 4
rob stalling non-critical load ip: 17247668 freq: 8
rob stalling non-critical load ip: 17247672 freq: 7
rob stalling non-critical load ip: 17247676 freq: 3
rob stalling non-critical load ip: 17247888 freq: 1
rob stalling non-critical load ip: 17247896 freq: 4
rob stalling non-critical load ip: 17247988 freq: 2
rob stalling non-critical load ip: 17248652 freq: 2
rob stalling non-critical load ip: 17252100 freq: 1
rob stalling non-critical load ip: 17252368 freq: 1
rob stalling non-critical load ip: 17253688 freq: 117
rob stalling non-critical load ip: 17267896 freq: 1
rob stalling non-critical load ip: 17267924 freq: 10
rob stalling non-critical load ip: 17295168 freq: 906
rob stalling non-critical load ip: 17295180 freq: 199
rob stalling non-critical load ip: 17295184 freq: 1580
rob stalling non-critical load ip: 17295188 freq: 5781
rob stalling non-critical load ip: 17295204 freq: 449
rob stalling non-critical load ip: 17295220 freq: 349
rob stalling non-critical load ip: 17295236 freq: 4753
rob stalling non-critical load ip: 17295248 freq: 2808
rob stalling non-critical load ip: 17295264 freq: 268
rob stalling non-critical load ip: 17295296 freq: 421
rob stalling non-critical load ip: 17295300 freq: 2
rob stalling non-critical load ip: 17295588 freq: 1
rob stalling non-critical load ip: 17503864 freq: 3
rob stalling non-critical load ip: 17504256 freq: 3
rob stalling non-critical load ip: 17504760 freq: 11
rob stalling non-critical load ip: 17505088 freq: 1
rob stalling non-critical load ip: 17506076 freq: 10
rob stalling non-critical load ip: 17506824 freq: 4
rob stalling non-critical load ip: 17507160 freq: 3
rob stalling non-critical load ip: 17507380 freq: 1
rob stalling non-critical load ip: 17507396 freq: 4
rob stalling non-critical load ip: 17507428 freq: 1
rob stalling non-critical load ip: 17507476 freq: 3
rob stalling non-critical load ip: 17507492 freq: 2
rob stalling non-critical load ip: 17511888 freq: 11
rob stalling non-critical load ip: 17511980 freq: 12
rob stalling non-critical load ip: 17512012 freq: 1
rob stalling non-critical load ip: 17545664 freq: 2
rob stalling non-critical load ip: 17545788 freq: 1
rob stalling non-critical load ip: 17546024 freq: 5
rob stalling non-critical load ip: 17546088 freq: 43
rob stalling non-critical load ip: 17546104 freq: 1
rob stalling non-critical load ip: 17546260 freq: 1
rob stalling non-critical load ip: 17546416 freq: 1
rob stalling non-critical load ip: 17546908 freq: 13
rob stalling non-critical load ip: 17546920 freq: 3
rob stalling non-critical load ip: 17546944 freq: 10
rob stalling non-critical load ip: 17547352 freq: 25
rob stalling non-critical load ip: 17547376 freq: 9
rob stalling non-critical load ip: 17547732 freq: 1
rob stalling non-critical load ip: 17547736 freq: 2
rob stalling non-critical load ip: 17547760 freq: 7
rob stalling non-critical load ip: 17548040 freq: 21
rob stalling non-critical load ip: 17612436 freq: 2
rob stalling non-critical load ip: 17613904 freq: 2
rob stalling non-critical load ip: 17613912 freq: 2
rob stalling non-critical load ip: 17614016 freq: 2
rob stalling non-critical load ip: 17614068 freq: 4
rob stalling non-critical load ip: 17614240 freq: 2
rob stalling non-critical load ip: 17614300 freq: 1
rob stalling non-critical load ip: 17614376 freq: 1
rob stalling non-critical load ip: 17616192 freq: 1
rob stalling non-critical load ip: 17616996 freq: 2
rob stalling non-critical load ip: 17617012 freq: 1
rob stalling non-critical load ip: 17617572 freq: 1
rob stalling non-critical load ip: 17617800 freq: 2
rob stalling non-critical load ip: 17617868 freq: 2
rob stalling non-critical load ip: 17617884 freq: 3
rob stalling non-critical load ip: 17619076 freq: 1
rob stalling non-critical load ip: 17644276 freq: 911
rob stalling non-critical load ip: 17682804 freq: 2
rob stalling non-critical load ip: 17683040 freq: 2
rob stalling non-critical load ip: 17683164 freq: 3
rob stalling non-critical load ip: 17683248 freq: 3
rob stalling non-critical load ip: 17683268 freq: 1
rob stalling non-critical load ip: 17683312 freq: 1
rob stalling non-critical load ip: 17683332 freq: 1
rob stalling non-critical load ip: 17683380 freq: 5
rob stalling non-critical load ip: 17683456 freq: 3
rob stalling non-critical load ip: 17683888 freq: 3
rob stalling non-critical load ip: 17686100 freq: 2
rob stalling non-critical load ip: 17692512 freq: 6
rob stalling non-critical load ip: 17692592 freq: 3
rob stalling non-critical load ip: 17692596 freq: 4
rob stalling non-critical load ip: 17782316 freq: 11
rob stalling non-critical load ip: 17782380 freq: 237
rob stalling non-critical load ip: 17782400 freq: 51
rob stalling non-critical load ip: 17782428 freq: 4
rob stalling non-critical load ip: 17782600 freq: 7
rob stalling non-critical load ip: 17782928 freq: 3
rob stalling non-critical load ip: 17782984 freq: 3
rob stalling non-critical load ip: 17783272 freq: 8
rob stalling non-critical load ip: 17906336 freq: 33
rob stalling non-critical load ip: 17906384 freq: 3
rob stalling non-critical load ip: 17906400 freq: 73
rob stalling non-critical load ip: 17906620 freq: 16
rob stalling non-critical load ip: 17906644 freq: 7
rob stalling non-critical load ip: 17906844 freq: 628
rob stalling non-critical load ip: 17906888 freq: 15
rob stalling non-critical load ip: 17906912 freq: 4
rob stalling non-critical load ip: 17906968 freq: 7
rob stalling non-critical load ip: 17906980 freq: 6
rob stalling non-critical load ip: 17907064 freq: 659
rob stalling non-critical load ip: 17908272 freq: 147
rob stalling non-critical load ip: 17908312 freq: 4
rob stalling non-critical load ip: 17908368 freq: 9
rob stalling non-critical load ip: 18022900 freq: 4
rob stalling non-critical load ip: 18022940 freq: 5
rob stalling non-critical load ip: 18023308 freq: 1
rob stalling non-critical load ip: 18025240 freq: 6
rob stalling non-critical load ip: 18025248 freq: 10
rob stalling non-critical load ip: 18025276 freq: 4
rob stalling non-critical load ip: 18025296 freq: 16
rob stalling non-critical load ip: 18025304 freq: 4
rob stalling non-critical load ip: 18025340 freq: 31
rob stalling non-critical load ip: 18026640 freq: 2
rob stalling non-critical load ip: 18026668 freq: 17
rob stalling non-critical load ip: 18026908 freq: 8
rob stalling non-critical load ip: 18027120 freq: 11
rob stalling non-critical load ip: 18027128 freq: 6
rob stalling non-critical load ip: 18027156 freq: 315
rob stalling non-critical load ip: 18027236 freq: 13
rob stalling non-critical load ip: 18027924 freq: 123
rob stalling non-critical load ip: 18027932 freq: 4
rob stalling non-critical load ip: 18049648 freq: 25
rob stalling non-critical load ip: 18049664 freq: 54
rob stalling non-critical load ip: 18049728 freq: 6
rob stalling non-critical load ip: 18049736 freq: 13
rob stalling non-critical load ip: 18049744 freq: 8
rob stalling non-critical load ip: 18049920 freq: 495
rob stalling non-critical load ip: 18049936 freq: 18
rob stalling non-critical load ip: 18049996 freq: 68
rob stalling non-critical load ip: 18050004 freq: 403
rob stalling non-critical load ip: 18073720 freq: 1
rob stalling non-critical load ip: 18073772 freq: 5
rob stalling non-critical load ip: 18073932 freq: 6
rob stalling non-critical load ip: 18074084 freq: 1
rob stalling non-critical load ip: 18074896 freq: 17
rob stalling non-critical load ip: 18086804 freq: 6
rob stalling non-critical load ip: 18088656 freq: 6
rob stalling non-critical load ip: 18088772 freq: 1
rob stalling non-critical load ip: 18093648 freq: 6
rob stalling non-critical load ip: 18093688 freq: 2
rob stalling non-critical load ip: 18093808 freq: 2
rob stalling non-critical load ip: 18094880 freq: 2
rob stalling non-critical load ip: 18095488 freq: 3
rob stalling non-critical load ip: 18095592 freq: 8
rob stalling non-critical load ip: 18095596 freq: 9
rob stalling non-critical load ip: 18095724 freq: 1
rob stalling non-critical load ip: 18095784 freq: 1
rob stalling non-critical load ip: 18095816 freq: 3
rob stalling non-critical load ip: 18095824 freq: 2
rob stalling non-critical load ip: 18095836 freq: 3
rob stalling non-critical load ip: 18095928 freq: 4
rob stalling non-critical load ip: 18095948 freq: 2
rob stalling non-critical load ip: 18097092 freq: 1
rob stalling non-critical load ip: 18107232 freq: 1
rob stalling non-critical load ip: 18107588 freq: 1
rob stalling non-critical load ip: 18128468 freq: 481
rob stalling non-critical load ip: 18128484 freq: 9
rob stalling non-critical load ip: 18128540 freq: 211
rob stalling non-critical load ip: 18128592 freq: 207
rob stalling non-critical load ip: 18128640 freq: 4
rob stalling non-critical load ip: 18128744 freq: 15
rob stalling non-critical load ip: 18128956 freq: 1
rob stalling non-critical load ip: 18132140 freq: 3
rob stalling non-critical load ip: 18132720 freq: 463
rob stalling non-critical load ip: 18132760 freq: 436
rob stalling non-critical load ip: 18132804 freq: 14
rob stalling non-critical load ip: 18132832 freq: 76
rob stalling non-critical load ip: 18132844 freq: 15
rob stalling non-critical load ip: 18132856 freq: 6
rob stalling non-critical load ip: 18132872 freq: 7
rob stalling non-critical load ip: 18132896 freq: 215
rob stalling non-critical load ip: 18132908 freq: 65
rob stalling non-critical load ip: 18132916 freq: 1
rob stalling non-critical load ip: 18132980 freq: 180
rob stalling non-critical load ip: 18132996 freq: 67
rob stalling non-critical load ip: 18133012 freq: 9
rob stalling non-critical load ip: 18133028 freq: 1
rob stalling non-critical load ip: 18133080 freq: 1114
rob stalling non-critical load ip: 18133112 freq: 68
rob stalling non-critical load ip: 18133368 freq: 47
rob stalling non-critical load ip: 18133388 freq: 11
rob stalling non-critical load ip: 18133392 freq: 24
rob stalling non-critical load ip: 18133404 freq: 3
rob stalling non-critical load ip: 18133408 freq: 14
rob stalling non-critical load ip: 18133528 freq: 1
rob stalling non-critical load ip: 18133592 freq: 22
rob stalling non-critical load ip: 18133608 freq: 15
rob stalling non-critical load ip: 18133736 freq: 1
rob stalling non-critical load ip: 18133840 freq: 2
rob stalling non-critical load ip: 18133936 freq: 6
rob stalling non-critical load ip: 18133964 freq: 15
rob stalling non-critical load ip: 18134084 freq: 10
rob stalling non-critical load ip: 18134192 freq: 8
rob stalling non-critical load ip: 18134316 freq: 2
rob stalling non-critical load ip: 18134420 freq: 1
rob stalling non-critical load ip: 18219692 freq: 1
rob stalling non-critical load ip: 18302544 freq: 3
rob stalling non-critical load ip: 18302572 freq: 6
rob stalling non-critical load ip: 18302756 freq: 1
rob stalling non-critical load ip: 18303116 freq: 20
rob stalling non-critical load ip: 18303272 freq: 6
rob stalling non-critical load ip: 18309020 freq: 2
rob stalling non-critical load ip: 18309048 freq: 4
rob stalling non-critical load ip: 18309516 freq: 20
rob stalling non-critical load ip: 18309544 freq: 2
rob stalling non-critical load ip: 18309588 freq: 5
rob stalling non-critical load ip: 18309592 freq: 8
rob stalling non-critical load ip: 18309616 freq: 4
rob stalling non-critical load ip: 18447392 freq: 1
rob stalling non-critical load ip: 18452952 freq: 1
rob stalling non-critical load ip: 18457504 freq: 8
rob stalling non-critical load ip: 18457572 freq: 8
rob stalling non-critical load ip: 18457592 freq: 5
rob stalling non-critical load ip: 18466768 freq: 11
rob stalling non-critical load ip: 18467084 freq: 3
rob stalling non-critical load ip: 18467160 freq: 6
rob stalling non-critical load ip: 18471376 freq: 15
rob stalling non-critical load ip: 18471604 freq: 3
rob stalling non-critical load ip: 18471632 freq: 1
rob stalling non-critical load ip: 18471660 freq: 9
rob stalling non-critical load ip: 18471696 freq: 4
rob stalling non-critical load ip: 18471704 freq: 2
rob stalling non-critical load ip: 18471712 freq: 1
rob stalling non-critical load ip: 18471852 freq: 7
rob stalling non-critical load ip: 18481788 freq: 2
rob stalling non-critical load ip: 18482232 freq: 3
rob stalling non-critical load ip: 18482800 freq: 3
rob stalling non-critical load ip: 18482896 freq: 7
rob stalling non-critical load ip: 18489624 freq: 2
rob stalling non-critical load ip: 18513436 freq: 2
rob stalling non-critical load ip: 18513508 freq: 1
rob stalling non-critical load ip: 18514352 freq: 5
rob stalling non-critical load ip: 18514792 freq: 6
rob stalling non-critical load ip: 18625668 freq: 1
rob stalling non-critical load ip: 18631116 freq: 1
rob stalling non-critical load ip: 18783856 freq: 11
rob stalling non-critical load ip: 18783924 freq: 2
rob stalling non-critical load ip: 18783940 freq: 5
rob stalling non-critical load ip: 18785220 freq: 1
rob stalling non-critical load ip: 18786052 freq: 11
rob stalling non-critical load ip: 18790364 freq: 2
rob stalling non-critical load ip: 18790796 freq: 1
rob stalling non-critical load ip: 18791472 freq: 2
rob stalling non-critical load ip: 18791532 freq: 1
rob stalling non-critical load ip: 18793196 freq: 2
rob stalling non-critical load ip: 18793340 freq: 1
rob stalling non-critical load ip: 18867460 freq: 1
rob stalling non-critical load ip: 18878120 freq: 1
rob stalling non-critical load ip: 18879816 freq: 2
rob stalling non-critical load ip: 18879832 freq: 1
rob stalling non-critical load ip: 18881780 freq: 1
rob stalling non-critical load ip: 18956724 freq: 1
rob stalling non-critical load ip: 18956748 freq: 4
rob stalling non-critical load ip: 18956792 freq: 4
rob stalling non-critical load ip: 18956808 freq: 12
rob stalling non-critical load ip: 18956824 freq: 6
rob stalling non-critical load ip: 18956848 freq: 6
rob stalling non-critical load ip: 18956860 freq: 2
rob stalling non-critical load ip: 18956864 freq: 10
rob stalling non-critical load ip: 18956880 freq: 10
rob stalling non-critical load ip: 18957088 freq: 1
rob stalling non-critical load ip: 18957124 freq: 1
rob stalling non-critical load ip: 18957128 freq: 5
rob stalling non-critical load ip: 18957576 freq: 8
rob stalling non-critical load ip: 18957592 freq: 9
rob stalling non-critical load ip: 18957636 freq: 2
rob stalling non-critical load ip: 18960512 freq: 9
rob stalling non-critical load ip: 18960536 freq: 14
rob stalling non-critical load ip: 18960552 freq: 5
rob stalling non-critical load ip: 18960568 freq: 3
rob stalling non-critical load ip: 18960584 freq: 20
rob stalling non-critical load ip: 18960616 freq: 5
rob stalling non-critical load ip: 18960632 freq: 3
rob stalling non-critical load ip: 18960676 freq: 1
rob stalling non-critical load ip: 18960688 freq: 3
rob stalling non-critical load ip: 18960700 freq: 5
rob stalling non-critical load ip: 18960732 freq: 4
rob stalling non-critical load ip: 18960748 freq: 6
rob stalling non-critical load ip: 18960780 freq: 64
rob stalling non-critical load ip: 18960796 freq: 139
rob stalling non-critical load ip: 18960812 freq: 7
rob stalling non-critical load ip: 18960836 freq: 21
rob stalling non-critical load ip: 18960860 freq: 29
rob stalling non-critical load ip: 18960908 freq: 5
rob stalling non-critical load ip: 18960940 freq: 2
rob stalling non-critical load ip: 18960972 freq: 7
rob stalling non-critical load ip: 18970400 freq: 1
rob stalling non-critical load ip: 18980028 freq: 25
rob stalling non-critical load ip: 19454556 freq: 8
rob stalling non-critical load ip: 19471884 freq: 3
rob stalling non-critical load ip: 19472760 freq: 3
rob stalling non-critical load ip: 19480932 freq: 1
rob stalling non-critical load ip: 19489264 freq: 3
rob stalling non-critical load ip: 19489780 freq: 7
rob stalling non-critical load ip: 19489792 freq: 1
rob stalling non-critical load ip: 19489804 freq: 11
rob stalling non-critical load ip: 19489840 freq: 6
rob stalling non-critical load ip: 19492660 freq: 15
rob stalling non-critical load ip: 19492676 freq: 23
rob stalling non-critical load ip: 19492692 freq: 24
rob stalling non-critical load ip: 19493148 freq: 222
rob stalling non-critical load ip: 19493164 freq: 77
rob stalling non-critical load ip: 19493176 freq: 483
rob stalling non-critical load ip: 19493188 freq: 17
rob stalling non-critical load ip: 19493220 freq: 17
rob stalling non-critical load ip: 19493328 freq: 72
rob stalling non-critical load ip: 19493344 freq: 107
rob stalling non-critical load ip: 19493360 freq: 114
rob stalling non-critical load ip: 19493372 freq: 116
rob stalling non-critical load ip: 19493400 freq: 5
rob stalling non-critical load ip: 19493504 freq: 49
rob stalling non-critical load ip: 19493520 freq: 41
rob stalling non-critical load ip: 19493536 freq: 67
rob stalling non-critical load ip: 19493548 freq: 1
rob stalling non-critical load ip: 19493692 freq: 2
rob stalling non-critical load ip: 19493832 freq: 3
rob stalling non-critical load ip: 19493856 freq: 1
rob stalling non-critical load ip: 19493912 freq: 2
rob stalling non-critical load ip: 19493916 freq: 117
rob stalling non-critical load ip: 19493920 freq: 124
rob stalling non-critical load ip: 19493924 freq: 101
rob stalling non-critical load ip: 19493928 freq: 28
rob stalling non-critical load ip: 19493932 freq: 209
rob stalling non-critical load ip: 19493936 freq: 9
rob stalling non-critical load ip: 19493940 freq: 155
rob stalling non-critical load ip: 19493944 freq: 7
rob stalling non-critical load ip: 19493948 freq: 149
rob stalling non-critical load ip: 19493956 freq: 70
rob stalling non-critical load ip: 19493960 freq: 183
rob stalling non-critical load ip: 19493976 freq: 4
rob stalling non-critical load ip: 19493984 freq: 9
rob stalling non-critical load ip: 19493992 freq: 19
rob stalling non-critical load ip: 19494000 freq: 10
rob stalling non-critical load ip: 19494032 freq: 232
rob stalling non-critical load ip: 19494040 freq: 60
rob stalling non-critical load ip: 19494052 freq: 184
rob stalling non-critical load ip: 19494060 freq: 87
rob stalling non-critical load ip: 19494068 freq: 97
rob stalling non-critical load ip: 19494076 freq: 5103
rob stalling non-critical load ip: 19494084 freq: 137
rob stalling non-critical load ip: 19494096 freq: 128
rob stalling non-critical load ip: 19494104 freq: 13624
rob stalling non-critical load ip: 19494112 freq: 341
rob stalling non-critical load ip: 19494292 freq: 773
rob stalling non-critical load ip: 19494372 freq: 1
rob stalling non-critical load ip: 19494412 freq: 24
rob stalling non-critical load ip: 19494452 freq: 1
rob stalling non-critical load ip: 19494656 freq: 1
rob stalling non-critical load ip: 19494664 freq: 31
rob stalling non-critical load ip: 19495484 freq: 29
rob stalling non-critical load ip: 19495556 freq: 39
rob stalling non-critical load ip: 19495572 freq: 6
rob stalling non-critical load ip: 19495816 freq: 5
rob stalling non-critical load ip: 19496020 freq: 19
rob stalling non-critical load ip: 19496036 freq: 8
rob stalling non-critical load ip: 19496052 freq: 15
rob stalling non-critical load ip: 19496064 freq: 6
rob stalling non-critical load ip: 19496092 freq: 6
rob stalling non-critical load ip: 19496376 freq: 3
rob stalling non-critical load ip: 19496392 freq: 3
rob stalling non-critical load ip: 19496404 freq: 2
rob stalling non-critical load ip: 19499416 freq: 1
rob stalling non-critical load ip: 19499480 freq: 39
rob stalling non-critical load ip: 19499512 freq: 1
rob stalling non-critical load ip: 19688432 freq: 5
rob stalling non-critical load ip: 19689456 freq: 1
rob stalling non-critical load ip: 19689532 freq: 3
rob stalling non-critical load ip: 19691852 freq: 1
rob stalling non-critical load ip: 19692680 freq: 5
rob stalling non-critical load ip: 19692692 freq: 7
rob stalling non-critical load ip: 19692820 freq: 4
rob stalling non-critical load ip: 19695740 freq: 56
rob stalling non-critical load ip: 19695780 freq: 49
rob stalling non-critical load ip: 19695796 freq: 128
rob stalling non-critical load ip: 19695888 freq: 2
rob stalling non-critical load ip: 19695908 freq: 1
rob stalling non-critical load ip: 19695924 freq: 2
rob stalling non-critical load ip: 19695960 freq: 1
rob stalling non-critical load ip: 19698128 freq: 6
rob stalling non-critical load ip: 19698132 freq: 6
rob stalling non-critical load ip: 19698148 freq: 1
rob stalling non-critical load ip: 19698200 freq: 4
rob stalling non-critical load ip: 19698204 freq: 19
rob stalling non-critical load ip: 19698228 freq: 21
rob stalling non-critical load ip: 19698244 freq: 22
rob stalling non-critical load ip: 19698276 freq: 3
rob stalling non-critical load ip: 19698288 freq: 10
rob stalling non-critical load ip: 19698324 freq: 7
rob stalling non-critical load ip: 19698368 freq: 2
rob stalling non-critical load ip: 19698384 freq: 3
rob stalling non-critical load ip: 19698420 freq: 2
rob stalling non-critical load ip: 19698424 freq: 2
rob stalling non-critical load ip: 19699940 freq: 10
rob stalling non-critical load ip: 19699952 freq: 15
rob stalling non-critical load ip: 19699968 freq: 14
rob stalling non-critical load ip: 19699980 freq: 2
rob stalling non-critical load ip: 19701420 freq: 7
rob stalling non-critical load ip: 19701452 freq: 4
rob stalling non-critical load ip: 19701456 freq: 11
rob stalling non-critical load ip: 19701552 freq: 5
rob stalling non-critical load ip: 19707028 freq: 14
rob stalling non-critical load ip: 19707040 freq: 3
rob stalling non-critical load ip: 19707092 freq: 8
rob stalling non-critical load ip: 19707104 freq: 5
rob stalling non-critical load ip: 19707268 freq: 12
rob stalling non-critical load ip: 19708440 freq: 1
rob stalling non-critical load ip: 19708996 freq: 3
rob stalling non-critical load ip: 19711940 freq: 8
rob stalling non-critical load ip: 19713736 freq: 1
rob stalling non-critical load ip: 19723200 freq: 5
rob stalling non-critical load ip: 19723236 freq: 508
rob stalling non-critical load ip: 19723248 freq: 6
rob stalling non-critical load ip: 19723284 freq: 3
rob stalling non-critical load ip: 19723312 freq: 11
rob stalling non-critical load ip: 19723320 freq: 62
rob stalling non-critical load ip: 19723336 freq: 17
rob stalling non-critical load ip: 19723352 freq: 12
rob stalling non-critical load ip: 19723368 freq: 7
rob stalling non-critical load ip: 19723384 freq: 8
rob stalling non-critical load ip: 19723408 freq: 5
rob stalling non-critical load ip: 19724432 freq: 36
rob stalling non-critical load ip: 19724576 freq: 126
rob stalling non-critical load ip: 19725616 freq: 138
rob stalling non-critical load ip: 19725644 freq: 1
rob stalling non-critical load ip: 19725656 freq: 13
rob stalling non-critical load ip: 19725660 freq: 184
rob stalling non-critical load ip: 19725672 freq: 9
rob stalling non-critical load ip: 19725688 freq: 7
rob stalling non-critical load ip: 19725704 freq: 222
rob stalling non-critical load ip: 19725720 freq: 89
rob stalling non-critical load ip: 19725736 freq: 2
rob stalling non-critical load ip: 19725740 freq: 11
rob stalling non-critical load ip: 19725844 freq: 4
rob stalling non-critical load ip: 19725880 freq: 9
rob stalling non-critical load ip: 19725904 freq: 48
rob stalling non-critical load ip: 19725924 freq: 6
rob stalling non-critical load ip: 19726800 freq: 3
rob stalling non-critical load ip: 19727968 freq: 2
rob stalling non-critical load ip: 19728124 freq: 1
rob stalling non-critical load ip: 19729824 freq: 1
rob stalling non-critical load ip: 19730884 freq: 1
rob stalling non-critical load ip: 19730936 freq: 5
rob stalling non-critical load ip: 19732012 freq: 1
rob stalling non-critical load ip: 19732288 freq: 13
rob stalling non-critical load ip: 19732304 freq: 8
rob stalling non-critical load ip: 19732392 freq: 9
rob stalling non-critical load ip: 19732408 freq: 3
rob stalling non-critical load ip: 19732644 freq: 88
rob stalling non-critical load ip: 19732912 freq: 19
rob stalling non-critical load ip: 19732928 freq: 13
rob stalling non-critical load ip: 19732940 freq: 13
rob stalling non-critical load ip: 19732956 freq: 11
rob stalling non-critical load ip: 19732968 freq: 6
rob stalling non-critical load ip: 19732984 freq: 3
rob stalling non-critical load ip: 19733000 freq: 4
rob stalling non-critical load ip: 19733036 freq: 5
rob stalling non-critical load ip: 19733048 freq: 4
rob stalling non-critical load ip: 19733228 freq: 6
rob stalling non-critical load ip: 19733500 freq: 366
rob stalling non-critical load ip: 19745500 freq: 6
rob stalling non-critical load ip: 19746244 freq: 480
rob stalling non-critical load ip: 19746296 freq: 418
rob stalling non-critical load ip: 19746308 freq: 353
rob stalling non-critical load ip: 19746320 freq: 2
rob stalling non-critical load ip: 19746344 freq: 2
rob stalling non-critical load ip: 19748964 freq: 451
rob stalling non-critical load ip: 19748980 freq: 5
rob stalling non-critical load ip: 19749032 freq: 6
rob stalling non-critical load ip: 19749112 freq: 41
rob stalling non-critical load ip: 19749256 freq: 2
rob stalling non-critical load ip: 19749276 freq: 1
rob stalling non-critical load ip: 19749380 freq: 3
rob stalling non-critical load ip: 19749420 freq: 3
rob stalling non-critical load ip: 19752860 freq: 2
rob stalling non-critical load ip: 19783172 freq: 3
rob stalling non-critical load ip: 19783356 freq: 4
rob stalling non-critical load ip: 19783880 freq: 1
rob stalling non-critical load ip: 19784032 freq: 4
rob stalling non-critical load ip: 19784140 freq: 1
rob stalling non-critical load ip: 19784300 freq: 1
rob stalling non-critical load ip: 19784344 freq: 1
rob stalling non-critical load ip: 19784540 freq: 1
rob stalling non-critical load ip: 19784608 freq: 3
rob stalling non-critical load ip: 19787564 freq: 1
rob stalling non-critical load ip: 19787724 freq: 2
rob stalling non-critical load ip: 19791796 freq: 4
rob stalling non-critical load ip: 19791896 freq: 3
rob stalling non-critical load ip: 19791900 freq: 19
rob stalling non-critical load ip: 19795660 freq: 6
rob stalling non-critical load ip: 19804120 freq: 2
rob stalling non-critical load ip: 19804156 freq: 3
rob stalling non-critical load ip: 19804680 freq: 2
rob stalling non-critical load ip: 19837224 freq: 5
rob stalling non-critical load ip: 19837276 freq: 1
rob stalling non-critical load ip: 19837456 freq: 1
rob stalling non-critical load ip: 19850064 freq: 3
rob stalling non-critical load ip: 19850080 freq: 2
rob stalling non-critical load ip: 19850084 freq: 36
rob stalling non-critical load ip: 19850100 freq: 5
rob stalling non-critical load ip: 19850104 freq: 9
rob stalling non-critical load ip: 19850400 freq: 13
rob stalling non-critical load ip: 19850568 freq: 1
rob stalling non-critical load ip: 19851160 freq: 23
rob stalling non-critical load ip: 19851192 freq: 8
rob stalling non-critical load ip: 19851196 freq: 14
rob stalling non-critical load ip: 19851292 freq: 215
rob stalling non-critical load ip: 19851312 freq: 26
rob stalling non-critical load ip: 19851632 freq: 68
rob stalling non-critical load ip: 19852588 freq: 94
rob stalling non-critical load ip: 19852592 freq: 101
rob stalling non-critical load ip: 19852596 freq: 85
rob stalling non-critical load ip: 19852960 freq: 5
rob stalling non-critical load ip: 19853208 freq: 6
rob stalling non-critical load ip: 19853220 freq: 2
rob stalling non-critical load ip: 19853224 freq: 6
rob stalling non-critical load ip: 19853228 freq: 4
rob stalling non-critical load ip: 19853236 freq: 25
rob stalling non-critical load ip: 19932304 freq: 1
rob stalling non-critical load ip: 19939376 freq: 4
rob stalling non-critical load ip: 19957964 freq: 493
rob stalling non-critical load ip: 19957972 freq: 1
rob stalling non-critical load ip: 19957992 freq: 2
rob stalling non-critical load ip: 19958012 freq: 1
rob stalling non-critical load ip: 20024224 freq: 48
rob stalling non-critical load ip: 20024232 freq: 1
rob stalling non-critical load ip: 20024256 freq: 144
rob stalling non-critical load ip: 20024264 freq: 3
rob stalling non-critical load ip: 20032960 freq: 4
rob stalling non-critical load ip: 20032972 freq: 2
rob stalling non-critical load ip: 20042204 freq: 1
rob stalling non-critical load ip: 20047492 freq: 782
rob stalling non-critical load ip: 20048080 freq: 2345
rob stalling non-critical load ip: 20048380 freq: 3
rob stalling non-critical load ip: 20048792 freq: 9
rob stalling non-critical load ip: 20048856 freq: 45
rob stalling non-critical load ip: 20052892 freq: 5
rob stalling non-critical load ip: 20052924 freq: 14
rob stalling non-critical load ip: 20053048 freq: 7
rob stalling non-critical load ip: 20053068 freq: 3
rob stalling non-critical load ip: 20053108 freq: 1
rob stalling non-critical load ip: 20053164 freq: 454
rob stalling non-critical load ip: 20054744 freq: 465
rob stalling non-critical load ip: 20061440 freq: 86
rob stalling non-critical load ip: 20061492 freq: 430
rob stalling non-critical load ip: 20061560 freq: 334
rob stalling non-critical load ip: 20061676 freq: 9
rob stalling non-critical load ip: 20061832 freq: 4
rob stalling non-critical load ip: 20061844 freq: 1
rob stalling non-critical load ip: 20061856 freq: 7
rob stalling non-critical load ip: 20062088 freq: 4
rob stalling non-critical load ip: 20062104 freq: 36
rob stalling non-critical load ip: 20062272 freq: 11
rob stalling non-critical load ip: 20062680 freq: 4
rob stalling non-critical load ip: 20062696 freq: 20
rob stalling non-critical load ip: 20062784 freq: 474
rob stalling non-critical load ip: 20062792 freq: 2
rob stalling non-critical load ip: 20062836 freq: 210
rob stalling non-critical load ip: 20062904 freq: 372
rob stalling non-critical load ip: 20063036 freq: 29
rob stalling non-critical load ip: 20079064 freq: 5
rob stalling non-critical load ip: 20079080 freq: 12
rob stalling non-critical load ip: 20079096 freq: 3
rob stalling non-critical load ip: 20079444 freq: 4
rob stalling non-critical load ip: 20079460 freq: 12
rob stalling non-critical load ip: 20079476 freq: 6
rob stalling non-critical load ip: 20154048 freq: 3
rob stalling non-critical load ip: 20154172 freq: 3
rob stalling non-critical load ip: 20154472 freq: 8
rob stalling non-critical load ip: 20154920 freq: 1
rob stalling non-critical load ip: 20155144 freq: 6
rob stalling non-critical load ip: 20155176 freq: 216
rob stalling non-critical load ip: 20155208 freq: 2
rob stalling non-critical load ip: 20170580 freq: 241
rob stalling non-critical load ip: 20170592 freq: 2
rob stalling non-critical load ip: 20170616 freq: 453
rob stalling non-critical load ip: 20170656 freq: 8
rob stalling non-critical load ip: 20170668 freq: 5
rob stalling non-critical load ip: 20170704 freq: 9
rob stalling non-critical load ip: 20170792 freq: 4
rob stalling non-critical load ip: 20170832 freq: 4
rob stalling non-critical load ip: 20170852 freq: 8
rob stalling non-critical load ip: 20170924 freq: 7
rob stalling non-critical load ip: 20170952 freq: 2
rob stalling non-critical load ip: 20170968 freq: 28
rob stalling non-critical load ip: 20170972 freq: 91
rob stalling non-critical load ip: 20171036 freq: 7
rob stalling non-critical load ip: 20171040 freq: 3
rob stalling non-critical load ip: 20171188 freq: 1
rob stalling non-critical load ip: 20171204 freq: 6
rob stalling non-critical load ip: 20171392 freq: 1
rob stalling non-critical load ip: 20172004 freq: 4
rob stalling non-critical load ip: 20172104 freq: 1
rob stalling non-critical load ip: 20172136 freq: 2
rob stalling non-critical load ip: 20172156 freq: 1
rob stalling non-critical load ip: 20172396 freq: 1
rob stalling non-critical load ip: 20172968 freq: 2
rob stalling non-critical load ip: 20173188 freq: 2
rob stalling non-critical load ip: 20182888 freq: 138
rob stalling non-critical load ip: 20182900 freq: 128
rob stalling non-critical load ip: 20182940 freq: 85
rob stalling non-critical load ip: 20182980 freq: 5
rob stalling non-critical load ip: 20183140 freq: 1
rob stalling non-critical load ip: 20183164 freq: 2
rob stalling non-critical load ip: 20183184 freq: 152
rob stalling non-critical load ip: 20183324 freq: 1
rob stalling non-critical load ip: 20185016 freq: 134
rob stalling non-critical load ip: 20197540 freq: 7
rob stalling non-critical load ip: 20197564 freq: 6
rob stalling non-critical load ip: 20201964 freq: 3
rob stalling non-critical load ip: 20800456 freq: 3
rob stalling non-critical load ip: 20800584 freq: 2
rob stalling non-critical load ip: 20813440 freq: 1
rob stalling non-critical load ip: 20813512 freq: 3
rob stalling non-critical load ip: 20813524 freq: 7
rob stalling non-critical load ip: 20813576 freq: 4
rob stalling non-critical load ip: 20813608 freq: 1
rob stalling non-critical load ip: 20814208 freq: 1
rob stalling non-critical load ip: 20814452 freq: 1
rob stalling non-critical load ip: 20816720 freq: 1
rob stalling non-critical load ip: 20829664 freq: 6
rob stalling non-critical load ip: 20829952 freq: 5
rob stalling non-critical load ip: 20830036 freq: 3
rob stalling non-critical load ip: 2071823900 freq: 2
rob stalling non-critical load ip: 2071824328 freq: 3
rob stalling non-critical load ip: 2071831652 freq: 1
rob stalling non-critical load ip: 2071831660 freq: 1
rob stalling non-critical load ip: 2071831708 freq: 2
rob stalling non-critical load ip: 2071832376 freq: 6
rob stalling non-critical load ip: 2071832404 freq: 3
rob stalling non-critical load ip: 2071832708 freq: 9
rob stalling non-critical load ip: 2071832784 freq: 7
rob stalling non-critical load ip: 2071832968 freq: 1
rob stalling non-critical load ip: 2071833004 freq: 1
rob stalling non-critical load ip: 2071833100 freq: 3
rob stalling non-critical load ip: 2071833116 freq: 1
rob stalling non-critical load ip: 2071833160 freq: 4
rob stalling non-critical load ip: 2071833544 freq: 1
rob stalling non-critical load ip: 2071838676 freq: 3
rob stalling non-critical load ip: 2071838728 freq: 8
rob stalling non-critical load ip: 2071838812 freq: 2
rob stalling non-critical load ip: 2071839236 freq: 1
rob stalling non-critical load ip: 2071839332 freq: 3
rob stalling non-critical load ip: 2071839404 freq: 1
rob stalling non-critical load ip: 2071839688 freq: 2
rob stalling non-critical load ip: 2071839900 freq: 8
rob stalling non-critical load ip: 2074186648 freq: 1
rob stalling non-critical load ip: 2074186748 freq: 2
rob stalling non-critical load ip: 2074186756 freq: 1
rob stalling non-critical load ip: 2074188724 freq: 4
rob stalling non-critical load ip: 2074201184 freq: 3
rob stalling non-critical load ip: 2074201288 freq: 1
rob stalling non-critical load ip: 2074201304 freq: 1
rob stalling non-critical load ip: 2074201496 freq: 2
rob stalling non-critical load ip: 2074201504 freq: 1
rob stalling non-critical load ip: 2074202424 freq: 2
rob stalling non-critical load ip: 2074202456 freq: 2
rob stalling non-critical load ip: 2074202568 freq: 1
rob stalling non-critical load ip: 2074204044 freq: 4
rob stalling non-critical load ip: 2074452540 freq: 2
rob stalling non-critical load ip: 2074605688 freq: 1
rob stalling non-critical load ip: 2074798288 freq: 1
rob stalling non-critical load ip: 2074798340 freq: 2
rob stalling non-critical load ip: 2074798392 freq: 1
rob stalling non-critical load ip: 2074815500 freq: 2
rob stalling non-critical load ip: 2074908236 freq: 2
rob stalling non-critical load ip: 2074908396 freq: 5
rob stalling non-critical load ip: 2074912268 freq: 9
rob stalling non-critical load ip: 2074912272 freq: 1
rob stalling non-critical load ip: 2074912460 freq: 1
rob stalling non-critical load ip: 2074912704 freq: 5
rob stalling non-critical load ip: 2074914784 freq: 8
rob stalling non-critical load ip: 2074914808 freq: 9
rob stalling non-critical load ip: 2074914844 freq: 7
rob stalling non-critical load ip: 2074915000 freq: 4
rob stalling non-critical load ip: 2074915644 freq: 2
rob stalling non-critical load ip: 2074916460 freq: 2
rob stalling non-critical load ip: 2074916508 freq: 7
rob stalling non-critical load ip: 2074916536 freq: 4
rob stalling non-critical load ip: 2074916572 freq: 2
rob stalling non-critical load ip: 2074919032 freq: 8
rob stalling non-critical load ip: 2074920076 freq: 2
rob stalling non-critical load ip: 2074920612 freq: 1
rob stalling non-critical load ip: 2074920660 freq: 2
rob stalling non-critical load ip: 2074921360 freq: 3
rob stalling non-critical load ip: 2074922444 freq: 1
rob stalling non-critical load ip: 2074922464 freq: 4
rob stalling non-critical load ip: 2074923536 freq: 3
rob stalling non-critical load ip: 2074923652 freq: 7
rob stalling non-critical load ip: 2074923764 freq: 5
rob stalling non-critical load ip: 2074923812 freq: 1
rob stalling non-critical load ip: 2074926024 freq: 10
rob stalling non-critical load ip: 2074926064 freq: 8
rob stalling non-critical load ip: 2074926084 freq: 6
rob stalling non-critical load ip: 2074926180 freq: 7
rob stalling non-critical load ip: 2074941612 freq: 1
rob stalling non-critical load ip: 2074948992 freq: 3
rob stalling non-critical load ip: 2074949044 freq: 1
rob stalling non-critical load ip: 2074950236 freq: 3
rob stalling non-critical load ip: 2074951992 freq: 2
rob stalling non-critical load ip: 2074981916 freq: 2
rob stalling non-critical load ip: 2074982068 freq: 2
rob stalling non-critical load ip: 2074982168 freq: 1
rob stalling non-critical load ip: 4227904900 freq: 1
rob stalling non-critical load ip: 4227907044 freq: 3
rob stalling non-critical load ip: 4227907064 freq: 14
rob stalling non-critical load ip: 4227907128 freq: 1
rob stalling non-critical load ip: 4227954128 freq: 1
rob stalling non-critical load ip: 4227955896 freq: 1
rob stalling non-critical load ip: 4228064580 freq: 3
rob stalling non-critical load ip: 4228064608 freq: 3
rob stalling non-critical load ip: 4228064652 freq: 1
rob stalling non-critical load ip: 4228102548 freq: 119
rob stalling non-critical load ip: 4228102620 freq: 13
rob stalling non-critical load ip: 4228103232 freq: 816
rob stalling non-critical load ip: 4228103288 freq: 64
rob stalling non-critical load ip: 4228103296 freq: 2901
rob stalling non-critical load ip: 4228103304 freq: 868
rob stalling non-critical load ip: 4228103368 freq: 329
rob stalling non-critical load ip: 4228103456 freq: 511
rob stalling non-critical load ip: 4228103460 freq: 4
rob stalling non-critical load ip: 4228103472 freq: 11
rob stalling non-critical load ip: 4228103488 freq: 19
rob stalling non-critical load ip: 4228103504 freq: 459
rob stalling non-critical load ip: 4228103552 freq: 58
rob stalling non-critical load ip: 4228103556 freq: 32
rob stalling non-critical load ip: 4228103596 freq: 15
rob stalling non-critical load ip: 4228103632 freq: 1265
rob stalling non-critical load ip: 4228103700 freq: 324
rob stalling non-critical load ip: 4228103728 freq: 6
rob stalling non-critical load ip: 4228103736 freq: 7
rob stalling non-critical load ip: 4228103788 freq: 72
rob stalling non-critical load ip: 4228103808 freq: 225
rob stalling non-critical load ip: 4228103816 freq: 167
rob stalling non-critical load ip: 4228103880 freq: 14
rob stalling non-critical load ip: 4228103968 freq: 584
rob stalling non-critical load ip: 4228103972 freq: 40
rob stalling non-critical load ip: 4228103984 freq: 530
rob stalling non-critical load ip: 4228103988 freq: 6
rob stalling non-critical load ip: 4228104000 freq: 40
rob stalling non-critical load ip: 4228104004 freq: 17
rob stalling non-critical load ip: 4228104016 freq: 102
rob stalling non-critical load ip: 4228104020 freq: 15
rob stalling non-critical load ip: 4228104064 freq: 149
rob stalling non-critical load ip: 4228104068 freq: 31
rob stalling non-critical load ip: 4228104108 freq: 5
rob stalling non-critical load ip: 4228104144 freq: 6051
rob stalling non-critical load ip: 4228104212 freq: 3
rob stalling non-critical load ip: 4228104240 freq: 1
rob stalling non-critical load ip: 4228104256 freq: 260
rob stalling non-critical load ip: 4228104264 freq: 90
rob stalling non-critical load ip: 4228104532 freq: 5
rob stalling non-critical load ip: 4228104624 freq: 8
rob stalling non-critical load ip: 4228104640 freq: 3
rob stalling non-critical load ip: 4228104672 freq: 19
rob stalling non-critical load ip: 4228104720 freq: 337
rob stalling non-critical load ip: 4228104724 freq: 162
rob stalling non-critical load ip: 4228104764 freq: 192
rob stalling non-critical load ip: 4228104976 freq: 1
rob stalling non-critical load ip: 4228105072 freq: 10
rob stalling non-critical load ip: 4228105076 freq: 2
rob stalling non-critical load ip: 4228105140 freq: 2
rob stalling non-critical load ip: 4228105684 freq: 73
rob stalling non-critical load ip: 4228105904 freq: 1
rob stalling non-critical load ip: 4228106000 freq: 684
rob stalling non-critical load ip: 4228106004 freq: 10
rob stalling non-critical load ip: 4228106044 freq: 16
rob stalling non-critical load ip: 4228106080 freq: 6437
rob stalling non-critical load ip: 4228106132 freq: 7
rob stalling non-critical load ip: 4228106288 freq: 600
rob stalling non-critical load ip: 4228106292 freq: 49
rob stalling non-critical load ip: 4228106304 freq: 89
rob stalling non-critical load ip: 4228106308 freq: 1
rob stalling non-critical load ip: 4228106320 freq: 35
rob stalling non-critical load ip: 4228106324 freq: 44
rob stalling non-critical load ip: 4228106336 freq: 137
rob stalling non-critical load ip: 4228106384 freq: 34
rob stalling non-critical load ip: 4228106388 freq: 12
rob stalling non-critical load ip: 4228106428 freq: 1
rob stalling non-critical load ip: 4228106452 freq: 18
rob stalling non-critical load ip: 4228109252 freq: 976
rob stalling non-critical load ip: 4228175132 freq: 13
rob stalling non-critical load ip: 4228179436 freq: 13
rob stalling non-critical load ip: 4228179624 freq: 9
rob stalling non-critical load ip: 4228204672 freq: 149
rob stalling non-critical load ip: 4228204688 freq: 73
rob stalling non-critical load ip: 4228204704 freq: 61
rob stalling non-critical load ip: 4228204712 freq: 140
rob stalling non-critical load ip: 4228204760 freq: 593
rob stalling non-critical load ip: 4228204860 freq: 80
rob stalling non-critical load ip: 4228204876 freq: 126
rob stalling non-critical load ip: 4228204892 freq: 87
rob stalling non-critical load ip: 4228204908 freq: 20
rob stalling non-critical load ip: 4228204952 freq: 1073
rob stalling non-critical load ip: 4228204988 freq: 943
rob stalling non-critical load ip: 4228215712 freq: 112
rob stalling non-critical load ip: 4228215716 freq: 310
rob stalling non-critical load ip: 4228215720 freq: 95
rob stalling non-critical load ip: 4228216096 freq: 746
rob stalling non-critical load ip: 4228216100 freq: 14
rob stalling non-critical load ip: 4228216104 freq: 18
rob stalling non-critical load ip: 4228216160 freq: 937
rob stalling non-critical load ip: 4228216164 freq: 132
rob stalling non-critical load ip: 4228216168 freq: 273
rob stalling non-critical load ip: 4228216224 freq: 11
rob stalling non-critical load ip: 4228216228 freq: 1
rob stalling non-critical load ip: 4228247148 freq: 1
rob stalling non-critical load ip: 4228247192 freq: 7
rob stalling non-critical load ip: 4228247280 freq: 3
rob stalling non-critical load ip: 4228285224 freq: 1
rob stalling non-critical load ip: 4228286108 freq: 4
rob stalling non-critical load ip: 4228290940 freq: 32
rob stalling non-critical load ip: 4228290964 freq: 7
rob stalling non-critical load ip: 4228290984 freq: 13
rob stalling non-critical load ip: 4228290988 freq: 2
rob stalling non-critical load ip: 4228291004 freq: 10
rob stalling non-critical load ip: 4228291240 freq: 2
rob stalling non-critical load ip: 4228291256 freq: 23
rob stalling non-critical load ip: 4228291276 freq: 3
rob stalling non-critical load ip: 4228291296 freq: 10
rob stalling non-critical load ip: 4228291312 freq: 4
rob stalling non-critical load ip: 4228291324 freq: 50
rob stalling non-critical load ip: 4228291336 freq: 31
rob stalling non-critical load ip: 4228291340 freq: 1
rob stalling non-critical load ip: 4228291372 freq: 70
rob stalling non-critical load ip: 4228291400 freq: 20
rob stalling non-critical load ip: 4228291416 freq: 1
rob stalling non-critical load ip: 4228291432 freq: 2
rob stalling non-critical load ip: 4228291464 freq: 82
rob stalling non-critical load ip: 4228291472 freq: 66
rob stalling non-critical load ip: 4228291500 freq: 16
rob stalling non-critical load ip: 4228291504 freq: 261
rob stalling non-critical load ip: 4228291512 freq: 19
rob stalling non-critical load ip: 4228291548 freq: 12
rob stalling non-critical load ip: 4228291576 freq: 60
rob stalling non-critical load ip: 4228291584 freq: 794
rob stalling non-critical load ip: 4228291596 freq: 19
rob stalling non-critical load ip: 4228291604 freq: 38
rob stalling non-critical load ip: 4228291612 freq: 799
rob stalling non-critical load ip: 4228291624 freq: 9
rob stalling non-critical load ip: 4228291632 freq: 35
rob stalling non-critical load ip: 4228291640 freq: 129
rob stalling non-critical load ip: 4228291652 freq: 19
rob stalling non-critical load ip: 4228291660 freq: 254
rob stalling non-critical load ip: 4228291668 freq: 1117
rob stalling non-critical load ip: 4228291680 freq: 12
rob stalling non-critical load ip: 4228291688 freq: 17
rob stalling non-critical load ip: 4228291696 freq: 198
rob stalling non-critical load ip: 4228291708 freq: 14
rob stalling non-critical load ip: 4228291712 freq: 181
rob stalling non-critical load ip: 4228291732 freq: 12
rob stalling non-critical load ip: 4228291736 freq: 12
rob stalling non-critical load ip: 4228291740 freq: 18
rob stalling non-critical load ip: 4228291760 freq: 260
rob stalling non-critical load ip: 4228291764 freq: 261
rob stalling non-critical load ip: 4228291768 freq: 49
rob stalling non-critical load ip: 4228291788 freq: 12
rob stalling non-critical load ip: 4228291800 freq: 8
rob stalling non-critical load ip: 4228291804 freq: 8
rob stalling non-critical load ip: 4228291832 freq: 3
rob stalling non-critical load ip: 4228291852 freq: 12
rob stalling non-critical load ip: 4228291864 freq: 459
rob stalling non-critical load ip: 4228291900 freq: 154
rob stalling non-critical load ip: 4228291904 freq: 143
rob stalling non-critical load ip: 4228291920 freq: 12
rob stalling non-critical load ip: 4228291944 freq: 68
rob stalling non-critical load ip: 4228291952 freq: 28
rob stalling non-critical load ip: 4228291972 freq: 13
rob stalling non-critical load ip: 4228291984 freq: 539
rob stalling non-critical load ip: 4228292004 freq: 11
rob stalling non-critical load ip: 4228292028 freq: 71
rob stalling non-critical load ip: 4228292040 freq: 858
rob stalling non-critical load ip: 4228292092 freq: 5
rob stalling non-critical load ip: 4228292112 freq: 10
rob stalling non-critical load ip: 4228292124 freq: 1134
rob stalling non-critical load ip: 4228292172 freq: 23
rob stalling non-critical load ip: 4228292192 freq: 12
rob stalling non-critical load ip: 4228292208 freq: 5
rob stalling non-critical load ip: 4228292236 freq: 7
rob stalling non-critical load ip: 4228292248 freq: 147
rob stalling non-critical load ip: 4228292276 freq: 70
rob stalling non-critical load ip: 4228292296 freq: 180
rob stalling non-critical load ip: 4228292344 freq: 124
rob stalling non-critical load ip: 4228292364 freq: 1
rob stalling non-critical load ip: 4228292384 freq: 33
rob stalling non-critical load ip: 4228292400 freq: 9
rob stalling non-critical load ip: 4228292412 freq: 159
rob stalling non-critical load ip: 4228292432 freq: 9
rob stalling non-critical load ip: 4228292444 freq: 19
rob stalling non-critical load ip: 4228292460 freq: 28
rob stalling non-critical load ip: 4228292496 freq: 52
rob stalling non-critical load ip: 4228292516 freq: 17
rob stalling non-critical load ip: 4228292540 freq: 122
rob stalling non-critical load ip: 4228292556 freq: 3
rob stalling non-critical load ip: 4228292568 freq: 31
rob stalling non-critical load ip: 4228292596 freq: 83
rob stalling non-critical load ip: 4228292616 freq: 15
rob stalling non-critical load ip: 4228292632 freq: 20
rob stalling non-critical load ip: 4228292672 freq: 10
rob stalling non-critical load ip: 4228292676 freq: 26
rob stalling non-critical load ip: 4228292692 freq: 2
rob stalling non-critical load ip: 4228292696 freq: 1
rob stalling non-critical load ip: 4228292724 freq: 8
rob stalling non-critical load ip: 4228292744 freq: 7
rob stalling non-critical load ip: 4228292756 freq: 20
rob stalling non-critical load ip: 4228292804 freq: 22
rob stalling non-critical load ip: 4228292852 freq: 4
rob stalling non-critical load ip: 4228292864 freq: 77
rob stalling non-critical load ip: 4228292900 freq: 4
rob stalling non-critical load ip: 4228292908 freq: 4
rob stalling non-critical load ip: 4228292920 freq: 112
rob stalling non-critical load ip: 4228292936 freq: 30
rob stalling non-critical load ip: 4228292940 freq: 17
rob stalling non-critical load ip: 4228292944 freq: 1
rob stalling non-critical load ip: 4228292968 freq: 1
rob stalling non-critical load ip: 4228292996 freq: 3
rob stalling non-critical load ip: 4228293040 freq: 3
rob stalling non-critical load ip: 4228293080 freq: 78
rob stalling non-critical load ip: 4228293088 freq: 8
rob stalling non-critical load ip: 4228293104 freq: 1
rob stalling non-critical load ip: 4228293120 freq: 1
rob stalling non-critical load ip: 4228293124 freq: 4
rob stalling non-critical load ip: 4228293152 freq: 11
rob stalling non-critical load ip: 4228293220 freq: 37
rob stalling non-critical load ip: 4228293308 freq: 7
rob stalling non-critical load ip: 4228293372 freq: 9
rob stalling non-critical load ip: 4228293380 freq: 4
rob stalling non-critical load ip: 4228293388 freq: 9
rob stalling non-critical load ip: 4228293420 freq: 4
rob stalling non-critical load ip: 4228293496 freq: 4
rob stalling non-critical load ip: 4228293512 freq: 5
rob stalling non-critical load ip: 4228293524 freq: 44
rob stalling non-critical load ip: 4228293700 freq: 8
rob stalling non-critical load ip: 4228293704 freq: 7
rob stalling non-critical load ip: 4228293716 freq: 48
rob stalling non-critical load ip: 4228293740 freq: 27
rob stalling non-critical load ip: 4228293772 freq: 2
rob stalling non-critical load ip: 4228293784 freq: 58
rob stalling non-critical load ip: 4228293808 freq: 10
rob stalling non-critical load ip: 4228293832 freq: 3
rob stalling non-critical load ip: 4228293848 freq: 47
rob stalling non-critical load ip: 4228293872 freq: 6
rob stalling non-critical load ip: 4228293900 freq: 21
rob stalling non-critical load ip: 4228293916 freq: 30
rob stalling non-critical load ip: 4228294060 freq: 2
rob stalling non-critical load ip: 4228294140 freq: 6
rob stalling non-critical load ip: 4228294156 freq: 50
rob stalling non-critical load ip: 4228294180 freq: 6
rob stalling non-critical load ip: 4228294404 freq: 7
rob stalling non-critical load ip: 4228294408 freq: 10
rob stalling non-critical load ip: 4228294420 freq: 18
rob stalling non-critical load ip: 4228294440 freq: 2
rob stalling non-critical load ip: 4228335484 freq: 31
rob stalling non-critical load ip: 4228342248 freq: 21
rob stalling non-critical load ip: 4228342268 freq: 2
rob stalling non-critical load ip: 4228342272 freq: 10
rob stalling non-critical load ip: 4228351872 freq: 9
rob stalling non-critical load ip: 4228351920 freq: 14
rob stalling non-critical load ip: 4228351932 freq: 1418
rob stalling non-critical load ip: 4228351948 freq: 1
rob stalling non-critical load ip: 4228351972 freq: 25
rob stalling non-critical load ip: 4228351988 freq: 33
rob stalling non-critical load ip: 4228352000 freq: 33
rob stalling non-critical load ip: 4228352032 freq: 6
rob stalling non-critical load ip: 4228352040 freq: 5
rob stalling non-critical load ip: 4228352056 freq: 50
rob stalling non-critical load ip: 4228352068 freq: 27
rob stalling non-critical load ip: 4228352072 freq: 31
rob stalling non-critical load ip: 4228352076 freq: 61
rob stalling non-critical load ip: 4228352096 freq: 7
rob stalling non-critical load ip: 4228352124 freq: 6
rob stalling non-critical load ip: 4228352164 freq: 69
rob stalling non-critical load ip: 4228352204 freq: 9
rob stalling non-critical load ip: 4228352216 freq: 1378
rob stalling non-critical load ip: 4228352232 freq: 3
rob stalling non-critical load ip: 4228352264 freq: 13
rob stalling non-critical load ip: 4228352276 freq: 7
rob stalling non-critical load ip: 4228352332 freq: 9
rob stalling non-critical load ip: 4228352708 freq: 33
rob stalling non-critical load ip: 4228374508 freq: 14
rob stalling non-critical load ip: 4228374520 freq: 3
rob stalling non-critical load ip: 4228374536 freq: 12
rob stalling non-critical load ip: 4228374552 freq: 13
rob stalling non-critical load ip: 4228374588 freq: 57
rob stalling non-critical load ip: 4228374604 freq: 11
rob stalling non-critical load ip: 4228374628 freq: 4188
rob stalling non-critical load ip: 4228374708 freq: 83
rob stalling non-critical load ip: 4228374752 freq: 313
rob stalling non-critical load ip: 4228374764 freq: 7
rob stalling non-critical load ip: 4228374820 freq: 8
rob stalling non-critical load ip: 4228378560 freq: 5
rob stalling non-critical load ip: 4228379228 freq: 96
rob stalling non-critical load ip: 4228379284 freq: 72
rob stalling non-critical load ip: 4228379288 freq: 186
rob stalling non-critical load ip: 4228379356 freq: 1186
rob stalling non-critical load ip: 4228379372 freq: 161
rob stalling non-critical load ip: 4228382172 freq: 288
rob stalling non-critical load ip: 4228382192 freq: 6
rob stalling non-critical load ip: 4228382208 freq: 278
rob stalling non-critical load ip: 4228382216 freq: 74
rob stalling non-critical load ip: 4228382224 freq: 9
rob stalling non-critical load ip: 4228382244 freq: 14
rob stalling non-critical load ip: 4228382320 freq: 751
rob stalling non-critical load ip: 4228382332 freq: 61
rob stalling non-critical load ip: 4228382340 freq: 795
rob stalling non-critical load ip: 4228382388 freq: 8
rob stalling non-critical load ip: 4228382404 freq: 10
rob stalling non-critical load ip: 4228382428 freq: 359
rob stalling non-critical load ip: 4228382440 freq: 136
rob stalling non-critical load ip: 4228382484 freq: 28
rob stalling non-critical load ip: 4228382488 freq: 5
rob stalling non-critical load ip: 4228382496 freq: 17
rob stalling non-critical load ip: 4228382504 freq: 2
rob stalling non-critical load ip: 4228382520 freq: 7
rob stalling non-critical load ip: 4228382524 freq: 1
rob stalling non-critical load ip: 4228382540 freq: 4
rob stalling non-critical load ip: 4228382552 freq: 138
rob stalling non-critical load ip: 4228382568 freq: 72
rob stalling non-critical load ip: 4228382644 freq: 10
rob stalling non-critical load ip: 4228382660 freq: 1
rob stalling non-critical load ip: 4228382676 freq: 13
rob stalling non-critical load ip: 4228382728 freq: 1
rob stalling non-critical load ip: 4228382744 freq: 110
rob stalling non-critical load ip: 4228382752 freq: 42
rob stalling non-critical load ip: 4228382764 freq: 246
rob stalling non-critical load ip: 4228382772 freq: 123
rob stalling non-critical load ip: 4228382812 freq: 5
rob stalling non-critical load ip: 4228382824 freq: 465
rob stalling non-critical load ip: 4228382884 freq: 3
rob stalling non-critical load ip: 4228382900 freq: 9
rob stalling non-critical load ip: 4228382968 freq: 15
rob stalling non-critical load ip: 4228382980 freq: 12
rob stalling non-critical load ip: 4228383004 freq: 13
rob stalling non-critical load ip: 4228383012 freq: 2
rob stalling non-critical load ip: 4228383268 freq: 94
rob stalling non-critical load ip: 4228383280 freq: 35
rob stalling non-critical load ip: 4228383332 freq: 45
rob stalling non-critical load ip: 4228383364 freq: 10
rob stalling non-critical load ip: 4228383440 freq: 1
rob stalling non-critical load ip: 4228383456 freq: 21
rob stalling non-critical load ip: 4228383496 freq: 15
rob stalling non-critical load ip: 4228383664 freq: 12
rob stalling non-critical load ip: 4228383680 freq: 2
rob stalling non-critical load ip: 4228383696 freq: 22
rob stalling non-critical load ip: 4228383740 freq: 13
rob stalling non-critical load ip: 4228454780 freq: 4
rob stalling non-critical load ip: 4228454892 freq: 1
rob stalling non-critical load ip: 4228455096 freq: 2
rob stalling non-critical load ip: 4228455132 freq: 2
rob stalling non-critical load ip: 4228455180 freq: 12
rob stalling non-critical load ip: 4228455212 freq: 2
rob stalling non-critical load ip: 4228527020 freq: 3
rob stalling non-critical load ip: 4228527164 freq: 5
rob stalling non-critical load ip: 4228527176 freq: 50
rob stalling non-critical load ip: 4228527220 freq: 44
rob stalling non-critical load ip: 4228527308 freq: 44
rob stalling non-critical load ip: 4228549216 freq: 4
rob stalling non-critical load ip: 4228549248 freq: 3
rob stalling non-critical load ip: 4228549328 freq: 7
rob stalling non-critical load ip: 4228551228 freq: 1
rob stalling non-critical load ip: 4228551276 freq: 5
rob stalling non-critical load ip: 4228551284 freq: 2
rob stalling non-critical load ip: 4228551292 freq: 2
rob stalling non-critical load ip: 4228554396 freq: 145
rob stalling non-critical load ip: 4228554400 freq: 20
rob stalling non-critical load ip: 4228554432 freq: 1
rob stalling non-critical load ip: 4228554436 freq: 8
rob stalling non-critical load ip: 4228554468 freq: 1
rob stalling non-critical load ip: 4228554508 freq: 117
rob stalling non-critical load ip: 4228554520 freq: 93
rob stalling non-critical load ip: 4228554524 freq: 34
rob stalling non-critical load ip: 4228554548 freq: 4
rob stalling non-critical load ip: 4228554552 freq: 6
rob stalling non-critical load ip: 4228554568 freq: 13
rob stalling non-critical load ip: 4228554576 freq: 21
rob stalling non-critical load ip: 4228554608 freq: 5
rob stalling non-critical load ip: 4228554696 freq: 10
rob stalling non-critical load ip: 4228554760 freq: 9
rob stalling non-critical load ip: 4228554824 freq: 1
rob stalling non-critical load ip: 4228559004 freq: 45
rob stalling non-critical load ip: 4228559032 freq: 13
rob stalling non-critical load ip: 4228559036 freq: 95
rob stalling non-critical load ip: 4228559076 freq: 33
rob stalling non-critical load ip: 4228559144 freq: 113
rob stalling non-critical load ip: 4228559160 freq: 27
rob stalling non-critical load ip: 4228559180 freq: 16
rob stalling non-critical load ip: 4228559200 freq: 135
rob stalling non-critical load ip: 4228559256 freq: 24
rob stalling non-critical load ip: 4228559288 freq: 27
rob stalling non-critical load ip: 4228559292 freq: 18
rob stalling non-critical load ip: 4228559316 freq: 5
rob stalling non-critical load ip: 4228559336 freq: 9
rob stalling non-critical load ip: 4228559440 freq: 1
rob stalling non-critical load ip: 4228559488 freq: 8
rob stalling non-critical load ip: 4228559552 freq: 47
rob stalling non-critical load ip: 4228559564 freq: 16
rob stalling non-critical load ip: 4228559580 freq: 53
rob stalling non-critical load ip: 4228559612 freq: 30
rob stalling non-critical load ip: 4228559636 freq: 14
rob stalling non-critical load ip: 4228559708 freq: 4
rob stalling non-critical load ip: 4228559768 freq: 1
rob stalling non-critical load ip: 4228559872 freq: 9
rob stalling non-critical load ip: 4228559880 freq: 10
rob stalling non-critical load ip: 4228559888 freq: 10
rob stalling non-critical load ip: 4228559948 freq: 2
rob stalling non-critical load ip: 4228560004 freq: 6
rob stalling non-critical load ip: 4228560012 freq: 13
rob stalling non-critical load ip: 4228560068 freq: 2
rob stalling non-critical load ip: 4228560120 freq: 1
rob stalling non-critical load ip: 4228560128 freq: 8
rob stalling non-critical load ip: 4228560136 freq: 12
rob stalling non-critical load ip: 4228560260 freq: 7
rob stalling non-critical load ip: 4228560276 freq: 4
rob stalling non-critical load ip: 4228560380 freq: 8
rob stalling non-critical load ip: 4228560388 freq: 3
rob stalling non-critical load ip: 4228560396 freq: 3
rob stalling non-critical load ip: 4228560884 freq: 5
rob stalling non-critical load ip: 4228560932 freq: 10
rob stalling non-critical load ip: 4228560948 freq: 10
rob stalling non-critical load ip: 4228561056 freq: 11
rob stalling non-critical load ip: 4228561064 freq: 11
rob stalling non-critical load ip: 4228561172 freq: 6
rob stalling non-critical load ip: 4228561180 freq: 12
rob stalling non-critical load ip: 4228561240 freq: 1
rob stalling non-critical load ip: 4228561284 freq: 6
rob stalling non-critical load ip: 4228561304 freq: 11
rob stalling non-critical load ip: 4228566024 freq: 14
rob stalling non-critical load ip: 4228566088 freq: 618
rob stalling non-critical load ip: 4228566092 freq: 5
rob stalling non-critical load ip: 4228566104 freq: 280
rob stalling non-critical load ip: 4228566112 freq: 77
rob stalling non-critical load ip: 4228566128 freq: 8
rob stalling non-critical load ip: 4228566172 freq: 7
rob stalling non-critical load ip: 4228566176 freq: 29
rob stalling non-critical load ip: 4228566204 freq: 79
rob stalling non-critical load ip: 4228566224 freq: 30
rob stalling non-critical load ip: 4228566244 freq: 26
rob stalling non-critical load ip: 4228566248 freq: 43
rob stalling non-critical load ip: 4228566268 freq: 1
rob stalling non-critical load ip: 4228566288 freq: 18
rob stalling non-critical load ip: 4228566300 freq: 240
rob stalling non-critical load ip: 4228566320 freq: 11
rob stalling non-critical load ip: 4228566340 freq: 315
rob stalling non-critical load ip: 4228566364 freq: 63
rob stalling non-critical load ip: 4228566368 freq: 208
rob stalling non-critical load ip: 4228566408 freq: 19
rob stalling non-critical load ip: 4228566420 freq: 792
rob stalling non-critical load ip: 4228566440 freq: 3
rob stalling non-critical load ip: 4228566460 freq: 12
rob stalling non-critical load ip: 4228566472 freq: 720
rob stalling non-critical load ip: 4228566512 freq: 46
rob stalling non-critical load ip: 4228566528 freq: 28
rob stalling non-critical load ip: 4228566540 freq: 52
rob stalling non-critical load ip: 4228566572 freq: 5
rob stalling non-critical load ip: 4228566584 freq: 158
rob stalling non-critical load ip: 4228567312 freq: 12
[...]
Critical_ROB_Stalls_Percent_1_Bucket_6: 2508
Non-critical_ROB_Stalls_Percent_1_Bucket_6: 4475
Critical_ROB_Stalls_Percent_2_Bucket_0: 259859
Non-critical_ROB_Stalls_Percent_2_Bucket_0: 183673
Critical_ROB_Stalls_Percent_2_Bucket_1: 46600
Non-critical_ROB_Stalls_Percent_2_Bucket_1: 27913
Critical_ROB_Stalls_Percent_2_Bucket_2: 11369
Non-critical_ROB_Stalls_Percent_2_Bucket_2: 6485
Critical_ROB_Stalls_Percent_2_Bucket_3: 5671
Non-critical_ROB_Stalls_Percent_2_Bucket_3: 3430
Critical_ROB_Stalls_Percent_2_Bucket_4: 4753
Non-critical_ROB_Stalls_Percent_2_Bucket_4: 2381
Critical_ROB_Stalls_Percent_2_Bucket_5: 2402
Non-critical_ROB_Stalls_Percent_2_Bucket_5: 1926
Critical_ROB_Stalls_Percent_2_Bucket_6: 2533
Non-critical_ROB_Stalls_Percent_2_Bucket_6: 4450
Critical_ROB_Stalls_Percent_3_Bucket_0: 282868
Non-critical_ROB_Stalls_Percent_3_Bucket_0: 160664
Critical_ROB_Stalls_Percent_3_Bucket_1: 49675
Non-critical_ROB_Stalls_Percent_3_Bucket_1: 24838
Critical_ROB_Stalls_Percent_3_Bucket_2: 11974
Non-critical_ROB_Stalls_Percent_3_Bucket_2: 5880
Critical_ROB_Stalls_Percent_3_Bucket_3: 6066
Non-critical_ROB_Stalls_Percent_3_Bucket_3: 3035
Critical_ROB_Stalls_Percent_3_Bucket_4: 5077
Non-critical_ROB_Stalls_Percent_3_Bucket_4: 2057
Critical_ROB_Stalls_Percent_3_Bucket_5: 2652
Non-critical_ROB_Stalls_Percent_3_Bucket_5: 1676
Critical_ROB_Stalls_Percent_3_Bucket_6: 3186
Non-critical_ROB_Stalls_Percent_3_Bucket_6: 3797
Critical_ROB_Stalls_Percent_4_Bucket_0: 308279
Non-critical_ROB_Stalls_Percent_4_Bucket_0: 135253
Critical_ROB_Stalls_Percent_4_Bucket_1: 50706
Non-critical_ROB_Stalls_Percent_4_Bucket_1: 23807
Critical_ROB_Stalls_Percent_4_Bucket_2: 12476
Non-critical_ROB_Stalls_Percent_4_Bucket_2: 5378
Critical_ROB_Stalls_Percent_4_Bucket_3: 6278
Non-critical_ROB_Stalls_Percent_4_Bucket_3: 2823
Critical_ROB_Stalls_Percent_4_Bucket_4: 5200
Non-critical_ROB_Stalls_Percent_4_Bucket_4: 1934
Critical_ROB_Stalls_Percent_4_Bucket_5: 2771
Non-critical_ROB_Stalls_Percent_4_Bucket_5: 1557
Critical_ROB_Stalls_Percent_4_Bucket_6: 3263
Non-critical_ROB_Stalls_Percent_4_Bucket_6: 3720
Critical_ROB_Stalls_Percent_5_Bucket_0: 331159
Non-critical_ROB_Stalls_Percent_5_Bucket_0: 112373
Critical_ROB_Stalls_Percent_5_Bucket_1: 52792
Non-critical_ROB_Stalls_Percent_5_Bucket_1: 21721
Critical_ROB_Stalls_Percent_5_Bucket_2: 13051
Non-critical_ROB_Stalls_Percent_5_Bucket_2: 4803
Critical_ROB_Stalls_Percent_5_Bucket_3: 6494
Non-critical_ROB_Stalls_Percent_5_Bucket_3: 2607
Critical_ROB_Stalls_Percent_5_Bucket_4: 5430
Non-critical_ROB_Stalls_Percent_5_Bucket_4: 1704
Critical_ROB_Stalls_Percent_5_Bucket_5: 2963
Non-critical_ROB_Stalls_Percent_5_Bucket_5: 1365
Critical_ROB_Stalls_Percent_5_Bucket_6: 4459
Non-critical_ROB_Stalls_Percent_5_Bucket_6: 2524
Critical_ROB_Stalls_Percent_6_Bucket_0: 353561
Non-critical_ROB_Stalls_Percent_6_Bucket_0: 89971
Critical_ROB_Stalls_Percent_6_Bucket_1: 56187
Non-critical_ROB_Stalls_Percent_6_Bucket_1: 18326
Critical_ROB_Stalls_Percent_6_Bucket_2: 13883
Non-critical_ROB_Stalls_Percent_6_Bucket_2: 3971
Critical_ROB_Stalls_Percent_6_Bucket_3: 7014
Non-critical_ROB_Stalls_Percent_6_Bucket_3: 2087
Critical_ROB_Stalls_Percent_6_Bucket_4: 5715
Non-critical_ROB_Stalls_Percent_6_Bucket_4: 1419
Critical_ROB_Stalls_Percent_6_Bucket_5: 3128
Non-critical_ROB_Stalls_Percent_6_Bucket_5: 1200
Critical_ROB_Stalls_Percent_6_Bucket_6: 4558
Non-critical_ROB_Stalls_Percent_6_Bucket_6: 2425
Critical_ROB_Stalls_Percent_7_Bucket_0: 375037
Non-critical_ROB_Stalls_Percent_7_Bucket_0: 68495
Critical_ROB_Stalls_Percent_7_Bucket_1: 60169
Non-critical_ROB_Stalls_Percent_7_Bucket_1: 14344
Critical_ROB_Stalls_Percent_7_Bucket_2: 14957
Non-critical_ROB_Stalls_Percent_7_Bucket_2: 2897
Critical_ROB_Stalls_Percent_7_Bucket_3: 7533
Non-critical_ROB_Stalls_Percent_7_Bucket_3: 1568
Critical_ROB_Stalls_Percent_7_Bucket_4: 5987
Non-critical_ROB_Stalls_Percent_7_Bucket_4: 1147
Critical_ROB_Stalls_Percent_7_Bucket_5: 3280
Non-critical_ROB_Stalls_Percent_7_Bucket_5: 1048
Critical_ROB_Stalls_Percent_7_Bucket_6: 4841
Non-critical_ROB_Stalls_Percent_7_Bucket_6: 2142
Critical_ROB_Stalls_Percent_8_Bucket_0: 395408
Non-critical_ROB_Stalls_Percent_8_Bucket_0: 48124
Critical_ROB_Stalls_Percent_8_Bucket_1: 64442
Non-critical_ROB_Stalls_Percent_8_Bucket_1: 10071
Critical_ROB_Stalls_Percent_8_Bucket_2: 15760
Non-critical_ROB_Stalls_Percent_8_Bucket_2: 2094
Critical_ROB_Stalls_Percent_8_Bucket_3: 7988
Non-critical_ROB_Stalls_Percent_8_Bucket_3: 1113
Critical_ROB_Stalls_Percent_8_Bucket_4: 6410
Non-critical_ROB_Stalls_Percent_8_Bucket_4: 724
Critical_ROB_Stalls_Percent_8_Bucket_5: 3722
Non-critical_ROB_Stalls_Percent_8_Bucket_5: 606
Critical_ROB_Stalls_Percent_8_Bucket_6: 5696
Non-critical_ROB_Stalls_Percent_8_Bucket_6: 1287
Average ROB occupancy Load Stall Begin: 38.0393
Average ROB occupancy Load Stall End: 44.2281
Min ROB occupancy Load Stall Begin: 1
Max ROB occupancy Load Stall Begin: 351
Min ROB occupancy Load Stall End: 1
Max ROB occupancy Load Stall End: 352
Average ROB occupancy Critical Load Stall Begin: -nan
Average ROB occupancy Critical Load Stall End: -nan
Min ROB occupancy Critical Load Stall Begin: 400
Max ROB occupancy Critical Load Stall Begin: 0
Min ROB occupancy Critical Load Stall End: 400
Max ROB occupancy Critical Load Stall End: 0
 ROB Load Stall Begin Bucket Count 0: 457738
 ROB Load Stall End Bucket Count 0: 443532
 ROB Critical Load Stall Begin Bucket Count 0: 0
 ROB Critical Load Stall End Bucket Count 0: 0
 ROB Load Stall Begin Bucket Count 1: 64658
 ROB Load Stall End Bucket Count 1: 74513
 ROB Critical Load Stall Begin Bucket Count 1: 0
 ROB Critical Load Stall End Bucket Count 1: 0
 ROB Load Stall Begin Bucket Count 2: 16885
 ROB Load Stall End Bucket Count 2: 17854
 ROB Critical Load Stall Begin Bucket Count 2: 0
 ROB Critical Load Stall End Bucket Count 2: 0
 ROB Load Stall Begin Bucket Count 3: 7991
 ROB Load Stall End Bucket Count 3: 9101
 ROB Critical Load Stall Begin Bucket Count 3: 0
 ROB Critical Load Stall End Bucket Count 3: 0
 ROB Load Stall Begin Bucket Count 4: 6187
 ROB Load Stall End Bucket Count 4: 7134
 ROB Critical Load Stall Begin Bucket Count 4: 0
 ROB Critical Load Stall End Bucket Count 4: 0
 ROB Load Stall Begin Bucket Count 5: 4441
 ROB Load Stall End Bucket Count 5: 4328
 ROB Critical Load Stall Begin Bucket Count 5: 0
 ROB Critical Load Stall End Bucket Count 5: 0
 ROB Load Stall Begin Bucket Count 6: 5545
 ROB Load Stall End Bucket Count 6: 6983
 ROB Critical Load Stall Begin Bucket Count 6: 0
 ROB Critical Load Stall End Bucket Count 6: 0
PIST Tag Read Accesses: 112250
PIST Read Accesses: 56125
PIST Tag Write Accesses: 112250
PIST Write Accesses: 56125
Criticality detector called times: 267202
Max global_stall_cycles_count: 357937
Threshold Modified: 1 times, factor: -1
Sturdy critical IP cache stats: 
 Unused entries: 0
CIC Tag Read Accesses: 0
CIC Read Accesses: 0
CIC Tag Write Accesses: 0
CIC Write Accesses: 0
Wobbly critical IP cache stats: 
 Unused entries: 101
CIC Tag Read Accesses: 52557297
CIC Read Accesses: 0
CIC Tag Write Accesses: 121860
CIC Write Accesses: 0
ITLB TOTAL     ACCESS:    7697836  HIT:    7215867  MISS:     481969  HIT %:    93.7389  MISS %:     6.2611   MPKI: 9.63938
ITLB LOAD TRANSLATION ACCESS:    7697836  HIT:    7215867  MISS:     481969  HIT %:    93.7389  MISS %:     6.2611   MPKI: 9.63938
ITLB PREFETCH  REQUESTED:          0  ISSUED:          0  USEFUL:          0  USELESS:          0
ITLB USEFUL LOAD PREFETCHES:          0 PREFETCH ISSUED TO LOWER LEVEL:          0  ACCURACY: -nan
ITLB TIMELY PREFETCHES:          0 LATE PREFETCHES: 0 DROPPED PREFETCHES: 0
ITLB PREFETCHES SAME FILL-ORIGIN LEVEL: 0 DIFFERENT FILL-ORIGIN LEVEL: 0
ITLB AVERAGE MISS LATENCY: 29.0532 cycles
ITLB RQ	ACCESS:    9914667	FORWARD:          0	MERGED:    2033939	TO_CACHE:    7880728

DTLB TOTAL     ACCESS:    7553238  HIT:    5421192  MISS:    2132046  HIT %:    71.7731  MISS %:    28.2269   MPKI: 42.6409
DTLB LOAD TRANSLATION ACCESS:    7553238  HIT:    5421192  MISS:    2132046  HIT %:    71.7731  MISS %:    28.2269   MPKI: 42.6409
DTLB PREFETCH  REQUESTED:          0  ISSUED:          0  USEFUL:          0  USELESS:          0
DTLB USEFUL LOAD PREFETCHES:          0 PREFETCH ISSUED TO LOWER LEVEL:          0  ACCURACY: -nan
DTLB TIMELY PREFETCHES:          0 LATE PREFETCHES: 0 DROPPED PREFETCHES: 0
DTLB PREFETCHES SAME FILL-ORIGIN LEVEL: 0 DIFFERENT FILL-ORIGIN LEVEL: 0
DTLB AVERAGE MISS LATENCY: 17.3865 cycles
DTLB RQ	ACCESS:    9860551	FORWARD:          0	MERGED:    2104089	TO_CACHE:    7756462

STLB TOTAL     ACCESS:    2614015  HIT:    1512571  MISS:    1101444  HIT %:    57.8639  MISS %:    42.1361   MPKI: 22.0289
STLB LOAD TRANSLATION ACCESS:    2614015  HIT:    1512571  MISS:    1101444  HIT %:    57.8639  MISS %:    42.1361   MPKI: 22.0289
STLB PREFETCH  REQUESTED:          0  ISSUED:          0  USEFUL:          0  USELESS:          0
STLB USEFUL LOAD PREFETCHES:          0 PREFETCH ISSUED TO LOWER LEVEL:          0  ACCURACY: -nan
STLB TIMELY PREFETCHES:          0 LATE PREFETCHES: 0 DROPPED PREFETCHES: 0
STLB PREFETCHES SAME FILL-ORIGIN LEVEL: 0 DIFFERENT FILL-ORIGIN LEVEL: 0
STLB AVERAGE MISS LATENCY: 24.7783 cycles
STLB RQ	ACCESS:    2614017	FORWARD:          0	MERGED:          0	TO_CACHE:    2614017

STLB Hit, L1D data hit: 0
STLB Hit, L2C data hit: 0
STLB Hit, LLC data hit: 0
STLB Hit, LLC data miss: 0
STLB STLB hints to L2: 0
L1D TOTAL     ACCESS:    9718446  HIT:    9388008  MISS:     330438  HIT %:    96.5999  MISS %:    3.40011   MPKI: 6.60876
L1D LOAD      ACCESS:    5715673  HIT:    5419406  MISS:     296267  HIT %:    94.8166  MISS %:    5.18341   MPKI: 5.92534
L1D RFO       ACCESS:    4002773  HIT:    3968602  MISS:      34171  HIT %:    99.1463  MISS %:   0.853683   MPKI: 0.68342
L1D PREFETCH  REQUESTED:          0  ISSUED:          0  USEFUL:          0  USELESS:          0
L1D USEFUL LOAD PREFETCHES:          0 PREFETCH ISSUED TO LOWER LEVEL:          0  ACCURACY: -nan
L1D TIMELY PREFETCHES:          0 LATE PREFETCHES: 0 DROPPED PREFETCHES: 0
L1D PREFETCHES SAME FILL-ORIGIN LEVEL: 0 DIFFERENT FILL-ORIGIN LEVEL: 0
L1D AVERAGE MISS LATENCY: 52.0115 cycles
L1D RQ	ACCESS:    8812342	FORWARD:          0	MERGED:    2982185	TO_CACHE:    5731171
L1D WQ	ACCESS:    4334826	FORWARD:      98986	MERGED:     205446	TO_CACHE:    4129380

L1D UNIQUE REGIONS ACCESSED: 0
L1D REGIONS CONFLICTS: 0
L1D Cross Page Prefetch Requests: 0
L1D Same Page Prefetch Requests: 0
L1D ROI Sum of L1D PQ occupancy: 0
L1D PREFETCHES PUSHED FROM L2C: 0
L1I TOTAL     ACCESS:    9816503  HIT:    9515946  MISS:     300557  HIT %:    96.9382  MISS %:    3.06175   MPKI: 6.01114
L1I LOAD      ACCESS:    9816503  HIT:    9515946  MISS:     300557  HIT %:    96.9382  MISS %:    3.06175   MPKI: 6.01114
L1I PREFETCH  REQUESTED:          0  ISSUED:          0  USEFUL:          0  USELESS:          0
L1I USEFUL LOAD PREFETCHES:          0 PREFETCH ISSUED TO LOWER LEVEL:          0  ACCURACY: -nan
L1I TIMELY PREFETCHES:          0 LATE PREFETCHES: 0 DROPPED PREFETCHES: 0
L1I PREFETCHES SAME FILL-ORIGIN LEVEL: 0 DIFFERENT FILL-ORIGIN LEVEL: 0
L1I AVERAGE MISS LATENCY: 23.5264 cycles
L1I RQ	ACCESS:   16167871	FORWARD:          0	MERGED:    6253204	TO_CACHE:    9914667

BTB BRANCH_DIRECT_JUMP	ACCESS:          0  HIT:          0  MISS:          0
BTB BRANCH_INDIRECT	ACCESS:          0  HIT:          0  MISS:          0
BTB BRANCH_CONDITIONAL	ACCESS:          0  HIT:          0  MISS:          0
BTB BRANCH_DIRECT_CALL	ACCESS:          0  HIT:          0  MISS:          0
BTB BRANCH_INDIRECT_CALL	ACCESS:          0  HIT:          0  MISS:          0
BTB BRANCH_RETURN	ACCESS:          0  HIT:          0  MISS:          0
BTB BRANCH_OTHER ACCESS:          0  HIT:          0  MISS:          0

L2C TOTAL     ACCESS:    2148762  HIT:    1812876  MISS:     335886  HIT %:    84.3684  MISS %:    15.6316   MPKI: 6.71772
L2C LOAD      ACCESS:     596823  HIT:     520387  MISS:      76436  HIT %:    87.1929  MISS %:    12.8071   MPKI: 1.52872
L2C DATA LOAD MPKI: 0.98
L2C INSTRUCTION LOAD MPKI: 0.54872
L2C RFO       ACCESS:      34168  HIT:      14924  MISS:      19244  HIT %:    43.6783  MISS %:    56.3217   MPKI: 0.38488
L2C PREFETCH  ACCESS:     253105  HIT:      21093  MISS:     232012  HIT %:     8.3337  MISS %:    91.6663   MPKI: 4.64024
L2C DATA PREFETCH MPKI: 4.64024
L2C INSTRUCTION PREFETCH MPKI: 0
L2C WRITEBACK ACCESS:     119398  HIT:     116973  MISS:       2425  HIT %:     97.969  MISS %:    2.03102   MPKI: 0.0485
L2C LOAD TRANSLATION ACCESS:    1145268  HIT:    1139499  MISS:       5769  HIT %:    99.4963  MISS %:   0.503725   MPKI: 0.11538
L2C PREFETCH  REQUESTED:     264070  ISSUED:     264070  USEFUL:     211412  USELESS:      20819
L2C USEFUL LOAD PREFETCHES:     211412 PREFETCH ISSUED TO LOWER LEVEL:     237728  ACCURACY: 88.9302
L2C TIMELY PREFETCHES:     211412 LATE PREFETCHES: 5716 DROPPED PREFETCHES: 0
L2C PREFETCHES SAME FILL-ORIGIN LEVEL: 237728 DIFFERENT FILL-ORIGIN LEVEL: 0
L2C AVERAGE MISS LATENCY: 171.284 cycles
L2C RQ	ACCESS:    1776266	FORWARD:          0	MERGED:          0	TO_CACHE:    1776265
L2C WQ	ACCESS:     119398	FORWARD:          1	MERGED:          0	TO_CACHE:     119398
L2C PQ	ACCESS:     264070	FORWARD:          0	MERGED:          0	TO_CACHE:     264070

L2C Instructions Evicting Data 22695
L2C Translations Evicting Data 4936
L2C Data Evicting Data 272418
L2C Instructions Evicting Instructions 4077
L2C Translations Evicting Instructions 704
L2C Data Evicting Instructions 22748
L2C Instructions Evicting Translations 664
L2C Translations Evicting Translations 129
L2C Data Evicting Translations 5090
L2C Dense regions hint from L2: 0
PSCL5 TOTAL     ACCESS:    1101445  HIT:    1101445  MISS:          0  HIT %:        100  MISS %:          0   MPKI: 0
PSCL5 LOAD TRANSLATION ACCESS:    1101445  HIT:    1101445  MISS:          0  HIT %:        100  MISS %:          0   MPKI: 0
PSCL5 PREFETCH  REQUESTED:          0  ISSUED:          0  USEFUL:          0  USELESS:          0
PSCL5 USEFUL LOAD PREFETCHES:          0 PREFETCH ISSUED TO LOWER LEVEL:          0  ACCURACY: -nan
PSCL5 TIMELY PREFETCHES:          0 LATE PREFETCHES: 0 DROPPED PREFETCHES: 0
PSCL5 PREFETCHES SAME FILL-ORIGIN LEVEL: 0 DIFFERENT FILL-ORIGIN LEVEL: 0

PSCL4 TOTAL     ACCESS:    1094808  HIT:    1094786  MISS:         22  HIT %:     99.998  MISS %: 0.00200948   MPKI: 0.00044
PSCL4 LOAD TRANSLATION ACCESS:    1094808  HIT:    1094786  MISS:         22  HIT %:     99.998  MISS %: 0.00200948   MPKI: 0.00044
PSCL4 PREFETCH  REQUESTED:          0  ISSUED:          0  USEFUL:          0  USELESS:          0
PSCL4 USEFUL LOAD PREFETCHES:          0 PREFETCH ISSUED TO LOWER LEVEL:          0  ACCURACY: -nan
PSCL4 TIMELY PREFETCHES:          0 LATE PREFETCHES: 0 DROPPED PREFETCHES: 0
PSCL4 PREFETCHES SAME FILL-ORIGIN LEVEL: 0 DIFFERENT FILL-ORIGIN LEVEL: 0

PSCL3 TOTAL     ACCESS:    1086278  HIT:    1084704  MISS:       1574  HIT %:    99.8551  MISS %:   0.144898   MPKI: 0.03148
PSCL3 LOAD TRANSLATION ACCESS:    1086278  HIT:    1084704  MISS:       1574  HIT %:    99.8551  MISS %:   0.144898   MPKI: 0.03148
PSCL3 PREFETCH  REQUESTED:          0  ISSUED:          0  USEFUL:          0  USELESS:          0
PSCL3 USEFUL LOAD PREFETCHES:          0 PREFETCH ISSUED TO LOWER LEVEL:          0  ACCURACY: -nan
PSCL3 TIMELY PREFETCHES:          0 LATE PREFETCHES: 0 DROPPED PREFETCHES: 0
PSCL3 PREFETCHES SAME FILL-ORIGIN LEVEL: 0 DIFFERENT FILL-ORIGIN LEVEL: 0

PSCL2 TOTAL     ACCESS:    1101445  HIT:    1059114  MISS:      42331  HIT %:    96.1568  MISS %:    3.84322   MPKI: 0.84662
PSCL2 LOAD TRANSLATION ACCESS:    1101445  HIT:    1059114  MISS:      42331  HIT %:    96.1568  MISS %:    3.84322   MPKI: 0.84662
PSCL2 PREFETCH  REQUESTED:          0  ISSUED:          0  USEFUL:          0  USELESS:          0
PSCL2 USEFUL LOAD PREFETCHES:          0 PREFETCH ISSUED TO LOWER LEVEL:          0  ACCURACY: -nan
PSCL2 TIMELY PREFETCHES:          0 LATE PREFETCHES: 0 DROPPED PREFETCHES: 0
PSCL2 PREFETCHES SAME FILL-ORIGIN LEVEL: 0 DIFFERENT FILL-ORIGIN LEVEL: 0

LLC TOTAL     ACCESS:     435645  HIT:     146097  MISS:     289548  HIT %:    33.5358  MISS %:    66.4642   MPKI: 5.79096
LLC LOAD      ACCESS:      70742  HIT:      26711  MISS:      44031  HIT %:    37.7583  MISS %:    62.2417   MPKI: 0.88062
LLC RFO       ACCESS:      19222  HIT:       1486  MISS:      17736  HIT %:    7.73073  MISS %:    92.2693   MPKI: 0.35472
LLC PREFETCH  ACCESS:     237728  HIT:      16659  MISS:     221069  HIT %:    7.00759  MISS %:    92.9924   MPKI: 4.42138
LLC WRITEBACK ACCESS:     102184  HIT:      98422  MISS:       3762  HIT %:    96.3184  MISS %:    3.68159   MPKI: 0.07524
LLC LOAD TRANSLATION ACCESS:       5769  HIT:       2819  MISS:       2950  HIT %:    48.8646  MISS %:    51.1354   MPKI: 0.059
LLC PREFETCH  REQUESTED:          0  ISSUED:          0  USEFUL:       5708  USELESS:     207160
LLC USEFUL LOAD PREFETCHES:       5708 PREFETCH ISSUED TO LOWER LEVEL:     221069  ACCURACY: 2.582
LLC TIMELY PREFETCHES:       5708 LATE PREFETCHES: 0 DROPPED PREFETCHES: 0
LLC PREFETCHES SAME FILL-ORIGIN LEVEL: 0 DIFFERENT FILL-ORIGIN LEVEL: 0
LLC AVERAGE MISS LATENCY: 165.888 cycles
LLC RQ	ACCESS:      95735	FORWARD:          0	MERGED:          0	TO_CACHE:      95735
LLC WQ	ACCESS:     102184	FORWARD:          0	MERGED:          0	TO_CACHE:     102184
LLC PQ	ACCESS:     237728	FORWARD:          0	MERGED:          0	TO_CACHE:     237728

LLC Dense regions hint to LLC: 0

RAW hits: 537159
Loads Generated: 9349501
Loads sent to L1D: 8812342
Stores Generated: 4334826
Stores sent to L1D: 4334826
Major fault: 0 Minor fault: 10162
Allocated PAGES: 10162
[Bingo] PHT Access: 23210
[Bingo] PHT Hit PC+Addr: 3807
[Bingo] PHT Hit PC+Offs: 13080
[Bingo] PHT Miss: 6323
[Bingo] Prefetch PC+Addr: 0
[Bingo] Prefetch PC+Offs: 0
[Bingo] Useful PC+Addr: 0
[Bingo] Useful PC+Offs: 0
[Bingo] Useless PC+Addr: 0
[Bingo] Useless PC+Offs: 0
[Bingo] L1 Prefetch per Region: 0
[Bingo] L2 Prefetch per Region: 16.6807
[Bingo] L3 Prefetch per Region: 0
[Bingo] No Prefetch per Region: 15.3193
[Bingo] Number of Voters Mean: 12.5804
[Bingo] Number of Voters SD: 13.9089
PHT read accesses: 237856
PHT write accesses: 16367
AT read accesses: 277965
AT write accesses: 287414
FT read accesses: 55214
FT write accesses: 23210
PS read accesses: 48587
PS write accesses: 16887
PHT tag read accesses: 777180
PHT tag write accesses: 20174
AT tag read accesses: 10846471
AT tag write accesses: 294333
FT tag read accesses: 6847576
FT tag write accesses: 60045
PS tag read accesses: 5343738
PS tag write accesses: 65413

DRAM Statistics
 CHANNEL 0
 RQ ROW_BUFFER_HIT:     184249  ROW_BUFFER_MISS:     101537
 DBUS_CONGESTED:        277
 WQ ROW_BUFFER_HIT:      14999  ROW_BUFFER_MISS:     103114  FULL:          0

 AVG_CONGESTED_CYCLE: 3
 All warmup complete: 2
Channel 0 Bank busy for read cycles: 0
Channel 0 Bank busy for write cycles: 0
Channel 0
Rank 0
0banks busy for read cycles: 57136892
0banks busy for write cycles: 14482
1banks busy for read cycles: 3256864
1banks busy for write cycles: 1628691
2banks busy for read cycles: 939429
2banks busy for write cycles: 716876
3banks busy for read cycles: 362032
3banks busy for write cycles: 495357
4banks busy for read cycles: 208926
4banks busy for write cycles: 398230
5banks busy for read cycles: 201085
5banks busy for write cycles: 364336
6banks busy for read cycles: 202747
6banks busy for write cycles: 369888
7banks busy for read cycles: 452575
7banks busy for write cycles: 453896
8banks busy for read cycles: 1512900
8banks busy for write cycles: 915320

CPU 0 Branch Prediction Accuracy: 98.6335% MPKI: 2.41998 Average ROB Occupancy at Mispredict: 34.44
Branch types
NOT_BRANCH: 0 0%
BRANCH_DIRECT_JUMP: 0 0%
BRANCH_INDIRECT: 0 0%
BRANCH_CONDITIONAL: 0 0%
BRANCH_DIRECT_CALL: 0 0%
BRANCH_INDIRECT_CALL: 0 0%
BRANCH_RETURN: 0 0%
BRANCH_OTHER: 0 0%

DRAM PAGES: 1048576
Allocated PAGES: 10162
