Initialize SIGNATURE TABLE
ST_SET: 1
ST_WAY: 256
ST_TAG_BIT: 16
ST_TAG_MASK: ffff

Initialize PATTERN TABLE
PT_SET: 512
PT_WAY: 4
SIG_DELTA_BIT: 7
C_SIG_BIT: 4
C_DELTA_BIT: 4

Initialize PREFETCH FILTER
FILTER_SET: 1024

*** ChampSim Multicore Out-of-Order Simulator ***

Warmup Instructions: 50000000
Simulation Instructions: 50000000
Number of CPUs: 1
LLC sets: 2048
LLC ways: 16
Off-chip DRAM Size: 4096 MB Channels: 1 Width: 64-bit Data Rate: 6400 MT/s
CPU 0 runs ../cloudsuite_traces//nutch_phase2_core0.trace.gz
.gz
NUM_OF_IPS_IN_CRITICAL_IP_TRAINING: 64
NUM_OF_CRITICAL_IP_TRAINING_TABLE_WAYS: 2
NUM_OF_CRITICAL_IP_TRAINING_TABLE_SETS: 32
WOBBLY_CRITICAL_IP_CACHE_SETS: 32
WOBBLY_CRITICAL_IP_CACHE_WAYS: 4
BTB has LRU replacement policy
ITLB has LRU replacement policy
DTLB has LRU replacement policy
STLB has LRU replacement policy
L1I has LRU replacement policy
L1D has LRU replacement policy
Initialize SRRIP state for L2C
Initialize DRRIP state for LLC
UNIQUE_ASID[0] = €
UNIQUE_ASID[1] = 
Heartbeat CPU 0 instructions: 10000002 cycles: 2766448 heartbeat IPC: 3.61474 cumulative IPC: 3.61474 (Simulation time: 0 hr 3 min 52 sec) 
Heartbeat CPU 0 instructions: 20000001 cycles: 5397705 heartbeat IPC: 3.80046 cumulative IPC: 3.70528 (Simulation time: 0 hr 8 min 28 sec) 
Heartbeat CPU 0 instructions: 30000001 cycles: 8365069 heartbeat IPC: 3.36999 cumulative IPC: 3.58634 (Simulation time: 0 hr 14 min 9 sec) 
Heartbeat CPU 0 instructions: 40000003 cycles: 11041638 heartbeat IPC: 3.73613 cumulative IPC: 3.62265 (Simulation time: 0 hr 19 min 16 sec) 
Heartbeat CPU 0 instructions: 50000002 cycles: 13913385 heartbeat IPC: 3.4822 cumulative IPC: 3.59366 (Simulation time: 0 hr 23 min 31 sec) 

Warmup complete CPU 0 instructions: 50000002 cycles: 13913385 (Simulation time: 0 hr 23 min 31 sec) 

% increase in all ip prefetch 251.305
% increase in all ip prefetch -4.20891
Heartbeat CPU 0 instructions: 60000000 cycles: 24993024 heartbeat IPC: 0.902556 cumulative IPC: 0.902556 (Simulation time: 0 hr 28 min 40 sec) 
Heartbeat CPU 0 instructions: 70000000 cycles: 38701048 heartbeat IPC: 0.7295 cumulative IPC: 0.806853 (Simulation time: 0 hr 34 min 17 sec) 
Heartbeat CPU 0 instructions: 80000001 cycles: 53978516 heartbeat IPC: 0.654559 cumulative IPC: 0.748781 (Simulation time: 0 hr 39 min 13 sec) 
Heartbeat CPU 0 instructions: 90000001 cycles: 69508845 heartbeat IPC: 0.643901 cumulative IPC: 0.719483 (Simulation time: 0 hr 43 min 36 sec) 
Heartbeat CPU 0 instructions: 100000001 cycles: 85851203 heartbeat IPC: 0.611907 cumulative IPC: 0.695045 (Simulation time: 0 hr 48 min 58 sec) 
Finished CPU 0 instructions: 50000003 cycles: 71937849 cumulative IPC: 0.695044 (Simulation time: 0 hr 48 min 58 sec) 

ChampSim completed all CPUs

Region of Interest Statistics

CPU 0 cumulative IPC: 0.695044 instructions: 50000003 cycles: 71937849

CPU 0 Average Load ROB stall cycles: 1.84125e+07
CPU 0 Fraction of times ROB stalled by Loads: 40.2919
CPU 0 Percentage of Load stall cycles in Total stall cycles: 1.66731e+08
Issued all: 34749038
Issued LT all: 28696256
rob_not_full_when_issued_lt_all: 19677863
Issued LT one: 24338128
rob_not_full_when_issued_lt_one: 16191748
 Total stall cycles: 58861944
 Total load stall cycles: 98141371498084
CPU 0 NUM of IPS identified critical: 0
CPU 0 Num of Load IPs stalling ROB: 1104
Threshold modification factor: -1
Max PIST entries: 64
Min PIST entries: 0
Avg PIST entries: 20.77
Trouble in retire width: 0.952293
MaC = Marked as critical.
lt_50_percent_before_Mac: 0
gt_90_percent_before_Mac: 0
gt_75_percent_before_Mac: 0
gt_50_percent_before_Mac: 0
stall_proportion_bin_same_before_after: 0
stall_proportion_bin_lower_before_after: 0
stall_proportion_bin_upper_before_after: 0
average_stall_proportion_before: -nan
average_stall_proportion_after: -nan
Critical IP stalls, total frequency: 0
Non-critical IP stalls, total frequency: 2147617
Total Freq all stalling IPs: 2147617
stat_90_percent_critical_ip_stalls_freq: 1935883
stat_90_percent_non_critical_ip_stalls_freq: 211734
Critical_IP_ROB_Stalls_Bucket_0: 0
Non-critical_IP_ROB_Stalls_Bucket_0: 822988
Critical_IP_ROB_Stalls_Bucket_1: 0
Non-critical_IP_ROB_Stalls_Bucket_1: 504488
Critical_IP_ROB_Stalls_Bucket_2: 0
Non-critical_IP_ROB_Stalls_Bucket_2: 201801
Critical_IP_ROB_Stalls_Bucket_3: 0
Non-critical_IP_ROB_Stalls_Bucket_3: 113115
Critical_IP_ROB_Stalls_Bucket_4: 0
Non-critical_IP_ROB_Stalls_Bucket_4: 97069
Critical_IP_ROB_Stalls_Bucket_5: 0
Non-critical_IP_ROB_Stalls_Bucket_5: 103769
Critical_IP_ROB_Stalls_Bucket_6: 0
Non-critical_IP_ROB_Stalls_Bucket_6: 304387
0 => IPs accounting for >50 percent of stalls, 1 => 55, 2 => 60, 3 => 65 and so on till 90.
percent50: 51.6558 num IPs:  7
percent55: 55.2707 num IPs: 8
percent60: 62.055 num IPs: 10
percent65: 65.3717 num IPs: 12
percent70: 70.7113 num IPs: 16
percent75: 75.4779 num IPs: 22
percent80: 80.3397 num IPs: 31
percent85: 85.2115 num IPs: 42
percent90: 90.141 num IPs: 61
Critical_ROB_Stalls_Percent_0_Bucket_0: 363645
Non-critical_ROB_Stalls_Percent_0_Bucket_0: 459343
Critical_ROB_Stalls_Percent_0_Bucket_1: 290849
Non-critical_ROB_Stalls_Percent_0_Bucket_1: 213639
Critical_ROB_Stalls_Percent_0_Bucket_2: 104388
Non-critical_ROB_Stalls_Percent_0_Bucket_2: 97413
Critical_ROB_Stalls_Percent_0_Bucket_3: 57597
Non-critical_ROB_Stalls_Percent_0_Bucket_3: 55518
Critical_ROB_Stalls_Percent_0_Bucket_4: 49647
Non-critical_ROB_Stalls_Percent_0_Bucket_4: 47422
Critical_ROB_Stalls_Percent_0_Bucket_5: 55556
Non-critical_ROB_Stalls_Percent_0_Bucket_5: 48213
Critical_ROB_Stalls_Percent_0_Bucket_6: 187687
Non-critical_ROB_Stalls_Percent_0_Bucket_6: 116700
Critical_ROB_Stalls_Percent_1_Bucket_0: 434644
Non-critical_ROB_Stalls_Percent_1_Bucket_0: 388344
Critical_ROB_Stalls_Percent_1_Bucket_1: 292869
Non-critical_ROB_Stalls_Percent_1_Bucket_1: 211619
Critical_ROB_Stalls_Percent_1_Bucket_2: 105387
Non-critical_ROB_Stalls_Percent_1_Bucket_2: 96414
Critical_ROB_Stalls_Percent_1_Bucket_3: 58324
Non-critical_ROB_Stalls_Percent_1_Bucket_3: 54791
Critical_ROB_Stalls_Percent_1_Bucket_4: 50458
Non-critical_ROB_Stalls_Percent_1_Bucket_4: 46611
Critical_ROB_Stalls_Percent_1_Bucket_5: 56458
Non-critical_ROB_Stalls_Percent_1_Bucket_5: 47311
Critical_ROB_Stalls_Percent_1_Bucket_6: 188864
Non-critical_ROB_Stalls_Percent_1_Bucket_6: 115523
Critical_ROB_Stalls_Percent_2_Bucket_0: 483822
Non-critical_ROB_Stalls_Percent_2_Bucket_0: 339166
Critical_ROB_Stalls_Percent_2_Bucket_1: 327030
Non-critical_ROB_Stalls_Percent_2_Bucket_1: 177458
Critical_ROB_Stalls_Percent_2_Bucket_2: 124624
Non-critical_ROB_Stalls_Percent_2_Bucket_2: 77177
Critical_ROB_Stalls_Percent_2_Bucket_3: 68988
Non-critical_ROB_Stalls_Percent_2_Bucket_3: 44127
Critical_ROB_Stalls_Percent_2_Bucket_4: 60158
Non-critical_ROB_Stalls_Percent_2_Bucket_4: 36911
Critical_ROB_Stalls_Percent_2_Bucket_5: 65863
Non-critical_ROB_Stalls_Percent_2_Bucket_5: 37906
Critical_ROB_Stalls_Percent_2_Bucket_6: 202219
Non-critical_ROB_Stalls_Percent_2_Bucket_6: 102168
Critical_ROB_Stalls_Percent_3_Bucket_0: 527456
Non-critical_ROB_Stalls_Percent_3_Bucket_0: 295532
Critical_ROB_Stalls_Percent_3_Bucket_1: 338327
Non-critical_ROB_Stalls_Percent_3_Bucket_1: 166161
Critical_ROB_Stalls_Percent_3_Bucket_2: 127272
Non-critical_ROB_Stalls_Percent_3_Bucket_2: 74529
Critical_ROB_Stalls_Percent_3_Bucket_3: 70644
Non-critical_ROB_Stalls_Percent_3_Bucket_3: 42471
Critical_ROB_Stalls_Percent_3_Bucket_4: 61721
Non-critical_ROB_Stalls_Percent_3_Bucket_4: 35348
Critical_ROB_Stalls_Percent_3_Bucket_5: 67962
Non-critical_ROB_Stalls_Percent_3_Bucket_5: 35807
Critical_ROB_Stalls_Percent_3_Bucket_6: 210552
Non-critical_ROB_Stalls_Percent_3_Bucket_6: 93835
Critical_ROB_Stalls_Percent_4_Bucket_0: 593226
Non-critical_ROB_Stalls_Percent_4_Bucket_0: 229762
Critical_ROB_Stalls_Percent_4_Bucket_1: 357785
Non-critical_ROB_Stalls_Percent_4_Bucket_1: 146703
Critical_ROB_Stalls_Percent_4_Bucket_2: 136282
Non-critical_ROB_Stalls_Percent_4_Bucket_2: 65519
Critical_ROB_Stalls_Percent_4_Bucket_3: 75537
Non-critical_ROB_Stalls_Percent_4_Bucket_3: 37578
Critical_ROB_Stalls_Percent_4_Bucket_4: 66761
Non-critical_ROB_Stalls_Percent_4_Bucket_4: 30308
Critical_ROB_Stalls_Percent_4_Bucket_5: 72667
Non-critical_ROB_Stalls_Percent_4_Bucket_5: 31102
Critical_ROB_Stalls_Percent_4_Bucket_6: 216349
Non-critical_ROB_Stalls_Percent_4_Bucket_6: 88038
Critical_ROB_Stalls_Percent_5_Bucket_0: 639262
Non-critical_ROB_Stalls_Percent_5_Bucket_0: 183726
Critical_ROB_Stalls_Percent_5_Bucket_1: 386925
Non-critical_ROB_Stalls_Percent_5_Bucket_1: 117563
Critical_ROB_Stalls_Percent_5_Bucket_2: 142421
Non-critical_ROB_Stalls_Percent_5_Bucket_2: 59380
Critical_ROB_Stalls_Percent_5_Bucket_3: 78038
Non-critical_ROB_Stalls_Percent_5_Bucket_3: 35077
Critical_ROB_Stalls_Percent_5_Bucket_4: 68708
Non-critical_ROB_Stalls_Percent_5_Bucket_4: 28361
Critical_ROB_Stalls_Percent_5_Bucket_5: 74490
Non-critical_ROB_Stalls_Percent_5_Bucket_5: 29279
Critical_ROB_Stalls_Percent_5_Bucket_6: 231132
Non-critical_ROB_Stalls_Percent_5_Bucket_6: 73255
Critical_ROB_Stalls_Percent_6_Bucket_0: 655267
Non-critical_ROB_Stalls_Percent_6_Bucket_0: 167721
Critical_ROB_Stalls_Percent_6_Bucket_1: 423750
Non-critical_ROB_Stalls_Percent_6_Bucket_1: 80738
Critical_ROB_Stalls_Percent_6_Bucket_2: 159674
Non-critical_ROB_Stalls_Percent_6_Bucket_2: 42127
Critical_ROB_Stalls_Percent_6_Bucket_3: 83239
Non-critical_ROB_Stalls_Percent_6_Bucket_3: 29876
Critical_ROB_Stalls_Percent_6_Bucket_4: 74244
Non-critical_ROB_Stalls_Percent_6_Bucket_4: 22825
Critical_ROB_Stalls_Percent_6_Bucket_5: 82406
Non-critical_ROB_Stalls_Percent_6_Bucket_5: 21363
Critical_ROB_Stalls_Percent_6_Bucket_6: 246809
Non-critical_ROB_Stalls_Percent_6_Bucket_6: 57578
Critical_ROB_Stalls_Percent_7_Bucket_0: 682748
Non-critical_ROB_Stalls_Percent_7_Bucket_0: 140240
Critical_ROB_Stalls_Percent_7_Bucket_1: 446708
Non-critical_ROB_Stalls_Percent_7_Bucket_1: 57780
Critical_ROB_Stalls_Percent_7_Bucket_2: 171689
Non-critical_ROB_Stalls_Percent_7_Bucket_2: 30112
Critical_ROB_Stalls_Percent_7_Bucket_3: 93197
Non-critical_ROB_Stalls_Percent_7_Bucket_3: 19918
Critical_ROB_Stalls_Percent_7_Bucket_4: 81938
Non-critical_ROB_Stalls_Percent_7_Bucket_4: 15131
Critical_ROB_Stalls_Percent_7_Bucket_5: 89402
Non-critical_ROB_Stalls_Percent_7_Bucket_5: 14367
Critical_ROB_Stalls_Percent_7_Bucket_6: 264334
Non-critical_ROB_Stalls_Percent_7_Bucket_6: 40053
Critical_ROB_Stalls_Percent_8_Bucket_0: 742465
Non-critical_ROB_Stalls_Percent_8_Bucket_0: 80523
Critical_ROB_Stalls_Percent_8_Bucket_1: 463335
Non-critical_ROB_Stalls_Percent_8_Bucket_1: 41153
Critical_ROB_Stalls_Percent_8_Bucket_2: 178584
Non-critical_ROB_Stalls_Percent_8_Bucket_2: 23217
Critical_ROB_Stalls_Percent_8_Bucket_3: 97502
Non-critical_ROB_Stalls_Percent_8_Bucket_3: 15613
Critical_ROB_Stalls_Percent_8_Bucket_4: 85628
Non-critical_ROB_Stalls_Percent_8_Bucket_4: 11441
Critical_ROB_Stalls_Percent_8_Bucket_5: 92527
Non-critical_ROB_Stalls_Percent_8_Bucket_5: 11242
Critical_ROB_Stalls_Percent_8_Bucket_6: 275842
Non-critical_ROB_Stalls_Percent_8_Bucket_6: 28545
Average ROB occupancy Load Stall Begin: 105.582
Average ROB occupancy Load Stall End: 120.215
Min ROB occupancy Load Stall Begin: 1
Max ROB occupancy Load Stall Begin: 352
Min ROB occupancy Load Stall End: 1
Max ROB occupancy Load Stall End: 352
Average ROB occupancy Critical Load Stall Begin: -nan
Average ROB occupancy Critical Load Stall End: -nan
Min ROB occupancy Critical Load Stall Begin: 400
Max ROB occupancy Critical Load Stall Begin: 0
Min ROB occupancy Critical Load Stall End: 400
Max ROB occupancy Critical Load Stall End: 0
 ROB Load Stall Begin Bucket Count 0: 1020445
 ROB Load Stall End Bucket Count 0: 822988
 ROB Critical Load Stall Begin Bucket Count 0: 0
 ROB Critical Load Stall End Bucket Count 0: 0
 ROB Load Stall Begin Bucket Count 1: 417519
 ROB Load Stall End Bucket Count 1: 504488
 ROB Critical Load Stall Begin Bucket Count 1: 0
 ROB Critical Load Stall End Bucket Count 1: 0
 ROB Load Stall Begin Bucket Count 2: 150194
 ROB Load Stall End Bucket Count 2: 201801
 ROB Critical Load Stall Begin Bucket Count 2: 0
 ROB Critical Load Stall End Bucket Count 2: 0
 ROB Load Stall Begin Bucket Count 3: 99304
 ROB Load Stall End Bucket Count 3: 113115
 ROB Critical Load Stall Begin Bucket Count 3: 0
 ROB Critical Load Stall End Bucket Count 3: 0
 ROB Load Stall Begin Bucket Count 4: 100144
 ROB Load Stall End Bucket Count 4: 97069
 ROB Critical Load Stall Begin Bucket Count 4: 0
 ROB Critical Load Stall End Bucket Count 4: 0
 ROB Load Stall Begin Bucket Count 5: 112544
 ROB Load Stall End Bucket Count 5: 103769
 ROB Critical Load Stall Begin Bucket Count 5: 0
 ROB Critical Load Stall End Bucket Count 5: 0
 ROB Load Stall Begin Bucket Count 6: 247467
 ROB Load Stall End Bucket Count 6: 304387
 ROB Critical Load Stall Begin Bucket Count 6: 0
 ROB Critical Load Stall End Bucket Count 6: 0
PIST Tag Read Accesses: 311888
PIST Read Accesses: 155944
PIST Tag Write Accesses: 311888
PIST Write Accesses: 155944
Criticality detector called times: 243913
Max global_stall_cycles_count: 2712297
Threshold Modified: 1 times, factor: -1
Sturdy critical IP cache stats: 
 Unused entries: 0
CIC Tag Read Accesses: 0
CIC Read Accesses: 0
CIC Tag Write Accesses: 0
CIC Write Accesses: 0
Wobbly critical IP cache stats: 
 Unused entries: 27
CIC Tag Read Accesses: 60059096
CIC Read Accesses: 0
CIC Tag Write Accesses: 1101076
CIC Write Accesses: 0
ITLB TOTAL     ACCESS:    8169992  HIT:    7943146  MISS:     226846  HIT %:    97.2234  MISS %:    2.77658   MPKI: 4.53692
ITLB LOAD TRANSLATION ACCESS:    8169992  HIT:    7943146  MISS:     226846  HIT %:    97.2234  MISS %:    2.77658   MPKI: 4.53692
ITLB PREFETCH  REQUESTED:          0  ISSUED:          0  USEFUL:          0  USELESS:          0
ITLB USEFUL LOAD PREFETCHES:          0 PREFETCH ISSUED TO LOWER LEVEL:          0  ACCURACY: -nan
ITLB TIMELY PREFETCHES:          0 LATE PREFETCHES: 0 DROPPED PREFETCHES: 0
ITLB PREFETCHES SAME FILL-ORIGIN LEVEL: 0 DIFFERENT FILL-ORIGIN LEVEL: 0
ITLB AVERAGE MISS LATENCY: 20.7845 cycles
ITLB RQ	ACCESS:   10087281	FORWARD:          0	MERGED:    1809589	TO_CACHE:    8277692

DTLB TOTAL     ACCESS:    5943281  HIT:    4667589  MISS:    1275692  HIT %:    78.5356  MISS %:    21.4644   MPKI: 25.5138
DTLB LOAD TRANSLATION ACCESS:    5943281  HIT:    4667589  MISS:    1275692  HIT %:    78.5356  MISS %:    21.4644   MPKI: 25.5138
DTLB PREFETCH  REQUESTED:          0  ISSUED:          0  USEFUL:          0  USELESS:          0
DTLB USEFUL LOAD PREFETCHES:          0 PREFETCH ISSUED TO LOWER LEVEL:          0  ACCURACY: -nan
DTLB TIMELY PREFETCHES:          0 LATE PREFETCHES: 0 DROPPED PREFETCHES: 0
DTLB PREFETCHES SAME FILL-ORIGIN LEVEL: 0 DIFFERENT FILL-ORIGIN LEVEL: 0
DTLB AVERAGE MISS LATENCY: 15.6479 cycles
DTLB RQ	ACCESS:    6764389	FORWARD:          0	MERGED:     666727	TO_CACHE:    6097662

STLB TOTAL     ACCESS:    1502538  HIT:    1114855  MISS:     387683  HIT %:    74.1981  MISS %:    25.8019   MPKI: 7.75366
STLB LOAD TRANSLATION ACCESS:    1502538  HIT:    1114855  MISS:     387683  HIT %:    74.1981  MISS %:    25.8019   MPKI: 7.75366
STLB PREFETCH  REQUESTED:          0  ISSUED:          0  USEFUL:          0  USELESS:          0
STLB USEFUL LOAD PREFETCHES:          0 PREFETCH ISSUED TO LOWER LEVEL:          0  ACCURACY: -nan
STLB TIMELY PREFETCHES:          0 LATE PREFETCHES: 0 DROPPED PREFETCHES: 0
STLB PREFETCHES SAME FILL-ORIGIN LEVEL: 0 DIFFERENT FILL-ORIGIN LEVEL: 0
STLB AVERAGE MISS LATENCY: 28.6145 cycles
STLB RQ	ACCESS:    1502538	FORWARD:          0	MERGED:          0	TO_CACHE:    1502538

STLB Hit, L1D data hit: 0
STLB Hit, L2C data hit: 0
STLB Hit, LLC data hit: 0
STLB Hit, LLC data miss: 0
STLB STLB hints to L2: 0
L1D TOTAL     ACCESS:    6515176  HIT:    5862978  MISS:     652198  HIT %:    89.9896  MISS %:    10.0104   MPKI: 13.044
L1D LOAD      ACCESS:    5728901  HIT:    5191858  MISS:     537043  HIT %:    90.6257  MISS %:    9.37428   MPKI: 10.7409
L1D RFO       ACCESS:     786275  HIT:     671120  MISS:     115155  HIT %:    85.3544  MISS %:    14.6456   MPKI: 2.3031
L1D PREFETCH  REQUESTED:          0  ISSUED:          0  USEFUL:          0  USELESS:          0
L1D USEFUL LOAD PREFETCHES:          0 PREFETCH ISSUED TO LOWER LEVEL:          0  ACCURACY: -nan
L1D TIMELY PREFETCHES:          0 LATE PREFETCHES: 0 DROPPED PREFETCHES: 0
L1D PREFETCHES SAME FILL-ORIGIN LEVEL: 0 DIFFERENT FILL-ORIGIN LEVEL: 0
L1D AVERAGE MISS LATENCY: 160.798 cycles
L1D RQ	ACCESS:    8949843	FORWARD:          0	MERGED:    3059545	TO_CACHE:    5867322
L1D WQ	ACCESS:    1013562	FORWARD:      22976	MERGED:     116495	TO_CACHE:     897067

L1D UNIQUE REGIONS ACCESSED: 0
L1D REGIONS CONFLICTS: 0
L1D Cross Page Prefetch Requests: 0
L1D Same Page Prefetch Requests: 0
L1D ROI Sum of L1D PQ occupancy: 0
L1D PREFETCHES PUSHED FROM L2C: 0
L1I TOTAL     ACCESS:   10087085  HIT:   10086211  MISS:        874  HIT %:    99.9913  MISS %: 0.00866454   MPKI: 0.01748
L1I LOAD      ACCESS:   10087085  HIT:   10086211  MISS:        874  HIT %:    99.9913  MISS %: 0.00866454   MPKI: 0.01748
L1I PREFETCH  REQUESTED:          0  ISSUED:          0  USEFUL:          0  USELESS:          0
L1I USEFUL LOAD PREFETCHES:          0 PREFETCH ISSUED TO LOWER LEVEL:          0  ACCURACY: -nan
L1I TIMELY PREFETCHES:          0 LATE PREFETCHES: 0 DROPPED PREFETCHES: 0
L1I PREFETCHES SAME FILL-ORIGIN LEVEL: 0 DIFFERENT FILL-ORIGIN LEVEL: 0
L1I AVERAGE MISS LATENCY: 207.608 cycles
L1I RQ	ACCESS:   17077108	FORWARD:          0	MERGED:    6989827	TO_CACHE:   10087281

BTB BRANCH_DIRECT_JUMP	ACCESS:          0  HIT:          0  MISS:          0
BTB BRANCH_INDIRECT	ACCESS:          0  HIT:          0  MISS:          0
BTB BRANCH_CONDITIONAL	ACCESS:          0  HIT:          0  MISS:          0
BTB BRANCH_DIRECT_CALL	ACCESS:          0  HIT:          0  MISS:          0
BTB BRANCH_INDIRECT_CALL	ACCESS:          0  HIT:          0  MISS:          0
BTB BRANCH_RETURN	ACCESS:          0  HIT:          0  MISS:          0
BTB BRANCH_OTHER ACCESS:          0  HIT:          0  MISS:          0

L2C TOTAL     ACCESS:    1372769  HIT:     766492  MISS:     606277  HIT %:    55.8355  MISS %:    44.1645   MPKI: 12.1255
L2C LOAD      ACCESS:     537917  HIT:     158228  MISS:     379689  HIT %:    29.4149  MISS %:    70.5851   MPKI: 7.59378
L2C DATA LOAD MPKI: 7.5763
L2C INSTRUCTION LOAD MPKI: 0.01748
L2C RFO       ACCESS:     115153  HIT:        818  MISS:     114335  HIT %:   0.710359  MISS %:    99.2896   MPKI: 2.2867
L2C PREFETCH  ACCESS:     185874  HIT:      83906  MISS:     101968  HIT %:    45.1413  MISS %:    54.8587   MPKI: 2.03936
L2C DATA PREFETCH MPKI: 2.03936
L2C INSTRUCTION PREFETCH MPKI: 0
L2C WRITEBACK ACCESS:     145561  HIT:     140238  MISS:       5323  HIT %:    96.3431  MISS %:    3.65689   MPKI: 0.10646
L2C LOAD TRANSLATION ACCESS:     388264  HIT:     383302  MISS:       4962  HIT %:     98.722  MISS %:      1.278   MPKI: 0.09924
L2C PREFETCH  REQUESTED:    1874975  ISSUED:    1864426  USEFUL:     101531  USELESS:        442
L2C USEFUL LOAD PREFETCHES:     101531 PREFETCH ISSUED TO LOWER LEVEL:    1639180  ACCURACY: 6.19401
L2C TIMELY PREFETCHES:     101531 LATE PREFETCHES: 17317 DROPPED PREFETCHES: 0
L2C PREFETCHES SAME FILL-ORIGIN LEVEL: 119285 DIFFERENT FILL-ORIGIN LEVEL: 1519895
L2C AVERAGE MISS LATENCY: 164.981 cycles
L2C RQ	ACCESS:    1041336	FORWARD:          0	MERGED:          0	TO_CACHE:    1041334
L2C WQ	ACCESS:     145561	FORWARD:          2	MERGED:          0	TO_CACHE:     145561
L2C PQ	ACCESS:    1864426	FORWARD:          0	MERGED:     108039	TO_CACHE:    1756387

L2C Instructions Evicting Data 856
L2C Translations Evicting Data 4919
L2C Data Evicting Data 589589
L2C Instructions Evicting Instructions 4
L2C Translations Evicting Instructions 16
L2C Data Evicting Instructions 835
L2C Instructions Evicting Translations 14
L2C Translations Evicting Translations 27
L2C Data Evicting Translations 4694
L2C Dense regions hint from L2: 0
PSCL5 TOTAL     ACCESS:     387683  HIT:     387683  MISS:          0  HIT %:        100  MISS %:          0   MPKI: 0
PSCL5 LOAD TRANSLATION ACCESS:     387683  HIT:     387683  MISS:          0  HIT %:        100  MISS %:          0   MPKI: 0
PSCL5 PREFETCH  REQUESTED:          0  ISSUED:          0  USEFUL:          0  USELESS:          0
PSCL5 USEFUL LOAD PREFETCHES:          0 PREFETCH ISSUED TO LOWER LEVEL:          0  ACCURACY: -nan
PSCL5 TIMELY PREFETCHES:          0 LATE PREFETCHES: 0 DROPPED PREFETCHES: 0
PSCL5 PREFETCHES SAME FILL-ORIGIN LEVEL: 0 DIFFERENT FILL-ORIGIN LEVEL: 0

PSCL4 TOTAL     ACCESS:     387683  HIT:     387683  MISS:          0  HIT %:        100  MISS %:          0   MPKI: 0
PSCL4 LOAD TRANSLATION ACCESS:     387683  HIT:     387683  MISS:          0  HIT %:        100  MISS %:          0   MPKI: 0
PSCL4 PREFETCH  REQUESTED:          0  ISSUED:          0  USEFUL:          0  USELESS:          0
PSCL4 USEFUL LOAD PREFETCHES:          0 PREFETCH ISSUED TO LOWER LEVEL:          0  ACCURACY: -nan
PSCL4 TIMELY PREFETCHES:          0 LATE PREFETCHES: 0 DROPPED PREFETCHES: 0
PSCL4 PREFETCHES SAME FILL-ORIGIN LEVEL: 0 DIFFERENT FILL-ORIGIN LEVEL: 0

PSCL3 TOTAL     ACCESS:     387678  HIT:     387674  MISS:          4  HIT %:     99.999  MISS %: 0.00103178   MPKI: 8e-05
PSCL3 LOAD TRANSLATION ACCESS:     387678  HIT:     387674  MISS:          4  HIT %:     99.999  MISS %: 0.00103178   MPKI: 8e-05
PSCL3 PREFETCH  REQUESTED:          0  ISSUED:          0  USEFUL:          0  USELESS:          0
PSCL3 USEFUL LOAD PREFETCHES:          0 PREFETCH ISSUED TO LOWER LEVEL:          0  ACCURACY: -nan
PSCL3 TIMELY PREFETCHES:          0 LATE PREFETCHES: 0 DROPPED PREFETCHES: 0
PSCL3 PREFETCHES SAME FILL-ORIGIN LEVEL: 0 DIFFERENT FILL-ORIGIN LEVEL: 0

PSCL2 TOTAL     ACCESS:     387683  HIT:     387104  MISS:        579  HIT %:    99.8507  MISS %:   0.149349   MPKI: 0.01158
PSCL2 LOAD TRANSLATION ACCESS:     387683  HIT:     387104  MISS:        579  HIT %:    99.8507  MISS %:   0.149349   MPKI: 0.01158
PSCL2 PREFETCH  REQUESTED:          0  ISSUED:          0  USEFUL:          0  USELESS:          0
PSCL2 USEFUL LOAD PREFETCHES:          0 PREFETCH ISSUED TO LOWER LEVEL:          0  ACCURACY: -nan
PSCL2 TIMELY PREFETCHES:          0 LATE PREFETCHES: 0 DROPPED PREFETCHES: 0
PSCL2 PREFETCHES SAME FILL-ORIGIN LEVEL: 0 DIFFERENT FILL-ORIGIN LEVEL: 0

LLC TOTAL     ACCESS:    2036285  HIT:    1445481  MISS:     590804  HIT %:    70.9862  MISS %:    29.0138   MPKI: 11.8161
LLC LOAD      ACCESS:     362372  HIT:     157946  MISS:     204426  HIT %:    43.5867  MISS %:    56.4133   MPKI: 4.08852
LLC RFO       ACCESS:     114335  HIT:        775  MISS:     113560  HIT %:   0.677833  MISS %:    99.3222   MPKI: 2.2712
LLC PREFETCH  ACCESS:    1414792  HIT:    1152647  MISS:     262145  HIT %:    81.4711  MISS %:    18.5289   MPKI: 5.2429
LLC WRITEBACK ACCESS:     139824  HIT:     133202  MISS:       6622  HIT %:     95.264  MISS %:    4.73595   MPKI: 0.13244
LLC LOAD TRANSLATION ACCESS:       4962  HIT:        911  MISS:       4051  HIT %:    18.3595  MISS %:    81.6405   MPKI: 0.08102
LLC PREFETCH  REQUESTED:          0  ISSUED:          0  USEFUL:     136973  USELESS:     138722
LLC USEFUL LOAD PREFETCHES:     136973 PREFETCH ISSUED TO LOWER LEVEL:     291519  ACCURACY: 46.986
LLC TIMELY PREFETCHES:     136973 LATE PREFETCHES: 29374 DROPPED PREFETCHES: 0
LLC PREFETCHES SAME FILL-ORIGIN LEVEL: 289281 DIFFERENT FILL-ORIGIN LEVEL: 0
LLC AVERAGE MISS LATENCY: 215.204 cycles
LLC RQ	ACCESS:     481669	FORWARD:          0	MERGED:          0	TO_CACHE:     481669
LLC WQ	ACCESS:     139824	FORWARD:          0	MERGED:          0	TO_CACHE:     139824
LLC PQ	ACCESS:    1639180	FORWARD:          0	MERGED:      60736	TO_CACHE:    1578444

LLC Dense regions hint to LLC: 0

RAW hits: 374262
Loads Generated: 9324105
Loads sent to L1D: 8949843
Stores Generated: 1013562
Stores sent to L1D: 1013562
Major fault: 0 Minor fault: 11007
Allocated PAGES: 11007
 All Calls: 1334213
 Critical Calls: 1334213
------------------
Depth Distribution
------------------
depth 0: 0
depth 1: 987565
depth 2: 684950
depth 3: 578135
depth 4: 507313
depth 5: 449254
depth 6: 406592
depth 7: 369522
depth 8: 330079
depth 9: 269484
depth 10: 232131
depth 11: 181856
depth 12: 130348
depth 13: 73082
depth 14: 17608
depth 15: 17137
depth 16: 35
depth 17: 0
depth 18: 0
depth 19: 0
depth 20: 0
depth 21: 0
depth 22: 0
depth 23: 0
depth 24: 0
depth 25: 0
depth 26: 0
depth 27: 0
depth 28: 0
depth 29: 0
Total: 5235091
-----------------------------
-----------------------------
	Captured at Filter
-----------------------------
depth 0: 0
depth 1: 6231
depth 2: 3652
depth 3: 3401
depth 4: 3042
depth 5: 2961
depth 6: 2711
depth 7: 2437
depth 8: 2145
depth 9: 1733
depth 10: 1454
depth 11: 1086
depth 12: 767
depth 13: 501
depth 14: 111
depth 15: 108
depth 16: 0
depth 17: 0
depth 18: 0
depth 19: 0
depth 20: 0
depth 21: 0
depth 22: 0
depth 23: 0
depth 24: 0
depth 25: 0
depth 26: 0
depth 27: 0
depth 28: 0
depth 29: 0
-----------------------------
-----------------------------
		Lost at Page
-----------------------------
depth 0: 0
depth 1: 23912
depth 2: 23025
depth 3: 29443
depth 4: 34637
depth 5: 39009
depth 6: 42773
depth 7: 46163
depth 8: 48130
depth 9: 45088
depth 10: 43961
depth 11: 38602
depth 12: 30818
depth 13: 19058
depth 14: 5023
depth 15: 5385
depth 16: 3
depth 17: 0
depth 18: 0
depth 19: 0
depth 20: 0
depth 21: 0
depth 22: 0
depth 23: 0
depth 24: 0
depth 25: 0
depth 26: 0
depth 27: 0
depth 28: 0
depth 29: 0
-----------------------------
-----------------------------
	Lost due to PQ Size
-----------------------------
72853
-----------------------------
ST read accesses: 512711
ST write accesses: 24332
PT read accesses: 14155730
PT write accesses: 746902
FILTER read accesses: 3082362
FILTER write accesses: 868292
GHR read accesses: 1052556
GHR write accesses: 165792
GHR counter read accesses: 11520486
GHR counter write accesses: 797754
ST tag read accesses: 219145535
ST tag write accesses: 10125613

DRAM Statistics
 CHANNEL 0
 RQ ROW_BUFFER_HIT:     318276  ROW_BUFFER_MISS:     265906
 DBUS_CONGESTED:        207
 WQ ROW_BUFFER_HIT:      25152  ROW_BUFFER_MISS:     107420  FULL:          0

 AVG_CONGESTED_CYCLE: 4
 All warmup complete: 2
Channel 0 Bank busy for read cycles: 0
Channel 0 Bank busy for write cycles: 0
Channel 0
Rank 0
0banks busy for read cycles: 41837202
0banks busy for write cycles: 12854
1banks busy for read cycles: 12370017
1banks busy for write cycles: 1922431
2banks busy for read cycles: 5402760
2banks busy for write cycles: 690200
3banks busy for read cycles: 2004381
3banks busy for write cycles: 319797
4banks busy for read cycles: 1049539
4banks busy for write cycles: 174835
5banks busy for read cycles: 642017
5banks busy for write cycles: 108112
6banks busy for read cycles: 528491
6banks busy for write cycles: 89104
7banks busy for read cycles: 636211
7banks busy for write cycles: 238065
8banks busy for read cycles: 1690174
8banks busy for write cycles: 2221660

CPU 0 Branch Prediction Accuracy: 98.792% MPKI: 2.54542 Average ROB Occupancy at Mispredict: 74.6612
Branch types
NOT_BRANCH: 0 0%
BRANCH_DIRECT_JUMP: 0 0%
BRANCH_INDIRECT: 0 0%
BRANCH_CONDITIONAL: 0 0%
BRANCH_DIRECT_CALL: 0 0%
BRANCH_INDIRECT_CALL: 0 0%
BRANCH_RETURN: 0 0%
BRANCH_OTHER: 0 0%

DRAM PAGES: 1048576
Allocated PAGES: 11007
