Initialize SIGNATURE TABLE
ST_SET: 1
ST_WAY: 256
ST_TAG_BIT: 16
ST_TAG_MASK: ffff

Initialize PATTERN TABLE
PT_SET: 512
PT_WAY: 4
SIG_DELTA_BIT: 7
C_SIG_BIT: 4
C_DELTA_BIT: 4

Initialize PREFETCH FILTER
FILTER_SET: 1024

*** ChampSim Multicore Out-of-Order Simulator ***

Warmup Instructions: 50000000
Simulation Instructions: 50000000
Number of CPUs: 1
LLC sets: 2048
LLC ways: 16
Off-chip DRAM Size: 4096 MB Channels: 1 Width: 64-bit Data Rate: 6400 MT/s
CPU 0 runs ../cloudsuite_traces//nutch_phase2_core0.trace.gz
.gz
BTB has LRU replacement policy
ITLB has LRU replacement policy
DTLB has LRU replacement policy
STLB has LRU replacement policy
L1I has LRU replacement policy
L1D has LRU replacement policy
Initialize SRRIP state for L2C
Initialize DRRIP state for LLC
UNIQUE_ASID[0] = €
UNIQUE_ASID[1] = 
Heartbeat CPU 0 instructions: 10000002 cycles: 2768256 heartbeat IPC: 3.61238 cumulative IPC: 3.61238 (Simulation time: 0 hr 1 min 55 sec) 
Heartbeat CPU 0 instructions: 20000001 cycles: 5402783 heartbeat IPC: 3.79575 cumulative IPC: 3.7018 (Simulation time: 0 hr 3 min 30 sec) 
Heartbeat CPU 0 instructions: 30000000 cycles: 8380018 heartbeat IPC: 3.35882 cumulative IPC: 3.57994 (Simulation time: 0 hr 5 min 8 sec) 
Heartbeat CPU 0 instructions: 40000003 cycles: 11059054 heartbeat IPC: 3.73269 cumulative IPC: 3.61695 (Simulation time: 0 hr 6 min 30 sec) 
Heartbeat CPU 0 instructions: 50000002 cycles: 13934111 heartbeat IPC: 3.47819 cumulative IPC: 3.58832 (Simulation time: 0 hr 7 min 25 sec) 

Warmup complete CPU 0 instructions: 50000002 cycles: 13934111 (Simulation time: 0 hr 7 min 25 sec) 

Heartbeat CPU 0 instructions: 60000000 cycles: 25047764 heartbeat IPC: 0.899794 cumulative IPC: 0.899794 (Simulation time: 0 hr 8 min 44 sec) 
Heartbeat CPU 0 instructions: 70000000 cycles: 38984244 heartbeat IPC: 0.717541 cumulative IPC: 0.798399 (Simulation time: 0 hr 10 min 8 sec) 
Heartbeat CPU 0 instructions: 80000001 cycles: 54548700 heartbeat IPC: 0.64249 cumulative IPC: 0.738651 (Simulation time: 0 hr 11 min 30 sec) 
Heartbeat CPU 0 instructions: 90000001 cycles: 70475021 heartbeat IPC: 0.627891 cumulative IPC: 0.707452 (Simulation time: 0 hr 12 min 34 sec) 
Heartbeat CPU 0 instructions: 100000001 cycles: 86877872 heartbeat IPC: 0.60965 cumulative IPC: 0.68546 (Simulation time: 0 hr 13 min 37 sec) 
Finished CPU 0 instructions: 50000003 cycles: 72943792 cumulative IPC: 0.685459 (Simulation time: 0 hr 13 min 37 sec) 

ChampSim completed all CPUs

Region of Interest Statistics

CPU 0 cumulative IPC: 0.685459 instructions: 50000003 cycles: 72943792

CPU 0 Average Load ROB stall cycles: 1.86005e+07
CPU 0 Fraction of times ROB stalled by Loads: 40.2176
CPU 0 Percentage of Load stall cycles in Total stall cycles: 1.64656e+08
Issued all: 35491159
Issued LT all: 29480688
rob_not_full_when_issued_lt_all: 19580651
Issued LT one: 25028561
rob_not_full_when_issued_lt_one: 16111032
FVP critical_dynamic_instances_0: 6154002
FVP unique_critical_ips_0: 720
 Total stall cycles: 59874580
 Total load stall cycles: 98586801019449
Unique Load IPs: 1392
CPU 0 NUM of IPS identified critical: 0
CPU 0 Num of Load IPs stalling ROB: 0
Threshold modification factor: 0
Trouble in retire width: -nan
MaC = Marked as critical.
lt_50_percent_before_Mac: 0
gt_90_percent_before_Mac: 0
gt_75_percent_before_Mac: 0
gt_50_percent_before_Mac: 0
stall_proportion_bin_same_before_after: 0
stall_proportion_bin_lower_before_after: 0
stall_proportion_bin_upper_before_after: 0
average_stall_proportion_before: -nan
average_stall_proportion_after: -nan
Critical IP stalls, total frequency: 0
Non-critical IP stalls, total frequency: 0
Total Freq all stalling IPs: 0
Critical_IP_Detector_Accuracy_70: 0.00138889
Critical_IP_Detector_Accuracy_80: 0.00138889
Critical_IP_Detector_Accuracy_90: 0.00138889
Critical_IP_Detector_Coverage_70: 1
Critical_IP_Detector_Coverage_80: 1
Critical_IP_Detector_Coverage_90: 1
stat_90_percent_critical_ip_stalls_freq: 261562
stat_90_percent_non_critical_ip_stalls_freq: 18446744073709290054
AVERAGE_ROB_Occupancy_90_Percent_Critical_IP_Stalls: 184.79
AVERAGE_ROB_Occupancy_90_Percent_Non_Critical_IP_Stalls: 1.21976e-11
Critical_IP_ROB_Stalls_Bucket_0: 0
Non-critical_IP_ROB_Stalls_Bucket_0: 795810
Critical_IP_ROB_Stalls_Bucket_1: 0
Non-critical_IP_ROB_Stalls_Bucket_1: 453249
Critical_IP_ROB_Stalls_Bucket_2: 0
Non-critical_IP_ROB_Stalls_Bucket_2: 213690
Critical_IP_ROB_Stalls_Bucket_3: 0
Non-critical_IP_ROB_Stalls_Bucket_3: 115005
Critical_IP_ROB_Stalls_Bucket_4: 0
Non-critical_IP_ROB_Stalls_Bucket_4: 86547
Critical_IP_ROB_Stalls_Bucket_5: 0
Non-critical_IP_ROB_Stalls_Bucket_5: 101193
Critical_IP_ROB_Stalls_Bucket_6: 0
Non-critical_IP_ROB_Stalls_Bucket_6: 366126
0 => IPs accounting for >50 percent of stalls, 1 => 55, 2 => 60, 3 => 65 and so on till 90.
percent50: inf num IPs:  1
percent55: inf num IPs: 1
percent60: inf num IPs: 1
percent65: inf num IPs: 1
percent70: inf num IPs: 1
percent75: inf num IPs: 1
percent80: inf num IPs: 1
percent85: inf num IPs: 1
percent90: inf num IPs: 1
Critical_ROB_Stalls_Percent_0_Bucket_0: 4683
Non-critical_ROB_Stalls_Percent_0_Bucket_0: 791127
Critical_ROB_Stalls_Percent_0_Bucket_1: 90170
Non-critical_ROB_Stalls_Percent_0_Bucket_1: 363079
Critical_ROB_Stalls_Percent_0_Bucket_2: 45096
Non-critical_ROB_Stalls_Percent_0_Bucket_2: 168594
Critical_ROB_Stalls_Percent_0_Bucket_3: 21902
Non-critical_ROB_Stalls_Percent_0_Bucket_3: 93103
Critical_ROB_Stalls_Percent_0_Bucket_4: 10918
Non-critical_ROB_Stalls_Percent_0_Bucket_4: 75629
Critical_ROB_Stalls_Percent_0_Bucket_5: 14090
Non-critical_ROB_Stalls_Percent_0_Bucket_5: 87103
Critical_ROB_Stalls_Percent_0_Bucket_6: 74703
Non-critical_ROB_Stalls_Percent_0_Bucket_6: 291423
Critical_ROB_Stalls_Percent_1_Bucket_0: 4683
Non-critical_ROB_Stalls_Percent_1_Bucket_0: 791127
Critical_ROB_Stalls_Percent_1_Bucket_1: 90170
Non-critical_ROB_Stalls_Percent_1_Bucket_1: 363079
Critical_ROB_Stalls_Percent_1_Bucket_2: 45096
Non-critical_ROB_Stalls_Percent_1_Bucket_2: 168594
Critical_ROB_Stalls_Percent_1_Bucket_3: 21902
Non-critical_ROB_Stalls_Percent_1_Bucket_3: 93103
Critical_ROB_Stalls_Percent_1_Bucket_4: 10918
Non-critical_ROB_Stalls_Percent_1_Bucket_4: 75629
Critical_ROB_Stalls_Percent_1_Bucket_5: 14090
Non-critical_ROB_Stalls_Percent_1_Bucket_5: 87103
Critical_ROB_Stalls_Percent_1_Bucket_6: 74703
Non-critical_ROB_Stalls_Percent_1_Bucket_6: 291423
Critical_ROB_Stalls_Percent_2_Bucket_0: 4683
Non-critical_ROB_Stalls_Percent_2_Bucket_0: 791127
Critical_ROB_Stalls_Percent_2_Bucket_1: 90170
Non-critical_ROB_Stalls_Percent_2_Bucket_1: 363079
Critical_ROB_Stalls_Percent_2_Bucket_2: 45096
Non-critical_ROB_Stalls_Percent_2_Bucket_2: 168594
Critical_ROB_Stalls_Percent_2_Bucket_3: 21902
Non-critical_ROB_Stalls_Percent_2_Bucket_3: 93103
Critical_ROB_Stalls_Percent_2_Bucket_4: 10918
Non-critical_ROB_Stalls_Percent_2_Bucket_4: 75629
Critical_ROB_Stalls_Percent_2_Bucket_5: 14090
Non-critical_ROB_Stalls_Percent_2_Bucket_5: 87103
Critical_ROB_Stalls_Percent_2_Bucket_6: 74703
Non-critical_ROB_Stalls_Percent_2_Bucket_6: 291423
Critical_ROB_Stalls_Percent_3_Bucket_0: 4683
Non-critical_ROB_Stalls_Percent_3_Bucket_0: 791127
Critical_ROB_Stalls_Percent_3_Bucket_1: 90170
Non-critical_ROB_Stalls_Percent_3_Bucket_1: 363079
Critical_ROB_Stalls_Percent_3_Bucket_2: 45096
Non-critical_ROB_Stalls_Percent_3_Bucket_2: 168594
Critical_ROB_Stalls_Percent_3_Bucket_3: 21902
Non-critical_ROB_Stalls_Percent_3_Bucket_3: 93103
Critical_ROB_Stalls_Percent_3_Bucket_4: 10918
Non-critical_ROB_Stalls_Percent_3_Bucket_4: 75629
Critical_ROB_Stalls_Percent_3_Bucket_5: 14090
Non-critical_ROB_Stalls_Percent_3_Bucket_5: 87103
Critical_ROB_Stalls_Percent_3_Bucket_6: 74703
Non-critical_ROB_Stalls_Percent_3_Bucket_6: 291423
Critical_ROB_Stalls_Percent_4_Bucket_0: 4683
Non-critical_ROB_Stalls_Percent_4_Bucket_0: 791127
Critical_ROB_Stalls_Percent_4_Bucket_1: 90170
Non-critical_ROB_Stalls_Percent_4_Bucket_1: 363079
Critical_ROB_Stalls_Percent_4_Bucket_2: 45096
Non-critical_ROB_Stalls_Percent_4_Bucket_2: 168594
Critical_ROB_Stalls_Percent_4_Bucket_3: 21902
Non-critical_ROB_Stalls_Percent_4_Bucket_3: 93103
Critical_ROB_Stalls_Percent_4_Bucket_4: 10918
Non-critical_ROB_Stalls_Percent_4_Bucket_4: 75629
Critical_ROB_Stalls_Percent_4_Bucket_5: 14090
Non-critical_ROB_Stalls_Percent_4_Bucket_5: 87103
Critical_ROB_Stalls_Percent_4_Bucket_6: 74703
Non-critical_ROB_Stalls_Percent_4_Bucket_6: 291423
Critical_ROB_Stalls_Percent_5_Bucket_0: 4683
Non-critical_ROB_Stalls_Percent_5_Bucket_0: 791127
Critical_ROB_Stalls_Percent_5_Bucket_1: 90170
Non-critical_ROB_Stalls_Percent_5_Bucket_1: 363079
Critical_ROB_Stalls_Percent_5_Bucket_2: 45096
Non-critical_ROB_Stalls_Percent_5_Bucket_2: 168594
Critical_ROB_Stalls_Percent_5_Bucket_3: 21902
Non-critical_ROB_Stalls_Percent_5_Bucket_3: 93103
Critical_ROB_Stalls_Percent_5_Bucket_4: 10918
Non-critical_ROB_Stalls_Percent_5_Bucket_4: 75629
Critical_ROB_Stalls_Percent_5_Bucket_5: 14090
Non-critical_ROB_Stalls_Percent_5_Bucket_5: 87103
Critical_ROB_Stalls_Percent_5_Bucket_6: 74703
Non-critical_ROB_Stalls_Percent_5_Bucket_6: 291423
Critical_ROB_Stalls_Percent_6_Bucket_0: 4683
Non-critical_ROB_Stalls_Percent_6_Bucket_0: 791127
Critical_ROB_Stalls_Percent_6_Bucket_1: 90170
Non-critical_ROB_Stalls_Percent_6_Bucket_1: 363079
Critical_ROB_Stalls_Percent_6_Bucket_2: 45096
Non-critical_ROB_Stalls_Percent_6_Bucket_2: 168594
Critical_ROB_Stalls_Percent_6_Bucket_3: 21902
Non-critical_ROB_Stalls_Percent_6_Bucket_3: 93103
Critical_ROB_Stalls_Percent_6_Bucket_4: 10918
Non-critical_ROB_Stalls_Percent_6_Bucket_4: 75629
Critical_ROB_Stalls_Percent_6_Bucket_5: 14090
Non-critical_ROB_Stalls_Percent_6_Bucket_5: 87103
Critical_ROB_Stalls_Percent_6_Bucket_6: 74703
Non-critical_ROB_Stalls_Percent_6_Bucket_6: 291423
Critical_ROB_Stalls_Percent_7_Bucket_0: 4683
Non-critical_ROB_Stalls_Percent_7_Bucket_0: 791127
Critical_ROB_Stalls_Percent_7_Bucket_1: 90170
Non-critical_ROB_Stalls_Percent_7_Bucket_1: 363079
Critical_ROB_Stalls_Percent_7_Bucket_2: 45096
Non-critical_ROB_Stalls_Percent_7_Bucket_2: 168594
Critical_ROB_Stalls_Percent_7_Bucket_3: 21902
Non-critical_ROB_Stalls_Percent_7_Bucket_3: 93103
Critical_ROB_Stalls_Percent_7_Bucket_4: 10918
Non-critical_ROB_Stalls_Percent_7_Bucket_4: 75629
Critical_ROB_Stalls_Percent_7_Bucket_5: 14090
Non-critical_ROB_Stalls_Percent_7_Bucket_5: 87103
Critical_ROB_Stalls_Percent_7_Bucket_6: 74703
Non-critical_ROB_Stalls_Percent_7_Bucket_6: 291423
Critical_ROB_Stalls_Percent_8_Bucket_0: 4683
Non-critical_ROB_Stalls_Percent_8_Bucket_0: 791127
Critical_ROB_Stalls_Percent_8_Bucket_1: 90170
Non-critical_ROB_Stalls_Percent_8_Bucket_1: 363079
Critical_ROB_Stalls_Percent_8_Bucket_2: 45096
Non-critical_ROB_Stalls_Percent_8_Bucket_2: 168594
Critical_ROB_Stalls_Percent_8_Bucket_3: 21902
Non-critical_ROB_Stalls_Percent_8_Bucket_3: 93103
Critical_ROB_Stalls_Percent_8_Bucket_4: 10918
Non-critical_ROB_Stalls_Percent_8_Bucket_4: 75629
Critical_ROB_Stalls_Percent_8_Bucket_5: 14090
Non-critical_ROB_Stalls_Percent_8_Bucket_5: 87103
Critical_ROB_Stalls_Percent_8_Bucket_6: 74703
Non-critical_ROB_Stalls_Percent_8_Bucket_6: 291423
Average ROB occupancy Load Stall Begin: 113.497
Average ROB occupancy Load Stall End: 128.231
Min ROB occupancy Load Stall Begin: 1
Max ROB occupancy Load Stall Begin: 352
Min ROB occupancy Load Stall End: 1
Max ROB occupancy Load Stall End: 352
Average ROB occupancy Critical Load Stall Begin: -nan
Average ROB occupancy Critical Load Stall End: -nan
Min ROB occupancy Critical Load Stall Begin: 400
Max ROB occupancy Critical Load Stall Begin: 0
Min ROB occupancy Critical Load Stall End: 400
Max ROB occupancy Critical Load Stall End: 0
 ROB Load Stall Begin Bucket Count 0: 978484
 ROB Load Stall End Bucket Count 0: 795810
 ROB Critical Load Stall Begin Bucket Count 0: 0
 ROB Critical Load Stall End Bucket Count 0: 0
 ROB Load Stall Begin Bucket Count 1: 383993
 ROB Load Stall End Bucket Count 1: 453249
 ROB Critical Load Stall Begin Bucket Count 1: 0
 ROB Critical Load Stall End Bucket Count 1: 0
 ROB Load Stall Begin Bucket Count 2: 162223
 ROB Load Stall End Bucket Count 2: 213690
 ROB Critical Load Stall Begin Bucket Count 2: 0
 ROB Critical Load Stall End Bucket Count 2: 0
 ROB Load Stall Begin Bucket Count 3: 95965
 ROB Load Stall End Bucket Count 3: 115005
 ROB Critical Load Stall Begin Bucket Count 3: 0
 ROB Critical Load Stall End Bucket Count 3: 0
 ROB Load Stall Begin Bucket Count 4: 88902
 ROB Load Stall End Bucket Count 4: 86547
 ROB Critical Load Stall Begin Bucket Count 4: 0
 ROB Critical Load Stall End Bucket Count 4: 0
 ROB Load Stall Begin Bucket Count 5: 122027
 ROB Load Stall End Bucket Count 5: 101193
 ROB Critical Load Stall Begin Bucket Count 5: 0
 ROB Critical Load Stall End Bucket Count 5: 0
 ROB Load Stall Begin Bucket Count 6: 300026
 ROB Load Stall End Bucket Count 6: 366126
 ROB Critical Load Stall Begin Bucket Count 6: 0
 ROB Critical Load Stall End Bucket Count 6: 0
PIST Tag Read Accesses: 0
PIST Read Accesses: 0
PIST Tag Write Accesses: 0
PIST Write Accesses: 0
Criticality detector called times: 0
Max global_stall_cycles_count: 0
Threshold Modified: 0 times, factor: 0
ITLB TOTAL     ACCESS:    8183999  HIT:    7957149  MISS:     226850  HIT %:    97.2281  MISS %:    2.77187   MPKI: 4.537
ITLB LOAD TRANSLATION ACCESS:    8183999  HIT:    7957149  MISS:     226850  HIT %:    97.2281  MISS %:    2.77187   MPKI: 4.537
ITLB PREFETCH  REQUESTED:          0  ISSUED:          0  USEFUL:          0  USELESS:          0
ITLB USEFUL LOAD PREFETCHES:          0 PREFETCH ISSUED TO LOWER LEVEL:          0  ACCURACY: -nan
ITLB TIMELY PREFETCHES:          0 LATE PREFETCHES: 0 DROPPED PREFETCHES: 0
ITLB PREFETCHES SAME FILL-ORIGIN LEVEL: 0 DIFFERENT FILL-ORIGIN LEVEL: 0
ITLB AVERAGE MISS LATENCY: 20.5217 cycles
ITLB RQ	ACCESS:   10103048	FORWARD:          0	MERGED:    1811540	TO_CACHE:    8291508

DTLB TOTAL     ACCESS:    5903698  HIT:    4631856  MISS:    1271842  HIT %:    78.4569  MISS %:    21.5431   MPKI: 25.4368
DTLB LOAD TRANSLATION ACCESS:    5903698  HIT:    4631856  MISS:    1271842  HIT %:    78.4569  MISS %:    21.5431   MPKI: 25.4368
DTLB PREFETCH  REQUESTED:          0  ISSUED:          0  USEFUL:          0  USELESS:          0
DTLB USEFUL LOAD PREFETCHES:          0 PREFETCH ISSUED TO LOWER LEVEL:          0  ACCURACY: -nan
DTLB TIMELY PREFETCHES:          0 LATE PREFETCHES: 0 DROPPED PREFETCHES: 0
DTLB PREFETCHES SAME FILL-ORIGIN LEVEL: 0 DIFFERENT FILL-ORIGIN LEVEL: 0
DTLB AVERAGE MISS LATENCY: 15.6715 cycles
DTLB RQ	ACCESS:    6725527	FORWARD:          0	MERGED:     667355	TO_CACHE:    6058172

STLB TOTAL     ACCESS:    1498692  HIT:    1115355  MISS:     383337  HIT %:    74.4219  MISS %:    25.5781   MPKI: 7.66674
STLB LOAD TRANSLATION ACCESS:    1498692  HIT:    1115355  MISS:     383337  HIT %:    74.4219  MISS %:    25.5781   MPKI: 7.66674
STLB PREFETCH  REQUESTED:          0  ISSUED:          0  USEFUL:          0  USELESS:          0
STLB USEFUL LOAD PREFETCHES:          0 PREFETCH ISSUED TO LOWER LEVEL:          0  ACCURACY: -nan
STLB TIMELY PREFETCHES:          0 LATE PREFETCHES: 0 DROPPED PREFETCHES: 0
STLB PREFETCHES SAME FILL-ORIGIN LEVEL: 0 DIFFERENT FILL-ORIGIN LEVEL: 0
STLB AVERAGE MISS LATENCY: 28.7805 cycles
STLB RQ	ACCESS:    1498692	FORWARD:          0	MERGED:          0	TO_CACHE:    1498692

STLB Hit, L1D data hit: 0
STLB Hit, L2C data hit: 0
STLB Hit, LLC data hit: 0
STLB Hit, LLC data miss: 0
STLB STLB hints to L2: 0
L1D TOTAL     ACCESS:    6467081  HIT:    5814881  MISS:     652200  HIT %:    89.9151  MISS %:    10.0849   MPKI: 13.044
L1D LOAD      ACCESS:    5681260  HIT:    5144214  MISS:     537046  HIT %:    90.5471  MISS %:    9.45294   MPKI: 10.7409
L1D RFO       ACCESS:     785821  HIT:     670667  MISS:     115154  HIT %:     85.346  MISS %:     14.654   MPKI: 2.30308
L1D PREFETCH  REQUESTED:          0  ISSUED:          0  USEFUL:          0  USELESS:          0
L1D USEFUL LOAD PREFETCHES:          0 PREFETCH ISSUED TO LOWER LEVEL:          0  ACCURACY: -nan
L1D TIMELY PREFETCHES:          0 LATE PREFETCHES: 0 DROPPED PREFETCHES: 0
L1D PREFETCHES SAME FILL-ORIGIN LEVEL: 0 DIFFERENT FILL-ORIGIN LEVEL: 0
L1D AVERAGE MISS LATENCY: 163.631 cycles
L1D RQ	ACCESS:    8947583	FORWARD:          0	MERGED:    3095601	TO_CACHE:    5828967
L1D WQ	ACCESS:    1013562	FORWARD:      23015	MERGED:     117002	TO_CACHE:     896560

L1D UNIQUE REGIONS ACCESSED: 0
L1D REGIONS CONFLICTS: 0
L1D Cross Page Prefetch Requests: 0
L1D Same Page Prefetch Requests: 0
L1D ROI Sum of L1D PQ occupancy: 0
L1D PREFETCHES PUSHED FROM L2C: 0
L1I TOTAL     ACCESS:   10102852  HIT:   10101978  MISS:        874  HIT %:    99.9913  MISS %: 0.00865102   MPKI: 0.01748
L1I LOAD      ACCESS:   10102852  HIT:   10101978  MISS:        874  HIT %:    99.9913  MISS %: 0.00865102   MPKI: 0.01748
L1I PREFETCH  REQUESTED:          0  ISSUED:          0  USEFUL:          0  USELESS:          0
L1I USEFUL LOAD PREFETCHES:          0 PREFETCH ISSUED TO LOWER LEVEL:          0  ACCURACY: -nan
L1I TIMELY PREFETCHES:          0 LATE PREFETCHES: 0 DROPPED PREFETCHES: 0
L1I PREFETCHES SAME FILL-ORIGIN LEVEL: 0 DIFFERENT FILL-ORIGIN LEVEL: 0
L1I AVERAGE MISS LATENCY: 208.661 cycles
L1I RQ	ACCESS:   17098416	FORWARD:          0	MERGED:    6995368	TO_CACHE:   10103048

BTB BRANCH_DIRECT_JUMP	ACCESS:          0  HIT:          0  MISS:          0
BTB BRANCH_INDIRECT	ACCESS:          0  HIT:          0  MISS:          0
BTB BRANCH_CONDITIONAL	ACCESS:          0  HIT:          0  MISS:          0
BTB BRANCH_DIRECT_CALL	ACCESS:          0  HIT:          0  MISS:          0
BTB BRANCH_INDIRECT_CALL	ACCESS:          0  HIT:          0  MISS:          0
BTB BRANCH_RETURN	ACCESS:          0  HIT:          0  MISS:          0
BTB BRANCH_OTHER ACCESS:          0  HIT:          0  MISS:          0

L2C TOTAL     ACCESS:    1328795  HIT:     723398  MISS:     605397  HIT %:    54.4402  MISS %:    45.5598   MPKI: 12.1079
L2C LOAD      ACCESS:     537920  HIT:     138079  MISS:     399841  HIT %:    25.6691  MISS %:    74.3309   MPKI: 7.99682
L2C DATA LOAD MPKI: 7.97934
L2C INSTRUCTION LOAD MPKI: 0.01748
L2C RFO       ACCESS:     115153  HIT:        837  MISS:     114316  HIT %:   0.726859  MISS %:    99.2731   MPKI: 2.28632
L2C PREFETCH  ACCESS:     146244  HIT:      65318  MISS:      80926  HIT %:    44.6637  MISS %:    55.3363   MPKI: 1.61852
L2C DATA PREFETCH MPKI: 1.61852
L2C INSTRUCTION PREFETCH MPKI: 0
L2C WRITEBACK ACCESS:     145563  HIT:     140156  MISS:       5407  HIT %:    96.2855  MISS %:    3.71454   MPKI: 0.10814
L2C LOAD TRANSLATION ACCESS:     383915  HIT:     379008  MISS:       4907  HIT %:    98.7219  MISS %:    1.27815   MPKI: 0.09814
L2C PREFETCH  REQUESTED:    1630724  ISSUED:    1620929  USEFUL:      80645  USELESS:        281
L2C USEFUL LOAD PREFETCHES:      80645 PREFETCH ISSUED TO LOWER LEVEL:    1421086  ACCURACY: 5.67489
L2C TIMELY PREFETCHES:      80645 LATE PREFETCHES: 16982 DROPPED PREFETCHES: 0
L2C PREFETCHES SAME FILL-ORIGIN LEVEL: 97908 DIFFERENT FILL-ORIGIN LEVEL: 1323178
L2C AVERAGE MISS LATENCY: 167.158 cycles
L2C RQ	ACCESS:    1036989	FORWARD:          0	MERGED:          0	TO_CACHE:    1036988
L2C WQ	ACCESS:     145563	FORWARD:          1	MERGED:          0	TO_CACHE:     145563
L2C PQ	ACCESS:    1620929	FORWARD:          0	MERGED:     101472	TO_CACHE:    1519457

L2C Instructions Evicting Data 856
L2C Translations Evicting Data 4867
L2C Data Evicting Data 588701
L2C Instructions Evicting Instructions 8
L2C Translations Evicting Instructions 12
L2C Data Evicting Instructions 828
L2C Instructions Evicting Translations 10
L2C Translations Evicting Translations 28
L2C Data Evicting Translations 4680
L2C Dense regions hint from L2: 0
PSCL5 TOTAL     ACCESS:     383337  HIT:     383337  MISS:          0  HIT %:        100  MISS %:          0   MPKI: 0
PSCL5 LOAD TRANSLATION ACCESS:     383337  HIT:     383337  MISS:          0  HIT %:        100  MISS %:          0   MPKI: 0
PSCL5 PREFETCH  REQUESTED:          0  ISSUED:          0  USEFUL:          0  USELESS:          0
PSCL5 USEFUL LOAD PREFETCHES:          0 PREFETCH ISSUED TO LOWER LEVEL:          0  ACCURACY: -nan
PSCL5 TIMELY PREFETCHES:          0 LATE PREFETCHES: 0 DROPPED PREFETCHES: 0
PSCL5 PREFETCHES SAME FILL-ORIGIN LEVEL: 0 DIFFERENT FILL-ORIGIN LEVEL: 0

PSCL4 TOTAL     ACCESS:     383337  HIT:     383337  MISS:          0  HIT %:        100  MISS %:          0   MPKI: 0
PSCL4 LOAD TRANSLATION ACCESS:     383337  HIT:     383337  MISS:          0  HIT %:        100  MISS %:          0   MPKI: 0
PSCL4 PREFETCH  REQUESTED:          0  ISSUED:          0  USEFUL:          0  USELESS:          0
PSCL4 USEFUL LOAD PREFETCHES:          0 PREFETCH ISSUED TO LOWER LEVEL:          0  ACCURACY: -nan
PSCL4 TIMELY PREFETCHES:          0 LATE PREFETCHES: 0 DROPPED PREFETCHES: 0
PSCL4 PREFETCHES SAME FILL-ORIGIN LEVEL: 0 DIFFERENT FILL-ORIGIN LEVEL: 0

PSCL3 TOTAL     ACCESS:     383332  HIT:     383328  MISS:          4  HIT %:     99.999  MISS %: 0.00104348   MPKI: 8e-05
PSCL3 LOAD TRANSLATION ACCESS:     383332  HIT:     383328  MISS:          4  HIT %:     99.999  MISS %: 0.00104348   MPKI: 8e-05
PSCL3 PREFETCH  REQUESTED:          0  ISSUED:          0  USEFUL:          0  USELESS:          0
PSCL3 USEFUL LOAD PREFETCHES:          0 PREFETCH ISSUED TO LOWER LEVEL:          0  ACCURACY: -nan
PSCL3 TIMELY PREFETCHES:          0 LATE PREFETCHES: 0 DROPPED PREFETCHES: 0
PSCL3 PREFETCHES SAME FILL-ORIGIN LEVEL: 0 DIFFERENT FILL-ORIGIN LEVEL: 0

PSCL2 TOTAL     ACCESS:     383337  HIT:     382761  MISS:        576  HIT %:    99.8497  MISS %:   0.150259   MPKI: 0.01152
PSCL2 LOAD TRANSLATION ACCESS:     383337  HIT:     382761  MISS:        576  HIT %:    99.8497  MISS %:   0.150259   MPKI: 0.01152
PSCL2 PREFETCH  REQUESTED:          0  ISSUED:          0  USEFUL:          0  USELESS:          0
PSCL2 USEFUL LOAD PREFETCHES:          0 PREFETCH ISSUED TO LOWER LEVEL:          0  ACCURACY: -nan
PSCL2 TIMELY PREFETCHES:          0 LATE PREFETCHES: 0 DROPPED PREFETCHES: 0
PSCL2 PREFETCHES SAME FILL-ORIGIN LEVEL: 0 DIFFERENT FILL-ORIGIN LEVEL: 0

LLC TOTAL     ACCESS:    1842687  HIT:    1255466  MISS:     587221  HIT %:    68.1324  MISS %:    31.8676   MPKI: 11.7444
LLC LOAD      ACCESS:     382859  HIT:     168960  MISS:     213899  HIT %:    44.1311  MISS %:    55.8689   MPKI: 4.27798
LLC RFO       ACCESS:     114316  HIT:        787  MISS:     113529  HIT %:   0.688443  MISS %:    99.3116   MPKI: 2.27058
LLC PREFETCH  ACCESS:    1200241  HIT:     950969  MISS:     249272  HIT %:    79.2315  MISS %:    20.7685   MPKI: 4.98544
LLC WRITEBACK ACCESS:     140364  HIT:     133797  MISS:       6567  HIT %:    95.3214  MISS %:    4.67855   MPKI: 0.13134
LLC LOAD TRANSLATION ACCESS:       4907  HIT:        953  MISS:       3954  HIT %:    19.4212  MISS %:    80.5788   MPKI: 0.07908
LLC PREFETCH  REQUESTED:          0  ISSUED:          0  USEFUL:     142320  USELESS:     101336
LLC USEFUL LOAD PREFETCHES:     142320 PREFETCH ISSUED TO LOWER LEVEL:     277228  ACCURACY: 51.3368
LLC TIMELY PREFETCHES:     142320 LATE PREFETCHES: 27956 DROPPED PREFETCHES: 0
LLC PREFETCHES SAME FILL-ORIGIN LEVEL: 275136 DIFFERENT FILL-ORIGIN LEVEL: 0
LLC AVERAGE MISS LATENCY: 216.513 cycles
LLC RQ	ACCESS:     502082	FORWARD:          0	MERGED:          0	TO_CACHE:     502082
LLC WQ	ACCESS:     140364	FORWARD:          0	MERGED:          0	TO_CACHE:     140364
LLC PQ	ACCESS:    1421086	FORWARD:          0	MERGED:      61004	TO_CACHE:    1360082

LLC Dense regions hint to LLC: 0

RAW hits: 376522
Loads Generated: 9324105
Loads sent to L1D: 8947583
Stores Generated: 1013562
Stores sent to L1D: 1013562
Major fault: 0 Minor fault: 11007
Allocated PAGES: 11007
 All Calls: 1334218
 Critical Calls: 486186
------------------
Depth Distribution
------------------
depth 0: 0
depth 1: 369410
depth 2: 227086
depth 3: 194355
depth 4: 163531
depth 5: 137351
depth 6: 118502
depth 7: 103598
depth 8: 89685
depth 9: 70551
depth 10: 56201
depth 11: 43071
depth 12: 27824
depth 13: 15350
depth 14: 2336
depth 15: 2279
depth 16: 1
depth 17: 0
depth 18: 0
depth 19: 0
depth 20: 0
depth 21: 0
depth 22: 0
depth 23: 0
depth 24: 0
depth 25: 0
depth 26: 0
depth 27: 0
depth 28: 0
depth 29: 0
Total: 1621131
-----------------------------
-----------------------------
	Captured at Filter
-----------------------------
depth 0: 0
depth 1: 1882
depth 2: 981
depth 3: 895
depth 4: 751
depth 5: 671
depth 6: 577
depth 7: 542
depth 8: 440
depth 9: 397
depth 10: 280
depth 11: 234
depth 12: 147
depth 13: 85
depth 14: 13
depth 15: 11
depth 16: 0
depth 17: 0
depth 18: 0
depth 19: 0
depth 20: 0
depth 21: 0
depth 22: 0
depth 23: 0
depth 24: 0
depth 25: 0
depth 26: 0
depth 27: 0
depth 28: 0
depth 29: 0
-----------------------------
-----------------------------
		Lost at Page
-----------------------------
depth 0: 0
depth 1: 7257
depth 2: 7534
depth 3: 9750
depth 4: 11120
depth 5: 11892
depth 6: 12553
depth 7: 13129
depth 8: 13286
depth 9: 12050
depth 10: 10874
depth 11: 9334
depth 12: 6802
depth 13: 4275
depth 14: 753
depth 15: 804
depth 16: 0
depth 17: 0
depth 18: 0
depth 19: 0
depth 20: 0
depth 21: 0
depth 22: 0
depth 23: 0
depth 24: 0
depth 25: 0
depth 26: 0
depth 27: 0
depth 28: 0
depth 29: 0
-----------------------------
-----------------------------
	Lost due to PQ Size
-----------------------------
9795
-----------------------------
ST read accesses: 453569
ST write accesses: 21228
PT read accesses: 12194966
PT write accesses: 659081
FILTER read accesses: 2718822
FILTER write accesses: 818947
GHR read accesses: 896911
GHR write accesses: 131407
GHR counter read accesses: 9824390
GHR counter write accesses: 685353
ST tag read accesses: 192864489
ST tag write accesses: 8912059

DRAM Statistics
 CHANNEL 0
 RQ ROW_BUFFER_HIT:     309115  ROW_BUFFER_MISS:     271539
 DBUS_CONGESTED:        237
 WQ ROW_BUFFER_HIT:      26318  ROW_BUFFER_MISS:     108873  FULL:          0

 AVG_CONGESTED_CYCLE: 4
 All warmup complete: 2
Channel 0 Bank busy for read cycles: 0
Channel 0 Bank busy for write cycles: 0
Channel 0
Rank 0
0banks busy for read cycles: 41859718
0banks busy for write cycles: 14111
1banks busy for read cycles: 13156642
1banks busy for write cycles: 2248949
2banks busy for read cycles: 5260343
2banks busy for write cycles: 638618
3banks busy for read cycles: 2024019
3banks busy for write cycles: 296931
4banks busy for read cycles: 1051196
4banks busy for write cycles: 183950
5banks busy for read cycles: 646987
5banks busy for write cycles: 132523
6banks busy for read cycles: 525957
6banks busy for write cycles: 104502
7banks busy for read cycles: 620533
7banks busy for write cycles: 245519
8banks busy for read cycles: 1679427
8banks busy for write cycles: 2253868

CPU 0 Branch Prediction Accuracy: 98.792% MPKI: 2.54542 Average ROB Occupancy at Mispredict: 76.0832
Branch types
NOT_BRANCH: 0 0%
BRANCH_DIRECT_JUMP: 0 0%
BRANCH_INDIRECT: 0 0%
BRANCH_CONDITIONAL: 0 0%
BRANCH_DIRECT_CALL: 0 0%
BRANCH_INDIRECT_CALL: 0 0%
BRANCH_RETURN: 0 0%
BRANCH_OTHER: 0 0%

DRAM PAGES: 1048576
Allocated PAGES: 11007
