
*** ChampSim Multicore Out-of-Order Simulator ***

Warmup Instructions: 50000000
Simulation Instructions: 50000000
Number of CPUs: 1
LLC sets: 2048
LLC ways: 16
Off-chip DRAM Size: 4096 MB Channels: 1 Width: 64-bit Data Rate: 6400 MT/s
CPU 0 runs ../cloudsuite_traces//nutch_phase0_core3.trace.gz
.gz
NUM_OF_IPS_IN_CRITICAL_IP_TRAINING: 64
NUM_OF_CRITICAL_IP_TRAINING_TABLE_WAYS: 2
NUM_OF_CRITICAL_IP_TRAINING_TABLE_SETS: 32
WOBBLY_CRITICAL_IP_CACHE_SETS: 32
WOBBLY_CRITICAL_IP_CACHE_WAYS: 4
BTB has LRU replacement policy
ITLB has LRU replacement policy
DTLB has LRU replacement policy
STLB has LRU replacement policy
L1I has LRU replacement policy
L1D has LRU replacement policy
Bingo PHT WAYS: 16 and PHT_SIZE: 16384
Initialize SRRIP state for L2C
Initialize DRRIP state for LLC
UNIQUE_ASID[0] = €
UNIQUE_ASID[1] = 
Heartbeat CPU 0 instructions: 10000002 cycles: 2864232 heartbeat IPC: 3.49134 cumulative IPC: 3.49134 (Simulation time: 0 hr 3 min 56 sec) 
Heartbeat CPU 0 instructions: 20000002 cycles: 5711093 heartbeat IPC: 3.51264 cumulative IPC: 3.50196 (Simulation time: 0 hr 7 min 30 sec) 
Heartbeat CPU 0 instructions: 30000000 cycles: 8553476 heartbeat IPC: 3.51817 cumulative IPC: 3.50735 (Simulation time: 0 hr 10 min 21 sec) 
Heartbeat CPU 0 instructions: 40000003 cycles: 11396432 heartbeat IPC: 3.51747 cumulative IPC: 3.50987 (Simulation time: 0 hr 13 min 15 sec) 
Heartbeat CPU 0 instructions: 50000003 cycles: 14223930 heartbeat IPC: 3.5367 cumulative IPC: 3.5152 (Simulation time: 0 hr 16 min 3 sec) 

Warmup complete CPU 0 instructions: 50000003 cycles: 14223930 (Simulation time: 0 hr 16 min 3 sec) 

% increase in all ip prefetch 352.878
% increase in all ip prefetch 11.1067
% increase in all ip prefetch -10.8254
Heartbeat CPU 0 instructions: 60000002 cycles: 29791607 heartbeat IPC: 0.642357 cumulative IPC: 0.642357 (Simulation time: 0 hr 19 min 57 sec) 
Heartbeat CPU 0 instructions: 70000003 cycles: 44563642 heartbeat IPC: 0.676955 cumulative IPC: 0.659202 (Simulation time: 0 hr 23 min 41 sec) 
Heartbeat CPU 0 instructions: 80000002 cycles: 58333908 heartbeat IPC: 0.726202 cumulative IPC: 0.680118 (Simulation time: 0 hr 27 min 14 sec) 
Heartbeat CPU 0 instructions: 90000003 cycles: 71319867 heartbeat IPC: 0.770063 cumulative IPC: 0.700575 (Simulation time: 0 hr 30 min 43 sec) 
Heartbeat CPU 0 instructions: 100000000 cycles: 85103530 heartbeat IPC: 0.725496 cumulative IPC: 0.705422 (Simulation time: 0 hr 33 min 52 sec) 
Finished CPU 0 instructions: 50000001 cycles: 70879601 cumulative IPC: 0.705422 (Simulation time: 0 hr 33 min 52 sec) 

ChampSim completed all CPUs

Region of Interest Statistics

CPU 0 cumulative IPC: 0.705422 instructions: 50000001 cycles: 70879601

CPU 0 Average Load ROB stall cycles: 6.38963e+06
CPU 0 Fraction of times ROB stalled by Loads: 12.4181
CPU 0 Percentage of Load stall cycles in Total stall cycles: 8.75141e+07
 Total stall cycles: 37324762
 Total load stall cycles: 32664416818647
CPU 0 NUM of IPS identified critical: 0
CPU 0 Num of Load IPs stalling ROB: 5124
Threshold modification factor: -2
Max PIST entries: 64
Min PIST entries: 0
Avg PIST entries: 31.96
Critical IP stalls, total frequency: 0
rob stalling non-critical load ip: 16783496 freq: 42
rob stalling non-critical load ip: 16783504 freq: 3
rob stalling non-critical load ip: 16783512 freq: 4
rob stalling non-critical load ip: 16783524 freq: 3
rob stalling non-critical load ip: 16783532 freq: 80
rob stalling non-critical load ip: 16783536 freq: 1
rob stalling non-critical load ip: 16783544 freq: 11
rob stalling non-critical load ip: 16783552 freq: 126
rob stalling non-critical load ip: 16783556 freq: 6
rob stalling non-critical load ip: 16783564 freq: 105
rob stalling non-critical load ip: 16783572 freq: 33
rob stalling non-critical load ip: 16783752 freq: 464
rob stalling non-critical load ip: 16783760 freq: 15
rob stalling non-critical load ip: 16783768 freq: 44
rob stalling non-critical load ip: 16783780 freq: 157
rob stalling non-critical load ip: 16783788 freq: 419
rob stalling non-critical load ip: 16783792 freq: 22
rob stalling non-critical load ip: 16783800 freq: 54
rob stalling non-critical load ip: 16783808 freq: 473
rob stalling non-critical load ip: 16783812 freq: 1
rob stalling non-critical load ip: 16783820 freq: 407
rob stalling non-critical load ip: 16783828 freq: 91
rob stalling non-critical load ip: 16784128 freq: 212
rob stalling non-critical load ip: 16784136 freq: 14
rob stalling non-critical load ip: 16784152 freq: 401
rob stalling non-critical load ip: 16784176 freq: 8
rob stalling non-critical load ip: 16784184 freq: 3
rob stalling non-critical load ip: 16800136 freq: 3
rob stalling non-critical load ip: 16806692 freq: 2
rob stalling non-critical load ip: 16807120 freq: 557
rob stalling non-critical load ip: 16807124 freq: 18
rob stalling non-critical load ip: 16807128 freq: 2
rob stalling non-critical load ip: 16807136 freq: 5
rob stalling non-critical load ip: 16807188 freq: 12
rob stalling non-critical load ip: 16807200 freq: 15
rob stalling non-critical load ip: 16807208 freq: 5
rob stalling non-critical load ip: 16807216 freq: 1
rob stalling non-critical load ip: 16807220 freq: 21
rob stalling non-critical load ip: 16807228 freq: 29
rob stalling non-critical load ip: 16807232 freq: 2
rob stalling non-critical load ip: 16807244 freq: 3
rob stalling non-critical load ip: 16807256 freq: 6
rob stalling non-critical load ip: 16807260 freq: 25
rob stalling non-critical load ip: 16807264 freq: 6
rob stalling non-critical load ip: 16807268 freq: 59
rob stalling non-critical load ip: 16807344 freq: 48
rob stalling non-critical load ip: 16807392 freq: 677
rob stalling non-critical load ip: 16807956 freq: 4
rob stalling non-critical load ip: 16812716 freq: 127
rob stalling non-critical load ip: 16812788 freq: 1
rob stalling non-critical load ip: 16812908 freq: 11
rob stalling non-critical load ip: 16813176 freq: 79
rob stalling non-critical load ip: 16813308 freq: 82
rob stalling non-critical load ip: 16813444 freq: 5
rob stalling non-critical load ip: 16813580 freq: 4
rob stalling non-critical load ip: 16815252 freq: 5
rob stalling non-critical load ip: 16815308 freq: 1
rob stalling non-critical load ip: 16817900 freq: 3
rob stalling non-critical load ip: 16819204 freq: 3
rob stalling non-critical load ip: 16820708 freq: 2
rob stalling non-critical load ip: 16820772 freq: 2
rob stalling non-critical load ip: 16820956 freq: 3
rob stalling non-critical load ip: 16821280 freq: 7
rob stalling non-critical load ip: 16821296 freq: 8
rob stalling non-critical load ip: 16821308 freq: 12
rob stalling non-critical load ip: 16821452 freq: 3
rob stalling non-critical load ip: 16821600 freq: 2
rob stalling non-critical load ip: 16822020 freq: 3
rob stalling non-critical load ip: 16822276 freq: 3
rob stalling non-critical load ip: 16822788 freq: 3
rob stalling non-critical load ip: 16822888 freq: 5
rob stalling non-critical load ip: 16823128 freq: 8
rob stalling non-critical load ip: 16845328 freq: 6
rob stalling non-critical load ip: 16851080 freq: 3
rob stalling non-critical load ip: 16851340 freq: 2
rob stalling non-critical load ip: 16851388 freq: 6
rob stalling non-critical load ip: 16851436 freq: 2
rob stalling non-critical load ip: 16851552 freq: 43
rob stalling non-critical load ip: 16851564 freq: 1
rob stalling non-critical load ip: 16851588 freq: 35
rob stalling non-critical load ip: 16851600 freq: 2
rob stalling non-critical load ip: 16851612 freq: 1
rob stalling non-critical load ip: 16851632 freq: 4
rob stalling non-critical load ip: 16851652 freq: 36
rob stalling non-critical load ip: 16891612 freq: 13
rob stalling non-critical load ip: 16891620 freq: 10
rob stalling non-critical load ip: 16891636 freq: 5
rob stalling non-critical load ip: 16891944 freq: 8
rob stalling non-critical load ip: 16892324 freq: 4
rob stalling non-critical load ip: 16898724 freq: 3
rob stalling non-critical load ip: 16898936 freq: 1
rob stalling non-critical load ip: 16899252 freq: 3
rob stalling non-critical load ip: 16899336 freq: 5
rob stalling non-critical load ip: 16900600 freq: 6
rob stalling non-critical load ip: 16917116 freq: 207
rob stalling non-critical load ip: 16917124 freq: 485
rob stalling non-critical load ip: 16917760 freq: 9
rob stalling non-critical load ip: 16917772 freq: 59
rob stalling non-critical load ip: 17022708 freq: 24
rob stalling non-critical load ip: 17022764 freq: 9
rob stalling non-critical load ip: 17077560 freq: 1
rob stalling non-critical load ip: 17077640 freq: 1
rob stalling non-critical load ip: 17077688 freq: 4
rob stalling non-critical load ip: 17077812 freq: 1
rob stalling non-critical load ip: 17078088 freq: 6
rob stalling non-critical load ip: 17078100 freq: 9
rob stalling non-critical load ip: 17084128 freq: 11
rob stalling non-critical load ip: 17084300 freq: 6
rob stalling non-critical load ip: 17084332 freq: 188
rob stalling non-critical load ip: 17084340 freq: 4
rob stalling non-critical load ip: 17084388 freq: 191
rob stalling non-critical load ip: 17084544 freq: 724
rob stalling non-critical load ip: 17084652 freq: 739
rob stalling non-critical load ip: 17084656 freq: 706
rob stalling non-critical load ip: 17084692 freq: 2
rob stalling non-critical load ip: 17084752 freq: 181
rob stalling non-critical load ip: 17084772 freq: 26
rob stalling non-critical load ip: 17084780 freq: 196
rob stalling non-critical load ip: 17084836 freq: 3
rob stalling non-critical load ip: 17088412 freq: 3
rob stalling non-critical load ip: 17088808 freq: 8
rob stalling non-critical load ip: 17089932 freq: 8
rob stalling non-critical load ip: 17089956 freq: 1
rob stalling non-critical load ip: 17089988 freq: 414
rob stalling non-critical load ip: 17090008 freq: 6
rob stalling non-critical load ip: 17090036 freq: 16
rob stalling non-critical load ip: 17090060 freq: 30
rob stalling non-critical load ip: 17090192 freq: 21
rob stalling non-critical load ip: 17090196 freq: 371
rob stalling non-critical load ip: 17100620 freq: 62
rob stalling non-critical load ip: 17109080 freq: 1
rob stalling non-critical load ip: 17109104 freq: 1
rob stalling non-critical load ip: 17109116 freq: 1
rob stalling non-critical load ip: 17109496 freq: 4
rob stalling non-critical load ip: 17109516 freq: 1
rob stalling non-critical load ip: 17109616 freq: 4
rob stalling non-critical load ip: 17147696 freq: 4
rob stalling non-critical load ip: 17147700 freq: 2
rob stalling non-critical load ip: 17148832 freq: 271
rob stalling non-critical load ip: 17148868 freq: 5
rob stalling non-critical load ip: 17148904 freq: 5
rob stalling non-critical load ip: 17148972 freq: 298
rob stalling non-critical load ip: 17149012 freq: 4
rob stalling non-critical load ip: 17149168 freq: 4
rob stalling non-critical load ip: 17149172 freq: 6
rob stalling non-critical load ip: 17149204 freq: 5
rob stalling non-critical load ip: 17149208 freq: 13
rob stalling non-critical load ip: 17149340 freq: 6
rob stalling non-critical load ip: 17149344 freq: 5
rob stalling non-critical load ip: 17149400 freq: 54
rob stalling non-critical load ip: 17149504 freq: 49
rob stalling non-critical load ip: 17149516 freq: 3
rob stalling non-critical load ip: 17149600 freq: 120
rob stalling non-critical load ip: 17149604 freq: 12
rob stalling non-critical load ip: 17182648 freq: 1
rob stalling non-critical load ip: 17183060 freq: 13
rob stalling non-critical load ip: 17183108 freq: 10
rob stalling non-critical load ip: 17183140 freq: 12
rob stalling non-critical load ip: 17183188 freq: 5
rob stalling non-critical load ip: 17183232 freq: 1
rob stalling non-critical load ip: 17183248 freq: 14
rob stalling non-critical load ip: 17183380 freq: 7
rob stalling non-critical load ip: 17183424 freq: 4
rob stalling non-critical load ip: 17183436 freq: 6
rob stalling non-critical load ip: 17183520 freq: 2
rob stalling non-critical load ip: 17183532 freq: 2
rob stalling non-critical load ip: 17183560 freq: 14
rob stalling non-critical load ip: 17183812 freq: 15
rob stalling non-critical load ip: 17183836 freq: 2
rob stalling non-critical load ip: 17183952 freq: 7
rob stalling non-critical load ip: 17183960 freq: 28
rob stalling non-critical load ip: 17184072 freq: 19
rob stalling non-critical load ip: 17184084 freq: 7
rob stalling non-critical load ip: 17184100 freq: 6
rob stalling non-critical load ip: 17184740 freq: 3
rob stalling non-critical load ip: 17184900 freq: 4
rob stalling non-critical load ip: 17185064 freq: 2
rob stalling non-critical load ip: 17185072 freq: 1
rob stalling non-critical load ip: 17185196 freq: 2
rob stalling non-critical load ip: 17185608 freq: 4
rob stalling non-critical load ip: 17185612 freq: 2
rob stalling non-critical load ip: 17185856 freq: 2
rob stalling non-critical load ip: 17185984 freq: 3
rob stalling non-critical load ip: 17186072 freq: 1
rob stalling non-critical load ip: 17186496 freq: 1
rob stalling non-critical load ip: 17186596 freq: 1
rob stalling non-critical load ip: 17187196 freq: 1
rob stalling non-critical load ip: 17187260 freq: 4
rob stalling non-critical load ip: 17188224 freq: 8
rob stalling non-critical load ip: 17188264 freq: 4
rob stalling non-critical load ip: 17188292 freq: 16
rob stalling non-critical load ip: 17188308 freq: 20
rob stalling non-critical load ip: 17188316 freq: 1
rob stalling non-critical load ip: 17188436 freq: 8
rob stalling non-critical load ip: 17188488 freq: 2
rob stalling non-critical load ip: 17188568 freq: 14
rob stalling non-critical load ip: 17188700 freq: 6
rob stalling non-critical load ip: 17188792 freq: 2
rob stalling non-critical load ip: 17189432 freq: 3
rob stalling non-critical load ip: 17189488 freq: 5
rob stalling non-critical load ip: 17189520 freq: 2
rob stalling non-critical load ip: 17225220 freq: 5
rob stalling non-critical load ip: 17225500 freq: 2
rob stalling non-critical load ip: 17225540 freq: 5
rob stalling non-critical load ip: 17226948 freq: 428
rob stalling non-critical load ip: 17227996 freq: 2
rob stalling non-critical load ip: 17245100 freq: 35
rob stalling non-critical load ip: 17252100 freq: 1
rob stalling non-critical load ip: 17253688 freq: 67
rob stalling non-critical load ip: 17267924 freq: 13
rob stalling non-critical load ip: 17503884 freq: 1
rob stalling non-critical load ip: 17504256 freq: 5
rob stalling non-critical load ip: 17504760 freq: 11
rob stalling non-critical load ip: 17506076 freq: 12
rob stalling non-critical load ip: 17506356 freq: 1
rob stalling non-critical load ip: 17507056 freq: 1
rob stalling non-critical load ip: 17507160 freq: 4
rob stalling non-critical load ip: 17507396 freq: 3
rob stalling non-critical load ip: 17507428 freq: 2
rob stalling non-critical load ip: 17507476 freq: 3
rob stalling non-critical load ip: 17511888 freq: 12
rob stalling non-critical load ip: 17545664 freq: 1
rob stalling non-critical load ip: 17545788 freq: 1
rob stalling non-critical load ip: 17546024 freq: 12
rob stalling non-critical load ip: 17546088 freq: 44
rob stalling non-critical load ip: 17546908 freq: 21
rob stalling non-critical load ip: 17546920 freq: 2
rob stalling non-critical load ip: 17546944 freq: 8
rob stalling non-critical load ip: 17547352 freq: 15
rob stalling non-critical load ip: 17547376 freq: 5
rob stalling non-critical load ip: 17547720 freq: 3
rob stalling non-critical load ip: 17547732 freq: 3
rob stalling non-critical load ip: 17547760 freq: 4
rob stalling non-critical load ip: 17548040 freq: 22
rob stalling non-critical load ip: 17613904 freq: 3
rob stalling non-critical load ip: 17613980 freq: 9
rob stalling non-critical load ip: 17614016 freq: 1
rob stalling non-critical load ip: 17614160 freq: 2
rob stalling non-critical load ip: 17614240 freq: 3
rob stalling non-critical load ip: 17614308 freq: 1
rob stalling non-critical load ip: 17614460 freq: 3
rob stalling non-critical load ip: 17614860 freq: 3
rob stalling non-critical load ip: 17616192 freq: 2
rob stalling non-critical load ip: 17616908 freq: 1
rob stalling non-critical load ip: 17616996 freq: 3
rob stalling non-critical load ip: 17617012 freq: 3
rob stalling non-critical load ip: 17617064 freq: 2
rob stalling non-critical load ip: 17617684 freq: 1
rob stalling non-critical load ip: 17617840 freq: 1
rob stalling non-critical load ip: 17617868 freq: 3
rob stalling non-critical load ip: 17617884 freq: 3
rob stalling non-critical load ip: 17618600 freq: 1
rob stalling non-critical load ip: 17618704 freq: 1
rob stalling non-critical load ip: 17641540 freq: 7
rob stalling non-critical load ip: 17641600 freq: 1
rob stalling non-critical load ip: 17641788 freq: 1
rob stalling non-critical load ip: 17643356 freq: 1
rob stalling non-critical load ip: 17643608 freq: 4
rob stalling non-critical load ip: 17643644 freq: 4
rob stalling non-critical load ip: 17643976 freq: 5
rob stalling non-critical load ip: 17643980 freq: 5
rob stalling non-critical load ip: 17644276 freq: 779
rob stalling non-critical load ip: 17682552 freq: 2
rob stalling non-critical load ip: 17682628 freq: 3
rob stalling non-critical load ip: 17682804 freq: 6
rob stalling non-critical load ip: 17682824 freq: 6
rob stalling non-critical load ip: 17682900 freq: 3
rob stalling non-critical load ip: 17683040 freq: 4
rob stalling non-critical load ip: 17683132 freq: 2
rob stalling non-critical load ip: 17683248 freq: 3
rob stalling non-critical load ip: 17683256 freq: 3
rob stalling non-critical load ip: 17683380 freq: 7
rob stalling non-critical load ip: 17683576 freq: 3
rob stalling non-critical load ip: 17683888 freq: 9
rob stalling non-critical load ip: 17683908 freq: 3
rob stalling non-critical load ip: 17689564 freq: 1
rob stalling non-critical load ip: 17782316 freq: 14
rob stalling non-critical load ip: 17782320 freq: 4
rob stalling non-critical load ip: 17782380 freq: 181
rob stalling non-critical load ip: 17782400 freq: 32
rob stalling non-critical load ip: 17782428 freq: 2
rob stalling non-critical load ip: 17782476 freq: 11
rob stalling non-critical load ip: 17782600 freq: 9
rob stalling non-critical load ip: 17783272 freq: 9
rob stalling non-critical load ip: 17906156 freq: 4
rob stalling non-critical load ip: 17906336 freq: 32
rob stalling non-critical load ip: 17906384 freq: 9
rob stalling non-critical load ip: 17906400 freq: 46
rob stalling non-critical load ip: 17906620 freq: 14
rob stalling non-critical load ip: 17906644 freq: 5
rob stalling non-critical load ip: 17906844 freq: 572
rob stalling non-critical load ip: 17906888 freq: 21
rob stalling non-critical load ip: 17906912 freq: 4
rob stalling non-critical load ip: 17906968 freq: 2
rob stalling non-critical load ip: 17907064 freq: 605
rob stalling non-critical load ip: 17908272 freq: 158
rob stalling non-critical load ip: 17908296 freq: 12
rob stalling non-critical load ip: 17908312 freq: 2
rob stalling non-critical load ip: 17908368 freq: 8
rob stalling non-critical load ip: 17989620 freq: 3
rob stalling non-critical load ip: 18022900 freq: 5
rob stalling non-critical load ip: 18022944 freq: 3
rob stalling non-critical load ip: 18025240 freq: 6
rob stalling non-critical load ip: 18025248 freq: 8
rob stalling non-critical load ip: 18025276 freq: 8
rob stalling non-critical load ip: 18025296 freq: 28
rob stalling non-critical load ip: 18025304 freq: 4
rob stalling non-critical load ip: 18025340 freq: 21
rob stalling non-critical load ip: 18026640 freq: 4
rob stalling non-critical load ip: 18026668 freq: 13
rob stalling non-critical load ip: 18026908 freq: 7
rob stalling non-critical load ip: 18027120 freq: 13
rob stalling non-critical load ip: 18027128 freq: 3
rob stalling non-critical load ip: 18027156 freq: 316
rob stalling non-critical load ip: 18027236 freq: 16
rob stalling non-critical load ip: 18027552 freq: 1
rob stalling non-critical load ip: 18027924 freq: 98
rob stalling non-critical load ip: 18027932 freq: 3
rob stalling non-critical load ip: 18049648 freq: 10
rob stalling non-critical load ip: 18049664 freq: 41
rob stalling non-critical load ip: 18049688 freq: 2
rob stalling non-critical load ip: 18049704 freq: 2
rob stalling non-critical load ip: 18049712 freq: 1
rob stalling non-critical load ip: 18049728 freq: 5
rob stalling non-critical load ip: 18049736 freq: 28
rob stalling non-critical load ip: 18049744 freq: 23
rob stalling non-critical load ip: 18049920 freq: 426
rob stalling non-critical load ip: 18049936 freq: 19
rob stalling non-critical load ip: 18049996 freq: 42
rob stalling non-critical load ip: 18050004 freq: 225
rob stalling non-critical load ip: 18073720 freq: 1
rob stalling non-critical load ip: 18073772 freq: 7
rob stalling non-critical load ip: 18073932 freq: 4
rob stalling non-critical load ip: 18074896 freq: 14
rob stalling non-critical load ip: 18088656 freq: 3
rob stalling non-critical load ip: 18088676 freq: 9
rob stalling non-critical load ip: 18093652 freq: 1
rob stalling non-critical load ip: 18093688 freq: 2
rob stalling non-critical load ip: 18094548 freq: 2
rob stalling non-critical load ip: 18094696 freq: 4
rob stalling non-critical load ip: 18095052 freq: 1
rob stalling non-critical load ip: 18095488 freq: 1
rob stalling non-critical load ip: 18095580 freq: 4
rob stalling non-critical load ip: 18095592 freq: 6
rob stalling non-critical load ip: 18095596 freq: 7
rob stalling non-critical load ip: 18095816 freq: 2
rob stalling non-critical load ip: 18095824 freq: 4
rob stalling non-critical load ip: 18095916 freq: 3
rob stalling non-critical load ip: 18095928 freq: 9
rob stalling non-critical load ip: 18095948 freq: 5
rob stalling non-critical load ip: 18095996 freq: 3
rob stalling non-critical load ip: 18096056 freq: 2
rob stalling non-critical load ip: 18096840 freq: 2
rob stalling non-critical load ip: 18097092 freq: 3
rob stalling non-critical load ip: 18097120 freq: 3
rob stalling non-critical load ip: 18107588 freq: 3
rob stalling non-critical load ip: 18128468 freq: 379
rob stalling non-critical load ip: 18128484 freq: 9
rob stalling non-critical load ip: 18128540 freq: 186
rob stalling non-critical load ip: 18128640 freq: 10
rob stalling non-critical load ip: 18128648 freq: 2
rob stalling non-critical load ip: 18128744 freq: 33
rob stalling non-critical load ip: 18128808 freq: 1
rob stalling non-critical load ip: 18128828 freq: 4
rob stalling non-critical load ip: 18128956 freq: 2
rob stalling non-critical load ip: 18132140 freq: 1
rob stalling non-critical load ip: 18132720 freq: 470
rob stalling non-critical load ip: 18132760 freq: 418
rob stalling non-critical load ip: 18132804 freq: 14
rob stalling non-critical load ip: 18132832 freq: 60
rob stalling non-critical load ip: 18132844 freq: 11
rob stalling non-critical load ip: 18132856 freq: 5
rob stalling non-critical load ip: 18132872 freq: 5
rob stalling non-critical load ip: 18132896 freq: 222
rob stalling non-critical load ip: 18132908 freq: 65
rob stalling non-critical load ip: 18132916 freq: 7
rob stalling non-critical load ip: 18132980 freq: 12
rob stalling non-critical load ip: 18132996 freq: 56
rob stalling non-critical load ip: 18133012 freq: 2
rob stalling non-critical load ip: 18133020 freq: 2
rob stalling non-critical load ip: 18133080 freq: 975
rob stalling non-critical load ip: 18133112 freq: 77
rob stalling non-critical load ip: 18133368 freq: 54
rob stalling non-critical load ip: 18133388 freq: 6
rob stalling non-critical load ip: 18133392 freq: 12
rob stalling non-critical load ip: 18133404 freq: 2
rob stalling non-critical load ip: 18133408 freq: 28
rob stalling non-critical load ip: 18133592 freq: 20
rob stalling non-critical load ip: 18133608 freq: 22
rob stalling non-critical load ip: 18133936 freq: 6
rob stalling non-critical load ip: 18133964 freq: 24
rob stalling non-critical load ip: 18134084 freq: 6
rob stalling non-critical load ip: 18134316 freq: 9
rob stalling non-critical load ip: 18134420 freq: 5
rob stalling non-critical load ip: 18134436 freq: 12
rob stalling non-critical load ip: 18150440 freq: 2
rob stalling non-critical load ip: 18220136 freq: 13
rob stalling non-critical load ip: 18220236 freq: 10
rob stalling non-critical load ip: 18220252 freq: 1
rob stalling non-critical load ip: 18302544 freq: 3
rob stalling non-critical load ip: 18302756 freq: 3
rob stalling non-critical load ip: 18302784 freq: 1
rob stalling non-critical load ip: 18303116 freq: 25
rob stalling non-critical load ip: 18303272 freq: 6
rob stalling non-critical load ip: 18303276 freq: 3
rob stalling non-critical load ip: 18303300 freq: 2
rob stalling non-critical load ip: 18303592 freq: 3
rob stalling non-critical load ip: 18304276 freq: 4
rob stalling non-critical load ip: 18304308 freq: 5
rob stalling non-critical load ip: 18309020 freq: 6
rob stalling non-critical load ip: 18309052 freq: 2
rob stalling non-critical load ip: 18309516 freq: 11
rob stalling non-critical load ip: 18309544 freq: 4
rob stalling non-critical load ip: 18309588 freq: 1
rob stalling non-critical load ip: 18309592 freq: 5
rob stalling non-critical load ip: 18309616 freq: 5
rob stalling non-critical load ip: 18457504 freq: 13
rob stalling non-critical load ip: 18457572 freq: 7
rob stalling non-critical load ip: 18457588 freq: 7
rob stalling non-critical load ip: 18457592 freq: 4
rob stalling non-critical load ip: 18466760 freq: 2
rob stalling non-critical load ip: 18466768 freq: 8
rob stalling non-critical load ip: 18466824 freq: 1
rob stalling non-critical load ip: 18471376 freq: 8
rob stalling non-critical load ip: 18471588 freq: 3
rob stalling non-critical load ip: 18471604 freq: 4
rob stalling non-critical load ip: 18471720 freq: 1
rob stalling non-critical load ip: 18471748 freq: 2
rob stalling non-critical load ip: 18471852 freq: 3
rob stalling non-critical load ip: 18471884 freq: 1
rob stalling non-critical load ip: 18482068 freq: 4
rob stalling non-critical load ip: 18482232 freq: 20
rob stalling non-critical load ip: 18482800 freq: 2
rob stalling non-critical load ip: 18483084 freq: 3
rob stalling non-critical load ip: 18488312 freq: 8
rob stalling non-critical load ip: 18488568 freq: 6
rob stalling non-critical load ip: 18488592 freq: 3
rob stalling non-critical load ip: 18488692 freq: 6
rob stalling non-critical load ip: 18489604 freq: 6
rob stalling non-critical load ip: 18489624 freq: 7
rob stalling non-critical load ip: 18490116 freq: 2
rob stalling non-critical load ip: 18490184 freq: 4
rob stalling non-critical load ip: 18490420 freq: 4
rob stalling non-critical load ip: 18490424 freq: 7
rob stalling non-critical load ip: 18490464 freq: 7
rob stalling non-critical load ip: 18510948 freq: 10
rob stalling non-critical load ip: 18550640 freq: 14
rob stalling non-critical load ip: 18550920 freq: 1
rob stalling non-critical load ip: 18551032 freq: 9
rob stalling non-critical load ip: 18551144 freq: 1
rob stalling non-critical load ip: 18552272 freq: 12
rob stalling non-critical load ip: 18552516 freq: 7
rob stalling non-critical load ip: 18552740 freq: 11
rob stalling non-critical load ip: 18553348 freq: 4
rob stalling non-critical load ip: 18553488 freq: 6
rob stalling non-critical load ip: 18553544 freq: 2
rob stalling non-critical load ip: 18553752 freq: 4
rob stalling non-critical load ip: 18557252 freq: 11
rob stalling non-critical load ip: 18557288 freq: 11
rob stalling non-critical load ip: 18557484 freq: 3
rob stalling non-critical load ip: 18604344 freq: 2
rob stalling non-critical load ip: 18627428 freq: 4
rob stalling non-critical load ip: 18776508 freq: 4
rob stalling non-critical load ip: 18777480 freq: 3
rob stalling non-critical load ip: 18783856 freq: 14
rob stalling non-critical load ip: 18783940 freq: 3
rob stalling non-critical load ip: 18791496 freq: 1
rob stalling non-critical load ip: 18956748 freq: 4
rob stalling non-critical load ip: 18956792 freq: 2
rob stalling non-critical load ip: 18956808 freq: 3
rob stalling non-critical load ip: 18956824 freq: 3
rob stalling non-critical load ip: 18956848 freq: 6
rob stalling non-critical load ip: 18956860 freq: 3
rob stalling non-critical load ip: 18956864 freq: 12
rob stalling non-critical load ip: 18956880 freq: 4
rob stalling non-critical load ip: 18956916 freq: 2
rob stalling non-critical load ip: 18957088 freq: 2
rob stalling non-critical load ip: 18957128 freq: 31
rob stalling non-critical load ip: 18957516 freq: 2
rob stalling non-critical load ip: 18957576 freq: 10
rob stalling non-critical load ip: 18957592 freq: 12
rob stalling non-critical load ip: 18960512 freq: 14
rob stalling non-critical load ip: 18960524 freq: 10
rob stalling non-critical load ip: 18960552 freq: 6
rob stalling non-critical load ip: 18960568 freq: 4
rob stalling non-critical load ip: 18960584 freq: 22
rob stalling non-critical load ip: 18960616 freq: 16
rob stalling non-critical load ip: 18960632 freq: 8
rob stalling non-critical load ip: 18960676 freq: 4
rob stalling non-critical load ip: 18960688 freq: 11
rob stalling non-critical load ip: 18960700 freq: 13
rob stalling non-critical load ip: 18960716 freq: 10
rob stalling non-critical load ip: 18960748 freq: 6
rob stalling non-critical load ip: 18960780 freq: 27
rob stalling non-critical load ip: 18960796 freq: 142
rob stalling non-critical load ip: 18960812 freq: 6
rob stalling non-critical load ip: 18960836 freq: 17
rob stalling non-critical load ip: 18960860 freq: 22
rob stalling non-critical load ip: 18960892 freq: 1
rob stalling non-critical load ip: 18960908 freq: 6
rob stalling non-critical load ip: 18960940 freq: 1
rob stalling non-critical load ip: 18960972 freq: 4
rob stalling non-critical load ip: 18962968 freq: 4
rob stalling non-critical load ip: 18963100 freq: 5
rob stalling non-critical load ip: 18963116 freq: 1
rob stalling non-critical load ip: 18970396 freq: 10
rob stalling non-critical load ip: 18980028 freq: 20
rob stalling non-critical load ip: 19454556 freq: 3
rob stalling non-critical load ip: 19472760 freq: 1
rob stalling non-critical load ip: 19489356 freq: 1
rob stalling non-critical load ip: 19489580 freq: 6
rob stalling non-critical load ip: 19492660 freq: 56
rob stalling non-critical load ip: 19492676 freq: 111
rob stalling non-critical load ip: 19492692 freq: 110
rob stalling non-critical load ip: 19492704 freq: 3
rob stalling non-critical load ip: 19492860 freq: 11
rob stalling non-critical load ip: 19492892 freq: 4
rob stalling non-critical load ip: 19493148 freq: 237
rob stalling non-critical load ip: 19493164 freq: 56
rob stalling non-critical load ip: 19493176 freq: 420
rob stalling non-critical load ip: 19493188 freq: 27
rob stalling non-critical load ip: 19493220 freq: 14
rob stalling non-critical load ip: 19493328 freq: 52
rob stalling non-critical load ip: 19493344 freq: 65
rob stalling non-critical load ip: 19493360 freq: 63
rob stalling non-critical load ip: 19493372 freq: 50
rob stalling non-critical load ip: 19493504 freq: 17
rob stalling non-critical load ip: 19493520 freq: 30
rob stalling non-critical load ip: 19493536 freq: 37
rob stalling non-critical load ip: 19493548 freq: 5
rob stalling non-critical load ip: 19493692 freq: 2
rob stalling non-critical load ip: 19493820 freq: 4
rob stalling non-critical load ip: 19493832 freq: 3
rob stalling non-critical load ip: 19493844 freq: 8
rob stalling non-critical load ip: 19493856 freq: 3
rob stalling non-critical load ip: 19493912 freq: 2
rob stalling non-critical load ip: 19493916 freq: 102
rob stalling non-critical load ip: 19493920 freq: 119
rob stalling non-critical load ip: 19493924 freq: 93
rob stalling non-critical load ip: 19493928 freq: 13
rob stalling non-critical load ip: 19493932 freq: 115
rob stalling non-critical load ip: 19493936 freq: 4
rob stalling non-critical load ip: 19493940 freq: 81
rob stalling non-critical load ip: 19493948 freq: 89
rob stalling non-critical load ip: 19493956 freq: 46
rob stalling non-critical load ip: 19493960 freq: 144
rob stalling non-critical load ip: 19493968 freq: 1
rob stalling non-critical load ip: 19493984 freq: 13
rob stalling non-critical load ip: 19493992 freq: 8
rob stalling non-critical load ip: 19494000 freq: 5
rob stalling non-critical load ip: 19494032 freq: 194
rob stalling non-critical load ip: 19494040 freq: 56
rob stalling non-critical load ip: 19494052 freq: 184
rob stalling non-critical load ip: 19494060 freq: 40
rob stalling non-critical load ip: 19494068 freq: 66
rob stalling non-critical load ip: 19494076 freq: 3490
rob stalling non-critical load ip: 19494084 freq: 113
rob stalling non-critical load ip: 19494096 freq: 96
rob stalling non-critical load ip: 19494104 freq: 11037
rob stalling non-critical load ip: 19494112 freq: 253
rob stalling non-critical load ip: 19494292 freq: 540
rob stalling non-critical load ip: 19494380 freq: 4
rob stalling non-critical load ip: 19494412 freq: 42
rob stalling non-critical load ip: 19494632 freq: 1
rob stalling non-critical load ip: 19494656 freq: 1
rob stalling non-critical load ip: 19494664 freq: 38
rob stalling non-critical load ip: 19494760 freq: 1
rob stalling non-critical load ip: 19495484 freq: 30
rob stalling non-critical load ip: 19495540 freq: 22
rob stalling non-critical load ip: 19495556 freq: 194
rob stalling non-critical load ip: 19495572 freq: 20
rob stalling non-critical load ip: 19495740 freq: 41
rob stalling non-critical load ip: 19495772 freq: 7
rob stalling non-critical load ip: 19495816 freq: 18
rob stalling non-critical load ip: 19496036 freq: 10
rob stalling non-critical load ip: 19496052 freq: 17
rob stalling non-critical load ip: 19496064 freq: 5
rob stalling non-critical load ip: 19496092 freq: 9
rob stalling non-critical load ip: 19496192 freq: 9
rob stalling non-critical load ip: 19496208 freq: 3
rob stalling non-critical load ip: 19496224 freq: 20
rob stalling non-critical load ip: 19496236 freq: 11
rob stalling non-critical load ip: 19496264 freq: 11
rob stalling non-critical load ip: 19496376 freq: 19
rob stalling non-critical load ip: 19496392 freq: 11
rob stalling non-critical load ip: 19496404 freq: 21
rob stalling non-critical load ip: 19496900 freq: 1
rob stalling non-critical load ip: 19496908 freq: 2
rob stalling non-critical load ip: 19496916 freq: 14
rob stalling non-critical load ip: 19496952 freq: 7
rob stalling non-critical load ip: 19499480 freq: 48
rob stalling non-critical load ip: 19499492 freq: 1
rob stalling non-critical load ip: 19499512 freq: 2
rob stalling non-critical load ip: 19499604 freq: 1
rob stalling non-critical load ip: 19499632 freq: 4
rob stalling non-critical load ip: 19500056 freq: 2
rob stalling non-critical load ip: 19501420 freq: 1
rob stalling non-critical load ip: 19525488 freq: 3
rob stalling non-critical load ip: 19525520 freq: 2
rob stalling non-critical load ip: 19688424 freq: 2
rob stalling non-critical load ip: 19688632 freq: 3
rob stalling non-critical load ip: 19689452 freq: 10
rob stalling non-critical load ip: 19689456 freq: 8
rob stalling non-critical load ip: 19689484 freq: 1
rob stalling non-critical load ip: 19689532 freq: 6
rob stalling non-critical load ip: 19689536 freq: 1
rob stalling non-critical load ip: 19691852 freq: 1
rob stalling non-critical load ip: 19692680 freq: 3
rob stalling non-critical load ip: 19692692 freq: 7
rob stalling non-critical load ip: 19692820 freq: 1
rob stalling non-critical load ip: 19695740 freq: 40
rob stalling non-critical load ip: 19695780 freq: 27
rob stalling non-critical load ip: 19695796 freq: 97
rob stalling non-critical load ip: 19698128 freq: 4
rob stalling non-critical load ip: 19698132 freq: 2
rob stalling non-critical load ip: 19698148 freq: 2
rob stalling non-critical load ip: 19698152 freq: 1
rob stalling non-critical load ip: 19698204 freq: 16
rob stalling non-critical load ip: 19698228 freq: 12
rob stalling non-critical load ip: 19698244 freq: 9
rob stalling non-critical load ip: 19698276 freq: 2
rob stalling non-critical load ip: 19698288 freq: 6
rob stalling non-critical load ip: 19698324 freq: 6
rob stalling non-critical load ip: 19698384 freq: 3
rob stalling non-critical load ip: 19698420 freq: 3
rob stalling non-critical load ip: 19699940 freq: 5
rob stalling non-critical load ip: 19699952 freq: 6
rob stalling non-critical load ip: 19699968 freq: 5
rob stalling non-critical load ip: 19699980 freq: 2
rob stalling non-critical load ip: 19701420 freq: 3
rob stalling non-critical load ip: 19701452 freq: 4
rob stalling non-critical load ip: 19707028 freq: 8
rob stalling non-critical load ip: 19707040 freq: 5
rob stalling non-critical load ip: 19707092 freq: 5
rob stalling non-critical load ip: 19707268 freq: 10
rob stalling non-critical load ip: 19711924 freq: 3
rob stalling non-critical load ip: 19711940 freq: 8
rob stalling non-critical load ip: 19713232 freq: 6
rob stalling non-critical load ip: 19713636 freq: 2
rob stalling non-critical load ip: 19713732 freq: 3
rob stalling non-critical load ip: 19713736 freq: 5
rob stalling non-critical load ip: 19713772 freq: 3
rob stalling non-critical load ip: 19723200 freq: 5
rob stalling non-critical load ip: 19723236 freq: 455
rob stalling non-critical load ip: 19723248 freq: 3
rob stalling non-critical load ip: 19723284 freq: 7
rob stalling non-critical load ip: 19723312 freq: 5
rob stalling non-critical load ip: 19723320 freq: 38
rob stalling non-critical load ip: 19723336 freq: 9
rob stalling non-critical load ip: 19723352 freq: 19
rob stalling non-critical load ip: 19723368 freq: 8
rob stalling non-critical load ip: 19723384 freq: 3
rob stalling non-critical load ip: 19723408 freq: 9
rob stalling non-critical load ip: 19724432 freq: 26
rob stalling non-critical load ip: 19724576 freq: 102
rob stalling non-critical load ip: 19725616 freq: 124
rob stalling non-critical load ip: 19725644 freq: 1
rob stalling non-critical load ip: 19725656 freq: 4
rob stalling non-critical load ip: 19725660 freq: 173
rob stalling non-critical load ip: 19725672 freq: 8
rob stalling non-critical load ip: 19725688 freq: 8
rob stalling non-critical load ip: 19725704 freq: 146
rob stalling non-critical load ip: 19725720 freq: 79
rob stalling non-critical load ip: 19725736 freq: 10
rob stalling non-critical load ip: 19725740 freq: 10
rob stalling non-critical load ip: 19725844 freq: 8
rob stalling non-critical load ip: 19725876 freq: 2
rob stalling non-critical load ip: 19725880 freq: 4
rob stalling non-critical load ip: 19725904 freq: 46
rob stalling non-critical load ip: 19725924 freq: 15
rob stalling non-critical load ip: 19726800 freq: 5
rob stalling non-critical load ip: 19727968 freq: 12
rob stalling non-critical load ip: 19727980 freq: 10
rob stalling non-critical load ip: 19728104 freq: 11
rob stalling non-critical load ip: 19728248 freq: 2
rob stalling non-critical load ip: 19729824 freq: 6
rob stalling non-critical load ip: 19732288 freq: 21
rob stalling non-critical load ip: 19732304 freq: 6
rob stalling non-critical load ip: 19732392 freq: 2
rob stalling non-critical load ip: 19732408 freq: 4
rob stalling non-critical load ip: 19732424 freq: 6
rob stalling non-critical load ip: 19732456 freq: 2
rob stalling non-critical load ip: 19732644 freq: 77
rob stalling non-critical load ip: 19732912 freq: 43
rob stalling non-critical load ip: 19732928 freq: 5
rob stalling non-critical load ip: 19732940 freq: 23
rob stalling non-critical load ip: 19732956 freq: 6
rob stalling non-critical load ip: 19732968 freq: 8
rob stalling non-critical load ip: 19733036 freq: 8
rob stalling non-critical load ip: 19733228 freq: 6
rob stalling non-critical load ip: 19733500 freq: 234
rob stalling non-critical load ip: 19745436 freq: 4
rob stalling non-critical load ip: 19745500 freq: 4
rob stalling non-critical load ip: 19746244 freq: 364
rob stalling non-critical load ip: 19746296 freq: 288
rob stalling non-critical load ip: 19746308 freq: 273
rob stalling non-critical load ip: 19746320 freq: 2
rob stalling non-critical load ip: 19746344 freq: 4
rob stalling non-critical load ip: 19748964 freq: 341
rob stalling non-critical load ip: 19748980 freq: 6
rob stalling non-critical load ip: 19749032 freq: 6
rob stalling non-critical load ip: 19749112 freq: 43
rob stalling non-critical load ip: 19749196 freq: 3
rob stalling non-critical load ip: 19749256 freq: 22
rob stalling non-critical load ip: 19749380 freq: 26
rob stalling non-critical load ip: 19749420 freq: 21
rob stalling non-critical load ip: 19752860 freq: 2
rob stalling non-critical load ip: 19782628 freq: 4
rob stalling non-critical load ip: 19782676 freq: 2
rob stalling non-critical load ip: 19782920 freq: 9
rob stalling non-critical load ip: 19783136 freq: 13
rob stalling non-critical load ip: 19783172 freq: 3
rob stalling non-critical load ip: 19783188 freq: 5
rob stalling non-critical load ip: 19783200 freq: 30
rob stalling non-critical load ip: 19783248 freq: 5
rob stalling non-critical load ip: 19783356 freq: 5
rob stalling non-critical load ip: 19783492 freq: 10
rob stalling non-critical load ip: 19783676 freq: 2
rob stalling non-critical load ip: 19783696 freq: 33
rob stalling non-critical load ip: 19783864 freq: 1
rob stalling non-critical load ip: 19784032 freq: 31
rob stalling non-critical load ip: 19784140 freq: 31
rob stalling non-critical load ip: 19784336 freq: 1
rob stalling non-critical load ip: 19784540 freq: 1
rob stalling non-critical load ip: 19784608 freq: 5
rob stalling non-critical load ip: 19787304 freq: 1
rob stalling non-critical load ip: 19787460 freq: 1
rob stalling non-critical load ip: 19787464 freq: 6
rob stalling non-critical load ip: 19787576 freq: 1
rob stalling non-critical load ip: 19787608 freq: 1
rob stalling non-critical load ip: 19787620 freq: 2
rob stalling non-critical load ip: 19787724 freq: 4
rob stalling non-critical load ip: 19787744 freq: 5
rob stalling non-critical load ip: 19787764 freq: 5
rob stalling non-critical load ip: 19791796 freq: 6
rob stalling non-critical load ip: 19791896 freq: 1
rob stalling non-critical load ip: 19791900 freq: 37
rob stalling non-critical load ip: 19803620 freq: 15
rob stalling non-critical load ip: 19803780 freq: 15
rob stalling non-critical load ip: 19804072 freq: 4
rob stalling non-critical load ip: 19804156 freq: 3
rob stalling non-critical load ip: 19804164 freq: 19
rob stalling non-critical load ip: 19804168 freq: 9
rob stalling non-critical load ip: 19804236 freq: 5
rob stalling non-critical load ip: 19805060 freq: 30
rob stalling non-critical load ip: 19805088 freq: 3
rob stalling non-critical load ip: 19805240 freq: 6
rob stalling non-critical load ip: 19829208 freq: 3
rob stalling non-critical load ip: 19837224 freq: 7
rob stalling non-critical load ip: 19837276 freq: 5
rob stalling non-critical load ip: 19837368 freq: 3
rob stalling non-critical load ip: 19850060 freq: 2
rob stalling non-critical load ip: 19850084 freq: 34
rob stalling non-critical load ip: 19850100 freq: 4
rob stalling non-critical load ip: 19850108 freq: 6
rob stalling non-critical load ip: 19850400 freq: 5
rob stalling non-critical load ip: 19851160 freq: 21
rob stalling non-critical load ip: 19851192 freq: 9
rob stalling non-critical load ip: 19851196 freq: 15
rob stalling non-critical load ip: 19851292 freq: 45
rob stalling non-critical load ip: 19851312 freq: 12
rob stalling non-critical load ip: 19851632 freq: 22
rob stalling non-critical load ip: 19852588 freq: 42
rob stalling non-critical load ip: 19852592 freq: 77
rob stalling non-critical load ip: 19852596 freq: 49
rob stalling non-critical load ip: 19852960 freq: 5
rob stalling non-critical load ip: 19852964 freq: 1
rob stalling non-critical load ip: 19853228 freq: 3
rob stalling non-critical load ip: 19853236 freq: 34
rob stalling non-critical load ip: 19868632 freq: 3
rob stalling non-critical load ip: 19933328 freq: 1
rob stalling non-critical load ip: 19939376 freq: 3
rob stalling non-critical load ip: 19957964 freq: 430
rob stalling non-critical load ip: 19957972 freq: 1
rob stalling non-critical load ip: 19957992 freq: 2
rob stalling non-critical load ip: 19958012 freq: 4
rob stalling non-critical load ip: 20024224 freq: 40
rob stalling non-critical load ip: 20024232 freq: 3
rob stalling non-critical load ip: 20024236 freq: 10
rob stalling non-critical load ip: 20024256 freq: 129
rob stalling non-critical load ip: 20024264 freq: 2
rob stalling non-critical load ip: 20032960 freq: 5
rob stalling non-critical load ip: 20032992 freq: 1
rob stalling non-critical load ip: 20047492 freq: 717
rob stalling non-critical load ip: 20048080 freq: 2063
rob stalling non-critical load ip: 20048380 freq: 5
rob stalling non-critical load ip: 20048388 freq: 2
rob stalling non-critical load ip: 20048424 freq: 5
rob stalling non-critical load ip: 20048792 freq: 8
rob stalling non-critical load ip: 20048856 freq: 28
rob stalling non-critical load ip: 20052892 freq: 10
rob stalling non-critical load ip: 20052924 freq: 5
rob stalling non-critical load ip: 20053048 freq: 1
rob stalling non-critical load ip: 20053068 freq: 2
rob stalling non-critical load ip: 20053108 freq: 3
rob stalling non-critical load ip: 20054744 freq: 321
rob stalling non-critical load ip: 20061440 freq: 155
rob stalling non-critical load ip: 20061492 freq: 374
rob stalling non-critical load ip: 20061560 freq: 244
rob stalling non-critical load ip: 20061676 freq: 6
rob stalling non-critical load ip: 20061832 freq: 1
rob stalling non-critical load ip: 20061856 freq: 3
rob stalling non-critical load ip: 20062088 freq: 7
rob stalling non-critical load ip: 20062104 freq: 21
rob stalling non-critical load ip: 20062272 freq: 8
rob stalling non-critical load ip: 20062680 freq: 3
rob stalling non-critical load ip: 20062784 freq: 407
rob stalling non-critical load ip: 20062792 freq: 1
rob stalling non-critical load ip: 20062836 freq: 218
rob stalling non-critical load ip: 20062904 freq: 316
rob stalling non-critical load ip: 20063036 freq: 56
rob stalling non-critical load ip: 20079064 freq: 4
rob stalling non-critical load ip: 20079080 freq: 9
rob stalling non-critical load ip: 20079096 freq: 8
rob stalling non-critical load ip: 20079444 freq: 6
rob stalling non-critical load ip: 20079476 freq: 6
rob stalling non-critical load ip: 20145932 freq: 4
rob stalling non-critical load ip: 20153260 freq: 1
rob stalling non-critical load ip: 20153348 freq: 2
rob stalling non-critical load ip: 20154024 freq: 5
rob stalling non-critical load ip: 20154048 freq: 2
rob stalling non-critical load ip: 20154172 freq: 5
rob stalling non-critical load ip: 20154564 freq: 3
rob stalling non-critical load ip: 20154920 freq: 1
rob stalling non-critical load ip: 20155144 freq: 11
rob stalling non-critical load ip: 20155176 freq: 148
rob stalling non-critical load ip: 20155208 freq: 2
rob stalling non-critical load ip: 20155472 freq: 4
rob stalling non-critical load ip: 20155536 freq: 3
rob stalling non-critical load ip: 20155696 freq: 2
rob stalling non-critical load ip: 20160980 freq: 3
rob stalling non-critical load ip: 20170580 freq: 178
rob stalling non-critical load ip: 20170592 freq: 5
rob stalling non-critical load ip: 20170616 freq: 336
rob stalling non-critical load ip: 20170656 freq: 7
rob stalling non-critical load ip: 20170704 freq: 7
rob stalling non-critical load ip: 20170792 freq: 4
rob stalling non-critical load ip: 20170852 freq: 4
rob stalling non-critical load ip: 20170952 freq: 3
rob stalling non-critical load ip: 20170968 freq: 33
rob stalling non-critical load ip: 20170972 freq: 64
rob stalling non-critical load ip: 20171000 freq: 1
rob stalling non-critical load ip: 20171036 freq: 5
rob stalling non-critical load ip: 20171120 freq: 7
rob stalling non-critical load ip: 20171188 freq: 1
rob stalling non-critical load ip: 20171204 freq: 10
rob stalling non-critical load ip: 20171264 freq: 5
rob stalling non-critical load ip: 20171360 freq: 5
rob stalling non-critical load ip: 20171436 freq: 4
rob stalling non-critical load ip: 20171628 freq: 2
rob stalling non-critical load ip: 20171784 freq: 23
rob stalling non-critical load ip: 20172004 freq: 31
rob stalling non-critical load ip: 20172040 freq: 8
rob stalling non-critical load ip: 20172060 freq: 2
rob stalling non-critical load ip: 20172108 freq: 1
rob stalling non-critical load ip: 20172136 freq: 5
rob stalling non-critical load ip: 20172156 freq: 1
rob stalling non-critical load ip: 20172164 freq: 3
rob stalling non-critical load ip: 20172188 freq: 19
rob stalling non-critical load ip: 20172396 freq: 5
rob stalling non-critical load ip: 20172652 freq: 1
rob stalling non-critical load ip: 20172804 freq: 6
rob stalling non-critical load ip: 20172852 freq: 1
rob stalling non-critical load ip: 20172856 freq: 7
rob stalling non-critical load ip: 20172968 freq: 3
rob stalling non-critical load ip: 20172972 freq: 2
rob stalling non-critical load ip: 20172996 freq: 24
rob stalling non-critical load ip: 20173072 freq: 2
rob stalling non-critical load ip: 20173188 freq: 3
rob stalling non-critical load ip: 20173228 freq: 1
rob stalling non-critical load ip: 20173276 freq: 3
rob stalling non-critical load ip: 20182888 freq: 96
rob stalling non-critical load ip: 20182900 freq: 102
rob stalling non-critical load ip: 20182940 freq: 49
rob stalling non-critical load ip: 20182980 freq: 5
rob stalling non-critical load ip: 20183164 freq: 1
rob stalling non-critical load ip: 20183184 freq: 138
rob stalling non-critical load ip: 20183324 freq: 4
rob stalling non-critical load ip: 20184960 freq: 4
rob stalling non-critical load ip: 20185016 freq: 112
rob stalling non-critical load ip: 20197540 freq: 7
rob stalling non-critical load ip: 20201964 freq: 4
rob stalling non-critical load ip: 20457420 freq: 1
rob stalling non-critical load ip: 20800376 freq: 3
rob stalling non-critical load ip: 20800420 freq: 1
rob stalling non-critical load ip: 20813492 freq: 1
rob stalling non-critical load ip: 20813512 freq: 1
rob stalling non-critical load ip: 20813524 freq: 2
rob stalling non-critical load ip: 20813856 freq: 1
rob stalling non-critical load ip: 20813872 freq: 1
rob stalling non-critical load ip: 20814452 freq: 1
rob stalling non-critical load ip: 2061774116 freq: 11
rob stalling non-critical load ip: 2061774176 freq: 1
rob stalling non-critical load ip: 2061774200 freq: 3
rob stalling non-critical load ip: 2061774344 freq: 2
rob stalling non-critical load ip: 2061774588 freq: 2
rob stalling non-critical load ip: 2061776612 freq: 2
rob stalling non-critical load ip: 2061776668 freq: 4
rob stalling non-critical load ip: 2061777040 freq: 7
rob stalling non-critical load ip: 2061777548 freq: 6
rob stalling non-critical load ip: 2061777640 freq: 2
rob stalling non-critical load ip: 2071812604 freq: 2
rob stalling non-critical load ip: 2071824328 freq: 2
rob stalling non-critical load ip: 2074941744 freq: 2
rob stalling non-critical load ip: 2074941748 freq: 1
rob stalling non-critical load ip: 2074941816 freq: 1
rob stalling non-critical load ip: 2074943172 freq: 1
rob stalling non-critical load ip: 2074946824 freq: 1
rob stalling non-critical load ip: 2074949592 freq: 3
rob stalling non-critical load ip: 2074950128 freq: 2
rob stalling non-critical load ip: 2074950236 freq: 2
rob stalling non-critical load ip: 2074950312 freq: 1
rob stalling non-critical load ip: 2074951196 freq: 1
rob stalling non-critical load ip: 2074951224 freq: 3
rob stalling non-critical load ip: 2074951392 freq: 3
rob stalling non-critical load ip: 2074953256 freq: 1
rob stalling non-critical load ip: 2074954904 freq: 1
rob stalling non-critical load ip: 2074965740 freq: 1
rob stalling non-critical load ip: 2074967212 freq: 2
rob stalling non-critical load ip: 2074967808 freq: 1
rob stalling non-critical load ip: 2074998328 freq: 2
rob stalling non-critical load ip: 2078543072 freq: 15
rob stalling non-critical load ip: 2078543184 freq: 11
rob stalling non-critical load ip: 2078550532 freq: 1
rob stalling non-critical load ip: 2078550552 freq: 15
rob stalling non-critical load ip: 2078555024 freq: 4
rob stalling non-critical load ip: 2078555140 freq: 3
rob stalling non-critical load ip: 2078555184 freq: 1
rob stalling non-critical load ip: 2078555256 freq: 7
rob stalling non-critical load ip: 2078583088 freq: 16
rob stalling non-critical load ip: 2078583096 freq: 7
rob stalling non-critical load ip: 2078583192 freq: 13
rob stalling non-critical load ip: 2078583472 freq: 3
rob stalling non-critical load ip: 2078583588 freq: 12
rob stalling non-critical load ip: 2078583752 freq: 1
rob stalling non-critical load ip: 2078583764 freq: 5
rob stalling non-critical load ip: 2078583792 freq: 5
rob stalling non-critical load ip: 2078583964 freq: 4
rob stalling non-critical load ip: 2078590916 freq: 2
rob stalling non-critical load ip: 3101835032 freq: 2
rob stalling non-critical load ip: 3101839724 freq: 8
rob stalling non-critical load ip: 4227858932 freq: 4
rob stalling non-critical load ip: 4227881420 freq: 1
rob stalling non-critical load ip: 4227904576 freq: 2
rob stalling non-critical load ip: 4227904776 freq: 2
rob stalling non-critical load ip: 4227904860 freq: 1
rob stalling non-critical load ip: 4227904900 freq: 1
rob stalling non-critical load ip: 4227905020 freq: 5
rob stalling non-critical load ip: 4227907012 freq: 3
rob stalling non-critical load ip: 4227907044 freq: 2
rob stalling non-critical load ip: 4227907064 freq: 2
rob stalling non-critical load ip: 4227907128 freq: 1
rob stalling non-critical load ip: 4227913204 freq: 1
rob stalling non-critical load ip: 4227913412 freq: 2
rob stalling non-critical load ip: 4227915904 freq: 1
rob stalling non-critical load ip: 4227917352 freq: 1
rob stalling non-critical load ip: 4227920304 freq: 1
rob stalling non-critical load ip: 4227923280 freq: 2
rob stalling non-critical load ip: 4227923300 freq: 5
rob stalling non-critical load ip: 4227937780 freq: 1
rob stalling non-critical load ip: 4227938236 freq: 2
rob stalling non-critical load ip: 4227953532 freq: 3
rob stalling non-critical load ip: 4227953780 freq: 3
rob stalling non-critical load ip: 4227953800 freq: 5
rob stalling non-critical load ip: 4227953944 freq: 1
rob stalling non-critical load ip: 4227953980 freq: 2
rob stalling non-critical load ip: 4227954128 freq: 1
rob stalling non-critical load ip: 4227954320 freq: 5
rob stalling non-critical load ip: 4227954608 freq: 1
rob stalling non-critical load ip: 4227955352 freq: 4
rob stalling non-critical load ip: 4227955872 freq: 1
rob stalling non-critical load ip: 4227955896 freq: 5
rob stalling non-critical load ip: 4227955908 freq: 1
rob stalling non-critical load ip: 4227956968 freq: 2
rob stalling non-critical load ip: 4227957180 freq: 2
rob stalling non-critical load ip: 4227957528 freq: 7
rob stalling non-critical load ip: 4227957552 freq: 1
rob stalling non-critical load ip: 4227962752 freq: 1
rob stalling non-critical load ip: 4227963904 freq: 4
rob stalling non-critical load ip: 4227964256 freq: 3
rob stalling non-critical load ip: 4227964300 freq: 1
rob stalling non-critical load ip: 4227964624 freq: 1
rob stalling non-critical load ip: 4227965224 freq: 1
rob stalling non-critical load ip: 4228064608 freq: 1
rob stalling non-critical load ip: 4228102548 freq: 106
rob stalling non-critical load ip: 4228102620 freq: 14
rob stalling non-critical load ip: 4228103232 freq: 1007
rob stalling non-critical load ip: 4228103288 freq: 136
rob stalling non-critical load ip: 4228103296 freq: 3954
rob stalling non-critical load ip: 4228103304 freq: 645
rob stalling non-critical load ip: 4228103368 freq: 351
rob stalling non-critical load ip: 4228103456 freq: 366
rob stalling non-critical load ip: 4228103460 freq: 6
rob stalling non-critical load ip: 4228103472 freq: 7
rob stalling non-critical load ip: 4228103488 freq: 24
rob stalling non-critical load ip: 4228103504 freq: 278
rob stalling non-critical load ip: 4228103508 freq: 8
rob stalling non-critical load ip: 4228103552 freq: 54
rob stalling non-critical load ip: 4228103556 freq: 28
rob stalling non-critical load ip: 4228103596 freq: 16
rob stalling non-critical load ip: 4228103632 freq: 1020
rob stalling non-critical load ip: 4228103700 freq: 591
rob stalling non-critical load ip: 4228103728 freq: 12
rob stalling non-critical load ip: 4228103736 freq: 8
rob stalling non-critical load ip: 4228103788 freq: 64
rob stalling non-critical load ip: 4228103808 freq: 307
rob stalling non-critical load ip: 4228103816 freq: 407
rob stalling non-critical load ip: 4228103880 freq: 31
rob stalling non-critical load ip: 4228103968 freq: 359
rob stalling non-critical load ip: 4228103972 freq: 42
rob stalling non-critical load ip: 4228103984 freq: 2
rob stalling non-critical load ip: 4228103988 freq: 43
rob stalling non-critical load ip: 4228104000 freq: 301
rob stalling non-critical load ip: 4228104004 freq: 38
rob stalling non-critical load ip: 4228104016 freq: 248
rob stalling non-critical load ip: 4228104020 freq: 7
rob stalling non-critical load ip: 4228104064 freq: 294
rob stalling non-critical load ip: 4228104068 freq: 83
rob stalling non-critical load ip: 4228104108 freq: 14
rob stalling non-critical load ip: 4228104144 freq: 6998
rob stalling non-critical load ip: 4228104240 freq: 5
rob stalling non-critical load ip: 4228104256 freq: 164
rob stalling non-critical load ip: 4228104264 freq: 53
rob stalling non-critical load ip: 4228104624 freq: 69
rob stalling non-critical load ip: 4228104640 freq: 6
rob stalling non-critical load ip: 4228104656 freq: 7
rob stalling non-critical load ip: 4228104672 freq: 80
rob stalling non-critical load ip: 4228104720 freq: 762
rob stalling non-critical load ip: 4228104724 freq: 306
rob stalling non-critical load ip: 4228104764 freq: 444
rob stalling non-critical load ip: 4228104976 freq: 1
rob stalling non-critical load ip: 4228105024 freq: 4
rob stalling non-critical load ip: 4228105072 freq: 9
rob stalling non-critical load ip: 4228105076 freq: 2
rob stalling non-critical load ip: 4228105140 freq: 10
rob stalling non-critical load ip: 4228105684 freq: 92
rob stalling non-critical load ip: 4228105904 freq: 6
rob stalling non-critical load ip: 4228105936 freq: 3
rob stalling non-critical load ip: 4228106000 freq: 768
rob stalling non-critical load ip: 4228106004 freq: 15
rob stalling non-critical load ip: 4228106044 freq: 20
rob stalling non-critical load ip: 4228106080 freq: 7534
rob stalling non-critical load ip: 4228106132 freq: 14
rob stalling non-critical load ip: 4228106288 freq: 770
rob stalling non-critical load ip: 4228106292 freq: 18
rob stalling non-critical load ip: 4228106304 freq: 84
rob stalling non-critical load ip: 4228106308 freq: 11
rob stalling non-critical load ip: 4228106320 freq: 88
rob stalling non-critical load ip: 4228106324 freq: 7
rob stalling non-critical load ip: 4228106336 freq: 221
rob stalling non-critical load ip: 4228106340 freq: 6
rob stalling non-critical load ip: 4228106384 freq: 67
rob stalling non-critical load ip: 4228106388 freq: 29
rob stalling non-critical load ip: 4228106428 freq: 10
rob stalling non-critical load ip: 4228106452 freq: 23
rob stalling non-critical load ip: 4228109236 freq: 6
rob stalling non-critical load ip: 4228109252 freq: 1714
rob stalling non-critical load ip: 4228175132 freq: 29
rob stalling non-critical load ip: 4228179436 freq: 11
rob stalling non-critical load ip: 4228179624 freq: 5
rob stalling non-critical load ip: 4228190588 freq: 5
rob stalling non-critical load ip: 4228204672 freq: 215
rob stalling non-critical load ip: 4228204688 freq: 107
rob stalling non-critical load ip: 4228204704 freq: 105
rob stalling non-critical load ip: 4228204712 freq: 224
rob stalling non-critical load ip: 4228204760 freq: 724
rob stalling non-critical load ip: 4228204860 freq: 125
rob stalling non-critical load ip: 4228204876 freq: 185
rob stalling non-critical load ip: 4228204892 freq: 125
rob stalling non-critical load ip: 4228204908 freq: 37
rob stalling non-critical load ip: 4228204952 freq: 2053
rob stalling non-critical load ip: 4228204988 freq: 1376
rob stalling non-critical load ip: 4228212780 freq: 20
rob stalling non-critical load ip: 4228215584 freq: 16
rob stalling non-critical load ip: 4228215712 freq: 159
rob stalling non-critical load ip: 4228215716 freq: 618
rob stalling non-critical load ip: 4228215720 freq: 175
rob stalling non-critical load ip: 4228216096 freq: 827
rob stalling non-critical load ip: 4228216100 freq: 22
rob stalling non-critical load ip: 4228216104 freq: 24
rob stalling non-critical load ip: 4228216160 freq: 939
rob stalling non-critical load ip: 4228216164 freq: 196
rob stalling non-critical load ip: 4228216168 freq: 179
rob stalling non-critical load ip: 4228216224 freq: 39
rob stalling non-critical load ip: 4228216232 freq: 4
rob stalling non-critical load ip: 4228216416 freq: 2
rob stalling non-critical load ip: 4228259340 freq: 5
rob stalling non-critical load ip: 4228259384 freq: 1
rob stalling non-critical load ip: 4228259536 freq: 6
rob stalling non-critical load ip: 4228259544 freq: 6
rob stalling non-critical load ip: 4228259700 freq: 2
rob stalling non-critical load ip: 4228285224 freq: 4
rob stalling non-critical load ip: 4228286080 freq: 1
rob stalling non-critical load ip: 4228286108 freq: 7
rob stalling non-critical load ip: 4228290940 freq: 115
rob stalling non-critical load ip: 4228290964 freq: 7
rob stalling non-critical load ip: 4228290984 freq: 169
rob stalling non-critical load ip: 4228290988 freq: 8
rob stalling non-critical load ip: 4228291004 freq: 8
rob stalling non-critical load ip: 4228291240 freq: 1
rob stalling non-critical load ip: 4228291256 freq: 8
rob stalling non-critical load ip: 4228291276 freq: 2
rob stalling non-critical load ip: 4228291312 freq: 1
rob stalling non-critical load ip: 4228291316 freq: 1
rob stalling non-critical load ip: 4228291324 freq: 44
rob stalling non-critical load ip: 4228291336 freq: 21
rob stalling non-critical load ip: 4228291340 freq: 4
rob stalling non-critical load ip: 4228291372 freq: 111
rob stalling non-critical load ip: 4228291400 freq: 42
rob stalling non-critical load ip: 4228291404 freq: 3
rob stalling non-critical load ip: 4228291416 freq: 6
rob stalling non-critical load ip: 4228291432 freq: 5
rob stalling non-critical load ip: 4228291464 freq: 99
rob stalling non-critical load ip: 4228291472 freq: 128
rob stalling non-critical load ip: 4228291500 freq: 24
rob stalling non-critical load ip: 4228291504 freq: 430
rob stalling non-critical load ip: 4228291512 freq: 33
rob stalling non-critical load ip: 4228291548 freq: 10
rob stalling non-critical load ip: 4228291576 freq: 286
rob stalling non-critical load ip: 4228291584 freq: 741
rob stalling non-critical load ip: 4228291596 freq: 20
rob stalling non-critical load ip: 4228291604 freq: 47
rob stalling non-critical load ip: 4228291612 freq: 1156
rob stalling non-critical load ip: 4228291624 freq: 17
rob stalling non-critical load ip: 4228291632 freq: 25
rob stalling non-critical load ip: 4228291640 freq: 106
rob stalling non-critical load ip: 4228291652 freq: 27
rob stalling non-critical load ip: 4228291660 freq: 741
rob stalling non-critical load ip: 4228291668 freq: 1613
rob stalling non-critical load ip: 4228291680 freq: 13
rob stalling non-critical load ip: 4228291688 freq: 19
rob stalling non-critical load ip: 4228291696 freq: 149
rob stalling non-critical load ip: 4228291708 freq: 18
rob stalling non-critical load ip: 4228291712 freq: 245
rob stalling non-critical load ip: 4228291732 freq: 17
rob stalling non-critical load ip: 4228291736 freq: 22
rob stalling non-critical load ip: 4228291760 freq: 444
rob stalling non-critical load ip: 4228291764 freq: 459
rob stalling non-critical load ip: 4228291768 freq: 53
rob stalling non-critical load ip: 4228291788 freq: 14
rob stalling non-critical load ip: 4228291800 freq: 18
rob stalling non-critical load ip: 4228291852 freq: 26
rob stalling non-critical load ip: 4228291864 freq: 337
rob stalling non-critical load ip: 4228291900 freq: 270
rob stalling non-critical load ip: 4228291904 freq: 183
rob stalling non-critical load ip: 4228291920 freq: 8
rob stalling non-critical load ip: 4228291944 freq: 39
rob stalling non-critical load ip: 4228291952 freq: 35
rob stalling non-critical load ip: 4228291972 freq: 17
rob stalling non-critical load ip: 4228291984 freq: 868
rob stalling non-critical load ip: 4228292004 freq: 15
rob stalling non-critical load ip: 4228292028 freq: 66
rob stalling non-critical load ip: 4228292040 freq: 1327
rob stalling non-critical load ip: 4228292060 freq: 3
rob stalling non-critical load ip: 4228292092 freq: 6
rob stalling non-critical load ip: 4228292112 freq: 14
rob stalling non-critical load ip: 4228292124 freq: 1794
rob stalling non-critical load ip: 4228292172 freq: 24
rob stalling non-critical load ip: 4228292192 freq: 25
rob stalling non-critical load ip: 4228292208 freq: 1
rob stalling non-critical load ip: 4228292236 freq: 28
rob stalling non-critical load ip: 4228292248 freq: 93
rob stalling non-critical load ip: 4228292276 freq: 42
rob stalling non-critical load ip: 4228292296 freq: 144
rob stalling non-critical load ip: 4228292344 freq: 181
rob stalling non-critical load ip: 4228292384 freq: 43
rob stalling non-critical load ip: 4228292400 freq: 25
rob stalling non-critical load ip: 4228292412 freq: 225
rob stalling non-critical load ip: 4228292432 freq: 4
rob stalling non-critical load ip: 4228292444 freq: 24
rob stalling non-critical load ip: 4228292460 freq: 76
rob stalling non-critical load ip: 4228292496 freq: 35
rob stalling non-critical load ip: 4228292516 freq: 4
rob stalling non-critical load ip: 4228292540 freq: 71
rob stalling non-critical load ip: 4228292568 freq: 29
rob stalling non-critical load ip: 4228292596 freq: 44
rob stalling non-critical load ip: 4228292616 freq: 52
rob stalling non-critical load ip: 4228292632 freq: 21
rob stalling non-critical load ip: 4228292672 freq: 18
rob stalling non-critical load ip: 4228292676 freq: 22
rob stalling non-critical load ip: 4228292692 freq: 2
rob stalling non-critical load ip: 4228292724 freq: 3
rob stalling non-critical load ip: 4228292744 freq: 3
rob stalling non-critical load ip: 4228292756 freq: 105
rob stalling non-critical load ip: 4228292776 freq: 1
rob stalling non-critical load ip: 4228292804 freq: 12
rob stalling non-critical load ip: 4228292864 freq: 31
rob stalling non-critical load ip: 4228292908 freq: 2
rob stalling non-critical load ip: 4228292920 freq: 35
rob stalling non-critical load ip: 4228292936 freq: 57
rob stalling non-critical load ip: 4228292940 freq: 3
rob stalling non-critical load ip: 4228292960 freq: 2
rob stalling non-critical load ip: 4228292968 freq: 1
rob stalling non-critical load ip: 4228292996 freq: 4
rob stalling non-critical load ip: 4228293016 freq: 1
rob stalling non-critical load ip: 4228293040 freq: 2
rob stalling non-critical load ip: 4228293080 freq: 93
rob stalling non-critical load ip: 4228293088 freq: 6
rob stalling non-critical load ip: 4228293120 freq: 5
rob stalling non-critical load ip: 4228293124 freq: 6
rob stalling non-critical load ip: 4228293136 freq: 1
rob stalling non-critical load ip: 4228293152 freq: 5
rob stalling non-critical load ip: 4228293192 freq: 1
rob stalling non-critical load ip: 4228293220 freq: 46
rob stalling non-critical load ip: 4228293296 freq: 1
rob stalling non-critical load ip: 4228293308 freq: 7
rob stalling non-critical load ip: 4228293372 freq: 3
rob stalling non-critical load ip: 4228293380 freq: 3
rob stalling non-critical load ip: 4228293512 freq: 4
rob stalling non-critical load ip: 4228293524 freq: 19
rob stalling non-critical load ip: 4228293716 freq: 25
rob stalling non-critical load ip: 4228293740 freq: 2
rob stalling non-critical load ip: 4228293784 freq: 24
rob stalling non-critical load ip: 4228293832 freq: 1
rob stalling non-critical load ip: 4228293848 freq: 20
rob stalling non-critical load ip: 4228293900 freq: 14
rob stalling non-critical load ip: 4228293916 freq: 17
rob stalling non-critical load ip: 4228293932 freq: 2
rob stalling non-critical load ip: 4228293960 freq: 2
rob stalling non-critical load ip: 4228294156 freq: 24
rob stalling non-critical load ip: 4228294404 freq: 8
rob stalling non-critical load ip: 4228294408 freq: 6
rob stalling non-critical load ip: 4228294420 freq: 10
rob stalling non-critical load ip: 4228335484 freq: 20
rob stalling non-critical load ip: 4228342248 freq: 14
rob stalling non-critical load ip: 4228342332 freq: 8
rob stalling non-critical load ip: 4228342368 freq: 3
rob stalling non-critical load ip: 4228344572 freq: 19
rob stalling non-critical load ip: 4228351900 freq: 4
rob stalling non-critical load ip: 4228351920 freq: 4
rob stalling non-critical load ip: 4228351932 freq: 387
rob stalling non-critical load ip: 4228351972 freq: 8
rob stalling non-critical load ip: 4228351988 freq: 9
rob stalling non-critical load ip: 4228352000 freq: 8
rob stalling non-critical load ip: 4228352032 freq: 2
rob stalling non-critical load ip: 4228352040 freq: 2
rob stalling non-critical load ip: 4228352056 freq: 7
rob stalling non-critical load ip: 4228352068 freq: 8
rob stalling non-critical load ip: 4228352072 freq: 11
rob stalling non-critical load ip: 4228352124 freq: 3
rob stalling non-critical load ip: 4228352128 freq: 4
rob stalling non-critical load ip: 4228352164 freq: 3
rob stalling non-critical load ip: 4228352184 freq: 10
rob stalling non-critical load ip: 4228352204 freq: 1
rob stalling non-critical load ip: 4228352216 freq: 33
rob stalling non-critical load ip: 4228352264 freq: 2
rob stalling non-critical load ip: 4228352332 freq: 3
rob stalling non-critical load ip: 4228352708 freq: 20
rob stalling non-critical load ip: 4228353008 freq: 5
rob stalling non-critical load ip: 4228374508 freq: 6
rob stalling non-critical load ip: 4228374520 freq: 1
rob stalling non-critical load ip: 4228374552 freq: 6
rob stalling non-critical load ip: 4228374556 freq: 12
rob stalling non-critical load ip: 4228374588 freq: 7
rob stalling non-critical load ip: 4228374604 freq: 2
rob stalling non-critical load ip: 4228374628 freq: 1608
rob stalling non-critical load ip: 4228374708 freq: 46
rob stalling non-critical load ip: 4228374764 freq: 1
rob stalling non-critical load ip: 4228379228 freq: 51
rob stalling non-critical load ip: 4228379284 freq: 46
rob stalling non-critical load ip: 4228379288 freq: 93
rob stalling non-critical load ip: 4228379356 freq: 18
rob stalling non-critical load ip: 4228379372 freq: 371
rob stalling non-critical load ip: 4228382180 freq: 59
rob stalling non-critical load ip: 4228382208 freq: 64
rob stalling non-critical load ip: 4228382212 freq: 20
rob stalling non-critical load ip: 4228382216 freq: 28
rob stalling non-critical load ip: 4228382320 freq: 173
rob stalling non-critical load ip: 4228382388 freq: 5
rob stalling non-critical load ip: 4228382404 freq: 5
rob stalling non-critical load ip: 4228382428 freq: 10
rob stalling non-critical load ip: 4228382440 freq: 8
rob stalling non-critical load ip: 4228382484 freq: 5
rob stalling non-critical load ip: 4228382496 freq: 16
rob stalling non-critical load ip: 4228382520 freq: 2
rob stalling non-critical load ip: 4228382540 freq: 2
rob stalling non-critical load ip: 4228382552 freq: 41
rob stalling non-critical load ip: 4228382568 freq: 65
rob stalling non-critical load ip: 4228382744 freq: 35
rob stalling non-critical load ip: 4228382752 freq: 19
rob stalling non-critical load ip: 4228382764 freq: 206
rob stalling non-critical load ip: 4228382812 freq: 1
rob stalling non-critical load ip: 4228382824 freq: 320
rob stalling non-critical load ip: 4228382968 freq: 4
rob stalling non-critical load ip: 4228382980 freq: 3
rob stalling non-critical load ip: 4228383004 freq: 3
rob stalling non-critical load ip: 4228383268 freq: 33
rob stalling non-critical load ip: 4228383280 freq: 4
rob stalling non-critical load ip: 4228383332 freq: 10
rob stalling non-critical load ip: 4228383424 freq: 1
rob stalling non-critical load ip: 4228383456 freq: 10
rob stalling non-critical load ip: 4228383496 freq: 5
rob stalling non-critical load ip: 4228383664 freq: 4
rob stalling non-critical load ip: 4228383680 freq: 1
rob stalling non-critical load ip: 4228383696 freq: 12
rob stalling non-critical load ip: 4228383740 freq: 9
rob stalling non-critical load ip: 4228445368 freq: 1
rob stalling non-critical load ip: 4228445416 freq: 1
rob stalling non-critical load ip: 4228445588 freq: 2
rob stalling non-critical load ip: 4228454808 freq: 10
rob stalling non-critical load ip: 4228455096 freq: 8
rob stalling non-critical load ip: 4228455104 freq: 5
rob stalling non-critical load ip: 4228455148 freq: 1
rob stalling non-critical load ip: 4228455164 freq: 4
rob stalling non-critical load ip: 4228455180 freq: 48
rob stalling non-critical load ip: 4228455196 freq: 4
rob stalling non-critical load ip: 4228455212 freq: 5
rob stalling non-critical load ip: 4228455368 freq: 5
rob stalling non-critical load ip: 4228519200 freq: 1
rob stalling non-critical load ip: 4228527020 freq: 3
rob stalling non-critical load ip: 4228527176 freq: 70
rob stalling non-critical load ip: 4228527220 freq: 67
rob stalling non-critical load ip: 4228527252 freq: 1
rob stalling non-critical load ip: 4228527308 freq: 72
rob stalling non-critical load ip: 4228527612 freq: 85
rob stalling non-critical load ip: 4228527636 freq: 18
rob stalling non-critical load ip: 4228527660 freq: 8
rob stalling non-critical load ip: 4228549216 freq: 6
rob stalling non-critical load ip: 4228549268 freq: 1
rob stalling non-critical load ip: 4228549304 freq: 5
rob stalling non-critical load ip: 4228549320 freq: 6
rob stalling non-critical load ip: 4228549328 freq: 8
rob stalling non-critical load ip: 4228551228 freq: 2
rob stalling non-critical load ip: 4228551236 freq: 6
rob stalling non-critical load ip: 4228551276 freq: 6
rob stalling non-critical load ip: 4228551284 freq: 5
rob stalling non-critical load ip: 4228554396 freq: 102
rob stalling non-critical load ip: 4228554400 freq: 4
rob stalling non-critical load ip: 4228554432 freq: 2
rob stalling non-critical load ip: 4228554436 freq: 3
rob stalling non-critical load ip: 4228554508 freq: 65
rob stalling non-critical load ip: 4228554520 freq: 50
rob stalling non-critical load ip: 4228554524 freq: 14
rob stalling non-critical load ip: 4228554536 freq: 2
rob stalling non-critical load ip: 4228554552 freq: 4
rob stalling non-critical load ip: 4228554568 freq: 4
rob stalling non-critical load ip: 4228554576 freq: 27
rob stalling non-critical load ip: 4228554608 freq: 2
rob stalling non-critical load ip: 4228554680 freq: 2
rob stalling non-critical load ip: 4228554684 freq: 2
rob stalling non-critical load ip: 4228554760 freq: 2
rob stalling non-critical load ip: 4228554824 freq: 3
rob stalling non-critical load ip: 4228554848 freq: 2
rob stalling non-critical load ip: 4228559004 freq: 88
rob stalling non-critical load ip: 4228559032 freq: 28
rob stalling non-critical load ip: 4228559036 freq: 960
rob stalling non-critical load ip: 4228559076 freq: 54
rob stalling non-critical load ip: 4228559144 freq: 326
rob stalling non-critical load ip: 4228559160 freq: 132
rob stalling non-critical load ip: 4228559180 freq: 40
rob stalling non-critical load ip: 4228559200 freq: 52
rob stalling non-critical load ip: 4228559256 freq: 143
rob stalling non-critical load ip: 4228559288 freq: 203
rob stalling non-critical load ip: 4228559292 freq: 37
rob stalling non-critical load ip: 4228559316 freq: 6
rob stalling non-critical load ip: 4228559336 freq: 7
rob stalling non-critical load ip: 4228559352 freq: 6
rob stalling non-critical load ip: 4228559412 freq: 5
rob stalling non-critical load ip: 4228559416 freq: 70
rob stalling non-critical load ip: 4228559440 freq: 3
rob stalling non-critical load ip: 4228559488 freq: 17
rob stalling non-critical load ip: 4228559552 freq: 294
rob stalling non-critical load ip: 4228559564 freq: 41
rob stalling non-critical load ip: 4228559580 freq: 173
rob stalling non-critical load ip: 4228559600 freq: 9
rob stalling non-critical load ip: 4228559612 freq: 7
rob stalling non-critical load ip: 4228559624 freq: 8
rob stalling non-critical load ip: 4228559636 freq: 10
rob stalling non-critical load ip: 4228559708 freq: 4
rob stalling non-critical load ip: 4228559828 freq: 4
rob stalling non-critical load ip: 4228559872 freq: 3
rob stalling non-critical load ip: 4228559880 freq: 8
rob stalling non-critical load ip: 4228559956 freq: 1
rob stalling non-critical load ip: 4228559996 freq: 2
rob stalling non-critical load ip: 4228560004 freq: 7
rob stalling non-critical load ip: 4228560012 freq: 5
rob stalling non-critical load ip: 4228560080 freq: 1
rob stalling non-critical load ip: 4228560128 freq: 2
rob stalling non-critical load ip: 4228560136 freq: 3
rob stalling non-critical load ip: 4228560260 freq: 6
rob stalling non-critical load ip: 4228560276 freq: 6
rob stalling non-critical load ip: 4228560380 freq: 8
rob stalling non-critical load ip: 4228560388 freq: 7
rob stalling non-critical load ip: 4228560396 freq: 8
rob stalling non-critical load ip: 4228560424 freq: 1
rob stalling non-critical load ip: 4228560884 freq: 7
rob stalling non-critical load ip: 4228560932 freq: 10
rob stalling non-critical load ip: 4228560948 freq: 5
rob stalling non-critical load ip: 4228561056 freq: 11
rob stalling non-critical load ip: 4228561064 freq: 10
rob stalling non-critical load ip: 4228561172 freq: 5
rob stalling non-critical load ip: 4228561180 freq: 8
rob stalling non-critical load ip: 4228561284 freq: 8
rob stalling non-critical load ip: 4228561304 freq: 7
rob stalling non-critical load ip: 4228561368 freq: 1
rob stalling non-critical load ip: 4228566020 freq: 14
rob stalling non-critical load ip: 4228566024 freq: 27
rob stalling non-critical load ip: 4228566088 freq: 1513
rob stalling non-critical load ip: 4228566092 freq: 20
rob stalling non-critical load ip: 4228566104 freq: 198
rob stalling non-critical load ip: 4228566112 freq: 799
rob stalling non-critical load ip: 4228566128 freq: 15
rob stalling non-critical load ip: 4228566172 freq: 56
rob stalling non-critical load ip: 4228566176 freq: 224
rob stalling non-critical load ip: 4228566204 freq: 139
rob stalling non-critical load ip: 4228566224 freq: 182
rob stalling non-critical load ip: 4228566244 freq: 137
rob stalling non-critical load ip: 4228566248 freq: 232
rob stalling non-critical load ip: 4228566268 freq: 8
rob stalling non-critical load ip: 4228566272 freq: 7
rob stalling non-critical load ip: 4228566288 freq: 35
rob stalling non-critical load ip: 4228566300 freq: 1671
rob stalling non-critical load ip: 4228566320 freq: 1311
rob stalling non-critical load ip: 4228566340 freq: 843
rob stalling non-critical load ip: 4228566364 freq: 109
rob stalling non-critical load ip: 4228566368 freq: 328
rob stalling non-critical load ip: 4228566408 freq: 31
rob stalling non-critical load ip: 4228566420 freq: 435
rob stalling non-critical load ip: 4228566440 freq: 5
rob stalling non-critical load ip: 4228566460 freq: 40
rob stalling non-critical load ip: 4228566472 freq: 2348
rob stalling non-critical load ip: 4228566492 freq: 3
rob stalling non-critical load ip: 4228566512 freq: 128
rob stalling non-critical load ip: 4228566528 freq: 114
rob stalling non-critical load ip: 4228566540 freq: 108
rob stalling non-critical load ip: 4228566560 freq: 7
rob stalling non-critical load ip: 4228566572 freq: 25
rob stalling non-critical load ip: 4228566584 freq: 563
rob stalling non-critical load ip: 4228567312 freq: 37
rob stalling non-critical load ip: 4228567336 freq: 5
rob stalling non-critical load ip: 4228567368 freq: 4
rob stalling non-critical load ip: 4228573088 freq: 5
rob stalling non-critical load ip: 4228574672 freq: 7
rob stalling non-critical load ip: 4228575312 freq: 1
rob stalling non-critical load ip: 4228575388 freq: 6
rob stalling non-critical load ip: 4228575444 freq: 4
rob stalling non-critical load ip: 4228576232 freq: 1
rob stalling non-critical load ip: 4228581200 freq: 3
rob stalling non-critical load ip: 4228581504 freq: 3
rob stalling non-critical load ip: 4228588608 freq: 6
rob stalling non-critical load ip: 4228588948 freq: 13
[...]
Critical_ROB_Stalls_Percent_1_Bucket_6: 827
Non-critical_ROB_Stalls_Percent_1_Bucket_6: 2692
Critical_ROB_Stalls_Percent_2_Bucket_0: 333214
Non-critical_ROB_Stalls_Percent_2_Bucket_0: 209948
Critical_ROB_Stalls_Percent_2_Bucket_1: 32687
Non-critical_ROB_Stalls_Percent_2_Bucket_1: 38534
Critical_ROB_Stalls_Percent_2_Bucket_2: 2802
Non-critical_ROB_Stalls_Percent_2_Bucket_2: 5702
Critical_ROB_Stalls_Percent_2_Bucket_3: 1876
Non-critical_ROB_Stalls_Percent_2_Bucket_3: 2102
Critical_ROB_Stalls_Percent_2_Bucket_4: 1728
Non-critical_ROB_Stalls_Percent_2_Bucket_4: 1076
Critical_ROB_Stalls_Percent_2_Bucket_5: 1039
Non-critical_ROB_Stalls_Percent_2_Bucket_5: 597
Critical_ROB_Stalls_Percent_2_Bucket_6: 1860
Non-critical_ROB_Stalls_Percent_2_Bucket_6: 1659
Critical_ROB_Stalls_Percent_3_Bucket_0: 358298
Non-critical_ROB_Stalls_Percent_3_Bucket_0: 184864
Critical_ROB_Stalls_Percent_3_Bucket_1: 38893
Non-critical_ROB_Stalls_Percent_3_Bucket_1: 32328
Critical_ROB_Stalls_Percent_3_Bucket_2: 3214
Non-critical_ROB_Stalls_Percent_3_Bucket_2: 5290
Critical_ROB_Stalls_Percent_3_Bucket_3: 2005
Non-critical_ROB_Stalls_Percent_3_Bucket_3: 1973
Critical_ROB_Stalls_Percent_3_Bucket_4: 1914
Non-critical_ROB_Stalls_Percent_3_Bucket_4: 890
Critical_ROB_Stalls_Percent_3_Bucket_5: 1064
Non-critical_ROB_Stalls_Percent_3_Bucket_5: 572
Critical_ROB_Stalls_Percent_3_Bucket_6: 1864
Non-critical_ROB_Stalls_Percent_3_Bucket_6: 1655
Critical_ROB_Stalls_Percent_4_Bucket_0: 384857
Non-critical_ROB_Stalls_Percent_4_Bucket_0: 158305
Critical_ROB_Stalls_Percent_4_Bucket_1: 42430
Non-critical_ROB_Stalls_Percent_4_Bucket_1: 28791
Critical_ROB_Stalls_Percent_4_Bucket_2: 3465
Non-critical_ROB_Stalls_Percent_4_Bucket_2: 5039
Critical_ROB_Stalls_Percent_4_Bucket_3: 2070
Non-critical_ROB_Stalls_Percent_4_Bucket_3: 1908
Critical_ROB_Stalls_Percent_4_Bucket_4: 1946
Non-critical_ROB_Stalls_Percent_4_Bucket_4: 858
Critical_ROB_Stalls_Percent_4_Bucket_5: 1078
Non-critical_ROB_Stalls_Percent_4_Bucket_5: 558
Critical_ROB_Stalls_Percent_4_Bucket_6: 1872
Non-critical_ROB_Stalls_Percent_4_Bucket_6: 1647
Critical_ROB_Stalls_Percent_5_Bucket_0: 411577
Non-critical_ROB_Stalls_Percent_5_Bucket_0: 131585
Critical_ROB_Stalls_Percent_5_Bucket_1: 46578
Non-critical_ROB_Stalls_Percent_5_Bucket_1: 24643
Critical_ROB_Stalls_Percent_5_Bucket_2: 3949
Non-critical_ROB_Stalls_Percent_5_Bucket_2: 4555
Critical_ROB_Stalls_Percent_5_Bucket_3: 2204
Non-critical_ROB_Stalls_Percent_5_Bucket_3: 1774
Critical_ROB_Stalls_Percent_5_Bucket_4: 2000
Non-critical_ROB_Stalls_Percent_5_Bucket_4: 804
Critical_ROB_Stalls_Percent_5_Bucket_5: 1101
Non-critical_ROB_Stalls_Percent_5_Bucket_5: 535
Critical_ROB_Stalls_Percent_5_Bucket_6: 1879
Non-critical_ROB_Stalls_Percent_5_Bucket_6: 1640
Critical_ROB_Stalls_Percent_6_Bucket_0: 438642
Non-critical_ROB_Stalls_Percent_6_Bucket_0: 104520
Critical_ROB_Stalls_Percent_6_Bucket_1: 49574
Non-critical_ROB_Stalls_Percent_6_Bucket_1: 21647
Critical_ROB_Stalls_Percent_6_Bucket_2: 4718
Non-critical_ROB_Stalls_Percent_6_Bucket_2: 3786
Critical_ROB_Stalls_Percent_6_Bucket_3: 2451
Non-critical_ROB_Stalls_Percent_6_Bucket_3: 1527
Critical_ROB_Stalls_Percent_6_Bucket_4: 2068
Non-critical_ROB_Stalls_Percent_6_Bucket_4: 736
Critical_ROB_Stalls_Percent_6_Bucket_5: 1128
Non-critical_ROB_Stalls_Percent_6_Bucket_5: 508
Critical_ROB_Stalls_Percent_6_Bucket_6: 1906
Non-critical_ROB_Stalls_Percent_6_Bucket_6: 1613
Critical_ROB_Stalls_Percent_7_Bucket_0: 464094
Non-critical_ROB_Stalls_Percent_7_Bucket_0: 79068
Critical_ROB_Stalls_Percent_7_Bucket_1: 53143
Non-critical_ROB_Stalls_Percent_7_Bucket_1: 18078
Critical_ROB_Stalls_Percent_7_Bucket_2: 5498
Non-critical_ROB_Stalls_Percent_7_Bucket_2: 3006
Critical_ROB_Stalls_Percent_7_Bucket_3: 2707
Non-critical_ROB_Stalls_Percent_7_Bucket_3: 1271
Critical_ROB_Stalls_Percent_7_Bucket_4: 2188
Non-critical_ROB_Stalls_Percent_7_Bucket_4: 616
Critical_ROB_Stalls_Percent_7_Bucket_5: 1247
Non-critical_ROB_Stalls_Percent_7_Bucket_5: 389
Critical_ROB_Stalls_Percent_7_Bucket_6: 2635
Non-critical_ROB_Stalls_Percent_7_Bucket_6: 884
Critical_ROB_Stalls_Percent_8_Bucket_0: 488701
Non-critical_ROB_Stalls_Percent_8_Bucket_0: 54461
Critical_ROB_Stalls_Percent_8_Bucket_1: 58352
Non-critical_ROB_Stalls_Percent_8_Bucket_1: 12869
Critical_ROB_Stalls_Percent_8_Bucket_2: 6350
Non-critical_ROB_Stalls_Percent_8_Bucket_2: 2154
Critical_ROB_Stalls_Percent_8_Bucket_3: 2930
Non-critical_ROB_Stalls_Percent_8_Bucket_3: 1048
Critical_ROB_Stalls_Percent_8_Bucket_4: 2281
Non-critical_ROB_Stalls_Percent_8_Bucket_4: 523
Critical_ROB_Stalls_Percent_8_Bucket_5: 1295
Non-critical_ROB_Stalls_Percent_8_Bucket_5: 341
Critical_ROB_Stalls_Percent_8_Bucket_6: 2876
Non-critical_ROB_Stalls_Percent_8_Bucket_6: 643
Average ROB occupancy Load Stall Begin: 29.5498
Average ROB occupancy Load Stall End: 35.1743
Min ROB occupancy Load Stall Begin: 1
Max ROB occupancy Load Stall Begin: 351
Min ROB occupancy Load Stall End: 1
Max ROB occupancy Load Stall End: 352
Average ROB occupancy Critical Load Stall Begin: -nan
Average ROB occupancy Critical Load Stall End: -nan
Min ROB occupancy Critical Load Stall Begin: 400
Max ROB occupancy Critical Load Stall Begin: 0
Min ROB occupancy Critical Load Stall End: 400
Max ROB occupancy Critical Load Stall End: 0
 ROB Load Stall Begin Bucket Count 0: 558324
 ROB Load Stall End Bucket Count 0: 543162
 ROB Critical Load Stall Begin Bucket Count 0: 0
 ROB Critical Load Stall End Bucket Count 0: 0
 ROB Load Stall Begin Bucket Count 1: 59750
 ROB Load Stall End Bucket Count 1: 71221
 ROB Critical Load Stall Begin Bucket Count 1: 0
 ROB Critical Load Stall End Bucket Count 1: 0
 ROB Load Stall Begin Bucket Count 2: 7050
 ROB Load Stall End Bucket Count 2: 8504
 ROB Critical Load Stall Begin Bucket Count 2: 0
 ROB Critical Load Stall End Bucket Count 2: 0
 ROB Load Stall Begin Bucket Count 3: 2905
 ROB Load Stall End Bucket Count 3: 3978
 ROB Critical Load Stall Begin Bucket Count 3: 0
 ROB Critical Load Stall End Bucket Count 3: 0
 ROB Load Stall Begin Bucket Count 4: 2183
 ROB Load Stall End Bucket Count 4: 2804
 ROB Critical Load Stall Begin Bucket Count 4: 0
 ROB Critical Load Stall End Bucket Count 4: 0
 ROB Load Stall Begin Bucket Count 5: 1846
 ROB Load Stall End Bucket Count 5: 1636
 ROB Critical Load Stall Begin Bucket Count 5: 0
 ROB Critical Load Stall End Bucket Count 5: 0
 ROB Load Stall Begin Bucket Count 6: 2766
 ROB Load Stall End Bucket Count 6: 3519
 ROB Critical Load Stall Begin Bucket Count 6: 0
 ROB Critical Load Stall End Bucket Count 6: 0
PIST Tag Read Accesses: 224258
PIST Read Accesses: 112129
PIST Tag Write Accesses: 224258
PIST Write Accesses: 112129
Criticality detector called times: 288752
Max global_stall_cycles_count: 184643
Threshold Modified: 2 times, factor: -2
Sturdy critical IP cache stats: 
 Unused entries: 0
CIC Tag Read Accesses: 0
CIC Read Accesses: 0
CIC Tag Write Accesses: 0
CIC Write Accesses: 0
Wobbly critical IP cache stats: 
 Unused entries: 112
CIC Tag Read Accesses: 52432406
CIC Read Accesses: 0
CIC Tag Write Accesses: 19
CIC Write Accesses: 0
ITLB TOTAL     ACCESS:    7433922  HIT:    6906969  MISS:     526953  HIT %:    92.9115  MISS %:    7.08849   MPKI: 10.5391
ITLB LOAD TRANSLATION ACCESS:    7433922  HIT:    6906969  MISS:     526953  HIT %:    92.9115  MISS %:    7.08849   MPKI: 10.5391
ITLB PREFETCH  REQUESTED:          0  ISSUED:          0  USEFUL:          0  USELESS:          0
ITLB USEFUL LOAD PREFETCHES:          0 PREFETCH ISSUED TO LOWER LEVEL:          0  ACCURACY: -nan
ITLB TIMELY PREFETCHES:          0 LATE PREFETCHES: 0 DROPPED PREFETCHES: 0
ITLB PREFETCHES SAME FILL-ORIGIN LEVEL: 0 DIFFERENT FILL-ORIGIN LEVEL: 0
ITLB AVERAGE MISS LATENCY: 29.2949 cycles
ITLB RQ	ACCESS:    9722747	FORWARD:          0	MERGED:    2080741	TO_CACHE:    7642006

DTLB TOTAL     ACCESS:    7904680  HIT:    6075675  MISS:    1829005  HIT %:    76.8617  MISS %:    23.1383   MPKI: 36.5801
DTLB LOAD TRANSLATION ACCESS:    7904680  HIT:    6075675  MISS:    1829005  HIT %:    76.8617  MISS %:    23.1383   MPKI: 36.5801
DTLB PREFETCH  REQUESTED:          0  ISSUED:          0  USEFUL:          0  USELESS:          0
DTLB USEFUL LOAD PREFETCHES:          0 PREFETCH ISSUED TO LOWER LEVEL:          0  ACCURACY: -nan
DTLB TIMELY PREFETCHES:          0 LATE PREFETCHES: 0 DROPPED PREFETCHES: 0
DTLB PREFETCHES SAME FILL-ORIGIN LEVEL: 0 DIFFERENT FILL-ORIGIN LEVEL: 0
DTLB AVERAGE MISS LATENCY: 20.3212 cycles
DTLB RQ	ACCESS:   10406172	FORWARD:          0	MERGED:    2312893	TO_CACHE:    8093279

STLB TOTAL     ACCESS:    2355958  HIT:    1062641  MISS:    1293317  HIT %:    45.1044  MISS %:    54.8956   MPKI: 25.8663
STLB LOAD TRANSLATION ACCESS:    2355958  HIT:    1062641  MISS:    1293317  HIT %:    45.1044  MISS %:    54.8956   MPKI: 25.8663
STLB PREFETCH  REQUESTED:          0  ISSUED:          0  USEFUL:          0  USELESS:          0
STLB USEFUL LOAD PREFETCHES:          0 PREFETCH ISSUED TO LOWER LEVEL:          0  ACCURACY: -nan
STLB TIMELY PREFETCHES:          0 LATE PREFETCHES: 0 DROPPED PREFETCHES: 0
STLB PREFETCHES SAME FILL-ORIGIN LEVEL: 0 DIFFERENT FILL-ORIGIN LEVEL: 0
STLB AVERAGE MISS LATENCY: 24.2061 cycles
STLB RQ	ACCESS:    2355958	FORWARD:          0	MERGED:          0	TO_CACHE:    2355958

STLB Hit, L1D data hit: 0
STLB Hit, L2C data hit: 0
STLB Hit, LLC data hit: 0
STLB Hit, LLC data miss: 0
STLB STLB hints to L2: 0
L1D TOTAL     ACCESS:   10297046  HIT:   10094153  MISS:     202893  HIT %:    98.0296  MISS %:     1.9704   MPKI: 4.05786
L1D LOAD      ACCESS:    5831782  HIT:    5655224  MISS:     176558  HIT %:    96.9725  MISS %:    3.02751   MPKI: 3.53116
L1D RFO       ACCESS:    4465264  HIT:    4438929  MISS:      26335  HIT %:    99.4102  MISS %:   0.589775   MPKI: 0.5267
L1D PREFETCH  REQUESTED:          0  ISSUED:          0  USEFUL:          0  USELESS:          0
L1D USEFUL LOAD PREFETCHES:          0 PREFETCH ISSUED TO LOWER LEVEL:          0  ACCURACY: -nan
L1D TIMELY PREFETCHES:          0 LATE PREFETCHES: 0 DROPPED PREFETCHES: 0
L1D PREFETCHES SAME FILL-ORIGIN LEVEL: 0 DIFFERENT FILL-ORIGIN LEVEL: 0
L1D AVERAGE MISS LATENCY: 48.5946 cycles
L1D RQ	ACCESS:    8714989	FORWARD:          0	MERGED:    2812394	TO_CACHE:    5837616
L1D WQ	ACCESS:    4823395	FORWARD:      64979	MERGED:     254839	TO_CACHE:    4568556

L1D UNIQUE REGIONS ACCESSED: 0
L1D REGIONS CONFLICTS: 0
L1D Cross Page Prefetch Requests: 0
L1D Same Page Prefetch Requests: 0
L1D ROI Sum of L1D PQ occupancy: 0
L1D PREFETCHES PUSHED FROM L2C: 0
L1I TOTAL     ACCESS:    9632800  HIT:    9359183  MISS:     273617  HIT %:    97.1595  MISS %:    2.84047   MPKI: 5.47234
L1I LOAD      ACCESS:    9632800  HIT:    9359183  MISS:     273617  HIT %:    97.1595  MISS %:    2.84047   MPKI: 5.47234
L1I PREFETCH  REQUESTED:          0  ISSUED:          0  USEFUL:          0  USELESS:          0
L1I USEFUL LOAD PREFETCHES:          0 PREFETCH ISSUED TO LOWER LEVEL:          0  ACCURACY: -nan
L1I TIMELY PREFETCHES:          0 LATE PREFETCHES: 0 DROPPED PREFETCHES: 0
L1I PREFETCHES SAME FILL-ORIGIN LEVEL: 0 DIFFERENT FILL-ORIGIN LEVEL: 0
L1I AVERAGE MISS LATENCY: 26.2154 cycles
L1I RQ	ACCESS:   15575545	FORWARD:          0	MERGED:    5852798	TO_CACHE:    9722747

BTB BRANCH_DIRECT_JUMP	ACCESS:          0  HIT:          0  MISS:          0
BTB BRANCH_INDIRECT	ACCESS:          0  HIT:          0  MISS:          0
BTB BRANCH_CONDITIONAL	ACCESS:          0  HIT:          0  MISS:          0
BTB BRANCH_DIRECT_CALL	ACCESS:          0  HIT:          0  MISS:          0
BTB BRANCH_INDIRECT_CALL	ACCESS:          0  HIT:          0  MISS:          0
BTB BRANCH_RETURN	ACCESS:          0  HIT:          0  MISS:          0
BTB BRANCH_OTHER ACCESS:          0  HIT:          0  MISS:          0

L2C TOTAL     ACCESS:    2090935  HIT:    1870557  MISS:     220378  HIT %:    89.4603  MISS %:    10.5397   MPKI: 4.40756
L2C LOAD      ACCESS:     450174  HIT:     380524  MISS:      69650  HIT %:    84.5282  MISS %:    15.4718   MPKI: 1.393
L2C DATA LOAD MPKI: 0.67872
L2C INSTRUCTION LOAD MPKI: 0.71428
L2C RFO       ACCESS:      26328  HIT:      12551  MISS:      13777  HIT %:    47.6717  MISS %:    52.3283   MPKI: 0.27554
L2C PREFETCH  ACCESS:     151563  HIT:      22706  MISS:     128857  HIT %:    14.9812  MISS %:    85.0188   MPKI: 2.57714
L2C DATA PREFETCH MPKI: 2.57714
L2C INSTRUCTION PREFETCH MPKI: 0
L2C WRITEBACK ACCESS:     125196  HIT:     122365  MISS:       2831  HIT %:    97.7387  MISS %:    2.26125   MPKI: 0.05662
L2C LOAD TRANSLATION ACCESS:    1337674  HIT:    1332411  MISS:       5263  HIT %:    99.6066  MISS %:   0.393444   MPKI: 0.10526
L2C PREFETCH  REQUESTED:     156917  ISSUED:     156917  USEFUL:     105056  USELESS:      23745
L2C USEFUL LOAD PREFETCHES:     105056 PREFETCH ISSUED TO LOWER LEVEL:     131331  ACCURACY: 79.9933
L2C TIMELY PREFETCHES:     105056 LATE PREFETCHES: 2460 DROPPED PREFETCHES: 0
L2C PREFETCHES SAME FILL-ORIGIN LEVEL: 131331 DIFFERENT FILL-ORIGIN LEVEL: 0
L2C AVERAGE MISS LATENCY: 153.39 cycles
L2C RQ	ACCESS:    1814184	FORWARD:          0	MERGED:          0	TO_CACHE:    1814178
L2C WQ	ACCESS:     125196	FORWARD:          6	MERGED:          0	TO_CACHE:     125196
L2C PQ	ACCESS:     156917	FORWARD:          0	MERGED:          0	TO_CACHE:     156917

L2C Instructions Evicting Data 26694
L2C Translations Evicting Data 4104
L2C Data Evicting Data 148081
L2C Instructions Evicting Instructions 7950
L2C Translations Evicting Instructions 1041
L2C Data Evicting Instructions 24847
L2C Instructions Evicting Translations 1070
L2C Translations Evicting Translations 118
L2C Data Evicting Translations 3642
L2C Dense regions hint from L2: 0
PSCL5 TOTAL     ACCESS:    1293317  HIT:    1293317  MISS:          0  HIT %:        100  MISS %:          0   MPKI: 0
PSCL5 LOAD TRANSLATION ACCESS:    1293317  HIT:    1293317  MISS:          0  HIT %:        100  MISS %:          0   MPKI: 0
PSCL5 PREFETCH  REQUESTED:          0  ISSUED:          0  USEFUL:          0  USELESS:          0
PSCL5 USEFUL LOAD PREFETCHES:          0 PREFETCH ISSUED TO LOWER LEVEL:          0  ACCURACY: -nan
PSCL5 TIMELY PREFETCHES:          0 LATE PREFETCHES: 0 DROPPED PREFETCHES: 0
PSCL5 PREFETCHES SAME FILL-ORIGIN LEVEL: 0 DIFFERENT FILL-ORIGIN LEVEL: 0

PSCL4 TOTAL     ACCESS:    1289884  HIT:    1289800  MISS:         84  HIT %:    99.9935  MISS %: 0.00651221   MPKI: 0.00168
PSCL4 LOAD TRANSLATION ACCESS:    1289884  HIT:    1289800  MISS:         84  HIT %:    99.9935  MISS %: 0.00651221   MPKI: 0.00168
PSCL4 PREFETCH  REQUESTED:          0  ISSUED:          0  USEFUL:          0  USELESS:          0
PSCL4 USEFUL LOAD PREFETCHES:          0 PREFETCH ISSUED TO LOWER LEVEL:          0  ACCURACY: -nan
PSCL4 TIMELY PREFETCHES:          0 LATE PREFETCHES: 0 DROPPED PREFETCHES: 0
PSCL4 PREFETCHES SAME FILL-ORIGIN LEVEL: 0 DIFFERENT FILL-ORIGIN LEVEL: 0

PSCL3 TOTAL     ACCESS:    1286991  HIT:    1285491  MISS:       1500  HIT %:    99.8834  MISS %:   0.116551   MPKI: 0.03
PSCL3 LOAD TRANSLATION ACCESS:    1286991  HIT:    1285491  MISS:       1500  HIT %:    99.8834  MISS %:   0.116551   MPKI: 0.03
PSCL3 PREFETCH  REQUESTED:          0  ISSUED:          0  USEFUL:          0  USELESS:          0
PSCL3 USEFUL LOAD PREFETCHES:          0 PREFETCH ISSUED TO LOWER LEVEL:          0  ACCURACY: -nan
PSCL3 TIMELY PREFETCHES:          0 LATE PREFETCHES: 0 DROPPED PREFETCHES: 0
PSCL3 PREFETCHES SAME FILL-ORIGIN LEVEL: 0 DIFFERENT FILL-ORIGIN LEVEL: 0

PSCL2 TOTAL     ACCESS:    1293317  HIT:    1250496  MISS:      42821  HIT %:    96.6891  MISS %:    3.31094   MPKI: 0.85642
PSCL2 LOAD TRANSLATION ACCESS:    1293317  HIT:    1250496  MISS:      42821  HIT %:    96.6891  MISS %:    3.31094   MPKI: 0.85642
PSCL2 PREFETCH  REQUESTED:          0  ISSUED:          0  USEFUL:          0  USELESS:          0
PSCL2 USEFUL LOAD PREFETCHES:          0 PREFETCH ISSUED TO LOWER LEVEL:          0  ACCURACY: -nan
PSCL2 TIMELY PREFETCHES:          0 LATE PREFETCHES: 0 DROPPED PREFETCHES: 0
PSCL2 PREFETCHES SAME FILL-ORIGIN LEVEL: 0 DIFFERENT FILL-ORIGIN LEVEL: 0

LLC TOTAL     ACCESS:     327390  HIT:     174335  MISS:     153055  HIT %:    53.2499  MISS %:    46.7501   MPKI: 3.0611
LLC LOAD      ACCESS:      67202  HIT:      37923  MISS:      29279  HIT %:    56.4314  MISS %:    43.5686   MPKI: 0.58558
LLC RFO       ACCESS:      13765  HIT:       1217  MISS:      12548  HIT %:    8.84126  MISS %:    91.1587   MPKI: 0.25096
LLC PREFETCH  ACCESS:     131322  HIT:      26355  MISS:     104967  HIT %:     20.069  MISS %:     79.931   MPKI: 2.09934
LLC WRITEBACK ACCESS:     109838  HIT:     105841  MISS:       3997  HIT %:     96.361  MISS %:      3.639   MPKI: 0.07994
LLC LOAD TRANSLATION ACCESS:       5263  HIT:       2999  MISS:       2264  HIT %:    56.9827  MISS %:    43.0173   MPKI: 0.04528
LLC PREFETCH  REQUESTED:          0  ISSUED:          0  USEFUL:       7933  USELESS:      97747
LLC USEFUL LOAD PREFETCHES:       7933 PREFETCH ISSUED TO LOWER LEVEL:     104976  ACCURACY: 7.55697
LLC TIMELY PREFETCHES:       7933 LATE PREFETCHES: 0 DROPPED PREFETCHES: 0
LLC PREFETCHES SAME FILL-ORIGIN LEVEL: 0 DIFFERENT FILL-ORIGIN LEVEL: 0
LLC AVERAGE MISS LATENCY: 178.949 cycles
LLC RQ	ACCESS:      86230	FORWARD:          0	MERGED:          0	TO_CACHE:      86230
LLC WQ	ACCESS:     109838	FORWARD:          0	MERGED:          0	TO_CACHE:     109838
LLC PQ	ACCESS:     131331	FORWARD:          0	MERGED:          0	TO_CACHE:     131331

LLC Dense regions hint to LLC: 0

RAW hits: 471947
Loads Generated: 9186936
Loads sent to L1D: 8714989
Stores Generated: 4823397
Stores sent to L1D: 4823395
Major fault: 0 Minor fault: 6088
Allocated PAGES: 6088
[Bingo] PHT Access: 21785
[Bingo] PHT Hit PC+Addr: 4685
[Bingo] PHT Hit PC+Offs: 10283
[Bingo] PHT Miss: 6817
[Bingo] Prefetch PC+Addr: 0
[Bingo] Prefetch PC+Offs: 0
[Bingo] Useful PC+Addr: 0
[Bingo] Useful PC+Offs: 0
[Bingo] Useless PC+Addr: 0
[Bingo] Useless PC+Offs: 0
[Bingo] L1 Prefetch per Region: 0
[Bingo] L2 Prefetch per Region: 11.5243
[Bingo] L3 Prefetch per Region: 0
[Bingo] No Prefetch per Region: 20.4757
[Bingo] Number of Voters Mean: 12.0512
[Bingo] Number of Voters SD: 9.88362
PHT read accesses: 193459
PHT write accesses: 13643
AT read accesses: 159120
AT write accesses: 166496
FT read accesses: 46497
FT write accesses: 21785
PS read accesses: 35685
PS write accesses: 14968
PHT tag read accesses: 650038
PHT tag write accesses: 18328
AT tag read accesses: 6956822
AT tag write accesses: 172760
FT tag read accesses: 4880839
FT tag write accesses: 52726
PS tag read accesses: 3348920
PS tag write accesses: 50599

DRAM Statistics
 CHANNEL 0
 RQ ROW_BUFFER_HIT:      69504  ROW_BUFFER_MISS:      79553
 DBUS_CONGESTED:         73
 WQ ROW_BUFFER_HIT:      13034  ROW_BUFFER_MISS:      92554  FULL:          0

 AVG_CONGESTED_CYCLE: 4
 All warmup complete: 2
Channel 0 Bank busy for read cycles: 0
Channel 0 Bank busy for write cycles: 0
Channel 0
Rank 0
0banks busy for read cycles: 61260737
0banks busy for write cycles: 11443
1banks busy for read cycles: 2529183
1banks busy for write cycles: 1203924
2banks busy for read cycles: 767918
2banks busy for write cycles: 593207
3banks busy for read cycles: 270106
3banks busy for write cycles: 444372
4banks busy for read cycles: 151034
4banks busy for write cycles: 367105
5banks busy for read cycles: 121648
5banks busy for write cycles: 324022
6banks busy for read cycles: 133819
6banks busy for write cycles: 358748
7banks busy for read cycles: 233714
7banks busy for write cycles: 441720
8banks busy for read cycles: 863770
8banks busy for write cycles: 803132

CPU 0 Branch Prediction Accuracy: 98.3625% MPKI: 2.7727 Average ROB Occupancy at Mispredict: 34.6938
Branch types
NOT_BRANCH: 0 0%
BRANCH_DIRECT_JUMP: 0 0%
BRANCH_INDIRECT: 0 0%
BRANCH_CONDITIONAL: 0 0%
BRANCH_DIRECT_CALL: 0 0%
BRANCH_INDIRECT_CALL: 0 0%
BRANCH_RETURN: 0 0%
BRANCH_OTHER: 0 0%

DRAM PAGES: 1048576
Allocated PAGES: 6088
