
*** ChampSim Multicore Out-of-Order Simulator ***

Warmup Instructions: 50000000
Simulation Instructions: 50000000
Number of CPUs: 1
LLC sets: 2048
LLC ways: 16
Off-chip DRAM Size: 4096 MB Channels: 1 Width: 64-bit Data Rate: 6400 MT/s
CPU 0 runs ../cloudsuite_traces//streaming_phase0_core2.trace.gz
.gz
NUM_OF_IPS_IN_CRITICAL_IP_TRAINING: 64
NUM_OF_CRITICAL_IP_TRAINING_TABLE_WAYS: 2
NUM_OF_CRITICAL_IP_TRAINING_TABLE_SETS: 32
WOBBLY_CRITICAL_IP_CACHE_SETS: 32
WOBBLY_CRITICAL_IP_CACHE_WAYS: 4
BTB has LRU replacement policy
ITLB has LRU replacement policy
DTLB has LRU replacement policy
STLB has LRU replacement policy
L1I has LRU replacement policy
IP Table Entries: 64
L1D has LRU replacement policy
Initialize SRRIP state for L2C
Initialize DRRIP state for LLC
UNIQUE_ASID[0] = €
UNIQUE_ASID[1] = 
Heartbeat CPU 0 instructions: 10000003 cycles: 3329733 heartbeat IPC: 3.00324 cumulative IPC: 3.00324 (Simulation time: 0 hr 3 min 44 sec) 
Heartbeat CPU 0 instructions: 20000001 cycles: 6655862 heartbeat IPC: 3.0065 cumulative IPC: 3.00487 (Simulation time: 0 hr 8 min 9 sec) 
Heartbeat CPU 0 instructions: 30000001 cycles: 10075737 heartbeat IPC: 2.92408 cumulative IPC: 2.97745 (Simulation time: 0 hr 13 min 56 sec) 
Heartbeat CPU 0 instructions: 40000000 cycles: 13458575 heartbeat IPC: 2.9561 cumulative IPC: 2.97208 (Simulation time: 0 hr 19 min 7 sec) 
Heartbeat CPU 0 instructions: 50000000 cycles: 16863118 heartbeat IPC: 2.93725 cumulative IPC: 2.96505 (Simulation time: 0 hr 24 min 24 sec) 

Warmup complete CPU 0 instructions: 50000004 cycles: 16863119 (Simulation time: 0 hr 24 min 24 sec) 

% increase in all ip prefetch 323.429
% increase in all ip prefetch -3.60744
Heartbeat CPU 0 instructions: 60000000 cycles: 35171628 heartbeat IPC: 0.546194 cumulative IPC: 0.546194 (Simulation time: 0 hr 30 min 56 sec) 
Heartbeat CPU 0 instructions: 70000003 cycles: 52782946 heartbeat IPC: 0.567817 cumulative IPC: 0.556796 (Simulation time: 0 hr 36 min 53 sec) 
Heartbeat CPU 0 instructions: 80000001 cycles: 68756654 heartbeat IPC: 0.626029 cumulative IPC: 0.578107 (Simulation time: 0 hr 41 min 59 sec) 
Heartbeat CPU 0 instructions: 90000002 cycles: 84519780 heartbeat IPC: 0.634392 cumulative IPC: 0.59122 (Simulation time: 0 hr 46 min 51 sec) 
Heartbeat CPU 0 instructions: 100000000 cycles: 102006115 heartbeat IPC: 0.571875 cumulative IPC: 0.587247 (Simulation time: 0 hr 52 min 28 sec) 
Finished CPU 0 instructions: 50000000 cycles: 85143013 cumulative IPC: 0.587247 (Simulation time: 0 hr 52 min 28 sec) 

ChampSim completed all CPUs

Region of Interest Statistics

CPU 0 cumulative IPC: 0.587247 instructions: 50000000 cycles: 85143013

CPU 0 Average Load ROB stall cycles: 1.70973e+07
CPU 0 Fraction of times ROB stalled by Loads: 28.5595
CPU 0 Percentage of Load stall cycles in Total stall cycles: 2.96589e+08
Issued all: 34035843
Issued LT all: 26624606
rob_not_full_when_issued_lt_all: 24081278
Issued LT one: 24743859
rob_not_full_when_issued_lt_one: 22369125
 Total stall cycles: 71365697
 Total load stall cycles: 211662664472390
CPU 0 NUM of IPS identified critical: 0
CPU 0 Num of Load IPs stalling ROB: 5725
Threshold modification factor: -1
Max PIST entries: 64
Min PIST entries: 0
Avg PIST entries: 31.98
Trouble in retire width: 0.926291
MaC = Marked as critical.
lt_50_percent_before_Mac: 0
gt_90_percent_before_Mac: 0
gt_75_percent_before_Mac: 0
gt_50_percent_before_Mac: 0
stall_proportion_bin_same_before_after: 0
stall_proportion_bin_lower_before_after: 0
stall_proportion_bin_upper_before_after: 0
average_stall_proportion_before: -nan
average_stall_proportion_after: -nan
Critical IP stalls, total frequency: 0
Non-critical IP stalls, total frequency: 3535634
Total Freq all stalling IPs: 3535634
stat_90_percent_critical_ip_stalls_freq: 3182499
stat_90_percent_non_critical_ip_stalls_freq: 353135
Critical_IP_ROB_Stalls_Bucket_0: 0
Non-critical_IP_ROB_Stalls_Bucket_0: 3136759
Critical_IP_ROB_Stalls_Bucket_1: 0
Non-critical_IP_ROB_Stalls_Bucket_1: 253112
Critical_IP_ROB_Stalls_Bucket_2: 0
Non-critical_IP_ROB_Stalls_Bucket_2: 37846
Critical_IP_ROB_Stalls_Bucket_3: 0
Non-critical_IP_ROB_Stalls_Bucket_3: 20596
Critical_IP_ROB_Stalls_Bucket_4: 0
Non-critical_IP_ROB_Stalls_Bucket_4: 15591
Critical_IP_ROB_Stalls_Bucket_5: 0
Non-critical_IP_ROB_Stalls_Bucket_5: 19561
Critical_IP_ROB_Stalls_Bucket_6: 0
Non-critical_IP_ROB_Stalls_Bucket_6: 52169
0 => IPs accounting for >50 percent of stalls, 1 => 55, 2 => 60, 3 => 65 and so on till 90.
percent50: 72.3757 num IPs:  1
percent55: 72.3757 num IPs: 1
percent60: 72.3757 num IPs: 1
percent65: 72.3757 num IPs: 1
percent70: 72.3757 num IPs: 1
percent75: 75.158 num IPs: 8
percent80: 80.032 num IPs: 32
percent85: 85.0751 num IPs: 71
percent90: 90.0121 num IPs: 179
Critical_ROB_Stalls_Percent_0_Bucket_0: 2545274
Non-critical_ROB_Stalls_Percent_0_Bucket_0: 591485
Critical_ROB_Stalls_Percent_0_Bucket_1: 8065
Non-critical_ROB_Stalls_Percent_0_Bucket_1: 245047
Critical_ROB_Stalls_Percent_0_Bucket_2: 3612
Non-critical_ROB_Stalls_Percent_0_Bucket_2: 34234
Critical_ROB_Stalls_Percent_0_Bucket_3: 997
Non-critical_ROB_Stalls_Percent_0_Bucket_3: 19599
Critical_ROB_Stalls_Percent_0_Bucket_4: 467
Non-critical_ROB_Stalls_Percent_0_Bucket_4: 15124
Critical_ROB_Stalls_Percent_0_Bucket_5: 134
Non-critical_ROB_Stalls_Percent_0_Bucket_5: 19427
Critical_ROB_Stalls_Percent_0_Bucket_6: 391
Non-critical_ROB_Stalls_Percent_0_Bucket_6: 51778
Critical_ROB_Stalls_Percent_1_Bucket_0: 2545274
Non-critical_ROB_Stalls_Percent_1_Bucket_0: 591485
Critical_ROB_Stalls_Percent_1_Bucket_1: 8065
Non-critical_ROB_Stalls_Percent_1_Bucket_1: 245047
Critical_ROB_Stalls_Percent_1_Bucket_2: 3612
Non-critical_ROB_Stalls_Percent_1_Bucket_2: 34234
Critical_ROB_Stalls_Percent_1_Bucket_3: 997
Non-critical_ROB_Stalls_Percent_1_Bucket_3: 19599
Critical_ROB_Stalls_Percent_1_Bucket_4: 467
Non-critical_ROB_Stalls_Percent_1_Bucket_4: 15124
Critical_ROB_Stalls_Percent_1_Bucket_5: 134
Non-critical_ROB_Stalls_Percent_1_Bucket_5: 19427
Critical_ROB_Stalls_Percent_1_Bucket_6: 391
Non-critical_ROB_Stalls_Percent_1_Bucket_6: 51778
Critical_ROB_Stalls_Percent_2_Bucket_0: 2545274
Non-critical_ROB_Stalls_Percent_2_Bucket_0: 591485
Critical_ROB_Stalls_Percent_2_Bucket_1: 8065
Non-critical_ROB_Stalls_Percent_2_Bucket_1: 245047
Critical_ROB_Stalls_Percent_2_Bucket_2: 3612
Non-critical_ROB_Stalls_Percent_2_Bucket_2: 34234
Critical_ROB_Stalls_Percent_2_Bucket_3: 997
Non-critical_ROB_Stalls_Percent_2_Bucket_3: 19599
Critical_ROB_Stalls_Percent_2_Bucket_4: 467
Non-critical_ROB_Stalls_Percent_2_Bucket_4: 15124
Critical_ROB_Stalls_Percent_2_Bucket_5: 134
Non-critical_ROB_Stalls_Percent_2_Bucket_5: 19427
Critical_ROB_Stalls_Percent_2_Bucket_6: 391
Non-critical_ROB_Stalls_Percent_2_Bucket_6: 51778
Critical_ROB_Stalls_Percent_3_Bucket_0: 2545274
Non-critical_ROB_Stalls_Percent_3_Bucket_0: 591485
Critical_ROB_Stalls_Percent_3_Bucket_1: 8065
Non-critical_ROB_Stalls_Percent_3_Bucket_1: 245047
Critical_ROB_Stalls_Percent_3_Bucket_2: 3612
Non-critical_ROB_Stalls_Percent_3_Bucket_2: 34234
Critical_ROB_Stalls_Percent_3_Bucket_3: 997
Non-critical_ROB_Stalls_Percent_3_Bucket_3: 19599
Critical_ROB_Stalls_Percent_3_Bucket_4: 467
Non-critical_ROB_Stalls_Percent_3_Bucket_4: 15124
Critical_ROB_Stalls_Percent_3_Bucket_5: 134
Non-critical_ROB_Stalls_Percent_3_Bucket_5: 19427
Critical_ROB_Stalls_Percent_3_Bucket_6: 391
Non-critical_ROB_Stalls_Percent_3_Bucket_6: 51778
Critical_ROB_Stalls_Percent_4_Bucket_0: 2545274
Non-critical_ROB_Stalls_Percent_4_Bucket_0: 591485
Critical_ROB_Stalls_Percent_4_Bucket_1: 8065
Non-critical_ROB_Stalls_Percent_4_Bucket_1: 245047
Critical_ROB_Stalls_Percent_4_Bucket_2: 3612
Non-critical_ROB_Stalls_Percent_4_Bucket_2: 34234
Critical_ROB_Stalls_Percent_4_Bucket_3: 997
Non-critical_ROB_Stalls_Percent_4_Bucket_3: 19599
Critical_ROB_Stalls_Percent_4_Bucket_4: 467
Non-critical_ROB_Stalls_Percent_4_Bucket_4: 15124
Critical_ROB_Stalls_Percent_4_Bucket_5: 134
Non-critical_ROB_Stalls_Percent_4_Bucket_5: 19427
Critical_ROB_Stalls_Percent_4_Bucket_6: 391
Non-critical_ROB_Stalls_Percent_4_Bucket_6: 51778
Critical_ROB_Stalls_Percent_5_Bucket_0: 2601909
Non-critical_ROB_Stalls_Percent_5_Bucket_0: 534850
Critical_ROB_Stalls_Percent_5_Bucket_1: 34149
Non-critical_ROB_Stalls_Percent_5_Bucket_1: 218963
Critical_ROB_Stalls_Percent_5_Bucket_2: 7795
Non-critical_ROB_Stalls_Percent_5_Bucket_2: 30051
Critical_ROB_Stalls_Percent_5_Bucket_3: 3901
Non-critical_ROB_Stalls_Percent_5_Bucket_3: 16695
Critical_ROB_Stalls_Percent_5_Bucket_4: 2229
Non-critical_ROB_Stalls_Percent_5_Bucket_4: 13362
Critical_ROB_Stalls_Percent_5_Bucket_5: 2299
Non-critical_ROB_Stalls_Percent_5_Bucket_5: 17262
Critical_ROB_Stalls_Percent_5_Bucket_6: 5031
Non-critical_ROB_Stalls_Percent_5_Bucket_6: 47138
Critical_ROB_Stalls_Percent_6_Bucket_0: 2663893
Non-critical_ROB_Stalls_Percent_6_Bucket_0: 472866
Critical_ROB_Stalls_Percent_6_Bucket_1: 130373
Non-critical_ROB_Stalls_Percent_6_Bucket_1: 122739
Critical_ROB_Stalls_Percent_6_Bucket_2: 14966
Non-critical_ROB_Stalls_Percent_6_Bucket_2: 22880
Critical_ROB_Stalls_Percent_6_Bucket_3: 6813
Non-critical_ROB_Stalls_Percent_6_Bucket_3: 13783
Critical_ROB_Stalls_Percent_6_Bucket_4: 3621
Non-critical_ROB_Stalls_Percent_6_Bucket_4: 11970
Critical_ROB_Stalls_Percent_6_Bucket_5: 3604
Non-critical_ROB_Stalls_Percent_6_Bucket_5: 15957
Critical_ROB_Stalls_Percent_6_Bucket_6: 6368
Non-critical_ROB_Stalls_Percent_6_Bucket_6: 45801
Critical_ROB_Stalls_Percent_7_Bucket_0: 2780547
Non-critical_ROB_Stalls_Percent_7_Bucket_0: 356212
Critical_ROB_Stalls_Percent_7_Bucket_1: 169988
Non-critical_ROB_Stalls_Percent_7_Bucket_1: 83124
Critical_ROB_Stalls_Percent_7_Bucket_2: 19911
Non-critical_ROB_Stalls_Percent_7_Bucket_2: 17935
Critical_ROB_Stalls_Percent_7_Bucket_3: 9845
Non-critical_ROB_Stalls_Percent_7_Bucket_3: 10751
Critical_ROB_Stalls_Percent_7_Bucket_4: 6379
Non-critical_ROB_Stalls_Percent_7_Bucket_4: 9212
Critical_ROB_Stalls_Percent_7_Bucket_5: 7294
Non-critical_ROB_Stalls_Percent_7_Bucket_5: 12267
Critical_ROB_Stalls_Percent_7_Bucket_6: 13980
Non-critical_ROB_Stalls_Percent_7_Bucket_6: 38189
Critical_ROB_Stalls_Percent_8_Bucket_0: 2881090
Non-critical_ROB_Stalls_Percent_8_Bucket_0: 255669
Critical_ROB_Stalls_Percent_8_Bucket_1: 196772
Non-critical_ROB_Stalls_Percent_8_Bucket_1: 56340
Critical_ROB_Stalls_Percent_8_Bucket_2: 25394
Non-critical_ROB_Stalls_Percent_8_Bucket_2: 12452
Critical_ROB_Stalls_Percent_8_Bucket_3: 15511
Non-critical_ROB_Stalls_Percent_8_Bucket_3: 5085
Critical_ROB_Stalls_Percent_8_Bucket_4: 11291
Non-critical_ROB_Stalls_Percent_8_Bucket_4: 4300
Critical_ROB_Stalls_Percent_8_Bucket_5: 13161
Non-critical_ROB_Stalls_Percent_8_Bucket_5: 6400
Critical_ROB_Stalls_Percent_8_Bucket_6: 39280
Non-critical_ROB_Stalls_Percent_8_Bucket_6: 12889
Average ROB occupancy Load Stall Begin: 20.5499
Average ROB occupancy Load Stall End: 26.3994
Min ROB occupancy Load Stall Begin: 1
Max ROB occupancy Load Stall Begin: 352
Min ROB occupancy Load Stall End: 1
Max ROB occupancy Load Stall End: 352
Average ROB occupancy Critical Load Stall Begin: -nan
Average ROB occupancy Critical Load Stall End: -nan
Min ROB occupancy Critical Load Stall Begin: 400
Max ROB occupancy Critical Load Stall Begin: 0
Min ROB occupancy Critical Load Stall End: 400
Max ROB occupancy Critical Load Stall End: 0
 ROB Load Stall Begin Bucket Count 0: 3257173
 ROB Load Stall End Bucket Count 0: 3136759
 ROB Critical Load Stall Begin Bucket Count 0: 0
 ROB Critical Load Stall End Bucket Count 0: 0
 ROB Load Stall Begin Bucket Count 1: 156068
 ROB Load Stall End Bucket Count 1: 253112
 ROB Critical Load Stall Begin Bucket Count 1: 0
 ROB Critical Load Stall End Bucket Count 1: 0
 ROB Load Stall Begin Bucket Count 2: 25131
 ROB Load Stall End Bucket Count 2: 37846
 ROB Critical Load Stall Begin Bucket Count 2: 0
 ROB Critical Load Stall End Bucket Count 2: 0
 ROB Load Stall Begin Bucket Count 3: 17573
 ROB Load Stall End Bucket Count 3: 20596
 ROB Critical Load Stall Begin Bucket Count 3: 0
 ROB Critical Load Stall End Bucket Count 3: 0
 ROB Load Stall Begin Bucket Count 4: 17286
 ROB Load Stall End Bucket Count 4: 15591
 ROB Critical Load Stall Begin Bucket Count 4: 0
 ROB Critical Load Stall End Bucket Count 4: 0
 ROB Load Stall Begin Bucket Count 5: 22921
 ROB Load Stall End Bucket Count 5: 19561
 ROB Critical Load Stall Begin Bucket Count 5: 0
 ROB Critical Load Stall End Bucket Count 5: 0
 ROB Load Stall Begin Bucket Count 6: 39482
 ROB Load Stall End Bucket Count 6: 52169
 ROB Critical Load Stall Begin Bucket Count 6: 0
 ROB Critical Load Stall End Bucket Count 6: 0
PIST Tag Read Accesses: 884948
PIST Read Accesses: 442474
PIST Tag Write Accesses: 884948
PIST Write Accesses: 442474
Criticality detector called times: 994503
Max global_stall_cycles_count: 7139293
Threshold Modified: 1 times, factor: -1
Sturdy critical IP cache stats: 
 Unused entries: 0
CIC Tag Read Accesses: 0
CIC Read Accesses: 0
CIC Tag Write Accesses: 0
CIC Write Accesses: 0
Wobbly critical IP cache stats: 
 Unused entries: 101
CIC Tag Read Accesses: 54836417
CIC Read Accesses: 0
CIC Tag Write Accesses: 8713
CIC Write Accesses: 0
ITLB TOTAL     ACCESS:    8528838  HIT:    8001884  MISS:     526954  HIT %:    93.8215  MISS %:     6.1785   MPKI: 10.5391
ITLB LOAD TRANSLATION ACCESS:    8528838  HIT:    8001884  MISS:     526954  HIT %:    93.8215  MISS %:     6.1785   MPKI: 10.5391
ITLB PREFETCH  REQUESTED:          0  ISSUED:          0  USEFUL:          0  USELESS:          0
ITLB USEFUL LOAD PREFETCHES:          0 PREFETCH ISSUED TO LOWER LEVEL:          0  ACCURACY: -nan
ITLB TIMELY PREFETCHES:          0 LATE PREFETCHES: 0 DROPPED PREFETCHES: 0
ITLB PREFETCHES SAME FILL-ORIGIN LEVEL: 0 DIFFERENT FILL-ORIGIN LEVEL: 0
ITLB AVERAGE MISS LATENCY: 32.9602 cycles
ITLB RQ	ACCESS:    9320046	FORWARD:          0	MERGED:     591406	TO_CACHE:    8728640

DTLB TOTAL     ACCESS:    5112098  HIT:    4183180  MISS:     928918  HIT %:     81.829  MISS %:     18.171   MPKI: 18.5784
DTLB LOAD TRANSLATION ACCESS:    5112098  HIT:    4183180  MISS:     928918  HIT %:     81.829  MISS %:     18.171   MPKI: 18.5784
DTLB PREFETCH  REQUESTED:          0  ISSUED:          0  USEFUL:          0  USELESS:          0
DTLB USEFUL LOAD PREFETCHES:          0 PREFETCH ISSUED TO LOWER LEVEL:          0  ACCURACY: -nan
DTLB TIMELY PREFETCHES:          0 LATE PREFETCHES: 0 DROPPED PREFETCHES: 0
DTLB PREFETCHES SAME FILL-ORIGIN LEVEL: 0 DIFFERENT FILL-ORIGIN LEVEL: 0
DTLB AVERAGE MISS LATENCY: 35.5034 cycles
DTLB RQ	ACCESS:    6188717	FORWARD:          0	MERGED:     934095	TO_CACHE:    5254622

STLB TOTAL     ACCESS:    1703691  HIT:     547552  MISS:    1156139  HIT %:    32.1392  MISS %:    67.8608   MPKI: 23.1228
STLB LOAD TRANSLATION ACCESS:    1455872  HIT:     306691  MISS:    1149181  HIT %:    21.0658  MISS %:    78.9342   MPKI: 22.9836
STLB TRANSLATION FROM L1D PREFETCHER ACCESS:     247819  HIT:     240861  MISS:       6958  HIT %:    97.1923  MISS %:    2.80769   MPKI: 0.13916
STLB PREFETCH  REQUESTED:          0  ISSUED:          0  USEFUL:       5421  USELESS:       1531
STLB USEFUL LOAD PREFETCHES:       5421 PREFETCH ISSUED TO LOWER LEVEL:          0  ACCURACY: inf
STLB TIMELY PREFETCHES:       5421 LATE PREFETCHES: 0 DROPPED PREFETCHES: 0
STLB PREFETCHES SAME FILL-ORIGIN LEVEL: 0 DIFFERENT FILL-ORIGIN LEVEL: 0
STLB AVERAGE MISS LATENCY: 32.2787 cycles
STLB RQ	ACCESS:    1788770	FORWARD:          0	MERGED:      84951	TO_CACHE:    1703819

STLB Hit, L1D data hit: 0
STLB Hit, L2C data hit: 0
STLB Hit, LLC data hit: 0
STLB Hit, LLC data miss: 0
STLB STLB hints to L2: 0
L1D TOTAL     ACCESS:    6364694  HIT:    5845266  MISS:     519428  HIT %:    91.8389  MISS %:    8.16108   MPKI: 10.3886
L1D LOAD      ACCESS:    4672491  HIT:    4485724  MISS:     186767  HIT %:    96.0028  MISS %:    3.99716   MPKI: 3.73534
L1D RFO       ACCESS:    1367618  HIT:    1326867  MISS:      40751  HIT %:    97.0203  MISS %:    2.97971   MPKI: 0.81502
L1D PREFETCH  ACCESS:     324585  HIT:      32675  MISS:     291910  HIT %:    10.0667  MISS %:    89.9333   MPKI: 5.8382
L1D PREFETCH  REQUESTED:     665830  ISSUED:     665802  USEFUL:     262964  USELESS:      28923
L1D USEFUL LOAD PREFETCHES:     262964 PREFETCH ISSUED TO LOWER LEVEL:     296598  ACCURACY: 88.6601
L1D TIMELY PREFETCHES:     262964 LATE PREFETCHES: 4681 DROPPED PREFETCHES: 0
L1D PREFETCHES SAME FILL-ORIGIN LEVEL: 296598 DIFFERENT FILL-ORIGIN LEVEL: 0
L1D AVERAGE MISS LATENCY: 639952 cycles
L1D RQ	ACCESS:    7326912	FORWARD:          0	MERGED:    2617264	TO_CACHE:    4701100
L1D WQ	ACCESS:    1513454	FORWARD:       8554	MERGED:      25837	TO_CACHE:    1487617
L1D PQ	ACCESS:     332904	FORWARD:          0	MERGED:          0	TO_CACHE:     332898

L1D UNIQUE REGIONS ACCESSED: 0
L1D REGIONS CONFLICTS: 0
L1D Cross Page Prefetch Requests: 0
L1D Same Page Prefetch Requests: 856929
L1D ROI Sum of L1D PQ occupancy: 5646330
L1D PREFETCHES PUSHED FROM L2C: 0
L1I TOTAL     ACCESS:    9185808  HIT:    8750035  MISS:     435773  HIT %:     95.256  MISS %:    4.74398   MPKI: 8.71546
L1I LOAD      ACCESS:    9185808  HIT:    8750035  MISS:     435773  HIT %:     95.256  MISS %:    4.74398   MPKI: 8.71546
L1I PREFETCH  REQUESTED:          0  ISSUED:          0  USEFUL:          0  USELESS:          0
L1I USEFUL LOAD PREFETCHES:          0 PREFETCH ISSUED TO LOWER LEVEL:          0  ACCURACY: -nan
L1I TIMELY PREFETCHES:          0 LATE PREFETCHES: 0 DROPPED PREFETCHES: 0
L1I PREFETCHES SAME FILL-ORIGIN LEVEL: 0 DIFFERENT FILL-ORIGIN LEVEL: 0
L1I AVERAGE MISS LATENCY: 19.3984 cycles
L1I RQ	ACCESS:   15729415	FORWARD:          0	MERGED:    6409369	TO_CACHE:    9320046

BTB BRANCH_DIRECT_JUMP	ACCESS:          0  HIT:          0  MISS:          0
BTB BRANCH_INDIRECT	ACCESS:          0  HIT:          0  MISS:          0
BTB BRANCH_CONDITIONAL	ACCESS:          0  HIT:          0  MISS:          0
BTB BRANCH_DIRECT_CALL	ACCESS:          0  HIT:          0  MISS:          0
BTB BRANCH_INDIRECT_CALL	ACCESS:          0  HIT:          0  MISS:          0
BTB BRANCH_RETURN	ACCESS:          0  HIT:          0  MISS:          0
BTB BRANCH_OTHER ACCESS:          0  HIT:          0  MISS:          0

L2C TOTAL     ACCESS:    2349850  HIT:    1915563  MISS:     434287  HIT %:    81.5185  MISS %:    18.4815   MPKI: 8.68574
L2C LOAD      ACCESS:     617847  HIT:     499565  MISS:     118282  HIT %:    80.8558  MISS %:    19.1442   MPKI: 2.36564
L2C DATA LOAD MPKI: 1.9594
L2C INSTRUCTION LOAD MPKI: 0.40624
L2C RFO       ACCESS:      40737  HIT:      21310  MISS:      19427  HIT %:    52.3112  MISS %:    47.6888   MPKI: 0.38854
L2C PREFETCH  ACCESS:     296596  HIT:       9769  MISS:     286827  HIT %:    3.29371  MISS %:    96.7063   MPKI: 5.73654
L2C DATA PREFETCH MPKI: 5.73654
L2C INSTRUCTION PREFETCH MPKI: 0
L2C WRITEBACK ACCESS:     103844  HIT:     102745  MISS:       1099  HIT %:    98.9417  MISS %:    1.05832   MPKI: 0.02198
L2C LOAD TRANSLATION ACCESS:    1283855  HIT:    1275304  MISS:       8551  HIT %:     99.334  MISS %:   0.666041   MPKI: 0.17102
L2C TRANSLATION FROM L1D PREFETCHER ACCESS:       6971  HIT:       6870  MISS:        101  HIT %:    98.5511  MISS %:    1.44886   MPKI: 0.00202
L2C PREFETCH  REQUESTED:          0  ISSUED:          0  USEFUL:       1421  USELESS:     286349
L2C USEFUL LOAD PREFETCHES:       1421 PREFETCH ISSUED TO LOWER LEVEL:     286829  ACCURACY: 0.495417
L2C TIMELY PREFETCHES:       1421 LATE PREFETCHES: 0 DROPPED PREFETCHES: 0
L2C PREFETCHES SAME FILL-ORIGIN LEVEL: 0 DIFFERENT FILL-ORIGIN LEVEL: 0
L2C AVERAGE MISS LATENCY: 122.921 cycles
L2C RQ	ACCESS:    1949431	FORWARD:          0	MERGED:          0	TO_CACHE:    1949416
L2C WQ	ACCESS:     103844	FORWARD:         15	MERGED:          0	TO_CACHE:     103844
L2C PQ	ACCESS:     296598	FORWARD:          0	MERGED:          0	TO_CACHE:     296598

L2C Instructions Evicting Data 18801
L2C Translations Evicting Data 7937
L2C Data Evicting Data 378128
L2C Instructions Evicting Instructions 1089
L2C Translations Evicting Instructions 446
L2C Data Evicting Instructions 18266
L2C Instructions Evicting Translations 422
L2C Translations Evicting Translations 269
L2C Data Evicting Translations 7830
L2C Dense regions hint from L2: 0
PSCL5 TOTAL     ACCESS:    1156139  HIT:    1156139  MISS:          0  HIT %:        100  MISS %:          0   MPKI: 0
PSCL5 LOAD TRANSLATION ACCESS:    1149181  HIT:    1149181  MISS:          0  HIT %:        100  MISS %:          0   MPKI: 0
PSCL5 TRANSLATION FROM L1D PREFETCHER ACCESS:       6958  HIT:       6958  MISS:          0  HIT %:        100  MISS %:          0   MPKI: 0
PSCL5 PREFETCH  REQUESTED:          0  ISSUED:          0  USEFUL:          0  USELESS:          0
PSCL5 USEFUL LOAD PREFETCHES:          0 PREFETCH ISSUED TO LOWER LEVEL:          0  ACCURACY: -nan
PSCL5 TIMELY PREFETCHES:          0 LATE PREFETCHES: 0 DROPPED PREFETCHES: 0
PSCL5 PREFETCHES SAME FILL-ORIGIN LEVEL: 0 DIFFERENT FILL-ORIGIN LEVEL: 0

PSCL4 TOTAL     ACCESS:    1156139  HIT:    1156139  MISS:          0  HIT %:        100  MISS %:          0   MPKI: 0
PSCL4 LOAD TRANSLATION ACCESS:    1149181  HIT:    1149181  MISS:          0  HIT %:        100  MISS %:          0   MPKI: 0
PSCL4 TRANSLATION FROM L1D PREFETCHER ACCESS:       6958  HIT:       6958  MISS:          0  HIT %:        100  MISS %:          0   MPKI: 0
PSCL4 PREFETCH  REQUESTED:          0  ISSUED:          0  USEFUL:          0  USELESS:          0
PSCL4 USEFUL LOAD PREFETCHES:          0 PREFETCH ISSUED TO LOWER LEVEL:          0  ACCURACY: -nan
PSCL4 TIMELY PREFETCHES:          0 LATE PREFETCHES: 0 DROPPED PREFETCHES: 0
PSCL4 PREFETCHES SAME FILL-ORIGIN LEVEL: 0 DIFFERENT FILL-ORIGIN LEVEL: 0

PSCL3 TOTAL     ACCESS:    1155777  HIT:    1155584  MISS:        193  HIT %:    99.9833  MISS %:  0.0166987   MPKI: 0.00386
PSCL3 LOAD TRANSLATION ACCESS:    1148821  HIT:    1148628  MISS:        193  HIT %:    99.9832  MISS %:  0.0167998   MPKI: 0.00386
PSCL3 TRANSLATION FROM L1D PREFETCHER ACCESS:       6956  HIT:       6956  MISS:          0  HIT %:        100  MISS %:          0   MPKI: 0
PSCL3 PREFETCH  REQUESTED:          0  ISSUED:          0  USEFUL:          0  USELESS:          0
PSCL3 USEFUL LOAD PREFETCHES:          0 PREFETCH ISSUED TO LOWER LEVEL:          0  ACCURACY: -nan
PSCL3 TIMELY PREFETCHES:          0 LATE PREFETCHES: 0 DROPPED PREFETCHES: 0
PSCL3 PREFETCHES SAME FILL-ORIGIN LEVEL: 0 DIFFERENT FILL-ORIGIN LEVEL: 0

PSCL2 TOTAL     ACCESS:    1156139  HIT:    1021476  MISS:     134663  HIT %:    88.3524  MISS %:    11.6476   MPKI: 2.69326
PSCL2 LOAD TRANSLATION ACCESS:    1149194  HIT:    1014531  MISS:     134663  HIT %:     88.282  MISS %:     11.718   MPKI: 2.69326
PSCL2 TRANSLATION FROM L1D PREFETCHER ACCESS:       6945  HIT:       6945  MISS:          0  HIT %:        100  MISS %:          0   MPKI: 0
PSCL2 PREFETCH  REQUESTED:          0  ISSUED:          0  USEFUL:          0  USELESS:          0
PSCL2 USEFUL LOAD PREFETCHES:          0 PREFETCH ISSUED TO LOWER LEVEL:          0  ACCURACY: -nan
PSCL2 TIMELY PREFETCHES:          0 LATE PREFETCHES: 0 DROPPED PREFETCHES: 0
PSCL2 PREFETCHES SAME FILL-ORIGIN LEVEL: 0 DIFFERENT FILL-ORIGIN LEVEL: 0

LLC TOTAL     ACCESS:     485595  HIT:      96546  MISS:     389049  HIT %:     19.882  MISS %:     80.118   MPKI: 7.78098
LLC LOAD      ACCESS:     118282  HIT:      34965  MISS:      83317  HIT %:    29.5607  MISS %:    70.4393   MPKI: 1.66634
LLC RFO       ACCESS:      19427  HIT:       3844  MISS:      15583  HIT %:    19.7869  MISS %:    80.2131   MPKI: 0.31166
LLC PREFETCH  ACCESS:     286827  HIT:       4551  MISS:     282276  HIT %:    1.58667  MISS %:    98.4133   MPKI: 5.64552
LLC WRITEBACK ACCESS:      52407  HIT:      50230  MISS:       2177  HIT %:     95.846  MISS %:    4.15403   MPKI: 0.04354
LLC LOAD TRANSLATION ACCESS:       8551  HIT:       2956  MISS:       5595  HIT %:    34.5691  MISS %:    65.4309   MPKI: 0.1119
LLC TRANSLATION FROM L1D PREFETCHER ACCESS:        101  HIT:          0  MISS:        101  HIT %:          0  MISS %:        100   MPKI: 0.00202
LLC PREFETCH  REQUESTED:          0  ISSUED:          0  USEFUL:        582  USELESS:     285687
LLC USEFUL LOAD PREFETCHES:        582 PREFETCH ISSUED TO LOWER LEVEL:     282277  ACCURACY: 0.20618
LLC TIMELY PREFETCHES:        582 LATE PREFETCHES: 0 DROPPED PREFETCHES: 0
LLC PREFETCHES SAME FILL-ORIGIN LEVEL: 0 DIFFERENT FILL-ORIGIN LEVEL: 0
LLC AVERAGE MISS LATENCY: 103.381 cycles
LLC RQ	ACCESS:     146361	FORWARD:          0	MERGED:          0	TO_CACHE:     146361
LLC WQ	ACCESS:      52407	FORWARD:          0	MERGED:          0	TO_CACHE:      52407
LLC PQ	ACCESS:     286829	FORWARD:          0	MERGED:          0	TO_CACHE:     286829

LLC Dense regions hint to LLC: 0

RAW hits: 80958
Loads Generated: 7407871
Loads sent to L1D: 7326912
Stores Generated: 1513454
Stores sent to L1D: 1513454
Major fault: 0 Minor fault: 17128
Allocated PAGES: 17128

stream: 
stream:times selected: 837588
stream:pref_filled: 619856
stream:pref_useful: 502183
stream:pref_late: 5062
stream:misses: 1467
stream:misses_by_poll: 0

CS: 
CS:times selected: 630190
CS:pref_filled: 8254
CS:pref_useful: 6937
CS:pref_late: 288
CS:misses: 34276
CS:misses_by_poll: 34

CPLX: 
CPLX:times selected: 207031
CPLX:pref_filled: 4002
CPLX:pref_useful: 741
CPLX:pref_late: 58
CPLX:misses: 7276
CPLX:misses_by_poll: 3

NL_L1: 
NL:times selected: 247
NL:pref_filled: 45
NL:pref_useful: 15
NL:pref_late: 2
NL:misses: 80
NL:misses_by_poll: 0

total selections: 1675056
total_filled: 291910
total_useful: 262964
total_late: 5668
total_polluted: 37
total_misses_after_warmup: 39170
conflicts: 13548
Degree Incremented Times: 54447
Degree Decremented Times: 146904

L1 IP Table Write Accesses: 2682271
L1 IP Table Read Accesses: 2668723
L1 RST Write Accesses: 286292
L1 RST Read Accesses: 572584
L1 CSPT Write Accesses: 286292
L1 CSPT Read Accesses: 297190
L1 RR Filter Tag Write Accesses: 332932
L1 RR Filter Tag Read Accesses: 71052148
L1 IP Table Tag Write Accesses: 2701837
L1 IP Table Tag Read Accesses: 2701837
L1 RST Tag Write Accesses: 0
L1 RST Tag Read Accesses: 2574221
L1 RR Filter Write Accesses: 0
L1 RR Filter Read Accesses: 2422932
test: 33835

DRAM Statistics
 CHANNEL 0
 RQ ROW_BUFFER_HIT:     278017  ROW_BUFFER_MISS:     108854
 DBUS_CONGESTED:        249
 WQ ROW_BUFFER_HIT:      23264  ROW_BUFFER_MISS:      12842  FULL:          0

 AVG_CONGESTED_CYCLE: 4
 All warmup complete: 2
Channel 0 Bank busy for read cycles: 0
Channel 0 Bank busy for write cycles: 0
Channel 0
Rank 0
0banks busy for read cycles: 58512937
0banks busy for write cycles: 21922
1banks busy for read cycles: 17326337
1banks busy for write cycles: 4101476
2banks busy for read cycles: 1836835
2banks busy for write cycles: 739192
3banks busy for read cycles: 753696
3banks busy for write cycles: 292461
4banks busy for read cycles: 480859
4banks busy for write cycles: 137919
5banks busy for read cycles: 301283
5banks busy for write cycles: 56437
6banks busy for read cycles: 293811
6banks busy for write cycles: 23272
7banks busy for read cycles: 197779
7banks busy for write cycles: 12774
8banks busy for read cycles: 49095
8banks busy for write cycles: 4929

CPU 0 Branch Prediction Accuracy: 99.5713% MPKI: 0.6457 Average ROB Occupancy at Mispredict: 42.1201
Branch types
NOT_BRANCH: 0 0%
BRANCH_DIRECT_JUMP: 0 0%
BRANCH_INDIRECT: 0 0%
BRANCH_CONDITIONAL: 0 0%
BRANCH_DIRECT_CALL: 0 0%
BRANCH_INDIRECT_CALL: 0 0%
BRANCH_RETURN: 0 0%
BRANCH_OTHER: 0 0%

DRAM PAGES: 1048576
Allocated PAGES: 17128
