
*** ChampSim Multicore Out-of-Order Simulator ***

Warmup Instructions: 50000000
Simulation Instructions: 50000000
Number of CPUs: 1
LLC sets: 2048
LLC ways: 16
Off-chip DRAM Size: 4096 MB Channels: 1 Width: 64-bit Data Rate: 6400 MT/s
CPU 0 runs ../cloudsuite_traces//streaming_phase1_core2.trace.gz
.gz
NUM_OF_IPS_IN_CRITICAL_IP_TRAINING: 64
NUM_OF_CRITICAL_IP_TRAINING_TABLE_WAYS: 2
NUM_OF_CRITICAL_IP_TRAINING_TABLE_SETS: 32
WOBBLY_CRITICAL_IP_CACHE_SETS: 32
WOBBLY_CRITICAL_IP_CACHE_WAYS: 4
BTB has LRU replacement policy
ITLB has LRU replacement policy
DTLB has LRU replacement policy
STLB has LRU replacement policy
L1I has LRU replacement policy
L1D has LRU replacement policy
Bingo PHT WAYS: 16 and PHT_SIZE: 16384
Initialize SRRIP state for L2C
Initialize DRRIP state for LLC
UNIQUE_ASID[0] = €
UNIQUE_ASID[1] = 
Heartbeat CPU 0 instructions: 10000000 cycles: 3364826 heartbeat IPC: 2.97192 cumulative IPC: 2.97192 (Simulation time: 0 hr 2 min 42 sec) 
Heartbeat CPU 0 instructions: 20000001 cycles: 6701193 heartbeat IPC: 2.99727 cumulative IPC: 2.98454 (Simulation time: 0 hr 4 min 42 sec) 
Heartbeat CPU 0 instructions: 30000000 cycles: 10030272 heartbeat IPC: 3.00383 cumulative IPC: 2.99095 (Simulation time: 0 hr 6 min 34 sec) 
Heartbeat CPU 0 instructions: 40000000 cycles: 13393674 heartbeat IPC: 2.97318 cumulative IPC: 2.98648 (Simulation time: 0 hr 8 min 55 sec) 
Heartbeat CPU 0 instructions: 50000000 cycles: 16848811 heartbeat IPC: 2.89424 cumulative IPC: 2.96757 (Simulation time: 0 hr 12 min 8 sec) 

Warmup complete CPU 0 instructions: 50000004 cycles: 16848812 (Simulation time: 0 hr 12 min 8 sec) 

% increase in all ip prefetch 393.957
% increase in all ip prefetch 0.205222
Heartbeat CPU 0 instructions: 60000001 cycles: 34791094 heartbeat IPC: 0.557343 cumulative IPC: 0.557343 (Simulation time: 0 hr 16 min 48 sec) 
Heartbeat CPU 0 instructions: 70000001 cycles: 50806388 heartbeat IPC: 0.624403 cumulative IPC: 0.58897 (Simulation time: 0 hr 20 min 0 sec) 
Heartbeat CPU 0 instructions: 80000002 cycles: 67999060 heartbeat IPC: 0.581643 cumulative IPC: 0.586507 (Simulation time: 0 hr 23 min 36 sec) 
Heartbeat CPU 0 instructions: 90000003 cycles: 86214414 heartbeat IPC: 0.548987 cumulative IPC: 0.576655 (Simulation time: 0 hr 27 min 43 sec) 
Heartbeat CPU 0 instructions: 100000003 cycles: 104424099 heartbeat IPC: 0.549158 cumulative IPC: 0.570937 (Simulation time: 0 hr 31 min 47 sec) 
Finished CPU 0 instructions: 50000003 cycles: 87575288 cumulative IPC: 0.570937 (Simulation time: 0 hr 31 min 47 sec) 

ChampSim completed all CPUs

Region of Interest Statistics

CPU 0 cumulative IPC: 0.570937 instructions: 50000003 cycles: 87575288

CPU 0 Average Load ROB stall cycles: 7.49495e+06
CPU 0 Fraction of times ROB stalled by Loads: 13.8647
CPU 0 Percentage of Load stall cycles in Total stall cycles: 1.206e+08
 Total stall cycles: 51335014
 Total load stall cycles: 61910089567525
CPU 0 NUM of IPS identified critical: 0
CPU 0 Num of Load IPs stalling ROB: 2132
Threshold modification factor: -1
Max PIST entries: 64
Min PIST entries: 0
Avg PIST entries: 29.97
Critical IP stalls, total frequency: 0
rob stalling non-critical load ip: 236068 freq: 40
rob stalling non-critical load ip: 236144 freq: 127
rob stalling non-critical load ip: 236148 freq: 23
rob stalling non-critical load ip: 241788 freq: 28
rob stalling non-critical load ip: 241796 freq: 1047
rob stalling non-critical load ip: 241836 freq: 16
rob stalling non-critical load ip: 241972 freq: 48
rob stalling non-critical load ip: 241992 freq: 33
rob stalling non-critical load ip: 241996 freq: 43
rob stalling non-critical load ip: 242000 freq: 10
rob stalling non-critical load ip: 242020 freq: 14
rob stalling non-critical load ip: 242148 freq: 29
rob stalling non-critical load ip: 242156 freq: 75
rob stalling non-critical load ip: 242176 freq: 77
rob stalling non-critical load ip: 242180 freq: 1012
rob stalling non-critical load ip: 242184 freq: 168
rob stalling non-critical load ip: 242208 freq: 48
rob stalling non-critical load ip: 242224 freq: 22
rob stalling non-critical load ip: 242232 freq: 89
rob stalling non-critical load ip: 245668 freq: 422
rob stalling non-critical load ip: 245676 freq: 73
rob stalling non-critical load ip: 245716 freq: 6
rob stalling non-critical load ip: 245732 freq: 13
rob stalling non-critical load ip: 245792 freq: 15
rob stalling non-critical load ip: 245800 freq: 63
rob stalling non-critical load ip: 245804 freq: 2
rob stalling non-critical load ip: 245848 freq: 199
rob stalling non-critical load ip: 245860 freq: 9
rob stalling non-critical load ip: 245864 freq: 12
rob stalling non-critical load ip: 245876 freq: 23
rob stalling non-critical load ip: 246008 freq: 19
rob stalling non-critical load ip: 246168 freq: 186
rob stalling non-critical load ip: 246204 freq: 211
rob stalling non-critical load ip: 246216 freq: 186
rob stalling non-critical load ip: 246244 freq: 941
rob stalling non-critical load ip: 246344 freq: 77
rob stalling non-critical load ip: 287024 freq: 12
rob stalling non-critical load ip: 287060 freq: 24
rob stalling non-critical load ip: 287088 freq: 23
rob stalling non-critical load ip: 287108 freq: 13
rob stalling non-critical load ip: 287112 freq: 3
rob stalling non-critical load ip: 287220 freq: 26
rob stalling non-critical load ip: 287244 freq: 12
rob stalling non-critical load ip: 287248 freq: 260
rob stalling non-critical load ip: 287268 freq: 14
rob stalling non-critical load ip: 300124 freq: 8
rob stalling non-critical load ip: 300172 freq: 1
rob stalling non-critical load ip: 300836 freq: 84
rob stalling non-critical load ip: 300840 freq: 152
rob stalling non-critical load ip: 300848 freq: 183
rob stalling non-critical load ip: 300912 freq: 151
rob stalling non-critical load ip: 300936 freq: 10
rob stalling non-critical load ip: 300964 freq: 537
rob stalling non-critical load ip: 301164 freq: 2
rob stalling non-critical load ip: 301524 freq: 8
rob stalling non-critical load ip: 301712 freq: 76
rob stalling non-critical load ip: 301716 freq: 200
rob stalling non-critical load ip: 301720 freq: 51
rob stalling non-critical load ip: 318120 freq: 1
rob stalling non-critical load ip: 318132 freq: 4
rob stalling non-critical load ip: 318636 freq: 2
rob stalling non-critical load ip: 319080 freq: 1
rob stalling non-critical load ip: 319220 freq: 2
rob stalling non-critical load ip: 323496 freq: 1
rob stalling non-critical load ip: 329660 freq: 30
rob stalling non-critical load ip: 329676 freq: 10
rob stalling non-critical load ip: 341868 freq: 436
rob stalling non-critical load ip: 341884 freq: 10
rob stalling non-critical load ip: 341888 freq: 1
rob stalling non-critical load ip: 341916 freq: 11
rob stalling non-critical load ip: 341940 freq: 3
rob stalling non-critical load ip: 341944 freq: 342
rob stalling non-critical load ip: 342004 freq: 229
rob stalling non-critical load ip: 342068 freq: 8
rob stalling non-critical load ip: 352336 freq: 1
rob stalling non-critical load ip: 352920 freq: 11
rob stalling non-critical load ip: 353000 freq: 28
rob stalling non-critical load ip: 353036 freq: 70
rob stalling non-critical load ip: 353040 freq: 4
rob stalling non-critical load ip: 353052 freq: 6
rob stalling non-critical load ip: 353076 freq: 12
rob stalling non-critical load ip: 353216 freq: 9
rob stalling non-critical load ip: 353220 freq: 550
rob stalling non-critical load ip: 353236 freq: 21
rob stalling non-critical load ip: 353260 freq: 6
rob stalling non-critical load ip: 353312 freq: 127
rob stalling non-critical load ip: 353316 freq: 9
rob stalling non-critical load ip: 353332 freq: 5
rob stalling non-critical load ip: 353356 freq: 10
rob stalling non-critical load ip: 353392 freq: 753
rob stalling non-critical load ip: 353492 freq: 35
rob stalling non-critical load ip: 353524 freq: 12
rob stalling non-critical load ip: 353540 freq: 31
rob stalling non-critical load ip: 353544 freq: 275
rob stalling non-critical load ip: 353548 freq: 10
rob stalling non-critical load ip: 353564 freq: 138
rob stalling non-critical load ip: 353604 freq: 16
rob stalling non-critical load ip: 353636 freq: 34
rob stalling non-critical load ip: 353640 freq: 91
rob stalling non-critical load ip: 353652 freq: 6
rob stalling non-critical load ip: 353696 freq: 8
rob stalling non-critical load ip: 353720 freq: 1
rob stalling non-critical load ip: 353736 freq: 3
rob stalling non-critical load ip: 353744 freq: 2
rob stalling non-critical load ip: 353784 freq: 36
rob stalling non-critical load ip: 353788 freq: 94
rob stalling non-critical load ip: 353828 freq: 278
rob stalling non-critical load ip: 353832 freq: 12
rob stalling non-critical load ip: 353836 freq: 2
rob stalling non-critical load ip: 353852 freq: 2
rob stalling non-critical load ip: 353880 freq: 15
rob stalling non-critical load ip: 353904 freq: 5
rob stalling non-critical load ip: 353912 freq: 13
rob stalling non-critical load ip: 353948 freq: 22
rob stalling non-critical load ip: 353960 freq: 6
rob stalling non-critical load ip: 353984 freq: 5
rob stalling non-critical load ip: 354164 freq: 101
rob stalling non-critical load ip: 354176 freq: 30
rob stalling non-critical load ip: 354200 freq: 3
rob stalling non-critical load ip: 354212 freq: 3
rob stalling non-critical load ip: 354712 freq: 22
rob stalling non-critical load ip: 354716 freq: 74
rob stalling non-critical load ip: 354728 freq: 5
rob stalling non-critical load ip: 354740 freq: 126
rob stalling non-critical load ip: 354744 freq: 3
rob stalling non-critical load ip: 354748 freq: 2
rob stalling non-critical load ip: 354752 freq: 3
rob stalling non-critical load ip: 354764 freq: 123
rob stalling non-critical load ip: 354776 freq: 124
rob stalling non-critical load ip: 516668 freq: 50
rob stalling non-critical load ip: 516676 freq: 13
rob stalling non-critical load ip: 516976 freq: 529
rob stalling non-critical load ip: 517352 freq: 21
rob stalling non-critical load ip: 517396 freq: 7
rob stalling non-critical load ip: 517404 freq: 4
rob stalling non-critical load ip: 589036 freq: 4
rob stalling non-critical load ip: 589052 freq: 2
rob stalling non-critical load ip: 589072 freq: 1
rob stalling non-critical load ip: 589084 freq: 5
rob stalling non-critical load ip: 589120 freq: 13
rob stalling non-critical load ip: 589136 freq: 10
rob stalling non-critical load ip: 589140 freq: 2
rob stalling non-critical load ip: 589144 freq: 59
rob stalling non-critical load ip: 589156 freq: 7
rob stalling non-critical load ip: 589180 freq: 11
rob stalling non-critical load ip: 589212 freq: 18
rob stalling non-critical load ip: 589228 freq: 1
rob stalling non-critical load ip: 589236 freq: 194
rob stalling non-critical load ip: 589240 freq: 51
rob stalling non-critical load ip: 589252 freq: 79
rob stalling non-critical load ip: 589256 freq: 16
rob stalling non-critical load ip: 589260 freq: 1
rob stalling non-critical load ip: 589284 freq: 62
rob stalling non-critical load ip: 589288 freq: 16
rob stalling non-critical load ip: 589388 freq: 1
rob stalling non-critical load ip: 589392 freq: 24
rob stalling non-critical load ip: 589908 freq: 8
rob stalling non-critical load ip: 589912 freq: 15
rob stalling non-critical load ip: 589916 freq: 9
rob stalling non-critical load ip: 589932 freq: 9
rob stalling non-critical load ip: 589948 freq: 46
rob stalling non-critical load ip: 589960 freq: 18
rob stalling non-critical load ip: 589964 freq: 5
rob stalling non-critical load ip: 590000 freq: 24
rob stalling non-critical load ip: 590012 freq: 53
rob stalling non-critical load ip: 590036 freq: 17
rob stalling non-critical load ip: 590040 freq: 61
rob stalling non-critical load ip: 590064 freq: 16
rob stalling non-critical load ip: 590128 freq: 6
rob stalling non-critical load ip: 590132 freq: 2
rob stalling non-critical load ip: 590148 freq: 16
rob stalling non-critical load ip: 590200 freq: 1
rob stalling non-critical load ip: 590216 freq: 2
rob stalling non-critical load ip: 590352 freq: 5
rob stalling non-critical load ip: 591084 freq: 3
rob stalling non-critical load ip: 722812 freq: 3
rob stalling non-critical load ip: 722816 freq: 9
rob stalling non-critical load ip: 722832 freq: 18
rob stalling non-critical load ip: 722896 freq: 66
rob stalling non-critical load ip: 722900 freq: 4
rob stalling non-critical load ip: 722920 freq: 7
rob stalling non-critical load ip: 846400 freq: 2
rob stalling non-critical load ip: 846404 freq: 7
rob stalling non-critical load ip: 852948 freq: 8
rob stalling non-critical load ip: 852968 freq: 1
rob stalling non-critical load ip: 852988 freq: 5
rob stalling non-critical load ip: 854916 freq: 1
rob stalling non-critical load ip: 856100 freq: 49
rob stalling non-critical load ip: 856148 freq: 12
rob stalling non-critical load ip: 856428 freq: 4
rob stalling non-critical load ip: 857344 freq: 1097
rob stalling non-critical load ip: 857508 freq: 1347
rob stalling non-critical load ip: 857592 freq: 36
rob stalling non-critical load ip: 857616 freq: 221
rob stalling non-critical load ip: 857628 freq: 7
rob stalling non-critical load ip: 857680 freq: 148
rob stalling non-critical load ip: 857820 freq: 22
rob stalling non-critical load ip: 857892 freq: 17
rob stalling non-critical load ip: 857976 freq: 5
rob stalling non-critical load ip: 858176 freq: 2
rob stalling non-critical load ip: 858192 freq: 1
rob stalling non-critical load ip: 858372 freq: 11
rob stalling non-critical load ip: 858380 freq: 306
rob stalling non-critical load ip: 858396 freq: 13
rob stalling non-critical load ip: 858416 freq: 12
rob stalling non-critical load ip: 858432 freq: 36
rob stalling non-critical load ip: 858436 freq: 12
rob stalling non-critical load ip: 858464 freq: 19
rob stalling non-critical load ip: 858468 freq: 55
rob stalling non-critical load ip: 858552 freq: 15
rob stalling non-critical load ip: 858556 freq: 19
rob stalling non-critical load ip: 858620 freq: 1826
rob stalling non-critical load ip: 858624 freq: 5
rob stalling non-critical load ip: 858696 freq: 1792
rob stalling non-critical load ip: 858868 freq: 2
rob stalling non-critical load ip: 858880 freq: 47
rob stalling non-critical load ip: 858896 freq: 10
rob stalling non-critical load ip: 858900 freq: 75
rob stalling non-critical load ip: 858904 freq: 45
rob stalling non-critical load ip: 858912 freq: 13
rob stalling non-critical load ip: 858916 freq: 74
rob stalling non-critical load ip: 858964 freq: 20
rob stalling non-critical load ip: 858984 freq: 40
rob stalling non-critical load ip: 859076 freq: 672
rob stalling non-critical load ip: 859088 freq: 168
rob stalling non-critical load ip: 859092 freq: 8
rob stalling non-critical load ip: 859100 freq: 14
rob stalling non-critical load ip: 859316 freq: 26
rob stalling non-critical load ip: 859328 freq: 15
rob stalling non-critical load ip: 859576 freq: 2
rob stalling non-critical load ip: 859632 freq: 18
rob stalling non-critical load ip: 859940 freq: 108
rob stalling non-critical load ip: 859960 freq: 25
rob stalling non-critical load ip: 859976 freq: 11
rob stalling non-critical load ip: 860000 freq: 1113
rob stalling non-critical load ip: 860132 freq: 948
rob stalling non-critical load ip: 860144 freq: 11
rob stalling non-critical load ip: 860504 freq: 1
rob stalling non-critical load ip: 860636 freq: 5
rob stalling non-critical load ip: 860708 freq: 17
rob stalling non-critical load ip: 861004 freq: 3
rob stalling non-critical load ip: 861084 freq: 2
rob stalling non-critical load ip: 862156 freq: 1372
rob stalling non-critical load ip: 862192 freq: 353
rob stalling non-critical load ip: 862232 freq: 935
rob stalling non-critical load ip: 862360 freq: 563
rob stalling non-critical load ip: 862384 freq: 184
rob stalling non-critical load ip: 862492 freq: 44
rob stalling non-critical load ip: 862504 freq: 9
rob stalling non-critical load ip: 862880 freq: 135
rob stalling non-critical load ip: 862896 freq: 3
rob stalling non-critical load ip: 862904 freq: 12
rob stalling non-critical load ip: 862916 freq: 1
rob stalling non-critical load ip: 863072 freq: 18
rob stalling non-critical load ip: 863124 freq: 48
rob stalling non-critical load ip: 863136 freq: 53
rob stalling non-critical load ip: 863260 freq: 16
rob stalling non-critical load ip: 863292 freq: 16
rob stalling non-critical load ip: 867796 freq: 3
rob stalling non-critical load ip: 881188 freq: 4
rob stalling non-critical load ip: 881224 freq: 5
rob stalling non-critical load ip: 881736 freq: 6
rob stalling non-critical load ip: 888332 freq: 91
rob stalling non-critical load ip: 906876 freq: 8
rob stalling non-critical load ip: 910004 freq: 120
rob stalling non-critical load ip: 910088 freq: 1871
rob stalling non-critical load ip: 914940 freq: 44
rob stalling non-critical load ip: 914968 freq: 151
rob stalling non-critical load ip: 915504 freq: 180
rob stalling non-critical load ip: 915516 freq: 622
rob stalling non-critical load ip: 915560 freq: 640
rob stalling non-critical load ip: 919464 freq: 46
rob stalling non-critical load ip: 919532 freq: 11
rob stalling non-critical load ip: 919544 freq: 6
rob stalling non-critical load ip: 919560 freq: 28
rob stalling non-critical load ip: 919624 freq: 20
rob stalling non-critical load ip: 919664 freq: 6
rob stalling non-critical load ip: 919668 freq: 34
rob stalling non-critical load ip: 919968 freq: 647
rob stalling non-critical load ip: 919976 freq: 343
rob stalling non-critical load ip: 919980 freq: 10
rob stalling non-critical load ip: 919984 freq: 2
rob stalling non-critical load ip: 920024 freq: 253
rob stalling non-critical load ip: 920040 freq: 65
rob stalling non-critical load ip: 920076 freq: 221
rob stalling non-critical load ip: 920108 freq: 19
rob stalling non-critical load ip: 920112 freq: 109
rob stalling non-critical load ip: 920148 freq: 35
rob stalling non-critical load ip: 920204 freq: 22
rob stalling non-critical load ip: 920216 freq: 14
rob stalling non-critical load ip: 920248 freq: 27
rob stalling non-critical load ip: 920320 freq: 4
rob stalling non-critical load ip: 920324 freq: 29
rob stalling non-critical load ip: 920344 freq: 1
rob stalling non-critical load ip: 920412 freq: 8
rob stalling non-critical load ip: 920440 freq: 21
rob stalling non-critical load ip: 920444 freq: 8
rob stalling non-critical load ip: 920512 freq: 9
rob stalling non-critical load ip: 920620 freq: 89
rob stalling non-critical load ip: 920732 freq: 26
rob stalling non-critical load ip: 920764 freq: 24
rob stalling non-critical load ip: 920856 freq: 16
rob stalling non-critical load ip: 920896 freq: 1
rob stalling non-critical load ip: 921224 freq: 1
rob stalling non-critical load ip: 921276 freq: 273
rob stalling non-critical load ip: 921300 freq: 807
rob stalling non-critical load ip: 921336 freq: 6
rob stalling non-critical load ip: 921408 freq: 44
rob stalling non-critical load ip: 921456 freq: 158
rob stalling non-critical load ip: 921460 freq: 190
rob stalling non-critical load ip: 921496 freq: 16
rob stalling non-critical load ip: 921520 freq: 176
rob stalling non-critical load ip: 921544 freq: 198
rob stalling non-critical load ip: 921568 freq: 39
rob stalling non-critical load ip: 921764 freq: 17
rob stalling non-critical load ip: 921768 freq: 665
rob stalling non-critical load ip: 921784 freq: 96
rob stalling non-critical load ip: 921804 freq: 9
rob stalling non-critical load ip: 921904 freq: 67
rob stalling non-critical load ip: 921920 freq: 11
rob stalling non-critical load ip: 921924 freq: 268
rob stalling non-critical load ip: 921948 freq: 47
rob stalling non-critical load ip: 921952 freq: 114
rob stalling non-critical load ip: 921968 freq: 10
rob stalling non-critical load ip: 922008 freq: 1538
rob stalling non-critical load ip: 922016 freq: 24
rob stalling non-critical load ip: 922484 freq: 2
rob stalling non-critical load ip: 922500 freq: 23
rob stalling non-critical load ip: 922504 freq: 3
rob stalling non-critical load ip: 922520 freq: 8
rob stalling non-critical load ip: 922544 freq: 18
rob stalling non-critical load ip: 922548 freq: 1144
rob stalling non-critical load ip: 922596 freq: 15
rob stalling non-critical load ip: 922612 freq: 7
rob stalling non-critical load ip: 922616 freq: 23
rob stalling non-critical load ip: 922624 freq: 3
rob stalling non-critical load ip: 922644 freq: 9
rob stalling non-critical load ip: 922648 freq: 122
rob stalling non-critical load ip: 922652 freq: 1
rob stalling non-critical load ip: 922672 freq: 20
rob stalling non-critical load ip: 922812 freq: 223
rob stalling non-critical load ip: 922868 freq: 8
rob stalling non-critical load ip: 922888 freq: 313
rob stalling non-critical load ip: 922924 freq: 17
rob stalling non-critical load ip: 923060 freq: 631
rob stalling non-critical load ip: 923064 freq: 596
rob stalling non-critical load ip: 923076 freq: 72
rob stalling non-critical load ip: 923080 freq: 744
rob stalling non-critical load ip: 923088 freq: 50
rob stalling non-critical load ip: 923096 freq: 7
rob stalling non-critical load ip: 923116 freq: 8
rob stalling non-critical load ip: 923816 freq: 50
rob stalling non-critical load ip: 923824 freq: 3
rob stalling non-critical load ip: 923832 freq: 7
rob stalling non-critical load ip: 930780 freq: 341
rob stalling non-critical load ip: 930796 freq: 12
rob stalling non-critical load ip: 930828 freq: 5
rob stalling non-critical load ip: 930832 freq: 19
rob stalling non-critical load ip: 930860 freq: 29
rob stalling non-critical load ip: 930864 freq: 4
rob stalling non-critical load ip: 931104 freq: 10
rob stalling non-critical load ip: 931172 freq: 31
rob stalling non-critical load ip: 931192 freq: 15
rob stalling non-critical load ip: 931200 freq: 28
rob stalling non-critical load ip: 931204 freq: 1
rob stalling non-critical load ip: 931224 freq: 24
rob stalling non-critical load ip: 931308 freq: 24
rob stalling non-critical load ip: 931320 freq: 124
rob stalling non-critical load ip: 931356 freq: 39
rob stalling non-critical load ip: 931360 freq: 2
rob stalling non-critical load ip: 931372 freq: 6
rob stalling non-critical load ip: 931380 freq: 116
rob stalling non-critical load ip: 931412 freq: 45
rob stalling non-critical load ip: 931428 freq: 1
rob stalling non-critical load ip: 931436 freq: 40
rob stalling non-critical load ip: 931848 freq: 3
rob stalling non-critical load ip: 931852 freq: 45
rob stalling non-critical load ip: 931896 freq: 8
rob stalling non-critical load ip: 931924 freq: 10
rob stalling non-critical load ip: 931940 freq: 15
rob stalling non-critical load ip: 931964 freq: 28
rob stalling non-critical load ip: 931968 freq: 68
rob stalling non-critical load ip: 932004 freq: 298
rob stalling non-critical load ip: 932012 freq: 5
rob stalling non-critical load ip: 932044 freq: 35
rob stalling non-critical load ip: 932056 freq: 5
rob stalling non-critical load ip: 932064 freq: 127
rob stalling non-critical load ip: 932072 freq: 133
rob stalling non-critical load ip: 932096 freq: 26
rob stalling non-critical load ip: 932124 freq: 2
rob stalling non-critical load ip: 938528 freq: 144
rob stalling non-critical load ip: 938540 freq: 34
rob stalling non-critical load ip: 938556 freq: 56
rob stalling non-critical load ip: 938612 freq: 88
rob stalling non-critical load ip: 938616 freq: 48
rob stalling non-critical load ip: 938644 freq: 9
rob stalling non-critical load ip: 938660 freq: 5
rob stalling non-critical load ip: 938668 freq: 33
rob stalling non-critical load ip: 938724 freq: 5
rob stalling non-critical load ip: 938756 freq: 40
rob stalling non-critical load ip: 938796 freq: 1
rob stalling non-critical load ip: 938860 freq: 14
rob stalling non-critical load ip: 938912 freq: 26
rob stalling non-critical load ip: 938928 freq: 5
rob stalling non-critical load ip: 939012 freq: 6
rob stalling non-critical load ip: 939204 freq: 19
rob stalling non-critical load ip: 944504 freq: 44
rob stalling non-critical load ip: 944536 freq: 28
rob stalling non-critical load ip: 944544 freq: 80
rob stalling non-critical load ip: 945012 freq: 4
rob stalling non-critical load ip: 945032 freq: 7
rob stalling non-critical load ip: 952748 freq: 146
rob stalling non-critical load ip: 952780 freq: 161
rob stalling non-critical load ip: 952796 freq: 46
rob stalling non-critical load ip: 952816 freq: 443
rob stalling non-critical load ip: 952856 freq: 10
rob stalling non-critical load ip: 952900 freq: 170
rob stalling non-critical load ip: 952916 freq: 165
rob stalling non-critical load ip: 952920 freq: 99
rob stalling non-critical load ip: 952932 freq: 2
rob stalling non-critical load ip: 952968 freq: 21
rob stalling non-critical load ip: 952984 freq: 43
rob stalling non-critical load ip: 953040 freq: 35
rob stalling non-critical load ip: 953056 freq: 2
rob stalling non-critical load ip: 953092 freq: 67
rob stalling non-critical load ip: 953116 freq: 2
rob stalling non-critical load ip: 953124 freq: 2
rob stalling non-critical load ip: 953128 freq: 5
rob stalling non-critical load ip: 953140 freq: 19
rob stalling non-critical load ip: 953144 freq: 13
rob stalling non-critical load ip: 953164 freq: 14
rob stalling non-critical load ip: 953196 freq: 6
rob stalling non-critical load ip: 953228 freq: 42
rob stalling non-critical load ip: 953336 freq: 63
rob stalling non-critical load ip: 953472 freq: 17
rob stalling non-critical load ip: 956308 freq: 112
rob stalling non-critical load ip: 956332 freq: 9
rob stalling non-critical load ip: 956340 freq: 24
rob stalling non-critical load ip: 959708 freq: 104
rob stalling non-critical load ip: 959720 freq: 7
rob stalling non-critical load ip: 959724 freq: 1
rob stalling non-critical load ip: 959744 freq: 5
rob stalling non-critical load ip: 959760 freq: 2
rob stalling non-critical load ip: 959768 freq: 4
rob stalling non-critical load ip: 959812 freq: 6
rob stalling non-critical load ip: 959864 freq: 7
rob stalling non-critical load ip: 959888 freq: 9
rob stalling non-critical load ip: 959976 freq: 15
rob stalling non-critical load ip: 1029576 freq: 988
rob stalling non-critical load ip: 1029596 freq: 423
rob stalling non-critical load ip: 1029612 freq: 14
rob stalling non-critical load ip: 1029628 freq: 205
rob stalling non-critical load ip: 1029652 freq: 29
rob stalling non-critical load ip: 1029672 freq: 147
rob stalling non-critical load ip: 1029684 freq: 11
rob stalling non-critical load ip: 1029688 freq: 3
rob stalling non-critical load ip: 1029720 freq: 50
rob stalling non-critical load ip: 1029740 freq: 177
rob stalling non-critical load ip: 1029776 freq: 350
rob stalling non-critical load ip: 1029812 freq: 16
rob stalling non-critical load ip: 1029816 freq: 68
rob stalling non-critical load ip: 1029832 freq: 27
rob stalling non-critical load ip: 1029844 freq: 7
rob stalling non-critical load ip: 1029980 freq: 11
rob stalling non-critical load ip: 1029996 freq: 11
rob stalling non-critical load ip: 1030008 freq: 13
rob stalling non-critical load ip: 1030128 freq: 28
rob stalling non-critical load ip: 1030144 freq: 984
rob stalling non-critical load ip: 1030160 freq: 49
rob stalling non-critical load ip: 1031328 freq: 10
rob stalling non-critical load ip: 1031356 freq: 12
rob stalling non-critical load ip: 1031360 freq: 7
rob stalling non-critical load ip: 1032164 freq: 11
rob stalling non-critical load ip: 1032188 freq: 17
rob stalling non-critical load ip: 1032208 freq: 21
rob stalling non-critical load ip: 1032212 freq: 28
rob stalling non-critical load ip: 1032216 freq: 4
rob stalling non-critical load ip: 1032224 freq: 11
rob stalling non-critical load ip: 1032240 freq: 31
rob stalling non-critical load ip: 16780456 freq: 996
rob stalling non-critical load ip: 16780584 freq: 880
rob stalling non-critical load ip: 16783496 freq: 538
rob stalling non-critical load ip: 16783504 freq: 125
rob stalling non-critical load ip: 16783512 freq: 30
rob stalling non-critical load ip: 16783528 freq: 21
rob stalling non-critical load ip: 16783532 freq: 4977
rob stalling non-critical load ip: 16783536 freq: 12
rob stalling non-critical load ip: 16783544 freq: 57
rob stalling non-critical load ip: 16783548 freq: 809
rob stalling non-critical load ip: 16783552 freq: 753
rob stalling non-critical load ip: 16783564 freq: 1488
rob stalling non-critical load ip: 16783568 freq: 22
rob stalling non-critical load ip: 16783572 freq: 1640
rob stalling non-critical load ip: 16783576 freq: 6
rob stalling non-critical load ip: 16783752 freq: 582
rob stalling non-critical load ip: 16783760 freq: 188
rob stalling non-critical load ip: 16783768 freq: 60
rob stalling non-critical load ip: 16783780 freq: 9
rob stalling non-critical load ip: 16783784 freq: 38
rob stalling non-critical load ip: 16783788 freq: 3172
rob stalling non-critical load ip: 16783792 freq: 16
rob stalling non-critical load ip: 16783800 freq: 64
rob stalling non-critical load ip: 16783804 freq: 571
rob stalling non-critical load ip: 16783808 freq: 2051
rob stalling non-critical load ip: 16783820 freq: 1312
rob stalling non-critical load ip: 16783824 freq: 33
rob stalling non-critical load ip: 16783828 freq: 1373
rob stalling non-critical load ip: 16784128 freq: 5434
rob stalling non-critical load ip: 16784136 freq: 1255
rob stalling non-critical load ip: 16784140 freq: 1
rob stalling non-critical load ip: 16784144 freq: 105
rob stalling non-critical load ip: 16784148 freq: 497
rob stalling non-critical load ip: 16784152 freq: 4727
rob stalling non-critical load ip: 16784156 freq: 47
rob stalling non-critical load ip: 16784160 freq: 270
rob stalling non-critical load ip: 16784168 freq: 3311
rob stalling non-critical load ip: 16784176 freq: 112
rob stalling non-critical load ip: 16784180 freq: 2
rob stalling non-critical load ip: 16784184 freq: 167
rob stalling non-critical load ip: 16796968 freq: 1
rob stalling non-critical load ip: 16800136 freq: 21
rob stalling non-critical load ip: 16800184 freq: 2
rob stalling non-critical load ip: 16800512 freq: 159
rob stalling non-critical load ip: 16800520 freq: 1
rob stalling non-critical load ip: 16800536 freq: 180
rob stalling non-critical load ip: 16800552 freq: 6
rob stalling non-critical load ip: 16803568 freq: 30
rob stalling non-critical load ip: 16806692 freq: 9
rob stalling non-critical load ip: 16806724 freq: 4
rob stalling non-critical load ip: 16806728 freq: 50
rob stalling non-critical load ip: 16806732 freq: 6
rob stalling non-critical load ip: 16807120 freq: 1445
rob stalling non-critical load ip: 16807124 freq: 127
rob stalling non-critical load ip: 16807128 freq: 11
rob stalling non-critical load ip: 16807188 freq: 14
rob stalling non-critical load ip: 16807200 freq: 30
rob stalling non-critical load ip: 16807208 freq: 11
rob stalling non-critical load ip: 16807220 freq: 33
rob stalling non-critical load ip: 16807228 freq: 48
rob stalling non-critical load ip: 16807244 freq: 16
rob stalling non-critical load ip: 16807256 freq: 3
rob stalling non-critical load ip: 16807260 freq: 3
rob stalling non-critical load ip: 16807264 freq: 2
rob stalling non-critical load ip: 16807268 freq: 164
rob stalling non-critical load ip: 16807344 freq: 586
rob stalling non-critical load ip: 16807348 freq: 6
rob stalling non-critical load ip: 16807352 freq: 116
rob stalling non-critical load ip: 16807392 freq: 1131
rob stalling non-critical load ip: 16807812 freq: 588
rob stalling non-critical load ip: 16807816 freq: 104
rob stalling non-critical load ip: 16807864 freq: 2085
rob stalling non-critical load ip: 16807908 freq: 51
rob stalling non-critical load ip: 16807956 freq: 157
rob stalling non-critical load ip: 16807964 freq: 657
rob stalling non-critical load ip: 16807968 freq: 2
rob stalling non-critical load ip: 16807976 freq: 41
rob stalling non-critical load ip: 16807980 freq: 48
rob stalling non-critical load ip: 16807984 freq: 29
rob stalling non-critical load ip: 16807988 freq: 3
rob stalling non-critical load ip: 16807996 freq: 45
rob stalling non-critical load ip: 16808000 freq: 65
rob stalling non-critical load ip: 16808004 freq: 28
rob stalling non-critical load ip: 16808008 freq: 16
rob stalling non-critical load ip: 16808012 freq: 876
rob stalling non-critical load ip: 16808020 freq: 246
rob stalling non-critical load ip: 16808024 freq: 828
rob stalling non-critical load ip: 16808028 freq: 2285
rob stalling non-critical load ip: 16808032 freq: 377
rob stalling non-critical load ip: 16808052 freq: 66
rob stalling non-critical load ip: 16808060 freq: 40
rob stalling non-critical load ip: 16809376 freq: 8
rob stalling non-critical load ip: 16809664 freq: 729
rob stalling non-critical load ip: 16812528 freq: 320
rob stalling non-critical load ip: 16812716 freq: 500
rob stalling non-critical load ip: 16813436 freq: 2
rob stalling non-critical load ip: 16813444 freq: 29
rob stalling non-critical load ip: 16813448 freq: 23
rob stalling non-critical load ip: 16813580 freq: 5
rob stalling non-critical load ip: 16813612 freq: 1
rob stalling non-critical load ip: 16813680 freq: 29
rob stalling non-critical load ip: 16813704 freq: 9
rob stalling non-critical load ip: 16813744 freq: 1
rob stalling non-critical load ip: 16813760 freq: 16
rob stalling non-critical load ip: 16813800 freq: 2
rob stalling non-critical load ip: 16815252 freq: 27
rob stalling non-critical load ip: 16815308 freq: 3
rob stalling non-critical load ip: 16815860 freq: 7
rob stalling non-critical load ip: 16817700 freq: 370
rob stalling non-critical load ip: 16817756 freq: 22
rob stalling non-critical load ip: 16817764 freq: 4
rob stalling non-critical load ip: 16817820 freq: 157
rob stalling non-critical load ip: 16817836 freq: 9
rob stalling non-critical load ip: 16817844 freq: 223
rob stalling non-critical load ip: 16817884 freq: 8
rob stalling non-critical load ip: 16817900 freq: 247
rob stalling non-critical load ip: 16817940 freq: 2
rob stalling non-critical load ip: 16817960 freq: 14
rob stalling non-critical load ip: 16819192 freq: 5
rob stalling non-critical load ip: 16819204 freq: 2
rob stalling non-critical load ip: 16820524 freq: 320
rob stalling non-critical load ip: 16820672 freq: 111
rob stalling non-critical load ip: 16820676 freq: 27
rob stalling non-critical load ip: 16820852 freq: 24
rob stalling non-critical load ip: 16820864 freq: 5
rob stalling non-critical load ip: 16820916 freq: 9
rob stalling non-critical load ip: 16820956 freq: 23
rob stalling non-critical load ip: 16820996 freq: 49
rob stalling non-critical load ip: 16821244 freq: 44
rob stalling non-critical load ip: 16821260 freq: 16
rob stalling non-critical load ip: 16821280 freq: 124
rob stalling non-critical load ip: 16821308 freq: 5
rob stalling non-critical load ip: 16821340 freq: 108
rob stalling non-critical load ip: 16821452 freq: 2385
rob stalling non-critical load ip: 16821464 freq: 308
rob stalling non-critical load ip: 16821596 freq: 16
rob stalling non-critical load ip: 16821600 freq: 27
rob stalling non-critical load ip: 16821628 freq: 78
rob stalling non-critical load ip: 16821664 freq: 179
rob stalling non-critical load ip: 16821732 freq: 51
rob stalling non-critical load ip: 16821792 freq: 72
rob stalling non-critical load ip: 16821800 freq: 1199
rob stalling non-critical load ip: 16821808 freq: 13
rob stalling non-critical load ip: 16821840 freq: 3269
rob stalling non-critical load ip: 16821912 freq: 8176
rob stalling non-critical load ip: 16821924 freq: 76
rob stalling non-critical load ip: 16821956 freq: 432
rob stalling non-critical load ip: 16821980 freq: 55
rob stalling non-critical load ip: 16822004 freq: 8228
rob stalling non-critical load ip: 16822020 freq: 66
rob stalling non-critical load ip: 16822032 freq: 45
rob stalling non-critical load ip: 16822040 freq: 39
rob stalling non-critical load ip: 16822116 freq: 82
rob stalling non-critical load ip: 16822120 freq: 23
rob stalling non-critical load ip: 16822152 freq: 100
rob stalling non-critical load ip: 16822212 freq: 125
rob stalling non-critical load ip: 16822264 freq: 68
rob stalling non-critical load ip: 16822276 freq: 59
rob stalling non-critical load ip: 16822308 freq: 148
rob stalling non-critical load ip: 16822320 freq: 37
rob stalling non-critical load ip: 16822360 freq: 7
rob stalling non-critical load ip: 16822400 freq: 92
rob stalling non-critical load ip: 16822416 freq: 4
rob stalling non-critical load ip: 16822428 freq: 166
rob stalling non-critical load ip: 16822500 freq: 2
rob stalling non-critical load ip: 16822788 freq: 1
rob stalling non-critical load ip: 16823128 freq: 6
rob stalling non-critical load ip: 16823524 freq: 2
rob stalling non-critical load ip: 16823692 freq: 1
rob stalling non-critical load ip: 16823808 freq: 104
rob stalling non-critical load ip: 16823844 freq: 53
rob stalling non-critical load ip: 16823852 freq: 2152
rob stalling non-critical load ip: 16823864 freq: 57
rob stalling non-critical load ip: 16823932 freq: 113
rob stalling non-critical load ip: 16824084 freq: 486
rob stalling non-critical load ip: 16824088 freq: 139
rob stalling non-critical load ip: 16824132 freq: 3
rob stalling non-critical load ip: 16824200 freq: 1526
rob stalling non-critical load ip: 16824228 freq: 1504
rob stalling non-critical load ip: 16824260 freq: 74
rob stalling non-critical load ip: 16824268 freq: 6
rob stalling non-critical load ip: 16824340 freq: 86
rob stalling non-critical load ip: 16844832 freq: 13
rob stalling non-critical load ip: 16844852 freq: 9
rob stalling non-critical load ip: 16844988 freq: 60
rob stalling non-critical load ip: 16844996 freq: 1
rob stalling non-critical load ip: 16845056 freq: 12
rob stalling non-critical load ip: 16845064 freq: 9
rob stalling non-critical load ip: 16845068 freq: 10
rob stalling non-critical load ip: 16845328 freq: 4
rob stalling non-critical load ip: 16851080 freq: 914
rob stalling non-critical load ip: 16851160 freq: 148
rob stalling non-critical load ip: 16851208 freq: 39
rob stalling non-critical load ip: 16851340 freq: 230
rob stalling non-critical load ip: 16851388 freq: 2020
rob stalling non-critical load ip: 16851436 freq: 1021
rob stalling non-critical load ip: 16851472 freq: 21
rob stalling non-critical load ip: 16851552 freq: 15701
rob stalling non-critical load ip: 16851564 freq: 91
rob stalling non-critical load ip: 16851576 freq: 418
rob stalling non-critical load ip: 16851588 freq: 13550
rob stalling non-critical load ip: 16851600 freq: 194
rob stalling non-critical load ip: 16851612 freq: 1052
rob stalling non-critical load ip: 16851624 freq: 123
rob stalling non-critical load ip: 16851632 freq: 940
rob stalling non-critical load ip: 16851652 freq: 14411
rob stalling non-critical load ip: 16851728 freq: 419
rob stalling non-critical load ip: 16851776 freq: 3
rob stalling non-critical load ip: 16851796 freq: 14
rob stalling non-critical load ip: 16858176 freq: 494
rob stalling non-critical load ip: 16858244 freq: 12
rob stalling non-critical load ip: 16858252 freq: 5
rob stalling non-critical load ip: 16858308 freq: 4
rob stalling non-critical load ip: 16865708 freq: 11
rob stalling non-critical load ip: 16865736 freq: 12
rob stalling non-critical load ip: 16865740 freq: 12
rob stalling non-critical load ip: 16865776 freq: 3
rob stalling non-critical load ip: 16891612 freq: 434
rob stalling non-critical load ip: 16891620 freq: 1116
rob stalling non-critical load ip: 16891628 freq: 745
rob stalling non-critical load ip: 16891636 freq: 757
rob stalling non-critical load ip: 16891648 freq: 14
rob stalling non-critical load ip: 16892324 freq: 1
rob stalling non-critical load ip: 16902228 freq: 5
rob stalling non-critical load ip: 16902244 freq: 5
rob stalling non-critical load ip: 16902260 freq: 13
rob stalling non-critical load ip: 16902264 freq: 3
rob stalling non-critical load ip: 16902380 freq: 14
rob stalling non-critical load ip: 16902392 freq: 7
rob stalling non-critical load ip: 16902396 freq: 738
rob stalling non-critical load ip: 16903028 freq: 49
rob stalling non-critical load ip: 16908452 freq: 68
rob stalling non-critical load ip: 16908560 freq: 5
rob stalling non-critical load ip: 16908636 freq: 10
rob stalling non-critical load ip: 16917068 freq: 94
rob stalling non-critical load ip: 16917076 freq: 7
rob stalling non-critical load ip: 16917116 freq: 66
rob stalling non-critical load ip: 16917124 freq: 45
rob stalling non-critical load ip: 16917760 freq: 41
rob stalling non-critical load ip: 16917772 freq: 326
rob stalling non-critical load ip: 16977308 freq: 7
rob stalling non-critical load ip: 16977404 freq: 8
rob stalling non-critical load ip: 16977424 freq: 10
rob stalling non-critical load ip: 16977480 freq: 3
rob stalling non-critical load ip: 17022708 freq: 9
rob stalling non-critical load ip: 17077560 freq: 146
rob stalling non-critical load ip: 17077572 freq: 1998
rob stalling non-critical load ip: 17077640 freq: 10
rob stalling non-critical load ip: 17077644 freq: 31
rob stalling non-critical load ip: 17077668 freq: 6
rob stalling non-critical load ip: 17077680 freq: 17
rob stalling non-critical load ip: 17077684 freq: 547
rob stalling non-critical load ip: 17077688 freq: 111
rob stalling non-critical load ip: 17077812 freq: 6
rob stalling non-critical load ip: 17077816 freq: 3
rob stalling non-critical load ip: 17077844 freq: 2
rob stalling non-critical load ip: 17077916 freq: 34
rob stalling non-critical load ip: 17077968 freq: 24
rob stalling non-critical load ip: 17078012 freq: 58
rob stalling non-critical load ip: 17078020 freq: 8
rob stalling non-critical load ip: 17078024 freq: 3
rob stalling non-critical load ip: 17078036 freq: 13
rob stalling non-critical load ip: 17078080 freq: 25
rob stalling non-critical load ip: 17078100 freq: 5
rob stalling non-critical load ip: 17078104 freq: 22
rob stalling non-critical load ip: 17078120 freq: 6
rob stalling non-critical load ip: 17078144 freq: 15
rob stalling non-critical load ip: 17078168 freq: 27
rob stalling non-critical load ip: 17078180 freq: 12
rob stalling non-critical load ip: 17078228 freq: 22
rob stalling non-critical load ip: 17078240 freq: 5
rob stalling non-critical load ip: 17078252 freq: 105
rob stalling non-critical load ip: 17078304 freq: 4
rob stalling non-critical load ip: 17078420 freq: 1288
rob stalling non-critical load ip: 17078504 freq: 6
rob stalling non-critical load ip: 17078516 freq: 1504
rob stalling non-critical load ip: 17079616 freq: 831
rob stalling non-critical load ip: 17079636 freq: 287
rob stalling non-critical load ip: 17079680 freq: 4
rob stalling non-critical load ip: 17079744 freq: 29
rob stalling non-critical load ip: 17084128 freq: 1064
rob stalling non-critical load ip: 17084160 freq: 336
rob stalling non-critical load ip: 17084192 freq: 1544
rob stalling non-critical load ip: 17084300 freq: 60
rob stalling non-critical load ip: 17084332 freq: 637
rob stalling non-critical load ip: 17084340 freq: 90
rob stalling non-critical load ip: 17084388 freq: 870
rob stalling non-critical load ip: 17084424 freq: 3
rob stalling non-critical load ip: 17084460 freq: 8
rob stalling non-critical load ip: 17084544 freq: 2011
rob stalling non-critical load ip: 17084576 freq: 16
rob stalling non-critical load ip: 17084592 freq: 192
rob stalling non-critical load ip: 17084596 freq: 9
rob stalling non-critical load ip: 17084652 freq: 38
rob stalling non-critical load ip: 17084656 freq: 68
rob stalling non-critical load ip: 17084752 freq: 8
rob stalling non-critical load ip: 17084772 freq: 6
rob stalling non-critical load ip: 17084780 freq: 104
rob stalling non-critical load ip: 17087348 freq: 6
rob stalling non-critical load ip: 17089924 freq: 11
rob stalling non-critical load ip: 17089932 freq: 39
rob stalling non-critical load ip: 17089988 freq: 203
rob stalling non-critical load ip: 17090008 freq: 22
rob stalling non-critical load ip: 17090036 freq: 24
rob stalling non-critical load ip: 17090040 freq: 1
rob stalling non-critical load ip: 17090052 freq: 5
rob stalling non-critical load ip: 17090060 freq: 34
rob stalling non-critical load ip: 17090136 freq: 3
rob stalling non-critical load ip: 17090160 freq: 7
rob stalling non-critical load ip: 17090192 freq: 2
rob stalling non-critical load ip: 17105460 freq: 60
rob stalling non-critical load ip: 17109616 freq: 424
rob stalling non-critical load ip: 17109620 freq: 177
rob stalling non-critical load ip: 17147696 freq: 4
rob stalling non-critical load ip: 17148832 freq: 684
rob stalling non-critical load ip: 17148868 freq: 8
rob stalling non-critical load ip: 17148904 freq: 13
rob stalling non-critical load ip: 17148972 freq: 679
rob stalling non-critical load ip: 17148988 freq: 4
rob stalling non-critical load ip: 17149012 freq: 3
rob stalling non-critical load ip: 17149168 freq: 11
rob stalling non-critical load ip: 17149172 freq: 20
rob stalling non-critical load ip: 17149204 freq: 24
rob stalling non-critical load ip: 17149208 freq: 539
rob stalling non-critical load ip: 17149340 freq: 48
rob stalling non-critical load ip: 17149344 freq: 19
rob stalling non-critical load ip: 17149400 freq: 103
rob stalling non-critical load ip: 17149504 freq: 96
rob stalling non-critical load ip: 17149516 freq: 17
rob stalling non-critical load ip: 17149568 freq: 15
rob stalling non-critical load ip: 17149600 freq: 210
rob stalling non-critical load ip: 17149604 freq: 37
rob stalling non-critical load ip: 17183032 freq: 23
rob stalling non-critical load ip: 17183048 freq: 9
rob stalling non-critical load ip: 17183060 freq: 452
rob stalling non-critical load ip: 17183076 freq: 444
rob stalling non-critical load ip: 17183080 freq: 51
rob stalling non-critical load ip: 17183084 freq: 4
rob stalling non-critical load ip: 17183108 freq: 79
rob stalling non-critical load ip: 17183140 freq: 25
rob stalling non-critical load ip: 17183160 freq: 14
rob stalling non-critical load ip: 17183188 freq: 18
rob stalling non-critical load ip: 17183232 freq: 8
rob stalling non-critical load ip: 17183244 freq: 123
rob stalling non-critical load ip: 17183248 freq: 82
rob stalling non-critical load ip: 17183252 freq: 60
rob stalling non-critical load ip: 17183268 freq: 5
rob stalling non-critical load ip: 17183284 freq: 12
rob stalling non-critical load ip: 17183380 freq: 20
rob stalling non-critical load ip: 17183412 freq: 7
rob stalling non-critical load ip: 17183452 freq: 9
rob stalling non-critical load ip: 17183492 freq: 6
rob stalling non-critical load ip: 17183532 freq: 22
rob stalling non-critical load ip: 17183560 freq: 8
rob stalling non-critical load ip: 17183568 freq: 11
rob stalling non-critical load ip: 17183812 freq: 1799
rob stalling non-critical load ip: 17183836 freq: 33
rob stalling non-critical load ip: 17183860 freq: 975
rob stalling non-critical load ip: 17183892 freq: 37
rob stalling non-critical load ip: 17183920 freq: 7
rob stalling non-critical load ip: 17183952 freq: 19
rob stalling non-critical load ip: 17183960 freq: 575
rob stalling non-critical load ip: 17184024 freq: 10
rob stalling non-critical load ip: 17184072 freq: 40
rob stalling non-critical load ip: 17184084 freq: 517
rob stalling non-critical load ip: 17184100 freq: 260
rob stalling non-critical load ip: 17184500 freq: 82
rob stalling non-critical load ip: 17184536 freq: 16
rob stalling non-critical load ip: 17184552 freq: 2
rob stalling non-critical load ip: 17184568 freq: 6
rob stalling non-critical load ip: 17184628 freq: 12
rob stalling non-critical load ip: 17184644 freq: 10
rob stalling non-critical load ip: 17184664 freq: 12
rob stalling non-critical load ip: 17184712 freq: 14
rob stalling non-critical load ip: 17184740 freq: 25
rob stalling non-critical load ip: 17184768 freq: 18
rob stalling non-critical load ip: 17184772 freq: 3
rob stalling non-critical load ip: 17184896 freq: 26
rob stalling non-critical load ip: 17184900 freq: 13
rob stalling non-critical load ip: 17184924 freq: 7
rob stalling non-critical load ip: 17184968 freq: 3
rob stalling non-critical load ip: 17184984 freq: 2
rob stalling non-critical load ip: 17185032 freq: 2
rob stalling non-critical load ip: 17185072 freq: 1
rob stalling non-critical load ip: 17185076 freq: 5
rob stalling non-critical load ip: 17185180 freq: 3
rob stalling non-critical load ip: 17185456 freq: 17
rob stalling non-critical load ip: 17185528 freq: 14
rob stalling non-critical load ip: 17185608 freq: 18
rob stalling non-critical load ip: 17185632 freq: 49
rob stalling non-critical load ip: 17185696 freq: 24
rob stalling non-critical load ip: 17185704 freq: 313
rob stalling non-critical load ip: 17185716 freq: 5
rob stalling non-critical load ip: 17185856 freq: 25
rob stalling non-critical load ip: 17185872 freq: 16
rob stalling non-critical load ip: 17185984 freq: 16
rob stalling non-critical load ip: 17186016 freq: 29
rob stalling non-critical load ip: 17186760 freq: 18
rob stalling non-critical load ip: 17186768 freq: 4
rob stalling non-critical load ip: 17186780 freq: 42
rob stalling non-critical load ip: 17186844 freq: 1026
rob stalling non-critical load ip: 17186864 freq: 27
rob stalling non-critical load ip: 17186872 freq: 26
rob stalling non-critical load ip: 17186900 freq: 29
rob stalling non-critical load ip: 17186940 freq: 7
rob stalling non-critical load ip: 17186964 freq: 21
rob stalling non-critical load ip: 17186976 freq: 12
rob stalling non-critical load ip: 17186996 freq: 753
rob stalling non-critical load ip: 17187028 freq: 5
rob stalling non-critical load ip: 17187052 freq: 20
rob stalling non-critical load ip: 17187056 freq: 10
rob stalling non-critical load ip: 17187060 freq: 121
rob stalling non-critical load ip: 17187072 freq: 11
rob stalling non-critical load ip: 17187084 freq: 15
rob stalling non-critical load ip: 17187104 freq: 12
rob stalling non-critical load ip: 17187136 freq: 4
rob stalling non-critical load ip: 17187176 freq: 54
rob stalling non-critical load ip: 17187180 freq: 51
rob stalling non-critical load ip: 17187196 freq: 22
rob stalling non-critical load ip: 17187208 freq: 7
rob stalling non-critical load ip: 17187260 freq: 11
rob stalling non-critical load ip: 17187276 freq: 10
rob stalling non-critical load ip: 17187284 freq: 257
rob stalling non-critical load ip: 17187388 freq: 106
rob stalling non-critical load ip: 17187408 freq: 11
rob stalling non-critical load ip: 17187420 freq: 4
rob stalling non-critical load ip: 17187440 freq: 5
rob stalling non-critical load ip: 17187532 freq: 1
rob stalling non-critical load ip: 17188224 freq: 53
rob stalling non-critical load ip: 17188228 freq: 147
rob stalling non-critical load ip: 17188244 freq: 17
rob stalling non-critical load ip: 17188264 freq: 30
rob stalling non-critical load ip: 17188292 freq: 76
rob stalling non-critical load ip: 17188308 freq: 1124
rob stalling non-critical load ip: 17188316 freq: 67
rob stalling non-critical load ip: 17188320 freq: 16
rob stalling non-critical load ip: 17189416 freq: 196
rob stalling non-critical load ip: 17189432 freq: 11
rob stalling non-critical load ip: 17189488 freq: 822
rob stalling non-critical load ip: 17189520 freq: 2
rob stalling non-critical load ip: 17189536 freq: 216
rob stalling non-critical load ip: 17189616 freq: 15
rob stalling non-critical load ip: 17189632 freq: 20
rob stalling non-critical load ip: 17189652 freq: 15
rob stalling non-critical load ip: 17189660 freq: 12
rob stalling non-critical load ip: 17190268 freq: 90
rob stalling non-critical load ip: 17190288 freq: 23
rob stalling non-critical load ip: 17190300 freq: 53
rob stalling non-critical load ip: 17190304 freq: 1
rob stalling non-critical load ip: 17190324 freq: 14
rob stalling non-critical load ip: 17190384 freq: 40
rob stalling non-critical load ip: 17190412 freq: 296
rob stalling non-critical load ip: 17190420 freq: 129
rob stalling non-critical load ip: 17190436 freq: 51
rob stalling non-critical load ip: 17190504 freq: 179
rob stalling non-critical load ip: 17190516 freq: 554
rob stalling non-critical load ip: 17190600 freq: 55
rob stalling non-critical load ip: 17224964 freq: 19
rob stalling non-critical load ip: 17224980 freq: 908
rob stalling non-critical load ip: 17224996 freq: 61
rob stalling non-critical load ip: 17225004 freq: 8
rob stalling non-critical load ip: 17225096 freq: 73
rob stalling non-critical load ip: 17225180 freq: 56
rob stalling non-critical load ip: 17225204 freq: 488
rob stalling non-critical load ip: 17225220 freq: 2336
rob stalling non-critical load ip: 17225292 freq: 113
rob stalling non-critical load ip: 17225312 freq: 22
rob stalling non-critical load ip: 17225488 freq: 28
rob stalling non-critical load ip: 17225500 freq: 622
rob stalling non-critical load ip: 17225528 freq: 72
rob stalling non-critical load ip: 17225540 freq: 22
rob stalling non-critical load ip: 17225580 freq: 33
rob stalling non-critical load ip: 17225644 freq: 2
rob stalling non-critical load ip: 17225876 freq: 89
rob stalling non-critical load ip: 17225984 freq: 88
rob stalling non-critical load ip: 17226112 freq: 106
rob stalling non-critical load ip: 17226208 freq: 156
rob stalling non-critical load ip: 17226228 freq: 8
rob stalling non-critical load ip: 17226296 freq: 67
rob stalling non-critical load ip: 17226320 freq: 22
rob stalling non-critical load ip: 17226332 freq: 28
rob stalling non-critical load ip: 17226532 freq: 81
rob stalling non-critical load ip: 17226856 freq: 11
rob stalling non-critical load ip: 17226872 freq: 29
rob stalling non-critical load ip: 17226948 freq: 54
rob stalling non-critical load ip: 17227476 freq: 12
rob stalling non-critical load ip: 17227628 freq: 3
rob stalling non-critical load ip: 17227896 freq: 14
rob stalling non-critical load ip: 17227996 freq: 54
rob stalling non-critical load ip: 17228012 freq: 3
rob stalling non-critical load ip: 17228024 freq: 42
rob stalling non-critical load ip: 17228052 freq: 3
rob stalling non-critical load ip: 17228064 freq: 15
rob stalling non-critical load ip: 17228160 freq: 9
rob stalling non-critical load ip: 17228276 freq: 3
rob stalling non-critical load ip: 17245100 freq: 2597
rob stalling non-critical load ip: 17245104 freq: 5
rob stalling non-critical load ip: 17247576 freq: 91
rob stalling non-critical load ip: 17247588 freq: 6
rob stalling non-critical load ip: 17247664 freq: 5
rob stalling non-critical load ip: 17247668 freq: 44
rob stalling non-critical load ip: 17247672 freq: 2
rob stalling non-critical load ip: 17247840 freq: 25
rob stalling non-critical load ip: 17247864 freq: 7
rob stalling non-critical load ip: 17247888 freq: 28
rob stalling non-critical load ip: 17247896 freq: 4
rob stalling non-critical load ip: 17247952 freq: 3
rob stalling non-critical load ip: 17247988 freq: 29
rob stalling non-critical load ip: 17248624 freq: 6
rob stalling non-critical load ip: 17248652 freq: 8
rob stalling non-critical load ip: 17410740 freq: 18
rob stalling non-critical load ip: 17410756 freq: 3
rob stalling non-critical load ip: 17506076 freq: 34
rob stalling non-critical load ip: 17506088 freq: 5
rob stalling non-critical load ip: 17506096 freq: 5
rob stalling non-critical load ip: 17506112 freq: 8
rob stalling non-critical load ip: 17506176 freq: 13
rob stalling non-critical load ip: 17506192 freq: 22
rob stalling non-critical load ip: 17506308 freq: 430
rob stalling non-critical load ip: 17506356 freq: 6
rob stalling non-critical load ip: 17506380 freq: 149
rob stalling non-critical load ip: 17506412 freq: 98
rob stalling non-critical load ip: 17506584 freq: 881
rob stalling non-critical load ip: 17506760 freq: 195
rob stalling non-critical load ip: 17506824 freq: 26
rob stalling non-critical load ip: 17506844 freq: 18
rob stalling non-critical load ip: 17506872 freq: 405
rob stalling non-critical load ip: 17506884 freq: 45
rob stalling non-critical load ip: 17506964 freq: 160
rob stalling non-critical load ip: 17506996 freq: 18
rob stalling non-critical load ip: 17507036 freq: 14
rob stalling non-critical load ip: 17507044 freq: 861
rob stalling non-critical load ip: 17507048 freq: 8
rob stalling non-critical load ip: 17507056 freq: 5
rob stalling non-critical load ip: 17507064 freq: 8
rob stalling non-critical load ip: 17507072 freq: 38
rob stalling non-critical load ip: 17507160 freq: 27
rob stalling non-critical load ip: 17507196 freq: 9
rob stalling non-critical load ip: 17507228 freq: 12
rob stalling non-critical load ip: 17507336 freq: 8
rob stalling non-critical load ip: 17507380 freq: 3
rob stalling non-critical load ip: 17507396 freq: 6
rob stalling non-critical load ip: 17507428 freq: 32
rob stalling non-critical load ip: 17507476 freq: 26
rob stalling non-critical load ip: 17507492 freq: 9
rob stalling non-critical load ip: 17545824 freq: 1
rob stalling non-critical load ip: 17546088 freq: 24
rob stalling non-critical load ip: 17546104 freq: 4
rob stalling non-critical load ip: 17546120 freq: 4
rob stalling non-critical load ip: 17546260 freq: 5
rob stalling non-critical load ip: 17546280 freq: 2
rob stalling non-critical load ip: 17546300 freq: 5
rob stalling non-critical load ip: 17546416 freq: 3
rob stalling non-critical load ip: 17546908 freq: 2
rob stalling non-critical load ip: 17547352 freq: 20
rob stalling non-critical load ip: 17547356 freq: 4
rob stalling non-critical load ip: 17547376 freq: 3
rob stalling non-critical load ip: 17547484 freq: 2
rob stalling non-critical load ip: 17547500 freq: 1
rob stalling non-critical load ip: 17547720 freq: 4
rob stalling non-critical load ip: 17547732 freq: 1
rob stalling non-critical load ip: 17547776 freq: 5
rob stalling non-critical load ip: 17548040 freq: 50
rob stalling non-critical load ip: 17559680 freq: 1
rob stalling non-critical load ip: 17560656 freq: 33
rob stalling non-critical load ip: 17613884 freq: 1
rob stalling non-critical load ip: 17613916 freq: 1
rob stalling non-critical load ip: 17613924 freq: 1
rob stalling non-critical load ip: 17613980 freq: 4
rob stalling non-critical load ip: 17613996 freq: 4
rob stalling non-critical load ip: 17614016 freq: 2
rob stalling non-critical load ip: 17614184 freq: 1
rob stalling non-critical load ip: 17614240 freq: 3
rob stalling non-critical load ip: 17614256 freq: 2
rob stalling non-critical load ip: 17614376 freq: 1
rob stalling non-critical load ip: 17614460 freq: 1
rob stalling non-critical load ip: 17614832 freq: 1
rob stalling non-critical load ip: 17617012 freq: 1
rob stalling non-critical load ip: 17641540 freq: 2
rob stalling non-critical load ip: 17642980 freq: 1
rob stalling non-critical load ip: 17643980 freq: 1
rob stalling non-critical load ip: 17644128 freq: 2
rob stalling non-critical load ip: 17644276 freq: 76
rob stalling non-critical load ip: 17682804 freq: 6
rob stalling non-critical load ip: 17682824 freq: 3
rob stalling non-critical load ip: 17683040 freq: 5
rob stalling non-critical load ip: 17683164 freq: 2
rob stalling non-critical load ip: 17683248 freq: 2
rob stalling non-critical load ip: 17683380 freq: 2
rob stalling non-critical load ip: 17683908 freq: 1
rob stalling non-critical load ip: 17686100 freq: 2
rob stalling non-critical load ip: 17686204 freq: 3
rob stalling non-critical load ip: 17689564 freq: 1
rob stalling non-critical load ip: 17692512 freq: 1
rob stalling non-critical load ip: 17782316 freq: 1679
rob stalling non-critical load ip: 17782320 freq: 578
rob stalling non-critical load ip: 17782380 freq: 810
rob stalling non-critical load ip: 17782384 freq: 18
rob stalling non-critical load ip: 17782400 freq: 17
rob stalling non-critical load ip: 17782428 freq: 11
rob stalling non-critical load ip: 17782432 freq: 11
rob stalling non-critical load ip: 17782476 freq: 927
rob stalling non-critical load ip: 17782480 freq: 19
rob stalling non-critical load ip: 17782496 freq: 13
rob stalling non-critical load ip: 17782536 freq: 52
rob stalling non-critical load ip: 17782548 freq: 15
rob stalling non-critical load ip: 17782600 freq: 33
rob stalling non-critical load ip: 17782928 freq: 1754
rob stalling non-critical load ip: 17782932 freq: 5
rob stalling non-critical load ip: 17782984 freq: 21
rob stalling non-critical load ip: 17783272 freq: 59
rob stalling non-critical load ip: 17795512 freq: 5
rob stalling non-critical load ip: 17825288 freq: 2
rob stalling non-critical load ip: 17825316 freq: 1
rob stalling non-critical load ip: 17906156 freq: 117
rob stalling non-critical load ip: 17906336 freq: 62
rob stalling non-critical load ip: 17906384 freq: 72
rob stalling non-critical load ip: 17906400 freq: 92
rob stalling non-critical load ip: 17906620 freq: 5
rob stalling non-critical load ip: 17906636 freq: 2
rob stalling non-critical load ip: 17906844 freq: 1059
rob stalling non-critical load ip: 17906852 freq: 26
rob stalling non-critical load ip: 17906888 freq: 13
rob stalling non-critical load ip: 17906912 freq: 7
rob stalling non-critical load ip: 17906968 freq: 9
rob stalling non-critical load ip: 17906980 freq: 6
rob stalling non-critical load ip: 17907064 freq: 139
rob stalling non-critical load ip: 17908272 freq: 65
rob stalling non-critical load ip: 17908296 freq: 7
rob stalling non-critical load ip: 17908312 freq: 5
rob stalling non-critical load ip: 17908368 freq: 9
rob stalling non-critical load ip: 18022900 freq: 236
rob stalling non-critical load ip: 18022940 freq: 2
rob stalling non-critical load ip: 18022944 freq: 143
rob stalling non-critical load ip: 18022976 freq: 5
rob stalling non-critical load ip: 18023020 freq: 6
rob stalling non-critical load ip: 18023028 freq: 1
rob stalling non-critical load ip: 18023308 freq: 7
rob stalling non-critical load ip: 18025240 freq: 31
rob stalling non-critical load ip: 18025248 freq: 1
rob stalling non-critical load ip: 18025276 freq: 15
rob stalling non-critical load ip: 18025296 freq: 24
rob stalling non-critical load ip: 18025304 freq: 12
rob stalling non-critical load ip: 18025340 freq: 46
rob stalling non-critical load ip: 18026080 freq: 34
rob stalling non-critical load ip: 18026640 freq: 51
rob stalling non-critical load ip: 18026656 freq: 141
rob stalling non-critical load ip: 18026668 freq: 71
rob stalling non-critical load ip: 18026908 freq: 72
rob stalling non-critical load ip: 18026928 freq: 768
rob stalling non-critical load ip: 18026992 freq: 56
rob stalling non-critical load ip: 18027120 freq: 209
rob stalling non-critical load ip: 18027128 freq: 36
rob stalling non-critical load ip: 18027156 freq: 436
rob stalling non-critical load ip: 18027924 freq: 31
rob stalling non-critical load ip: 18027932 freq: 147
rob stalling non-critical load ip: 18049648 freq: 7
rob stalling non-critical load ip: 18049664 freq: 41
rob stalling non-critical load ip: 18049728 freq: 11
rob stalling non-critical load ip: 18049736 freq: 12
rob stalling non-critical load ip: 18049744 freq: 13
rob stalling non-critical load ip: 18049920 freq: 41
rob stalling non-critical load ip: 18049996 freq: 10
rob stalling non-critical load ip: 18050004 freq: 2
rob stalling non-critical load ip: 18050244 freq: 1
rob stalling non-critical load ip: 18073720 freq: 5
rob stalling non-critical load ip: 18074636 freq: 4
rob stalling non-critical load ip: 18074640 freq: 2
rob stalling non-critical load ip: 18085540 freq: 13
rob stalling non-critical load ip: 18110020 freq: 2
rob stalling non-critical load ip: 18128468 freq: 30
rob stalling non-critical load ip: 18128484 freq: 7
rob stalling non-critical load ip: 18128540 freq: 36
rob stalling non-critical load ip: 18128612 freq: 19
rob stalling non-critical load ip: 18128640 freq: 18
rob stalling non-critical load ip: 18128648 freq: 3
rob stalling non-critical load ip: 18128744 freq: 93
rob stalling non-critical load ip: 18132388 freq: 2
rob stalling non-critical load ip: 18132400 freq: 2
rob stalling non-critical load ip: 18132456 freq: 1
rob stalling non-critical load ip: 18132480 freq: 1
rob stalling non-critical load ip: 18132720 freq: 1118
rob stalling non-critical load ip: 18132760 freq: 285
rob stalling non-critical load ip: 18132804 freq: 32
rob stalling non-critical load ip: 18132832 freq: 72
rob stalling non-critical load ip: 18132856 freq: 5
rob stalling non-critical load ip: 18132872 freq: 9
rob stalling non-critical load ip: 18132896 freq: 263
rob stalling non-critical load ip: 18132908 freq: 92
rob stalling non-critical load ip: 18132980 freq: 660
rob stalling non-critical load ip: 18132996 freq: 1172
rob stalling non-critical load ip: 18133012 freq: 7
rob stalling non-critical load ip: 18133020 freq: 1
rob stalling non-critical load ip: 18133028 freq: 2
rob stalling non-critical load ip: 18133080 freq: 1137
rob stalling non-critical load ip: 18133112 freq: 124
rob stalling non-critical load ip: 18133280 freq: 1
rob stalling non-critical load ip: 18133368 freq: 1578
rob stalling non-critical load ip: 18133388 freq: 142
rob stalling non-critical load ip: 18133392 freq: 1590
rob stalling non-critical load ip: 18133404 freq: 82
rob stalling non-critical load ip: 18133528 freq: 45
rob stalling non-critical load ip: 18133592 freq: 23
rob stalling non-critical load ip: 18133608 freq: 9
rob stalling non-critical load ip: 18133724 freq: 2
rob stalling non-critical load ip: 18133936 freq: 9
rob stalling non-critical load ip: 18133964 freq: 2
rob stalling non-critical load ip: 18133996 freq: 1
rob stalling non-critical load ip: 18134084 freq: 52
rob stalling non-critical load ip: 18134132 freq: 12
rob stalling non-critical load ip: 18134192 freq: 215
rob stalling non-critical load ip: 18134276 freq: 11
rob stalling non-critical load ip: 18134316 freq: 384
rob stalling non-critical load ip: 18134344 freq: 18
rob stalling non-critical load ip: 18134356 freq: 119
rob stalling non-critical load ip: 18134420 freq: 25
rob stalling non-critical load ip: 18134436 freq: 19
rob stalling non-critical load ip: 18302544 freq: 1
rob stalling non-critical load ip: 18303272 freq: 4
rob stalling non-critical load ip: 18303304 freq: 1
rob stalling non-critical load ip: 18303328 freq: 4
rob stalling non-critical load ip: 18317956 freq: 14
rob stalling non-critical load ip: 18317984 freq: 77
rob stalling non-critical load ip: 18457504 freq: 33
rob stalling non-critical load ip: 18457564 freq: 7
rob stalling non-critical load ip: 18457572 freq: 28
rob stalling non-critical load ip: 18457580 freq: 6
rob stalling non-critical load ip: 18457588 freq: 17
rob stalling non-critical load ip: 18457592 freq: 24
rob stalling non-critical load ip: 18466760 freq: 27
rob stalling non-critical load ip: 18466768 freq: 4
rob stalling non-critical load ip: 18466832 freq: 5
rob stalling non-critical load ip: 18466844 freq: 9
rob stalling non-critical load ip: 18466852 freq: 47
rob stalling non-critical load ip: 18466888 freq: 17
rob stalling non-critical load ip: 18466904 freq: 2
rob stalling non-critical load ip: 18466952 freq: 1
rob stalling non-critical load ip: 18467084 freq: 1063
rob stalling non-critical load ip: 18467088 freq: 3
rob stalling non-critical load ip: 18467104 freq: 7
rob stalling non-critical load ip: 18467308 freq: 1
rob stalling non-critical load ip: 18467324 freq: 3
rob stalling non-critical load ip: 18467416 freq: 2
rob stalling non-critical load ip: 18481624 freq: 2
rob stalling non-critical load ip: 18481788 freq: 5
rob stalling non-critical load ip: 18481820 freq: 18
rob stalling non-critical load ip: 18481948 freq: 4
rob stalling non-critical load ip: 18481952 freq: 4
rob stalling non-critical load ip: 18482232 freq: 220
rob stalling non-critical load ip: 18482236 freq: 1960
rob stalling non-critical load ip: 18482240 freq: 934
rob stalling non-critical load ip: 18482280 freq: 9
rob stalling non-critical load ip: 18482352 freq: 911
rob stalling non-critical load ip: 18482800 freq: 208
rob stalling non-critical load ip: 18482812 freq: 59
rob stalling non-critical load ip: 18482856 freq: 55
rob stalling non-critical load ip: 18493424 freq: 1
rob stalling non-critical load ip: 18604280 freq: 38
rob stalling non-critical load ip: 18604288 freq: 2
rob stalling non-critical load ip: 18604340 freq: 25
rob stalling non-critical load ip: 18604344 freq: 105
rob stalling non-critical load ip: 18604364 freq: 53
rob stalling non-critical load ip: 18604368 freq: 30
rob stalling non-critical load ip: 18604372 freq: 52
rob stalling non-critical load ip: 18604396 freq: 10
rob stalling non-critical load ip: 18604480 freq: 12
rob stalling non-critical load ip: 18625668 freq: 88
rob stalling non-critical load ip: 18627428 freq: 3
rob stalling non-critical load ip: 18631092 freq: 13
rob stalling non-critical load ip: 18631116 freq: 4
rob stalling non-critical load ip: 18634180 freq: 3
rob stalling non-critical load ip: 18634432 freq: 2
rob stalling non-critical load ip: 18757520 freq: 3
rob stalling non-critical load ip: 18757540 freq: 4
rob stalling non-critical load ip: 18757580 freq: 1
rob stalling non-critical load ip: 18757996 freq: 1
rob stalling non-critical load ip: 18760628 freq: 20
rob stalling non-critical load ip: 18760692 freq: 4
rob stalling non-critical load ip: 18760764 freq: 2
rob stalling non-critical load ip: 18760808 freq: 1
rob stalling non-critical load ip: 18760852 freq: 4
rob stalling non-critical load ip: 18783856 freq: 1162
rob stalling non-critical load ip: 18783872 freq: 50
rob stalling non-critical load ip: 18783892 freq: 4
rob stalling non-critical load ip: 18783896 freq: 14
rob stalling non-critical load ip: 18783924 freq: 17
rob stalling non-critical load ip: 18783940 freq: 42
rob stalling non-critical load ip: 18783960 freq: 11
rob stalling non-critical load ip: 18783964 freq: 16
rob stalling non-critical load ip: 18784552 freq: 216
rob stalling non-critical load ip: 18786216 freq: 1013
rob stalling non-critical load ip: 18786240 freq: 114
rob stalling non-critical load ip: 18786264 freq: 2584
rob stalling non-critical load ip: 18786268 freq: 2
rob stalling non-critical load ip: 18786288 freq: 19
rob stalling non-critical load ip: 18790068 freq: 360
rob stalling non-critical load ip: 18790128 freq: 23
rob stalling non-critical load ip: 18790148 freq: 14
rob stalling non-critical load ip: 18790156 freq: 6
rob stalling non-critical load ip: 18790252 freq: 6
rob stalling non-critical load ip: 18790284 freq: 112
rob stalling non-critical load ip: 18790324 freq: 18
rob stalling non-critical load ip: 18790364 freq: 1488
rob stalling non-critical load ip: 18790388 freq: 47
rob stalling non-critical load ip: 18790396 freq: 3
rob stalling non-critical load ip: 18790444 freq: 9
rob stalling non-critical load ip: 18790464 freq: 6
rob stalling non-critical load ip: 18790492 freq: 13
rob stalling non-critical load ip: 18790500 freq: 1198
rob stalling non-critical load ip: 18790796 freq: 59
rob stalling non-critical load ip: 18790812 freq: 28
rob stalling non-critical load ip: 18790940 freq: 32
rob stalling non-critical load ip: 18790984 freq: 14
rob stalling non-critical load ip: 18791368 freq: 37
rob stalling non-critical load ip: 18791384 freq: 8
rob stalling non-critical load ip: 18791472 freq: 679
rob stalling non-critical load ip: 18791480 freq: 799
rob stalling non-critical load ip: 18791496 freq: 5
rob stalling non-critical load ip: 18791504 freq: 217
rob stalling non-critical load ip: 18791520 freq: 13
rob stalling non-critical load ip: 18791532 freq: 18
rob stalling non-critical load ip: 18791568 freq: 4
rob stalling non-critical load ip: 18791612 freq: 18
rob stalling non-critical load ip: 18791632 freq: 156
rob stalling non-critical load ip: 18791672 freq: 62
rob stalling non-critical load ip: 18791700 freq: 1249
rob stalling non-critical load ip: 18791716 freq: 14
rob stalling non-critical load ip: 18791740 freq: 12
rob stalling non-critical load ip: 18791756 freq: 4
rob stalling non-critical load ip: 18791760 freq: 16
rob stalling non-critical load ip: 18791796 freq: 869
rob stalling non-critical load ip: 18791860 freq: 78
rob stalling non-critical load ip: 18791864 freq: 107
rob stalling non-critical load ip: 18791880 freq: 17
rob stalling non-critical load ip: 18792068 freq: 8
rob stalling non-critical load ip: 18792108 freq: 36
rob stalling non-critical load ip: 18792112 freq: 25
rob stalling non-critical load ip: 18792136 freq: 20
rob stalling non-critical load ip: 18792888 freq: 788
rob stalling non-critical load ip: 18792960 freq: 80
rob stalling non-critical load ip: 18792980 freq: 27
rob stalling non-critical load ip: 18792996 freq: 15
rob stalling non-critical load ip: 18793020 freq: 1
rob stalling non-critical load ip: 18793036 freq: 6
rob stalling non-critical load ip: 18793048 freq: 19
rob stalling non-critical load ip: 18793140 freq: 12
rob stalling non-critical load ip: 18793196 freq: 75
rob stalling non-critical load ip: 18793236 freq: 708
rob stalling non-critical load ip: 18793320 freq: 15
rob stalling non-critical load ip: 18793340 freq: 742
rob stalling non-critical load ip: 18793344 freq: 2
rob stalling non-critical load ip: 18793512 freq: 71
rob stalling non-critical load ip: 18793524 freq: 8
rob stalling non-critical load ip: 18848112 freq: 1
rob stalling non-critical load ip: 18848116 freq: 1
rob stalling non-critical load ip: 18848136 freq: 1
rob stalling non-critical load ip: 18848172 freq: 2
rob stalling non-critical load ip: 18848564 freq: 4
rob stalling non-critical load ip: 18848928 freq: 5
rob stalling non-critical load ip: 18851012 freq: 4
rob stalling non-critical load ip: 18851664 freq: 2
rob stalling non-critical load ip: 18956724 freq: 21
rob stalling non-critical load ip: 18956760 freq: 4
rob stalling non-critical load ip: 18956808 freq: 5
rob stalling non-critical load ip: 18956848 freq: 5
rob stalling non-critical load ip: 18956864 freq: 4
rob stalling non-critical load ip: 18956900 freq: 2
rob stalling non-critical load ip: 18960512 freq: 15
rob stalling non-critical load ip: 18960552 freq: 6
rob stalling non-critical load ip: 18960584 freq: 19
rob stalling non-critical load ip: 18960616 freq: 1
rob stalling non-critical load ip: 18960648 freq: 2
rob stalling non-critical load ip: 18960688 freq: 9
rob stalling non-critical load ip: 18960700 freq: 3
rob stalling non-critical load ip: 18960836 freq: 13
rob stalling non-critical load ip: 18960860 freq: 5
rob stalling non-critical load ip: 18960892 freq: 7
rob stalling non-critical load ip: 18960908 freq: 7
rob stalling non-critical load ip: 18960940 freq: 2
rob stalling non-critical load ip: 18960972 freq: 2
rob stalling non-critical load ip: 19454556 freq: 53
rob stalling non-critical load ip: 19454568 freq: 4
rob stalling non-critical load ip: 19454592 freq: 5
rob stalling non-critical load ip: 19454624 freq: 3
rob stalling non-critical load ip: 19489264 freq: 3
rob stalling non-critical load ip: 19489332 freq: 16
rob stalling non-critical load ip: 19489344 freq: 66
rob stalling non-critical load ip: 19489356 freq: 81
rob stalling non-critical load ip: 19489368 freq: 10
rob stalling non-critical load ip: 19489396 freq: 7
rob stalling non-critical load ip: 19489408 freq: 23
rob stalling non-critical load ip: 19493820 freq: 10
rob stalling non-critical load ip: 19493832 freq: 4
rob stalling non-critical load ip: 19493844 freq: 4
rob stalling non-critical load ip: 19493916 freq: 18
rob stalling non-critical load ip: 19493956 freq: 11
rob stalling non-critical load ip: 19493960 freq: 14
rob stalling non-critical load ip: 19493984 freq: 3
rob stalling non-critical load ip: 19494032 freq: 199
rob stalling non-critical load ip: 19494040 freq: 58
rob stalling non-critical load ip: 19494052 freq: 129
rob stalling non-critical load ip: 19494060 freq: 46
rob stalling non-critical load ip: 19494068 freq: 77
rob stalling non-critical load ip: 19494076 freq: 5938
rob stalling non-critical load ip: 19494084 freq: 84
rob stalling non-critical load ip: 19494096 freq: 94
rob stalling non-critical load ip: 19494104 freq: 12201
rob stalling non-critical load ip: 19494112 freq: 184
rob stalling non-critical load ip: 19494212 freq: 2
rob stalling non-critical load ip: 19494292 freq: 85
rob stalling non-critical load ip: 19494412 freq: 7
rob stalling non-critical load ip: 19495484 freq: 9
rob stalling non-critical load ip: 19495680 freq: 8
rob stalling non-critical load ip: 19495700 freq: 107
rob stalling non-critical load ip: 19495740 freq: 89
rob stalling non-critical load ip: 19495772 freq: 82
rob stalling non-critical load ip: 19495816 freq: 107
rob stalling non-critical load ip: 19496092 freq: 1
rob stalling non-critical load ip: 19496192 freq: 5940
rob stalling non-critical load ip: 19496208 freq: 1231
rob stalling non-critical load ip: 19496224 freq: 4432
rob stalling non-critical load ip: 19496236 freq: 5589
rob stalling non-critical load ip: 19496264 freq: 402
rob stalling non-critical load ip: 19496548 freq: 5
rob stalling non-critical load ip: 19496676 freq: 33
rob stalling non-critical load ip: 19496688 freq: 30
rob stalling non-critical load ip: 19496700 freq: 949
rob stalling non-critical load ip: 19496712 freq: 19
rob stalling non-critical load ip: 19496768 freq: 169
rob stalling non-critical load ip: 19496772 freq: 90
rob stalling non-critical load ip: 19496776 freq: 78
rob stalling non-critical load ip: 19496780 freq: 66
rob stalling non-critical load ip: 19496788 freq: 635
rob stalling non-critical load ip: 19496792 freq: 81
rob stalling non-critical load ip: 19496796 freq: 531
rob stalling non-critical load ip: 19496804 freq: 16
rob stalling non-critical load ip: 19496812 freq: 26
rob stalling non-critical load ip: 19496816 freq: 591
rob stalling non-critical load ip: 19496824 freq: 11
rob stalling non-critical load ip: 19496832 freq: 277
rob stalling non-critical load ip: 19496840 freq: 16
rob stalling non-critical load ip: 19496880 freq: 960
rob stalling non-critical load ip: 19496888 freq: 171
rob stalling non-critical load ip: 19496900 freq: 890
rob stalling non-critical load ip: 19496908 freq: 120
rob stalling non-critical load ip: 19496916 freq: 620
rob stalling non-critical load ip: 19496924 freq: 1023
rob stalling non-critical load ip: 19496932 freq: 111
rob stalling non-critical load ip: 19496944 freq: 131
rob stalling non-critical load ip: 19496952 freq: 3707
rob stalling non-critical load ip: 19496960 freq: 128
rob stalling non-critical load ip: 19497140 freq: 1658
rob stalling non-critical load ip: 19497220 freq: 3
rob stalling non-critical load ip: 19497228 freq: 5
rob stalling non-critical load ip: 19497260 freq: 84
rob stalling non-critical load ip: 19497416 freq: 3
rob stalling non-critical load ip: 19497448 freq: 49
rob stalling non-critical load ip: 19497544 freq: 5
rob stalling non-critical load ip: 19497776 freq: 1
rob stalling non-critical load ip: 19497852 freq: 4
rob stalling non-critical load ip: 19499140 freq: 28
rob stalling non-critical load ip: 19499152 freq: 12
rob stalling non-critical load ip: 19499172 freq: 33
rob stalling non-critical load ip: 19499416 freq: 11
rob stalling non-critical load ip: 19499804 freq: 1
rob stalling non-critical load ip: 19499832 freq: 13
rob stalling non-critical load ip: 19500056 freq: 3
rob stalling non-critical load ip: 19500084 freq: 10
rob stalling non-critical load ip: 19500756 freq: 4
rob stalling non-critical load ip: 19501032 freq: 2
rob stalling non-critical load ip: 19501068 freq: 4
rob stalling non-critical load ip: 19695740 freq: 15
rob stalling non-critical load ip: 19695780 freq: 6
rob stalling non-critical load ip: 19695796 freq: 16
rob stalling non-critical load ip: 19695888 freq: 8
rob stalling non-critical load ip: 19695924 freq: 5
rob stalling non-critical load ip: 19695960 freq: 2
rob stalling non-critical load ip: 19697760 freq: 1
rob stalling non-critical load ip: 19698228 freq: 2
rob stalling non-critical load ip: 19698324 freq: 1
rob stalling non-critical load ip: 19698420 freq: 1
rob stalling non-critical load ip: 19698480 freq: 2
rob stalling non-critical load ip: 19698736 freq: 3
rob stalling non-critical load ip: 19698816 freq: 1
rob stalling non-critical load ip: 19698884 freq: 4
rob stalling non-critical load ip: 19699968 freq: 4
rob stalling non-critical load ip: 19701440 freq: 18
rob stalling non-critical load ip: 19701456 freq: 10
rob stalling non-critical load ip: 19707028 freq: 16
rob stalling non-critical load ip: 19707188 freq: 2
[...]
Non-critical_ROB_Stalls_Percent_1_Bucket_5: 1882
Critical_ROB_Stalls_Percent_1_Bucket_6: 44
Non-critical_ROB_Stalls_Percent_1_Bucket_6: 1925
Critical_ROB_Stalls_Percent_2_Bucket_0: 721539
Non-critical_ROB_Stalls_Percent_2_Bucket_0: 352144
Critical_ROB_Stalls_Percent_2_Bucket_1: 2096
Non-critical_ROB_Stalls_Percent_2_Bucket_1: 53167
Critical_ROB_Stalls_Percent_2_Bucket_2: 313
Non-critical_ROB_Stalls_Percent_2_Bucket_2: 5323
Critical_ROB_Stalls_Percent_2_Bucket_3: 685
Non-critical_ROB_Stalls_Percent_2_Bucket_3: 3450
Critical_ROB_Stalls_Percent_2_Bucket_4: 75
Non-critical_ROB_Stalls_Percent_2_Bucket_4: 2583
Critical_ROB_Stalls_Percent_2_Bucket_5: 35
Non-critical_ROB_Stalls_Percent_2_Bucket_5: 1882
Critical_ROB_Stalls_Percent_2_Bucket_6: 44
Non-critical_ROB_Stalls_Percent_2_Bucket_6: 1925
Critical_ROB_Stalls_Percent_3_Bucket_0: 737235
Non-critical_ROB_Stalls_Percent_3_Bucket_0: 336448
Critical_ROB_Stalls_Percent_3_Bucket_1: 2101
Non-critical_ROB_Stalls_Percent_3_Bucket_1: 53162
Critical_ROB_Stalls_Percent_3_Bucket_2: 313
Non-critical_ROB_Stalls_Percent_3_Bucket_2: 5323
Critical_ROB_Stalls_Percent_3_Bucket_3: 685
Non-critical_ROB_Stalls_Percent_3_Bucket_3: 3450
Critical_ROB_Stalls_Percent_3_Bucket_4: 75
Non-critical_ROB_Stalls_Percent_3_Bucket_4: 2583
Critical_ROB_Stalls_Percent_3_Bucket_5: 35
Non-critical_ROB_Stalls_Percent_3_Bucket_5: 1882
Critical_ROB_Stalls_Percent_3_Bucket_6: 44
Non-critical_ROB_Stalls_Percent_3_Bucket_6: 1925
Critical_ROB_Stalls_Percent_4_Bucket_0: 771914
Non-critical_ROB_Stalls_Percent_4_Bucket_0: 301769
Critical_ROB_Stalls_Percent_4_Bucket_1: 18483
Non-critical_ROB_Stalls_Percent_4_Bucket_1: 36780
Critical_ROB_Stalls_Percent_4_Bucket_2: 1689
Non-critical_ROB_Stalls_Percent_4_Bucket_2: 3947
Critical_ROB_Stalls_Percent_4_Bucket_3: 1752
Non-critical_ROB_Stalls_Percent_4_Bucket_3: 2383
Critical_ROB_Stalls_Percent_4_Bucket_4: 1238
Non-critical_ROB_Stalls_Percent_4_Bucket_4: 1420
Critical_ROB_Stalls_Percent_4_Bucket_5: 1022
Non-critical_ROB_Stalls_Percent_4_Bucket_5: 895
Critical_ROB_Stalls_Percent_4_Bucket_6: 956
Non-critical_ROB_Stalls_Percent_4_Bucket_6: 1013
Critical_ROB_Stalls_Percent_5_Bucket_0: 818426
Non-critical_ROB_Stalls_Percent_5_Bucket_0: 255257
Critical_ROB_Stalls_Percent_5_Bucket_1: 29600
Non-critical_ROB_Stalls_Percent_5_Bucket_1: 25663
Critical_ROB_Stalls_Percent_5_Bucket_2: 2202
Non-critical_ROB_Stalls_Percent_5_Bucket_2: 3434
Critical_ROB_Stalls_Percent_5_Bucket_3: 2379
Non-critical_ROB_Stalls_Percent_5_Bucket_3: 1756
Critical_ROB_Stalls_Percent_5_Bucket_4: 1794
Non-critical_ROB_Stalls_Percent_5_Bucket_4: 864
Critical_ROB_Stalls_Percent_5_Bucket_5: 1391
Non-critical_ROB_Stalls_Percent_5_Bucket_5: 526
Critical_ROB_Stalls_Percent_5_Bucket_6: 1146
Non-critical_ROB_Stalls_Percent_5_Bucket_6: 823
Critical_ROB_Stalls_Percent_6_Bucket_0: 868899
Non-critical_ROB_Stalls_Percent_6_Bucket_0: 204784
Critical_ROB_Stalls_Percent_6_Bucket_1: 33844
Non-critical_ROB_Stalls_Percent_6_Bucket_1: 21419
Critical_ROB_Stalls_Percent_6_Bucket_2: 2274
Non-critical_ROB_Stalls_Percent_6_Bucket_2: 3362
Critical_ROB_Stalls_Percent_6_Bucket_3: 2388
Non-critical_ROB_Stalls_Percent_6_Bucket_3: 1747
Critical_ROB_Stalls_Percent_6_Bucket_4: 1804
Non-critical_ROB_Stalls_Percent_6_Bucket_4: 854
Critical_ROB_Stalls_Percent_6_Bucket_5: 1396
Non-critical_ROB_Stalls_Percent_6_Bucket_5: 521
Critical_ROB_Stalls_Percent_6_Bucket_6: 1150
Non-critical_ROB_Stalls_Percent_6_Bucket_6: 819
Critical_ROB_Stalls_Percent_7_Bucket_0: 922927
Non-critical_ROB_Stalls_Percent_7_Bucket_0: 150756
Critical_ROB_Stalls_Percent_7_Bucket_1: 36193
Non-critical_ROB_Stalls_Percent_7_Bucket_1: 19070
Critical_ROB_Stalls_Percent_7_Bucket_2: 2417
Non-critical_ROB_Stalls_Percent_7_Bucket_2: 3219
Critical_ROB_Stalls_Percent_7_Bucket_3: 2439
Non-critical_ROB_Stalls_Percent_7_Bucket_3: 1696
Critical_ROB_Stalls_Percent_7_Bucket_4: 1842
Non-critical_ROB_Stalls_Percent_7_Bucket_4: 816
Critical_ROB_Stalls_Percent_7_Bucket_5: 1401
Non-critical_ROB_Stalls_Percent_7_Bucket_5: 516
Critical_ROB_Stalls_Percent_7_Bucket_6: 1168
Non-critical_ROB_Stalls_Percent_7_Bucket_6: 801
Critical_ROB_Stalls_Percent_8_Bucket_0: 974569
Non-critical_ROB_Stalls_Percent_8_Bucket_0: 99114
Critical_ROB_Stalls_Percent_8_Bucket_1: 39982
Non-critical_ROB_Stalls_Percent_8_Bucket_1: 15281
Critical_ROB_Stalls_Percent_8_Bucket_2: 2694
Non-critical_ROB_Stalls_Percent_8_Bucket_2: 2942
Critical_ROB_Stalls_Percent_8_Bucket_3: 2607
Non-critical_ROB_Stalls_Percent_8_Bucket_3: 1528
Critical_ROB_Stalls_Percent_8_Bucket_4: 1913
Non-critical_ROB_Stalls_Percent_8_Bucket_4: 745
Critical_ROB_Stalls_Percent_8_Bucket_5: 1444
Non-critical_ROB_Stalls_Percent_8_Bucket_5: 473
Critical_ROB_Stalls_Percent_8_Bucket_6: 1226
Non-critical_ROB_Stalls_Percent_8_Bucket_6: 743
Average ROB occupancy Load Stall Begin: 14.7048
Average ROB occupancy Load Stall End: 18.6481
Min ROB occupancy Load Stall Begin: 1
Max ROB occupancy Load Stall Begin: 351
Min ROB occupancy Load Stall End: 1
Max ROB occupancy Load Stall End: 352
Average ROB occupancy Critical Load Stall Begin: -nan
Average ROB occupancy Critical Load Stall End: -nan
Min ROB occupancy Critical Load Stall Begin: 400
Max ROB occupancy Critical Load Stall Begin: 0
Min ROB occupancy Critical Load Stall End: 400
Max ROB occupancy Critical Load Stall End: 0
 ROB Load Stall Begin Bucket Count 0: 1089233
 ROB Load Stall End Bucket Count 0: 1073683
 ROB Critical Load Stall Begin Bucket Count 0: 0
 ROB Critical Load Stall End Bucket Count 0: 0
 ROB Load Stall Begin Bucket Count 1: 42436
 ROB Load Stall End Bucket Count 1: 55263
 ROB Critical Load Stall Begin Bucket Count 1: 0
 ROB Critical Load Stall End Bucket Count 1: 0
 ROB Load Stall Begin Bucket Count 2: 4918
 ROB Load Stall End Bucket Count 2: 5636
 ROB Critical Load Stall Begin Bucket Count 2: 0
 ROB Critical Load Stall End Bucket Count 2: 0
 ROB Load Stall Begin Bucket Count 3: 3111
 ROB Load Stall End Bucket Count 3: 4135
 ROB Critical Load Stall Begin Bucket Count 3: 0
 ROB Critical Load Stall End Bucket Count 3: 0
 ROB Load Stall Begin Bucket Count 4: 2483
 ROB Load Stall End Bucket Count 4: 2658
 ROB Critical Load Stall Begin Bucket Count 4: 0
 ROB Critical Load Stall End Bucket Count 4: 0
 ROB Load Stall Begin Bucket Count 5: 1671
 ROB Load Stall End Bucket Count 5: 1917
 ROB Critical Load Stall Begin Bucket Count 5: 0
 ROB Critical Load Stall End Bucket Count 5: 0
 ROB Load Stall Begin Bucket Count 6: 1409
 ROB Load Stall End Bucket Count 6: 1969
 ROB Critical Load Stall Begin Bucket Count 6: 0
 ROB Critical Load Stall End Bucket Count 6: 0
PIST Tag Read Accesses: 83422
PIST Read Accesses: 41711
PIST Tag Write Accesses: 83422
PIST Write Accesses: 41711
Criticality detector called times: 234573
Max global_stall_cycles_count: 94492
Threshold Modified: 1 times, factor: -1
Sturdy critical IP cache stats: 
 Unused entries: 0
CIC Tag Read Accesses: 0
CIC Read Accesses: 0
CIC Tag Write Accesses: 0
CIC Write Accesses: 0
Wobbly critical IP cache stats: 
 Unused entries: 125
CIC Tag Read Accesses: 48636973
CIC Read Accesses: 0
CIC Tag Write Accesses: 3
CIC Write Accesses: 0
ITLB TOTAL     ACCESS:    8815627  HIT:    7804623  MISS:    1011004  HIT %:    88.5317  MISS %:    11.4683   MPKI: 20.2201
ITLB LOAD TRANSLATION ACCESS:    8815627  HIT:    7804623  MISS:    1011004  HIT %:    88.5317  MISS %:    11.4683   MPKI: 20.2201
ITLB PREFETCH  REQUESTED:          0  ISSUED:          0  USEFUL:          0  USELESS:          0
ITLB USEFUL LOAD PREFETCHES:          0 PREFETCH ISSUED TO LOWER LEVEL:          0  ACCURACY: -nan
ITLB TIMELY PREFETCHES:          0 LATE PREFETCHES: 0 DROPPED PREFETCHES: 0
ITLB PREFETCHES SAME FILL-ORIGIN LEVEL: 0 DIFFERENT FILL-ORIGIN LEVEL: 0
ITLB AVERAGE MISS LATENCY: 31.9808 cycles
ITLB RQ	ACCESS:   10355418	FORWARD:          0	MERGED:    1162445	TO_CACHE:    9192973

DTLB TOTAL     ACCESS:    6019406  HIT:    4424243  MISS:    1595163  HIT %:    73.4997  MISS %:    26.5003   MPKI: 31.9033
DTLB LOAD TRANSLATION ACCESS:    6019406  HIT:    4424243  MISS:    1595163  HIT %:    73.4997  MISS %:    26.5003   MPKI: 31.9033
DTLB PREFETCH  REQUESTED:          0  ISSUED:          0  USEFUL:          0  USELESS:          0
DTLB USEFUL LOAD PREFETCHES:          0 PREFETCH ISSUED TO LOWER LEVEL:          0  ACCURACY: -nan
DTLB TIMELY PREFETCHES:          0 LATE PREFETCHES: 0 DROPPED PREFETCHES: 0
DTLB PREFETCHES SAME FILL-ORIGIN LEVEL: 0 DIFFERENT FILL-ORIGIN LEVEL: 0
DTLB AVERAGE MISS LATENCY: 33.098 cycles
DTLB RQ	ACCESS:    8335963	FORWARD:          0	MERGED:    2022249	TO_CACHE:    6313714

STLB TOTAL     ACCESS:    2606167  HIT:     577291  MISS:    2028876  HIT %:     22.151  MISS %:     77.849   MPKI: 40.5775
STLB LOAD TRANSLATION ACCESS:    2606167  HIT:     577291  MISS:    2028876  HIT %:     22.151  MISS %:     77.849   MPKI: 40.5775
STLB PREFETCH  REQUESTED:          0  ISSUED:          0  USEFUL:          0  USELESS:          0
STLB USEFUL LOAD PREFETCHES:          0 PREFETCH ISSUED TO LOWER LEVEL:          0  ACCURACY: -nan
STLB TIMELY PREFETCHES:          0 LATE PREFETCHES: 0 DROPPED PREFETCHES: 0
STLB PREFETCHES SAME FILL-ORIGIN LEVEL: 0 DIFFERENT FILL-ORIGIN LEVEL: 0
STLB AVERAGE MISS LATENCY: 30.3071 cycles
STLB RQ	ACCESS:    2606166	FORWARD:          0	MERGED:          0	TO_CACHE:    2606166

STLB Hit, L1D data hit: 0
STLB Hit, L2C data hit: 0
STLB Hit, LLC data hit: 0
STLB Hit, LLC data miss: 0
STLB STLB hints to L2: 0
L1D TOTAL     ACCESS:    8013560  HIT:    7536386  MISS:     477174  HIT %:    94.0454  MISS %:    5.95458   MPKI: 9.54348
L1D LOAD      ACCESS:    5075856  HIT:    4688040  MISS:     387816  HIT %:    92.3596  MISS %:    7.64041   MPKI: 7.75632
L1D RFO       ACCESS:    2937704  HIT:    2848346  MISS:      89358  HIT %:    96.9582  MISS %:    3.04176   MPKI: 1.78716
L1D PREFETCH  REQUESTED:          0  ISSUED:          0  USEFUL:          0  USELESS:          0
L1D USEFUL LOAD PREFETCHES:          0 PREFETCH ISSUED TO LOWER LEVEL:          0  ACCURACY: -nan
L1D TIMELY PREFETCHES:          0 LATE PREFETCHES: 0 DROPPED PREFETCHES: 0
L1D PREFETCHES SAME FILL-ORIGIN LEVEL: 0 DIFFERENT FILL-ORIGIN LEVEL: 0
L1D AVERAGE MISS LATENCY: 37.6096 cycles
L1D RQ	ACCESS:    8451218	FORWARD:          0	MERGED:    3327106	TO_CACHE:    5108304
L1D WQ	ACCESS:    3255266	FORWARD:      15808	MERGED:      27607	TO_CACHE:    3227659

L1D UNIQUE REGIONS ACCESSED: 0
L1D REGIONS CONFLICTS: 0
L1D Cross Page Prefetch Requests: 0
L1D Same Page Prefetch Requests: 0
L1D ROI Sum of L1D PQ occupancy: 0
L1D PREFETCHES PUSHED FROM L2C: 0
L1I TOTAL     ACCESS:    9935214  HIT:    8575565  MISS:    1359649  HIT %:    86.3148  MISS %:    13.6852   MPKI: 27.193
L1I LOAD      ACCESS:    9935214  HIT:    8575565  MISS:    1359649  HIT %:    86.3148  MISS %:    13.6852   MPKI: 27.193
L1I PREFETCH  REQUESTED:          0  ISSUED:          0  USEFUL:          0  USELESS:          0
L1I USEFUL LOAD PREFETCHES:          0 PREFETCH ISSUED TO LOWER LEVEL:          0  ACCURACY: -nan
L1I TIMELY PREFETCHES:          0 LATE PREFETCHES: 0 DROPPED PREFETCHES: 0
L1I PREFETCHES SAME FILL-ORIGIN LEVEL: 0 DIFFERENT FILL-ORIGIN LEVEL: 0
L1I AVERAGE MISS LATENCY: 15.2373 cycles
L1I RQ	ACCESS:   18162207	FORWARD:          0	MERGED:    7806789	TO_CACHE:   10355418

BTB BRANCH_DIRECT_JUMP	ACCESS:          0  HIT:          0  MISS:          0
BTB BRANCH_INDIRECT	ACCESS:          0  HIT:          0  MISS:          0
BTB BRANCH_CONDITIONAL	ACCESS:          0  HIT:          0  MISS:          0
BTB BRANCH_DIRECT_CALL	ACCESS:          0  HIT:          0  MISS:          0
BTB BRANCH_INDIRECT_CALL	ACCESS:          0  HIT:          0  MISS:          0
BTB BRANCH_RETURN	ACCESS:          0  HIT:          0  MISS:          0
BTB BRANCH_OTHER ACCESS:          0  HIT:          0  MISS:          0

L2C TOTAL     ACCESS:    4594539  HIT:    4282243  MISS:     312296  HIT %:    93.2029  MISS %:    6.79711   MPKI: 6.24592
L2C LOAD      ACCESS:    1747446  HIT:    1667564  MISS:      79882  HIT %:    95.4286  MISS %:    4.57136   MPKI: 1.59764
L2C DATA LOAD MPKI: 1.13134
L2C INSTRUCTION LOAD MPKI: 0.4663
L2C RFO       ACCESS:      89346  HIT:      47959  MISS:      41387  HIT %:    53.6778  MISS %:    46.3222   MPKI: 0.82774
L2C PREFETCH  ACCESS:     262111  HIT:      86886  MISS:     175225  HIT %:    33.1486  MISS %:    66.8514   MPKI: 3.5045
L2C DATA PREFETCH MPKI: 3.5045
L2C INSTRUCTION PREFETCH MPKI: 0
L2C WRITEBACK ACCESS:     170949  HIT:     166432  MISS:       4517  HIT %:    97.3577  MISS %:    2.64231   MPKI: 0.09034
L2C LOAD TRANSLATION ACCESS:    2324687  HIT:    2313402  MISS:      11285  HIT %:    99.5146  MISS %:   0.485442   MPKI: 0.2257
L2C PREFETCH  REQUESTED:     274593  ISSUED:     274593  USEFUL:     144844  USELESS:      30630
L2C USEFUL LOAD PREFETCHES:     144844 PREFETCH ISSUED TO LOWER LEVEL:     179556  ACCURACY: 80.6679
L2C TIMELY PREFETCHES:     144844 LATE PREFETCHES: 4331 DROPPED PREFETCHES: 0
L2C PREFETCHES SAME FILL-ORIGIN LEVEL: 179556 DIFFERENT FILL-ORIGIN LEVEL: 0
L2C AVERAGE MISS LATENCY: 127.175 cycles
L2C RQ	ACCESS:    4161510	FORWARD:          0	MERGED:          0	TO_CACHE:    4161482
L2C WQ	ACCESS:     170949	FORWARD:         28	MERGED:          0	TO_CACHE:     170949
L2C PQ	ACCESS:     274593	FORWARD:          0	MERGED:          0	TO_CACHE:     274593

L2C Instructions Evicting Data 16484
L2C Translations Evicting Data 9827
L2C Data Evicting Data 247628
L2C Instructions Evicting Instructions 5698
L2C Translations Evicting Instructions 1022
L2C Data Evicting Instructions 15916
L2C Instructions Evicting Translations 1133
L2C Translations Evicting Translations 436
L2C Data Evicting Translations 9635
L2C Dense regions hint from L2: 0
PSCL5 TOTAL     ACCESS:    2028875  HIT:    2028875  MISS:          0  HIT %:        100  MISS %:          0   MPKI: 0
PSCL5 LOAD TRANSLATION ACCESS:    2028875  HIT:    2028875  MISS:          0  HIT %:        100  MISS %:          0   MPKI: 0
PSCL5 PREFETCH  REQUESTED:          0  ISSUED:          0  USEFUL:          0  USELESS:          0
PSCL5 USEFUL LOAD PREFETCHES:          0 PREFETCH ISSUED TO LOWER LEVEL:          0  ACCURACY: -nan
PSCL5 TIMELY PREFETCHES:          0 LATE PREFETCHES: 0 DROPPED PREFETCHES: 0
PSCL5 PREFETCHES SAME FILL-ORIGIN LEVEL: 0 DIFFERENT FILL-ORIGIN LEVEL: 0

PSCL4 TOTAL     ACCESS:    2028875  HIT:    2028875  MISS:          0  HIT %:        100  MISS %:          0   MPKI: 0
PSCL4 LOAD TRANSLATION ACCESS:    2028875  HIT:    2028875  MISS:          0  HIT %:        100  MISS %:          0   MPKI: 0
PSCL4 PREFETCH  REQUESTED:          0  ISSUED:          0  USEFUL:          0  USELESS:          0
PSCL4 USEFUL LOAD PREFETCHES:          0 PREFETCH ISSUED TO LOWER LEVEL:          0  ACCURACY: -nan
PSCL4 TIMELY PREFETCHES:          0 LATE PREFETCHES: 0 DROPPED PREFETCHES: 0
PSCL4 PREFETCHES SAME FILL-ORIGIN LEVEL: 0 DIFFERENT FILL-ORIGIN LEVEL: 0

PSCL3 TOTAL     ACCESS:    2028702  HIT:    2028612  MISS:         90  HIT %:    99.9956  MISS %: 0.00443633   MPKI: 0.0018
PSCL3 LOAD TRANSLATION ACCESS:    2028702  HIT:    2028612  MISS:         90  HIT %:    99.9956  MISS %: 0.00443633   MPKI: 0.0018
PSCL3 PREFETCH  REQUESTED:          0  ISSUED:          0  USEFUL:          0  USELESS:          0
PSCL3 USEFUL LOAD PREFETCHES:          0 PREFETCH ISSUED TO LOWER LEVEL:          0  ACCURACY: -nan
PSCL3 TIMELY PREFETCHES:          0 LATE PREFETCHES: 0 DROPPED PREFETCHES: 0
PSCL3 PREFETCHES SAME FILL-ORIGIN LEVEL: 0 DIFFERENT FILL-ORIGIN LEVEL: 0

PSCL2 TOTAL     ACCESS:    2028875  HIT:    1733009  MISS:     295866  HIT %:    85.4172  MISS %:    14.5828   MPKI: 5.91732
PSCL2 LOAD TRANSLATION ACCESS:    2028875  HIT:    1733009  MISS:     295866  HIT %:    85.4172  MISS %:    14.5828   MPKI: 5.91732
PSCL2 PREFETCH  REQUESTED:          0  ISSUED:          0  USEFUL:          0  USELESS:          0
PSCL2 USEFUL LOAD PREFETCHES:          0 PREFETCH ISSUED TO LOWER LEVEL:          0  ACCURACY: -nan
PSCL2 TIMELY PREFETCHES:          0 LATE PREFETCHES: 0 DROPPED PREFETCHES: 0
PSCL2 PREFETCHES SAME FILL-ORIGIN LEVEL: 0 DIFFERENT FILL-ORIGIN LEVEL: 0

LLC TOTAL     ACCESS:     374416  HIT:     155162  MISS:     219254  HIT %:    41.4411  MISS %:    58.5589   MPKI: 4.38508
LLC LOAD      ACCESS:      75556  HIT:      47233  MISS:      28323  HIT %:    62.5139  MISS %:    37.4861   MPKI: 0.56646
LLC RFO       ACCESS:      41380  HIT:      14478  MISS:      26902  HIT %:    34.9879  MISS %:    65.0121   MPKI: 0.53804
LLC PREFETCH  ACCESS:     179556  HIT:      21127  MISS:     158429  HIT %:    11.7662  MISS %:    88.2338   MPKI: 3.16858
LLC WRITEBACK ACCESS:      66639  HIT:      65632  MISS:       1007  HIT %:    98.4889  MISS %:    1.51113   MPKI: 0.02014
LLC LOAD TRANSLATION ACCESS:      11285  HIT:       6692  MISS:       4593  HIT %:       59.3  MISS %:       40.7   MPKI: 0.09186
LLC PREFETCH  REQUESTED:          0  ISSUED:          0  USEFUL:       1276  USELESS:     157330
LLC USEFUL LOAD PREFETCHES:       1276 PREFETCH ISSUED TO LOWER LEVEL:     158429  ACCURACY: 0.805408
LLC TIMELY PREFETCHES:       1276 LATE PREFETCHES: 0 DROPPED PREFETCHES: 0
LLC PREFETCHES SAME FILL-ORIGIN LEVEL: 0 DIFFERENT FILL-ORIGIN LEVEL: 0
LLC AVERAGE MISS LATENCY: 139.313 cycles
LLC RQ	ACCESS:     128223	FORWARD:          0	MERGED:          0	TO_CACHE:     128221
LLC WQ	ACCESS:      66639	FORWARD:          2	MERGED:          0	TO_CACHE:      66639
LLC PQ	ACCESS:     179556	FORWARD:          0	MERGED:          0	TO_CACHE:     179556

LLC Dense regions hint to LLC: 0

RAW hits: 127250
Loads Generated: 8578469
Loads sent to L1D: 8451218
Stores Generated: 3255266
Stores sent to L1D: 3255266
Major fault: 0 Minor fault: 14030
Allocated PAGES: 14030
[Bingo] PHT Access: 91990
[Bingo] PHT Hit PC+Addr: 41320
[Bingo] PHT Hit PC+Offs: 23843
[Bingo] PHT Miss: 26827
[Bingo] Prefetch PC+Addr: 0
[Bingo] Prefetch PC+Offs: 0
[Bingo] Useful PC+Addr: 0
[Bingo] Useful PC+Offs: 0
[Bingo] Useless PC+Addr: 0
[Bingo] Useless PC+Offs: 0
[Bingo] L1 Prefetch per Region: 0
[Bingo] L2 Prefetch per Region: 5.22958
[Bingo] L3 Prefetch per Region: 0
[Bingo] No Prefetch per Region: 26.7704
[Bingo] Number of Voters Mean: 8.78027
[Bingo] Number of Voters SD: 11.9596
PHT read accesses: 692475
PHT write accesses: 33150
AT read accesses: 290570
AT write accesses: 313218
FT read accesses: 136142
FT write accesses: 91990
PS read accesses: 139353
PS write accesses: 65163
PHT tag read accesses: 1717519
PHT tag write accesses: 74470
AT tag read accesses: 12714405
AT tag write accesses: 323718
FT tag read accesses: 10429664
FT tag write accesses: 179244
PS tag read accesses: 8747759
PS tag write accesses: 204418

DRAM Statistics
 CHANNEL 0
 RQ ROW_BUFFER_HIT:     152260  ROW_BUFFER_MISS:      65987
 DBUS_CONGESTED:         81
 WQ ROW_BUFFER_HIT:       3711  ROW_BUFFER_MISS:      30369  FULL:          0

 AVG_CONGESTED_CYCLE: 4
 All warmup complete: 2
Channel 0 Bank busy for read cycles: 0
Channel 0 Bank busy for write cycles: 0
Channel 0
Rank 0
0banks busy for read cycles: 79921723
0banks busy for write cycles: 7905
1banks busy for read cycles: 2219869
1banks busy for write cycles: 892828
2banks busy for read cycles: 1050860
2banks busy for write cycles: 394089
3banks busy for read cycles: 479765
3banks busy for write cycles: 247652
4banks busy for read cycles: 290932
4banks busy for write cycles: 164845
5banks busy for read cycles: 209953
5banks busy for write cycles: 125930
6banks busy for read cycles: 158005
6banks busy for write cycles: 102545
7banks busy for read cycles: 327204
7banks busy for write cycles: 87193
8banks busy for read cycles: 789488
8banks busy for write cycles: 104503

CPU 0 Branch Prediction Accuracy: 99.3573% MPKI: 1.12174 Average ROB Occupancy at Mispredict: 29.8124
Branch types
NOT_BRANCH: 0 0%
BRANCH_DIRECT_JUMP: 0 0%
BRANCH_INDIRECT: 0 0%
BRANCH_CONDITIONAL: 0 0%
BRANCH_DIRECT_CALL: 0 0%
BRANCH_INDIRECT_CALL: 0 0%
BRANCH_RETURN: 0 0%
BRANCH_OTHER: 0 0%

DRAM PAGES: 1048576
Allocated PAGES: 14030
