
*** ChampSim Multicore Out-of-Order Simulator ***

Warmup Instructions: 50000000
Simulation Instructions: 50000000
Number of CPUs: 1
LLC sets: 2048
LLC ways: 16
Off-chip DRAM Size: 4096 MB Channels: 1 Width: 64-bit Data Rate: 6400 MT/s
CPU 0 runs ../cloudsuite_traces//streaming_phase1_core1.trace.gz
.gz
NUM_OF_IPS_IN_CRITICAL_IP_TRAINING: 64
NUM_OF_CRITICAL_IP_TRAINING_TABLE_WAYS: 2
NUM_OF_CRITICAL_IP_TRAINING_TABLE_SETS: 32
WOBBLY_CRITICAL_IP_CACHE_SETS: 32
WOBBLY_CRITICAL_IP_CACHE_WAYS: 4
BTB has LRU replacement policy
ITLB has LRU replacement policy
DTLB has LRU replacement policy
STLB has LRU replacement policy
L1I has LRU replacement policy
L1D has LRU replacement policy
Bingo PHT WAYS: 16 and PHT_SIZE: 16384
Initialize SRRIP state for L2C
Initialize DRRIP state for LLC
UNIQUE_ASID[0] = €
UNIQUE_ASID[1] = 
Heartbeat CPU 0 instructions: 10000002 cycles: 3378196 heartbeat IPC: 2.96016 cumulative IPC: 2.96016 (Simulation time: 0 hr 3 min 25 sec) 
Heartbeat CPU 0 instructions: 20000003 cycles: 6772991 heartbeat IPC: 2.94569 cumulative IPC: 2.95291 (Simulation time: 0 hr 6 min 25 sec) 
Heartbeat CPU 0 instructions: 30000003 cycles: 10150518 heartbeat IPC: 2.96075 cumulative IPC: 2.95551 (Simulation time: 0 hr 9 min 21 sec) 
Heartbeat CPU 0 instructions: 40000001 cycles: 13533417 heartbeat IPC: 2.95604 cumulative IPC: 2.95565 (Simulation time: 0 hr 12 min 17 sec) 
Heartbeat CPU 0 instructions: 50000002 cycles: 16932338 heartbeat IPC: 2.94211 cumulative IPC: 2.95293 (Simulation time: 0 hr 15 min 13 sec) 

Warmup complete CPU 0 instructions: 50000002 cycles: 16932338 (Simulation time: 0 hr 15 min 13 sec) 

% increase in all ip prefetch 382.881
% increase in all ip prefetch -0.932427
Heartbeat CPU 0 instructions: 60000003 cycles: 34628681 heartbeat IPC: 0.565089 cumulative IPC: 0.565089 (Simulation time: 0 hr 19 min 30 sec) 
Heartbeat CPU 0 instructions: 70000001 cycles: 51593029 heartbeat IPC: 0.589471 cumulative IPC: 0.577022 (Simulation time: 0 hr 22 min 57 sec) 
Heartbeat CPU 0 instructions: 80000000 cycles: 69097958 heartbeat IPC: 0.571268 cumulative IPC: 0.575091 (Simulation time: 0 hr 26 min 52 sec) 
Heartbeat CPU 0 instructions: 90000000 cycles: 86714482 heartbeat IPC: 0.567649 cumulative IPC: 0.573213 (Simulation time: 0 hr 30 min 48 sec) 
Heartbeat CPU 0 instructions: 100000002 cycles: 104562915 heartbeat IPC: 0.560273 cumulative IPC: 0.570577 (Simulation time: 0 hr 34 min 8 sec) 
Finished CPU 0 instructions: 50000000 cycles: 87630577 cumulative IPC: 0.570577 (Simulation time: 0 hr 34 min 8 sec) 

ChampSim completed all CPUs

Region of Interest Statistics

CPU 0 cumulative IPC: 0.570577 instructions: 50000000 cycles: 87630577

CPU 0 Average Load ROB stall cycles: 7.0201e+06
CPU 0 Fraction of times ROB stalled by Loads: 11.9808
CPU 0 Percentage of Load stall cycles in Total stall cycles: 9.61271e+07
 Total stall cycles: 48225978
 Total load stall cycles: 46358249508134
CPU 0 NUM of IPS identified critical: 0
CPU 0 Num of Load IPs stalling ROB: 2119
Threshold modification factor: -1
Max PIST entries: 64
Min PIST entries: 0
Avg PIST entries: 30.57
Critical IP stalls, total frequency: 0
rob stalling non-critical load ip: 236068 freq: 74
rob stalling non-critical load ip: 236144 freq: 82
rob stalling non-critical load ip: 236148 freq: 47
rob stalling non-critical load ip: 241788 freq: 55
rob stalling non-critical load ip: 241796 freq: 3389
rob stalling non-critical load ip: 241836 freq: 28
rob stalling non-critical load ip: 241972 freq: 57
rob stalling non-critical load ip: 241992 freq: 57
rob stalling non-critical load ip: 241996 freq: 94
rob stalling non-critical load ip: 242000 freq: 30
rob stalling non-critical load ip: 242004 freq: 1
rob stalling non-critical load ip: 242020 freq: 53
rob stalling non-critical load ip: 242112 freq: 3
rob stalling non-critical load ip: 242148 freq: 84
rob stalling non-critical load ip: 242156 freq: 128
rob stalling non-critical load ip: 242176 freq: 1520
rob stalling non-critical load ip: 242180 freq: 2847
rob stalling non-critical load ip: 242184 freq: 201
rob stalling non-critical load ip: 242208 freq: 84
rob stalling non-critical load ip: 242224 freq: 63
rob stalling non-critical load ip: 242232 freq: 30
rob stalling non-critical load ip: 242236 freq: 6
rob stalling non-critical load ip: 245668 freq: 1200
rob stalling non-critical load ip: 245676 freq: 133
rob stalling non-critical load ip: 245716 freq: 9
rob stalling non-critical load ip: 245732 freq: 34
rob stalling non-critical load ip: 245792 freq: 24
rob stalling non-critical load ip: 245800 freq: 288
rob stalling non-critical load ip: 245804 freq: 2
rob stalling non-critical load ip: 245816 freq: 2
rob stalling non-critical load ip: 245848 freq: 303
rob stalling non-critical load ip: 245860 freq: 32
rob stalling non-critical load ip: 245864 freq: 58
rob stalling non-critical load ip: 245876 freq: 56
rob stalling non-critical load ip: 245880 freq: 70
rob stalling non-critical load ip: 245892 freq: 23
rob stalling non-critical load ip: 246008 freq: 29
rob stalling non-critical load ip: 246168 freq: 79
rob stalling non-critical load ip: 246204 freq: 580
rob stalling non-critical load ip: 246216 freq: 477
rob stalling non-critical load ip: 246244 freq: 2563
rob stalling non-critical load ip: 246256 freq: 6
rob stalling non-critical load ip: 246344 freq: 205
rob stalling non-critical load ip: 246356 freq: 2
rob stalling non-critical load ip: 287024 freq: 33
rob stalling non-critical load ip: 287060 freq: 37
rob stalling non-critical load ip: 287088 freq: 19
rob stalling non-critical load ip: 287108 freq: 33
rob stalling non-critical load ip: 287112 freq: 9
rob stalling non-critical load ip: 287220 freq: 51
rob stalling non-critical load ip: 287244 freq: 25
rob stalling non-critical load ip: 287248 freq: 256
rob stalling non-critical load ip: 287268 freq: 32
rob stalling non-critical load ip: 300124 freq: 38
rob stalling non-critical load ip: 300836 freq: 48
rob stalling non-critical load ip: 300840 freq: 521
rob stalling non-critical load ip: 300848 freq: 300
rob stalling non-critical load ip: 300912 freq: 436
rob stalling non-critical load ip: 300936 freq: 16
rob stalling non-critical load ip: 300964 freq: 1384
rob stalling non-critical load ip: 301056 freq: 8
rob stalling non-critical load ip: 301164 freq: 2
rob stalling non-critical load ip: 301188 freq: 36
rob stalling non-critical load ip: 301524 freq: 28
rob stalling non-critical load ip: 301712 freq: 43
rob stalling non-critical load ip: 301716 freq: 242
rob stalling non-critical load ip: 301720 freq: 14
rob stalling non-critical load ip: 318120 freq: 5
rob stalling non-critical load ip: 318132 freq: 8
rob stalling non-critical load ip: 318636 freq: 17
rob stalling non-critical load ip: 318828 freq: 4
rob stalling non-critical load ip: 318948 freq: 4
rob stalling non-critical load ip: 318964 freq: 1
rob stalling non-critical load ip: 319000 freq: 1
rob stalling non-critical load ip: 323492 freq: 1
rob stalling non-critical load ip: 329660 freq: 20
rob stalling non-critical load ip: 329676 freq: 15
rob stalling non-critical load ip: 341868 freq: 1045
rob stalling non-critical load ip: 341884 freq: 15
rob stalling non-critical load ip: 341888 freq: 2
rob stalling non-critical load ip: 341892 freq: 7
rob stalling non-critical load ip: 341916 freq: 20
rob stalling non-critical load ip: 341940 freq: 19
rob stalling non-critical load ip: 341944 freq: 1124
rob stalling non-critical load ip: 342004 freq: 578
rob stalling non-critical load ip: 342068 freq: 19
rob stalling non-critical load ip: 352028 freq: 2
rob stalling non-critical load ip: 352136 freq: 1
rob stalling non-critical load ip: 352920 freq: 14
rob stalling non-critical load ip: 352968 freq: 4
rob stalling non-critical load ip: 353000 freq: 73
rob stalling non-critical load ip: 353036 freq: 42
rob stalling non-critical load ip: 353040 freq: 2
rob stalling non-critical load ip: 353052 freq: 21
rob stalling non-critical load ip: 353076 freq: 31
rob stalling non-critical load ip: 353092 freq: 3
rob stalling non-critical load ip: 353216 freq: 20
rob stalling non-critical load ip: 353220 freq: 1694
rob stalling non-critical load ip: 353236 freq: 27
rob stalling non-critical load ip: 353260 freq: 18
rob stalling non-critical load ip: 353312 freq: 220
rob stalling non-critical load ip: 353316 freq: 73
rob stalling non-critical load ip: 353332 freq: 23
rob stalling non-critical load ip: 353356 freq: 17
rob stalling non-critical load ip: 353392 freq: 1984
rob stalling non-critical load ip: 353416 freq: 1
rob stalling non-critical load ip: 353492 freq: 77
rob stalling non-critical load ip: 353524 freq: 7
rob stalling non-critical load ip: 353540 freq: 17
rob stalling non-critical load ip: 353544 freq: 122
rob stalling non-critical load ip: 353564 freq: 121
rob stalling non-critical load ip: 353604 freq: 52
rob stalling non-critical load ip: 353636 freq: 91
rob stalling non-critical load ip: 353640 freq: 157
rob stalling non-critical load ip: 353652 freq: 8
rob stalling non-critical load ip: 353696 freq: 23
rob stalling non-critical load ip: 353744 freq: 10
rob stalling non-critical load ip: 353784 freq: 73
rob stalling non-critical load ip: 353788 freq: 179
rob stalling non-critical load ip: 353828 freq: 289
rob stalling non-critical load ip: 353832 freq: 5
rob stalling non-critical load ip: 353836 freq: 4
rob stalling non-critical load ip: 353840 freq: 2
rob stalling non-critical load ip: 353852 freq: 5
rob stalling non-critical load ip: 353880 freq: 20
rob stalling non-critical load ip: 353904 freq: 4
rob stalling non-critical load ip: 353912 freq: 46
rob stalling non-critical load ip: 353948 freq: 80
rob stalling non-critical load ip: 353960 freq: 6
rob stalling non-critical load ip: 353984 freq: 10
rob stalling non-critical load ip: 354164 freq: 220
rob stalling non-critical load ip: 354176 freq: 11
rob stalling non-critical load ip: 354200 freq: 1
rob stalling non-critical load ip: 354212 freq: 4
rob stalling non-critical load ip: 354712 freq: 43
rob stalling non-critical load ip: 354716 freq: 176
rob stalling non-critical load ip: 354728 freq: 9
rob stalling non-critical load ip: 354740 freq: 182
rob stalling non-critical load ip: 354744 freq: 10
rob stalling non-critical load ip: 354752 freq: 13
rob stalling non-critical load ip: 354764 freq: 70
rob stalling non-critical load ip: 354776 freq: 77
rob stalling non-critical load ip: 516668 freq: 84
rob stalling non-critical load ip: 516676 freq: 19
rob stalling non-critical load ip: 516968 freq: 5
rob stalling non-critical load ip: 516976 freq: 1358
rob stalling non-critical load ip: 517352 freq: 60
rob stalling non-critical load ip: 517396 freq: 13
rob stalling non-critical load ip: 517404 freq: 5
rob stalling non-critical load ip: 589008 freq: 7
rob stalling non-critical load ip: 589036 freq: 1
rob stalling non-critical load ip: 589052 freq: 2
rob stalling non-critical load ip: 589084 freq: 8
rob stalling non-critical load ip: 589120 freq: 6
rob stalling non-critical load ip: 589136 freq: 28
rob stalling non-critical load ip: 589144 freq: 95
rob stalling non-critical load ip: 589156 freq: 13
rob stalling non-critical load ip: 589180 freq: 20
rob stalling non-critical load ip: 589212 freq: 41
rob stalling non-critical load ip: 589228 freq: 3
rob stalling non-critical load ip: 589232 freq: 1
rob stalling non-critical load ip: 589236 freq: 239
rob stalling non-critical load ip: 589240 freq: 142
rob stalling non-critical load ip: 589252 freq: 148
rob stalling non-critical load ip: 589256 freq: 30
rob stalling non-critical load ip: 589260 freq: 1
rob stalling non-critical load ip: 589284 freq: 133
rob stalling non-critical load ip: 589288 freq: 35
rob stalling non-critical load ip: 589392 freq: 26
rob stalling non-critical load ip: 589908 freq: 13
rob stalling non-critical load ip: 589912 freq: 12
rob stalling non-critical load ip: 589916 freq: 10
rob stalling non-critical load ip: 589932 freq: 24
rob stalling non-critical load ip: 589948 freq: 71
rob stalling non-critical load ip: 589960 freq: 53
rob stalling non-critical load ip: 589964 freq: 2
rob stalling non-critical load ip: 590000 freq: 57
rob stalling non-critical load ip: 590012 freq: 48
rob stalling non-critical load ip: 590036 freq: 81
rob stalling non-critical load ip: 590040 freq: 32
rob stalling non-critical load ip: 590064 freq: 24
rob stalling non-critical load ip: 590128 freq: 5
rob stalling non-critical load ip: 590136 freq: 22
rob stalling non-critical load ip: 590148 freq: 17
rob stalling non-critical load ip: 590200 freq: 4
rob stalling non-critical load ip: 590216 freq: 2
rob stalling non-critical load ip: 590352 freq: 8
rob stalling non-critical load ip: 590956 freq: 6
rob stalling non-critical load ip: 591084 freq: 1
rob stalling non-critical load ip: 722812 freq: 4
rob stalling non-critical load ip: 722816 freq: 7
rob stalling non-critical load ip: 722832 freq: 37
rob stalling non-critical load ip: 722896 freq: 132
rob stalling non-critical load ip: 722900 freq: 5
rob stalling non-critical load ip: 722920 freq: 19
rob stalling non-critical load ip: 846400 freq: 4
rob stalling non-critical load ip: 846404 freq: 19
rob stalling non-critical load ip: 846484 freq: 1
rob stalling non-critical load ip: 852864 freq: 1
rob stalling non-critical load ip: 852948 freq: 27
rob stalling non-critical load ip: 852968 freq: 3
rob stalling non-critical load ip: 852988 freq: 6
rob stalling non-critical load ip: 854096 freq: 1
rob stalling non-critical load ip: 856100 freq: 127
rob stalling non-critical load ip: 856148 freq: 25
rob stalling non-critical load ip: 857344 freq: 2942
rob stalling non-critical load ip: 857508 freq: 3614
rob stalling non-critical load ip: 857592 freq: 47
rob stalling non-critical load ip: 857616 freq: 760
rob stalling non-critical load ip: 857628 freq: 32
rob stalling non-critical load ip: 857640 freq: 3
rob stalling non-critical load ip: 857680 freq: 907
rob stalling non-critical load ip: 857820 freq: 53
rob stalling non-critical load ip: 857892 freq: 47
rob stalling non-critical load ip: 857928 freq: 22
rob stalling non-critical load ip: 857976 freq: 6
rob stalling non-critical load ip: 858072 freq: 1
rob stalling non-critical load ip: 858172 freq: 4
rob stalling non-critical load ip: 858176 freq: 3
rob stalling non-critical load ip: 858192 freq: 3
rob stalling non-critical load ip: 858380 freq: 639
rob stalling non-critical load ip: 858396 freq: 31
rob stalling non-critical load ip: 858400 freq: 1
rob stalling non-critical load ip: 858416 freq: 30
rob stalling non-critical load ip: 858432 freq: 35
rob stalling non-critical load ip: 858436 freq: 11
rob stalling non-critical load ip: 858464 freq: 59
rob stalling non-critical load ip: 858468 freq: 139
rob stalling non-critical load ip: 858552 freq: 39
rob stalling non-critical load ip: 858620 freq: 5015
rob stalling non-critical load ip: 858696 freq: 5034
rob stalling non-critical load ip: 858880 freq: 108
rob stalling non-critical load ip: 858896 freq: 33
rob stalling non-critical load ip: 858900 freq: 245
rob stalling non-critical load ip: 858904 freq: 61
rob stalling non-critical load ip: 858912 freq: 31
rob stalling non-critical load ip: 858916 freq: 232
rob stalling non-critical load ip: 858940 freq: 6
rob stalling non-critical load ip: 858964 freq: 52
rob stalling non-critical load ip: 858984 freq: 118
rob stalling non-critical load ip: 859076 freq: 804
rob stalling non-critical load ip: 859088 freq: 645
rob stalling non-critical load ip: 859092 freq: 20
rob stalling non-critical load ip: 859100 freq: 20
rob stalling non-critical load ip: 859316 freq: 77
rob stalling non-critical load ip: 859328 freq: 36
rob stalling non-critical load ip: 859632 freq: 41
rob stalling non-critical load ip: 859940 freq: 539
rob stalling non-critical load ip: 859960 freq: 31
rob stalling non-critical load ip: 859976 freq: 36
rob stalling non-critical load ip: 860000 freq: 903
rob stalling non-critical load ip: 860132 freq: 2614
rob stalling non-critical load ip: 860144 freq: 29
rob stalling non-critical load ip: 860504 freq: 2
rob stalling non-critical load ip: 860584 freq: 1
rob stalling non-critical load ip: 860636 freq: 28
rob stalling non-critical load ip: 860640 freq: 4
rob stalling non-critical load ip: 860644 freq: 65
rob stalling non-critical load ip: 860708 freq: 64
rob stalling non-critical load ip: 860732 freq: 2
rob stalling non-critical load ip: 860812 freq: 5
rob stalling non-critical load ip: 860964 freq: 1
rob stalling non-critical load ip: 860976 freq: 5
rob stalling non-critical load ip: 861004 freq: 6
rob stalling non-critical load ip: 861020 freq: 4
rob stalling non-critical load ip: 861040 freq: 1
rob stalling non-critical load ip: 861084 freq: 2
rob stalling non-critical load ip: 861088 freq: 3
rob stalling non-critical load ip: 862156 freq: 3313
rob stalling non-critical load ip: 862192 freq: 896
rob stalling non-critical load ip: 862232 freq: 1613
rob stalling non-critical load ip: 862360 freq: 956
rob stalling non-critical load ip: 862384 freq: 316
rob stalling non-critical load ip: 862492 freq: 142
rob stalling non-critical load ip: 862504 freq: 19
rob stalling non-critical load ip: 862880 freq: 168
rob stalling non-critical load ip: 862896 freq: 11
rob stalling non-critical load ip: 862904 freq: 25
rob stalling non-critical load ip: 862916 freq: 11
rob stalling non-critical load ip: 863072 freq: 12
rob stalling non-critical load ip: 863124 freq: 185
rob stalling non-critical load ip: 863136 freq: 201
rob stalling non-critical load ip: 863228 freq: 53
rob stalling non-critical load ip: 863260 freq: 53
rob stalling non-critical load ip: 863292 freq: 20
rob stalling non-critical load ip: 867796 freq: 9
rob stalling non-critical load ip: 881188 freq: 5
rob stalling non-critical load ip: 881224 freq: 3
rob stalling non-critical load ip: 881736 freq: 23
rob stalling non-critical load ip: 888332 freq: 35
rob stalling non-critical load ip: 906552 freq: 2
rob stalling non-critical load ip: 906764 freq: 3
rob stalling non-critical load ip: 906876 freq: 11
rob stalling non-critical load ip: 910004 freq: 56
rob stalling non-critical load ip: 910088 freq: 4915
rob stalling non-critical load ip: 914940 freq: 55
rob stalling non-critical load ip: 914968 freq: 154
rob stalling non-critical load ip: 915504 freq: 145
rob stalling non-critical load ip: 915516 freq: 1819
rob stalling non-critical load ip: 915560 freq: 2002
rob stalling non-critical load ip: 919464 freq: 70
rob stalling non-critical load ip: 919532 freq: 26
rob stalling non-critical load ip: 919544 freq: 2
rob stalling non-critical load ip: 919548 freq: 2
rob stalling non-critical load ip: 919560 freq: 28
rob stalling non-critical load ip: 919624 freq: 52
rob stalling non-critical load ip: 919640 freq: 14
rob stalling non-critical load ip: 919664 freq: 20
rob stalling non-critical load ip: 919668 freq: 66
rob stalling non-critical load ip: 919968 freq: 2020
rob stalling non-critical load ip: 919976 freq: 1103
rob stalling non-critical load ip: 919980 freq: 22
rob stalling non-critical load ip: 920024 freq: 572
rob stalling non-critical load ip: 920040 freq: 109
rob stalling non-critical load ip: 920076 freq: 445
rob stalling non-critical load ip: 920108 freq: 25
rob stalling non-critical load ip: 920112 freq: 119
rob stalling non-critical load ip: 920148 freq: 88
rob stalling non-critical load ip: 920204 freq: 33
rob stalling non-critical load ip: 920216 freq: 33
rob stalling non-critical load ip: 920248 freq: 40
rob stalling non-critical load ip: 920252 freq: 11
rob stalling non-critical load ip: 920320 freq: 34
rob stalling non-critical load ip: 920324 freq: 37
rob stalling non-critical load ip: 920344 freq: 7
rob stalling non-critical load ip: 920412 freq: 21
rob stalling non-critical load ip: 920440 freq: 46
rob stalling non-critical load ip: 920444 freq: 8
rob stalling non-critical load ip: 920508 freq: 195
rob stalling non-critical load ip: 920512 freq: 15
rob stalling non-critical load ip: 920620 freq: 295
rob stalling non-critical load ip: 920632 freq: 5
rob stalling non-critical load ip: 920732 freq: 86
rob stalling non-critical load ip: 920764 freq: 34
rob stalling non-critical load ip: 920856 freq: 42
rob stalling non-critical load ip: 920888 freq: 1
rob stalling non-critical load ip: 921224 freq: 6
rob stalling non-critical load ip: 921276 freq: 206
rob stalling non-critical load ip: 921300 freq: 2422
rob stalling non-critical load ip: 921304 freq: 24
rob stalling non-critical load ip: 921336 freq: 14
rob stalling non-critical load ip: 921408 freq: 59
rob stalling non-critical load ip: 921456 freq: 357
rob stalling non-critical load ip: 921460 freq: 418
rob stalling non-critical load ip: 921480 freq: 4
rob stalling non-critical load ip: 921496 freq: 15
rob stalling non-critical load ip: 921508 freq: 4
rob stalling non-critical load ip: 921520 freq: 460
rob stalling non-critical load ip: 921544 freq: 559
rob stalling non-critical load ip: 921568 freq: 57
rob stalling non-critical load ip: 921764 freq: 27
rob stalling non-critical load ip: 921768 freq: 2222
rob stalling non-critical load ip: 921784 freq: 176
rob stalling non-critical load ip: 921804 freq: 20
rob stalling non-critical load ip: 921904 freq: 130
rob stalling non-critical load ip: 921920 freq: 29
rob stalling non-critical load ip: 921924 freq: 657
rob stalling non-critical load ip: 921948 freq: 88
rob stalling non-critical load ip: 921952 freq: 241
rob stalling non-critical load ip: 921968 freq: 29
rob stalling non-critical load ip: 922008 freq: 4046
rob stalling non-critical load ip: 922016 freq: 12
rob stalling non-critical load ip: 922484 freq: 1
rob stalling non-critical load ip: 922500 freq: 26
rob stalling non-critical load ip: 922544 freq: 55
rob stalling non-critical load ip: 922548 freq: 2951
rob stalling non-critical load ip: 922596 freq: 36
rob stalling non-critical load ip: 922612 freq: 14
rob stalling non-critical load ip: 922616 freq: 42
rob stalling non-critical load ip: 922624 freq: 7
rob stalling non-critical load ip: 922644 freq: 20
rob stalling non-critical load ip: 922648 freq: 400
rob stalling non-critical load ip: 922652 freq: 14
rob stalling non-critical load ip: 922672 freq: 64
rob stalling non-critical load ip: 922812 freq: 566
rob stalling non-critical load ip: 922852 freq: 1
rob stalling non-critical load ip: 922868 freq: 16
rob stalling non-critical load ip: 922888 freq: 679
rob stalling non-critical load ip: 922924 freq: 25
rob stalling non-critical load ip: 923060 freq: 2027
rob stalling non-critical load ip: 923064 freq: 1995
rob stalling non-critical load ip: 923076 freq: 81
rob stalling non-critical load ip: 923080 freq: 2179
rob stalling non-critical load ip: 923088 freq: 39
rob stalling non-critical load ip: 923096 freq: 18
rob stalling non-critical load ip: 923116 freq: 13
rob stalling non-critical load ip: 923816 freq: 86
rob stalling non-critical load ip: 923824 freq: 7
rob stalling non-critical load ip: 923832 freq: 10
rob stalling non-critical load ip: 930780 freq: 2518
rob stalling non-critical load ip: 930796 freq: 33
rob stalling non-critical load ip: 930828 freq: 28
rob stalling non-critical load ip: 930832 freq: 14
rob stalling non-critical load ip: 930840 freq: 4
rob stalling non-critical load ip: 930860 freq: 51
rob stalling non-critical load ip: 930864 freq: 2
rob stalling non-critical load ip: 931104 freq: 48
rob stalling non-critical load ip: 931172 freq: 49
rob stalling non-critical load ip: 931192 freq: 33
rob stalling non-critical load ip: 931200 freq: 53
rob stalling non-critical load ip: 931224 freq: 44
rob stalling non-critical load ip: 931308 freq: 43
rob stalling non-critical load ip: 931320 freq: 617
rob stalling non-critical load ip: 931356 freq: 242
rob stalling non-critical load ip: 931372 freq: 7
rob stalling non-critical load ip: 931380 freq: 296
rob stalling non-critical load ip: 931412 freq: 48
rob stalling non-critical load ip: 931436 freq: 75
rob stalling non-critical load ip: 931852 freq: 5
rob stalling non-critical load ip: 931896 freq: 22
rob stalling non-critical load ip: 931924 freq: 13
rob stalling non-critical load ip: 931940 freq: 40
rob stalling non-critical load ip: 931964 freq: 58
rob stalling non-critical load ip: 931968 freq: 220
rob stalling non-critical load ip: 932004 freq: 680
rob stalling non-critical load ip: 932012 freq: 10
rob stalling non-critical load ip: 932044 freq: 164
rob stalling non-critical load ip: 932056 freq: 36
rob stalling non-critical load ip: 932064 freq: 172
rob stalling non-critical load ip: 932072 freq: 468
rob stalling non-critical load ip: 932096 freq: 41
rob stalling non-critical load ip: 932124 freq: 30
rob stalling non-critical load ip: 938528 freq: 185
rob stalling non-critical load ip: 938540 freq: 27
rob stalling non-critical load ip: 938556 freq: 194
rob stalling non-critical load ip: 938612 freq: 311
rob stalling non-critical load ip: 938616 freq: 40
rob stalling non-critical load ip: 938644 freq: 16
rob stalling non-critical load ip: 938660 freq: 15
rob stalling non-critical load ip: 938668 freq: 60
rob stalling non-critical load ip: 938696 freq: 2
rob stalling non-critical load ip: 938708 freq: 8
rob stalling non-critical load ip: 938720 freq: 1
rob stalling non-critical load ip: 938724 freq: 20
rob stalling non-critical load ip: 938736 freq: 2
rob stalling non-critical load ip: 938756 freq: 68
rob stalling non-critical load ip: 938772 freq: 2
rob stalling non-critical load ip: 938860 freq: 29
rob stalling non-critical load ip: 938912 freq: 60
rob stalling non-critical load ip: 938928 freq: 14
rob stalling non-critical load ip: 939012 freq: 9
rob stalling non-critical load ip: 939192 freq: 10
rob stalling non-critical load ip: 939204 freq: 50
rob stalling non-critical load ip: 944504 freq: 105
rob stalling non-critical load ip: 944536 freq: 65
rob stalling non-critical load ip: 944544 freq: 63
rob stalling non-critical load ip: 945012 freq: 30
rob stalling non-critical load ip: 945032 freq: 23
rob stalling non-critical load ip: 952748 freq: 443
rob stalling non-critical load ip: 952780 freq: 622
rob stalling non-critical load ip: 952796 freq: 219
rob stalling non-critical load ip: 952816 freq: 1425
rob stalling non-critical load ip: 952856 freq: 25
rob stalling non-critical load ip: 952900 freq: 505
rob stalling non-critical load ip: 952916 freq: 589
rob stalling non-critical load ip: 952920 freq: 138
rob stalling non-critical load ip: 952932 freq: 13
rob stalling non-critical load ip: 952968 freq: 49
rob stalling non-critical load ip: 952984 freq: 64
rob stalling non-critical load ip: 953012 freq: 2
rob stalling non-critical load ip: 953040 freq: 94
rob stalling non-critical load ip: 953056 freq: 6
rob stalling non-critical load ip: 953064 freq: 2
rob stalling non-critical load ip: 953072 freq: 3
rob stalling non-critical load ip: 953092 freq: 227
rob stalling non-critical load ip: 953116 freq: 1
rob stalling non-critical load ip: 953124 freq: 2
rob stalling non-critical load ip: 953128 freq: 11
rob stalling non-critical load ip: 953140 freq: 41
rob stalling non-critical load ip: 953144 freq: 58
rob stalling non-critical load ip: 953164 freq: 64
rob stalling non-critical load ip: 953196 freq: 16
rob stalling non-critical load ip: 953228 freq: 115
rob stalling non-critical load ip: 953336 freq: 242
rob stalling non-critical load ip: 953472 freq: 68
rob stalling non-critical load ip: 956308 freq: 86
rob stalling non-critical load ip: 956332 freq: 16
rob stalling non-critical load ip: 956340 freq: 24
rob stalling non-critical load ip: 959708 freq: 136
rob stalling non-critical load ip: 959720 freq: 45
rob stalling non-critical load ip: 959724 freq: 4
rob stalling non-critical load ip: 959740 freq: 16
rob stalling non-critical load ip: 959744 freq: 14
rob stalling non-critical load ip: 959760 freq: 4
rob stalling non-critical load ip: 959768 freq: 6
rob stalling non-critical load ip: 959812 freq: 8
rob stalling non-critical load ip: 959832 freq: 5
rob stalling non-critical load ip: 959864 freq: 20
rob stalling non-critical load ip: 959888 freq: 21
rob stalling non-critical load ip: 959976 freq: 100
rob stalling non-critical load ip: 964556 freq: 1
rob stalling non-critical load ip: 964560 freq: 2
rob stalling non-critical load ip: 1029576 freq: 2691
rob stalling non-critical load ip: 1029596 freq: 703
rob stalling non-critical load ip: 1029612 freq: 31
rob stalling non-critical load ip: 1029628 freq: 579
rob stalling non-critical load ip: 1029652 freq: 46
rob stalling non-critical load ip: 1029672 freq: 293
rob stalling non-critical load ip: 1029684 freq: 17
rob stalling non-critical load ip: 1029688 freq: 11
rob stalling non-critical load ip: 1029720 freq: 107
rob stalling non-critical load ip: 1029740 freq: 503
rob stalling non-critical load ip: 1029776 freq: 918
rob stalling non-critical load ip: 1029812 freq: 32
rob stalling non-critical load ip: 1029816 freq: 36
rob stalling non-critical load ip: 1029832 freq: 31
rob stalling non-critical load ip: 1029844 freq: 20
rob stalling non-critical load ip: 1029980 freq: 21
rob stalling non-critical load ip: 1029996 freq: 34
rob stalling non-critical load ip: 1030008 freq: 33
rob stalling non-critical load ip: 1030128 freq: 64
rob stalling non-critical load ip: 1030144 freq: 2965
rob stalling non-critical load ip: 1030160 freq: 108
rob stalling non-critical load ip: 1031328 freq: 25
rob stalling non-critical load ip: 1031356 freq: 52
rob stalling non-critical load ip: 1031360 freq: 618
rob stalling non-critical load ip: 1032164 freq: 17
rob stalling non-critical load ip: 1032188 freq: 46
rob stalling non-critical load ip: 1032208 freq: 42
rob stalling non-critical load ip: 1032212 freq: 42
rob stalling non-critical load ip: 1032224 freq: 25
rob stalling non-critical load ip: 1032240 freq: 60
rob stalling non-critical load ip: 16780456 freq: 940
rob stalling non-critical load ip: 16780584 freq: 1170
rob stalling non-critical load ip: 16783496 freq: 2624
rob stalling non-critical load ip: 16783504 freq: 365
rob stalling non-critical load ip: 16783512 freq: 170
rob stalling non-critical load ip: 16783524 freq: 27
rob stalling non-critical load ip: 16783528 freq: 56
rob stalling non-critical load ip: 16783532 freq: 20352
rob stalling non-critical load ip: 16783536 freq: 77
rob stalling non-critical load ip: 16783544 freq: 85
rob stalling non-critical load ip: 16783548 freq: 3375
rob stalling non-critical load ip: 16783552 freq: 2966
rob stalling non-critical load ip: 16783556 freq: 3
rob stalling non-critical load ip: 16783564 freq: 8073
rob stalling non-critical load ip: 16783568 freq: 58
rob stalling non-critical load ip: 16783572 freq: 6959
rob stalling non-critical load ip: 16783576 freq: 8
rob stalling non-critical load ip: 16783752 freq: 311
rob stalling non-critical load ip: 16783760 freq: 75
rob stalling non-critical load ip: 16783768 freq: 49
rob stalling non-critical load ip: 16783780 freq: 5
rob stalling non-critical load ip: 16783784 freq: 7
rob stalling non-critical load ip: 16783788 freq: 1255
rob stalling non-critical load ip: 16783792 freq: 9
rob stalling non-critical load ip: 16783800 freq: 3
rob stalling non-critical load ip: 16783804 freq: 44
rob stalling non-critical load ip: 16783808 freq: 2588
rob stalling non-critical load ip: 16783812 freq: 2
rob stalling non-critical load ip: 16783820 freq: 127
rob stalling non-critical load ip: 16783824 freq: 6
rob stalling non-critical load ip: 16783828 freq: 88
rob stalling non-critical load ip: 16784128 freq: 7737
rob stalling non-critical load ip: 16784136 freq: 349
rob stalling non-critical load ip: 16784144 freq: 61
rob stalling non-critical load ip: 16784152 freq: 3063
rob stalling non-critical load ip: 16784156 freq: 23
rob stalling non-critical load ip: 16784160 freq: 2225
rob stalling non-critical load ip: 16784168 freq: 3290
rob stalling non-critical load ip: 16784176 freq: 288
rob stalling non-critical load ip: 16784180 freq: 6
rob stalling non-critical load ip: 16784184 freq: 64
rob stalling non-critical load ip: 16800136 freq: 19
rob stalling non-critical load ip: 16800520 freq: 95
rob stalling non-critical load ip: 16800536 freq: 47
rob stalling non-critical load ip: 16803568 freq: 9
rob stalling non-critical load ip: 16806728 freq: 5
rob stalling non-critical load ip: 16807120 freq: 2381
rob stalling non-critical load ip: 16807124 freq: 33
rob stalling non-critical load ip: 16807136 freq: 14
rob stalling non-critical load ip: 16807188 freq: 49
rob stalling non-critical load ip: 16807200 freq: 48
rob stalling non-critical load ip: 16807208 freq: 7
rob stalling non-critical load ip: 16807216 freq: 7
rob stalling non-critical load ip: 16807220 freq: 431
rob stalling non-critical load ip: 16807228 freq: 67
rob stalling non-critical load ip: 16807244 freq: 14
rob stalling non-critical load ip: 16807248 freq: 1
rob stalling non-critical load ip: 16807252 freq: 3
rob stalling non-critical load ip: 16807268 freq: 155
rob stalling non-critical load ip: 16807272 freq: 2
rob stalling non-critical load ip: 16807344 freq: 238
rob stalling non-critical load ip: 16807352 freq: 60
rob stalling non-critical load ip: 16807392 freq: 2876
rob stalling non-critical load ip: 16807812 freq: 11
rob stalling non-critical load ip: 16807816 freq: 38
rob stalling non-critical load ip: 16807864 freq: 154
rob stalling non-critical load ip: 16807908 freq: 3
rob stalling non-critical load ip: 16807956 freq: 77
rob stalling non-critical load ip: 16807964 freq: 107
rob stalling non-critical load ip: 16807976 freq: 1
rob stalling non-critical load ip: 16807984 freq: 91
rob stalling non-critical load ip: 16807996 freq: 2
rob stalling non-critical load ip: 16808024 freq: 6
rob stalling non-critical load ip: 16808028 freq: 64
rob stalling non-critical load ip: 16808052 freq: 1
rob stalling non-critical load ip: 16809368 freq: 3
rob stalling non-critical load ip: 16809376 freq: 8
rob stalling non-critical load ip: 16809664 freq: 12
rob stalling non-critical load ip: 16812528 freq: 57
rob stalling non-critical load ip: 16812716 freq: 734
rob stalling non-critical load ip: 16813444 freq: 34
rob stalling non-critical load ip: 16813448 freq: 54
rob stalling non-critical load ip: 16813580 freq: 8
rob stalling non-critical load ip: 16813612 freq: 4
rob stalling non-critical load ip: 16813680 freq: 50
rob stalling non-critical load ip: 16813696 freq: 7
rob stalling non-critical load ip: 16813704 freq: 32
rob stalling non-critical load ip: 16813760 freq: 35
rob stalling non-critical load ip: 16813800 freq: 5
rob stalling non-critical load ip: 16813820 freq: 1
rob stalling non-critical load ip: 16815252 freq: 31
rob stalling non-critical load ip: 16815264 freq: 2
rob stalling non-critical load ip: 16815284 freq: 5
rob stalling non-critical load ip: 16815308 freq: 2
rob stalling non-critical load ip: 16815936 freq: 1
rob stalling non-critical load ip: 16817700 freq: 48
rob stalling non-critical load ip: 16817756 freq: 45
rob stalling non-critical load ip: 16817764 freq: 19
rob stalling non-critical load ip: 16817820 freq: 353
rob stalling non-critical load ip: 16817836 freq: 27
rob stalling non-critical load ip: 16817844 freq: 430
rob stalling non-critical load ip: 16817872 freq: 3
rob stalling non-critical load ip: 16817884 freq: 23
rob stalling non-critical load ip: 16817900 freq: 387
rob stalling non-critical load ip: 16817940 freq: 7
rob stalling non-critical load ip: 16817960 freq: 27
rob stalling non-critical load ip: 16820524 freq: 3
rob stalling non-critical load ip: 16820656 freq: 2
rob stalling non-critical load ip: 16820672 freq: 22
rob stalling non-critical load ip: 16820676 freq: 14
rob stalling non-critical load ip: 16820852 freq: 6
rob stalling non-critical load ip: 16820864 freq: 1
rob stalling non-critical load ip: 16820956 freq: 4
rob stalling non-critical load ip: 16820996 freq: 6
rob stalling non-critical load ip: 16821280 freq: 4
rob stalling non-critical load ip: 16821296 freq: 3
rob stalling non-critical load ip: 16821308 freq: 149
rob stalling non-critical load ip: 16821340 freq: 10
rob stalling non-critical load ip: 16821452 freq: 2
rob stalling non-critical load ip: 16821732 freq: 6
rob stalling non-critical load ip: 16821840 freq: 2
rob stalling non-critical load ip: 16821980 freq: 4
rob stalling non-critical load ip: 16822004 freq: 2
rob stalling non-critical load ip: 16822116 freq: 1
rob stalling non-critical load ip: 16822276 freq: 3
rob stalling non-critical load ip: 16822500 freq: 143
rob stalling non-critical load ip: 16822504 freq: 4
rob stalling non-critical load ip: 16822788 freq: 13
rob stalling non-critical load ip: 16822856 freq: 1
rob stalling non-critical load ip: 16822888 freq: 12
rob stalling non-critical load ip: 16822900 freq: 3
rob stalling non-critical load ip: 16823128 freq: 22
rob stalling non-critical load ip: 16823132 freq: 1
rob stalling non-critical load ip: 16823180 freq: 30
rob stalling non-critical load ip: 16823192 freq: 30
rob stalling non-critical load ip: 16823220 freq: 1
rob stalling non-critical load ip: 16823344 freq: 3
rob stalling non-critical load ip: 16823692 freq: 105
rob stalling non-critical load ip: 16823852 freq: 4
rob stalling non-critical load ip: 16827588 freq: 1
rob stalling non-critical load ip: 16844832 freq: 97
rob stalling non-critical load ip: 16844852 freq: 16
rob stalling non-critical load ip: 16844864 freq: 8
rob stalling non-critical load ip: 16845036 freq: 27
rob stalling non-critical load ip: 16845056 freq: 15
rob stalling non-critical load ip: 16845064 freq: 26
rob stalling non-critical load ip: 16845068 freq: 12
rob stalling non-critical load ip: 16845328 freq: 14
rob stalling non-critical load ip: 16851080 freq: 1765
rob stalling non-critical load ip: 16851160 freq: 385
rob stalling non-critical load ip: 16851208 freq: 99
rob stalling non-critical load ip: 16851340 freq: 611
rob stalling non-critical load ip: 16851388 freq: 4339
rob stalling non-critical load ip: 16851436 freq: 2398
rob stalling non-critical load ip: 16851456 freq: 7
rob stalling non-critical load ip: 16851464 freq: 6
rob stalling non-critical load ip: 16851472 freq: 117
rob stalling non-critical load ip: 16851552 freq: 41049
rob stalling non-critical load ip: 16851564 freq: 238
rob stalling non-critical load ip: 16851576 freq: 1044
rob stalling non-critical load ip: 16851588 freq: 37452
rob stalling non-critical load ip: 16851600 freq: 370
rob stalling non-critical load ip: 16851612 freq: 2777
rob stalling non-critical load ip: 16851624 freq: 273
rob stalling non-critical load ip: 16851632 freq: 753
rob stalling non-critical load ip: 16851652 freq: 37906
rob stalling non-critical load ip: 16851728 freq: 745
rob stalling non-critical load ip: 16851776 freq: 6
rob stalling non-critical load ip: 16851796 freq: 23
rob stalling non-critical load ip: 16891612 freq: 109
rob stalling non-critical load ip: 16891620 freq: 81
rob stalling non-critical load ip: 16891628 freq: 66
rob stalling non-critical load ip: 16891636 freq: 69
rob stalling non-critical load ip: 16891648 freq: 1
rob stalling non-critical load ip: 16900600 freq: 1
rob stalling non-critical load ip: 16902228 freq: 4
rob stalling non-critical load ip: 16902244 freq: 1
rob stalling non-critical load ip: 16902260 freq: 1
rob stalling non-critical load ip: 16902264 freq: 3
rob stalling non-critical load ip: 16902268 freq: 3
rob stalling non-critical load ip: 16902320 freq: 6
rob stalling non-critical load ip: 16902380 freq: 27
rob stalling non-critical load ip: 16902396 freq: 171
rob stalling non-critical load ip: 16903028 freq: 87
rob stalling non-critical load ip: 16917068 freq: 1333
rob stalling non-critical load ip: 16917076 freq: 6
rob stalling non-critical load ip: 16917116 freq: 84
rob stalling non-critical load ip: 16917124 freq: 86
rob stalling non-critical load ip: 16917760 freq: 79
rob stalling non-critical load ip: 16917772 freq: 92
rob stalling non-critical load ip: 16977308 freq: 13
rob stalling non-critical load ip: 16977404 freq: 23
rob stalling non-critical load ip: 16977420 freq: 1
rob stalling non-critical load ip: 16977424 freq: 3
rob stalling non-critical load ip: 16977440 freq: 1
rob stalling non-critical load ip: 16977480 freq: 9
rob stalling non-critical load ip: 17022708 freq: 20
rob stalling non-critical load ip: 17022764 freq: 1
rob stalling non-critical load ip: 17077560 freq: 46
rob stalling non-critical load ip: 17077572 freq: 215
rob stalling non-critical load ip: 17077620 freq: 28
rob stalling non-critical load ip: 17077640 freq: 2
rob stalling non-critical load ip: 17077680 freq: 1
rob stalling non-critical load ip: 17077684 freq: 11
rob stalling non-critical load ip: 17077688 freq: 18
rob stalling non-critical load ip: 17077812 freq: 15
rob stalling non-critical load ip: 17077816 freq: 4
rob stalling non-critical load ip: 17077916 freq: 19
rob stalling non-critical load ip: 17077968 freq: 6
rob stalling non-critical load ip: 17078012 freq: 8
rob stalling non-critical load ip: 17078036 freq: 6
rob stalling non-critical load ip: 17078040 freq: 19
rob stalling non-critical load ip: 17078088 freq: 10
rob stalling non-critical load ip: 17078100 freq: 22
rob stalling non-critical load ip: 17078104 freq: 21
rob stalling non-critical load ip: 17078144 freq: 3
rob stalling non-critical load ip: 17078240 freq: 1
rob stalling non-critical load ip: 17078252 freq: 2
rob stalling non-critical load ip: 17079552 freq: 2
rob stalling non-critical load ip: 17079616 freq: 2
rob stalling non-critical load ip: 17079680 freq: 2
rob stalling non-critical load ip: 17079744 freq: 20
rob stalling non-critical load ip: 17080064 freq: 2
rob stalling non-critical load ip: 17080100 freq: 6
rob stalling non-critical load ip: 17084036 freq: 8
rob stalling non-critical load ip: 17084128 freq: 224
rob stalling non-critical load ip: 17084160 freq: 9
rob stalling non-critical load ip: 17084300 freq: 169
rob stalling non-critical load ip: 17084332 freq: 1616
rob stalling non-critical load ip: 17084340 freq: 104
rob stalling non-critical load ip: 17084388 freq: 655
rob stalling non-critical load ip: 17084424 freq: 8
rob stalling non-critical load ip: 17084460 freq: 2
rob stalling non-critical load ip: 17084544 freq: 5202
rob stalling non-critical load ip: 17084576 freq: 3
rob stalling non-critical load ip: 17084592 freq: 122
rob stalling non-critical load ip: 17084596 freq: 19
rob stalling non-critical load ip: 17084652 freq: 82
rob stalling non-critical load ip: 17084656 freq: 140
rob stalling non-critical load ip: 17084692 freq: 4
rob stalling non-critical load ip: 17084752 freq: 14
rob stalling non-critical load ip: 17084772 freq: 10
rob stalling non-critical load ip: 17084780 freq: 172
rob stalling non-critical load ip: 17084836 freq: 3
rob stalling non-critical load ip: 17087300 freq: 34
rob stalling non-critical load ip: 17087304 freq: 3
rob stalling non-critical load ip: 17089924 freq: 14
rob stalling non-critical load ip: 17089932 freq: 9
rob stalling non-critical load ip: 17089956 freq: 1
rob stalling non-critical load ip: 17089968 freq: 4
rob stalling non-critical load ip: 17089988 freq: 2051
rob stalling non-critical load ip: 17090008 freq: 41
rob stalling non-critical load ip: 17090036 freq: 37
rob stalling non-critical load ip: 17090060 freq: 74
rob stalling non-critical load ip: 17090136 freq: 43
rob stalling non-critical load ip: 17090192 freq: 56
rob stalling non-critical load ip: 17090196 freq: 109
rob stalling non-critical load ip: 17105460 freq: 367
rob stalling non-critical load ip: 17109616 freq: 18
rob stalling non-critical load ip: 17109620 freq: 13
rob stalling non-critical load ip: 17147696 freq: 4
rob stalling non-critical load ip: 17148832 freq: 1494
rob stalling non-critical load ip: 17148844 freq: 6
rob stalling non-critical load ip: 17148868 freq: 12
rob stalling non-critical load ip: 17148904 freq: 26
rob stalling non-critical load ip: 17148972 freq: 1718
rob stalling non-critical load ip: 17148988 freq: 7
rob stalling non-critical load ip: 17149012 freq: 14
rob stalling non-critical load ip: 17149168 freq: 22
rob stalling non-critical load ip: 17149172 freq: 32
rob stalling non-critical load ip: 17149204 freq: 29
rob stalling non-critical load ip: 17149340 freq: 21
rob stalling non-critical load ip: 17149344 freq: 572
rob stalling non-critical load ip: 17149400 freq: 48
rob stalling non-critical load ip: 17149504 freq: 79
rob stalling non-critical load ip: 17149516 freq: 15
rob stalling non-critical load ip: 17149600 freq: 208
rob stalling non-critical load ip: 17149604 freq: 39
rob stalling non-critical load ip: 17183048 freq: 8
rob stalling non-critical load ip: 17183060 freq: 128
rob stalling non-critical load ip: 17183076 freq: 125
rob stalling non-critical load ip: 17183108 freq: 5
rob stalling non-critical load ip: 17183188 freq: 13
rob stalling non-critical load ip: 17183232 freq: 5
rob stalling non-critical load ip: 17183244 freq: 5
rob stalling non-critical load ip: 17183248 freq: 42
rob stalling non-critical load ip: 17183268 freq: 4
rob stalling non-critical load ip: 17183284 freq: 3
rob stalling non-critical load ip: 17183380 freq: 7
rob stalling non-critical load ip: 17183392 freq: 7
rob stalling non-critical load ip: 17183412 freq: 2
rob stalling non-critical load ip: 17183476 freq: 29
rob stalling non-critical load ip: 17183560 freq: 72
rob stalling non-critical load ip: 17183812 freq: 63
rob stalling non-critical load ip: 17183836 freq: 1
rob stalling non-critical load ip: 17183952 freq: 5
rob stalling non-critical load ip: 17183960 freq: 186
rob stalling non-critical load ip: 17184024 freq: 10
rob stalling non-critical load ip: 17184072 freq: 120
rob stalling non-critical load ip: 17184084 freq: 51
rob stalling non-critical load ip: 17184100 freq: 103
rob stalling non-critical load ip: 17184740 freq: 4
rob stalling non-critical load ip: 17184924 freq: 5
rob stalling non-critical load ip: 17184968 freq: 6
rob stalling non-critical load ip: 17185020 freq: 1
rob stalling non-critical load ip: 17185032 freq: 2
rob stalling non-critical load ip: 17185072 freq: 27
rob stalling non-critical load ip: 17185076 freq: 37
rob stalling non-critical load ip: 17185180 freq: 23
rob stalling non-critical load ip: 17185196 freq: 2
rob stalling non-critical load ip: 17185696 freq: 2
rob stalling non-critical load ip: 17185704 freq: 4
rob stalling non-critical load ip: 17185764 freq: 8
rob stalling non-critical load ip: 17186780 freq: 2
rob stalling non-critical load ip: 17186844 freq: 4
rob stalling non-critical load ip: 17187176 freq: 2
rob stalling non-critical load ip: 17187196 freq: 11
rob stalling non-critical load ip: 17187260 freq: 4
rob stalling non-critical load ip: 17187276 freq: 6
rob stalling non-critical load ip: 17187284 freq: 22
rob stalling non-critical load ip: 17187304 freq: 13
rob stalling non-critical load ip: 17187388 freq: 23
rob stalling non-critical load ip: 17187440 freq: 4
rob stalling non-critical load ip: 17187456 freq: 7
rob stalling non-critical load ip: 17188224 freq: 22
rob stalling non-critical load ip: 17188228 freq: 11
rob stalling non-critical load ip: 17188264 freq: 6
rob stalling non-critical load ip: 17188292 freq: 50
rob stalling non-critical load ip: 17188308 freq: 164
rob stalling non-critical load ip: 17188316 freq: 12
rob stalling non-critical load ip: 17188320 freq: 2
rob stalling non-critical load ip: 17189416 freq: 5
rob stalling non-critical load ip: 17189432 freq: 13
rob stalling non-critical load ip: 17189488 freq: 19
rob stalling non-critical load ip: 17189504 freq: 8
rob stalling non-critical load ip: 17189520 freq: 11
rob stalling non-critical load ip: 17189536 freq: 49
rob stalling non-critical load ip: 17189616 freq: 7
rob stalling non-critical load ip: 17189632 freq: 5
rob stalling non-critical load ip: 17189652 freq: 4
rob stalling non-critical load ip: 17189660 freq: 2
rob stalling non-critical load ip: 17190268 freq: 2
rob stalling non-critical load ip: 17190288 freq: 4
rob stalling non-critical load ip: 17190300 freq: 1
rob stalling non-critical load ip: 17190516 freq: 8
rob stalling non-critical load ip: 17224964 freq: 14
rob stalling non-critical load ip: 17224980 freq: 154
rob stalling non-critical load ip: 17224996 freq: 4
rob stalling non-critical load ip: 17225096 freq: 25
rob stalling non-critical load ip: 17225180 freq: 23
rob stalling non-critical load ip: 17225204 freq: 111
rob stalling non-critical load ip: 17225220 freq: 873
rob stalling non-critical load ip: 17225488 freq: 3
rob stalling non-critical load ip: 17225500 freq: 84
rob stalling non-critical load ip: 17225528 freq: 6
rob stalling non-critical load ip: 17225540 freq: 6
rob stalling non-critical load ip: 17225876 freq: 112
rob stalling non-critical load ip: 17225984 freq: 45
rob stalling non-critical load ip: 17226112 freq: 13
rob stalling non-critical load ip: 17226196 freq: 1
rob stalling non-critical load ip: 17226208 freq: 43
rob stalling non-critical load ip: 17226228 freq: 2
rob stalling non-critical load ip: 17226296 freq: 9
rob stalling non-critical load ip: 17226332 freq: 15
rob stalling non-critical load ip: 17226772 freq: 6
rob stalling non-critical load ip: 17226796 freq: 8
rob stalling non-critical load ip: 17226812 freq: 21
rob stalling non-critical load ip: 17226856 freq: 5
rob stalling non-critical load ip: 17226872 freq: 2
rob stalling non-critical load ip: 17226948 freq: 67
rob stalling non-critical load ip: 17227996 freq: 14
rob stalling non-critical load ip: 17228024 freq: 14
rob stalling non-critical load ip: 17228064 freq: 3
rob stalling non-critical load ip: 17245100 freq: 351
rob stalling non-critical load ip: 17245104 freq: 5
rob stalling non-critical load ip: 17245188 freq: 3
rob stalling non-critical load ip: 17247576 freq: 83
rob stalling non-critical load ip: 17247588 freq: 6
rob stalling non-critical load ip: 17247664 freq: 20
rob stalling non-critical load ip: 17247668 freq: 57
rob stalling non-critical load ip: 17247840 freq: 67
rob stalling non-critical load ip: 17247864 freq: 20
rob stalling non-critical load ip: 17247952 freq: 20
rob stalling non-critical load ip: 17247988 freq: 86
rob stalling non-critical load ip: 17248008 freq: 62
rob stalling non-critical load ip: 17248120 freq: 105
rob stalling non-critical load ip: 17248624 freq: 21
rob stalling non-critical load ip: 17248652 freq: 18
rob stalling non-critical load ip: 17254328 freq: 5
rob stalling non-critical load ip: 17410740 freq: 15
rob stalling non-critical load ip: 17410756 freq: 17
rob stalling non-critical load ip: 17506076 freq: 51
rob stalling non-critical load ip: 17506100 freq: 1
rob stalling non-critical load ip: 17506112 freq: 1
rob stalling non-critical load ip: 17506176 freq: 2
rob stalling non-critical load ip: 17506192 freq: 6
rob stalling non-critical load ip: 17506356 freq: 2
rob stalling non-critical load ip: 17506380 freq: 39
rob stalling non-critical load ip: 17506584 freq: 79
rob stalling non-critical load ip: 17506760 freq: 69
rob stalling non-critical load ip: 17506824 freq: 4
rob stalling non-critical load ip: 17506844 freq: 3
rob stalling non-critical load ip: 17506884 freq: 25
rob stalling non-critical load ip: 17506964 freq: 16
rob stalling non-critical load ip: 17506996 freq: 2
rob stalling non-critical load ip: 17507036 freq: 1
rob stalling non-critical load ip: 17507044 freq: 85
rob stalling non-critical load ip: 17507160 freq: 5
rob stalling non-critical load ip: 17507196 freq: 3
rob stalling non-critical load ip: 17507336 freq: 4
rob stalling non-critical load ip: 17507396 freq: 1
rob stalling non-critical load ip: 17507428 freq: 22
rob stalling non-critical load ip: 17507476 freq: 9
rob stalling non-critical load ip: 17507492 freq: 6
rob stalling non-critical load ip: 17545664 freq: 8
rob stalling non-critical load ip: 17545848 freq: 1
rob stalling non-critical load ip: 17545908 freq: 12
rob stalling non-critical load ip: 17546088 freq: 114
rob stalling non-critical load ip: 17546104 freq: 7
rob stalling non-critical load ip: 17546120 freq: 4
rob stalling non-critical load ip: 17546260 freq: 4
rob stalling non-critical load ip: 17546300 freq: 1
rob stalling non-critical load ip: 17546416 freq: 2
rob stalling non-critical load ip: 17546908 freq: 16
rob stalling non-critical load ip: 17546920 freq: 1
rob stalling non-critical load ip: 17546944 freq: 18
rob stalling non-critical load ip: 17547352 freq: 30
rob stalling non-critical load ip: 17547720 freq: 3
rob stalling non-critical load ip: 17547776 freq: 4
rob stalling non-critical load ip: 17548040 freq: 20
rob stalling non-critical load ip: 17555508 freq: 11
rob stalling non-critical load ip: 17641540 freq: 4
rob stalling non-critical load ip: 17644276 freq: 95
rob stalling non-critical load ip: 17682804 freq: 4
rob stalling non-critical load ip: 17683040 freq: 3
rob stalling non-critical load ip: 17683132 freq: 2
rob stalling non-critical load ip: 17683252 freq: 2
rob stalling non-critical load ip: 17683380 freq: 4
rob stalling non-critical load ip: 17683576 freq: 2
rob stalling non-critical load ip: 17782316 freq: 248
rob stalling non-critical load ip: 17782320 freq: 11
rob stalling non-critical load ip: 17782380 freq: 662
rob stalling non-critical load ip: 17782384 freq: 4
rob stalling non-critical load ip: 17782400 freq: 34
rob stalling non-critical load ip: 17782428 freq: 6
rob stalling non-critical load ip: 17782476 freq: 165
rob stalling non-critical load ip: 17782536 freq: 40
rob stalling non-critical load ip: 17782548 freq: 16
rob stalling non-critical load ip: 17782600 freq: 14
rob stalling non-critical load ip: 17782928 freq: 194
rob stalling non-critical load ip: 17782932 freq: 1
rob stalling non-critical load ip: 17782984 freq: 55
rob stalling non-critical load ip: 17783272 freq: 19
rob stalling non-critical load ip: 17795512 freq: 20
rob stalling non-critical load ip: 17795560 freq: 1
rob stalling non-critical load ip: 17825288 freq: 6
rob stalling non-critical load ip: 17906156 freq: 60
rob stalling non-critical load ip: 17906336 freq: 126
rob stalling non-critical load ip: 17906384 freq: 1261
rob stalling non-critical load ip: 17906400 freq: 615
rob stalling non-critical load ip: 17906620 freq: 27
rob stalling non-critical load ip: 17906636 freq: 4
rob stalling non-critical load ip: 17906644 freq: 9
rob stalling non-critical load ip: 17906844 freq: 2510
rob stalling non-critical load ip: 17906852 freq: 44
rob stalling non-critical load ip: 17906888 freq: 214
rob stalling non-critical load ip: 17906912 freq: 19
rob stalling non-critical load ip: 17906968 freq: 25
rob stalling non-critical load ip: 17906980 freq: 22
rob stalling non-critical load ip: 17907064 freq: 1519
rob stalling non-critical load ip: 17908272 freq: 29
rob stalling non-critical load ip: 17908296 freq: 43
rob stalling non-critical load ip: 17908312 freq: 19
rob stalling non-critical load ip: 17908368 freq: 24
rob stalling non-critical load ip: 18022900 freq: 18
rob stalling non-critical load ip: 18022940 freq: 3
rob stalling non-critical load ip: 18022944 freq: 76
rob stalling non-critical load ip: 18022948 freq: 1
rob stalling non-critical load ip: 18023020 freq: 2
rob stalling non-critical load ip: 18023308 freq: 3
rob stalling non-critical load ip: 18025240 freq: 54
rob stalling non-critical load ip: 18025276 freq: 35
rob stalling non-critical load ip: 18025296 freq: 73
rob stalling non-critical load ip: 18025304 freq: 41
rob stalling non-critical load ip: 18025320 freq: 10
rob stalling non-critical load ip: 18025340 freq: 86
rob stalling non-critical load ip: 18025560 freq: 10
rob stalling non-critical load ip: 18025576 freq: 5
rob stalling non-critical load ip: 18025596 freq: 5
rob stalling non-critical load ip: 18025768 freq: 3
rob stalling non-critical load ip: 18025804 freq: 4
rob stalling non-critical load ip: 18025832 freq: 6
rob stalling non-critical load ip: 18026640 freq: 4
rob stalling non-critical load ip: 18026656 freq: 1
rob stalling non-critical load ip: 18026908 freq: 14
rob stalling non-critical load ip: 18026960 freq: 1
rob stalling non-critical load ip: 18026992 freq: 2
rob stalling non-critical load ip: 18027120 freq: 28
rob stalling non-critical load ip: 18027156 freq: 745
rob stalling non-critical load ip: 18027924 freq: 33
rob stalling non-critical load ip: 18027932 freq: 17
rob stalling non-critical load ip: 18049648 freq: 24
rob stalling non-critical load ip: 18049664 freq: 124
rob stalling non-critical load ip: 18049728 freq: 10
rob stalling non-critical load ip: 18049736 freq: 4
rob stalling non-critical load ip: 18049744 freq: 11
rob stalling non-critical load ip: 18049752 freq: 1
rob stalling non-critical load ip: 18049920 freq: 90
rob stalling non-critical load ip: 18049936 freq: 2
rob stalling non-critical load ip: 18049996 freq: 30
rob stalling non-critical load ip: 18050004 freq: 4
rob stalling non-critical load ip: 18050036 freq: 19
rob stalling non-critical load ip: 18050048 freq: 1228
rob stalling non-critical load ip: 18073720 freq: 4
rob stalling non-critical load ip: 18074084 freq: 1
rob stalling non-critical load ip: 18074636 freq: 5
rob stalling non-critical load ip: 18074640 freq: 11
rob stalling non-critical load ip: 18085540 freq: 19
rob stalling non-critical load ip: 18128468 freq: 53
rob stalling non-critical load ip: 18128484 freq: 14
rob stalling non-critical load ip: 18128540 freq: 74
rob stalling non-critical load ip: 18128612 freq: 39
rob stalling non-critical load ip: 18128640 freq: 399
rob stalling non-critical load ip: 18128648 freq: 9
rob stalling non-critical load ip: 18128744 freq: 434
rob stalling non-critical load ip: 18132720 freq: 2206
rob stalling non-critical load ip: 18132760 freq: 571
rob stalling non-critical load ip: 18132804 freq: 45
rob stalling non-critical load ip: 18132832 freq: 181
rob stalling non-critical load ip: 18132844 freq: 32
rob stalling non-critical load ip: 18132856 freq: 13
rob stalling non-critical load ip: 18132872 freq: 21
rob stalling non-critical load ip: 18132896 freq: 189
rob stalling non-critical load ip: 18132908 freq: 257
rob stalling non-critical load ip: 18132916 freq: 23
rob stalling non-critical load ip: 18132980 freq: 22
rob stalling non-critical load ip: 18132996 freq: 2022
rob stalling non-critical load ip: 18133012 freq: 21
rob stalling non-critical load ip: 18133080 freq: 2928
rob stalling non-critical load ip: 18133112 freq: 272
rob stalling non-critical load ip: 18133280 freq: 39
rob stalling non-critical load ip: 18133368 freq: 204
rob stalling non-critical load ip: 18133388 freq: 13
rob stalling non-critical load ip: 18133392 freq: 58
rob stalling non-critical load ip: 18133404 freq: 22
rob stalling non-critical load ip: 18133408 freq: 162
rob stalling non-critical load ip: 18133456 freq: 6
rob stalling non-critical load ip: 18133528 freq: 4
rob stalling non-critical load ip: 18133592 freq: 10
rob stalling non-critical load ip: 18133608 freq: 10
rob stalling non-critical load ip: 18133724 freq: 2
rob stalling non-critical load ip: 18133736 freq: 3
rob stalling non-critical load ip: 18133828 freq: 1
rob stalling non-critical load ip: 18133864 freq: 3
rob stalling non-critical load ip: 18133936 freq: 8
rob stalling non-critical load ip: 18133940 freq: 16
rob stalling non-critical load ip: 18133964 freq: 5
rob stalling non-critical load ip: 18134012 freq: 2
rob stalling non-critical load ip: 18134084 freq: 72
rob stalling non-critical load ip: 18134132 freq: 3
rob stalling non-critical load ip: 18134192 freq: 13
rob stalling non-critical load ip: 18134316 freq: 55
rob stalling non-critical load ip: 18134344 freq: 25
rob stalling non-critical load ip: 18134356 freq: 11
rob stalling non-critical load ip: 18134420 freq: 20
rob stalling non-critical load ip: 18134436 freq: 12
rob stalling non-critical load ip: 18303116 freq: 31
rob stalling non-critical load ip: 18303200 freq: 6
rob stalling non-critical load ip: 18303272 freq: 5
rob stalling non-critical load ip: 18303276 freq: 1
rob stalling non-critical load ip: 18303304 freq: 2
rob stalling non-critical load ip: 18317956 freq: 2
rob stalling non-critical load ip: 18317984 freq: 1
rob stalling non-critical load ip: 18457504 freq: 7
rob stalling non-critical load ip: 18457564 freq: 1
rob stalling non-critical load ip: 18457572 freq: 25
rob stalling non-critical load ip: 18457588 freq: 8
rob stalling non-critical load ip: 18457592 freq: 7
rob stalling non-critical load ip: 18466760 freq: 1
rob stalling non-critical load ip: 18466824 freq: 5
rob stalling non-critical load ip: 18466888 freq: 8
rob stalling non-critical load ip: 18466940 freq: 7
rob stalling non-critical load ip: 18466952 freq: 13
rob stalling non-critical load ip: 18481624 freq: 1
rob stalling non-critical load ip: 18481788 freq: 310
rob stalling non-critical load ip: 18481820 freq: 39
rob stalling non-critical load ip: 18604280 freq: 121
rob stalling non-critical load ip: 18604288 freq: 13
rob stalling non-critical load ip: 18604340 freq: 1
rob stalling non-critical load ip: 18604344 freq: 1462
rob stalling non-critical load ip: 18604364 freq: 13
rob stalling non-critical load ip: 18604368 freq: 57
rob stalling non-critical load ip: 18604396 freq: 14
rob stalling non-critical load ip: 18604480 freq: 28
rob stalling non-critical load ip: 18625668 freq: 89
rob stalling non-critical load ip: 18627428 freq: 134
rob stalling non-critical load ip: 18631072 freq: 4
rob stalling non-critical load ip: 18631092 freq: 21
rob stalling non-critical load ip: 18631116 freq: 2
rob stalling non-critical load ip: 18634180 freq: 13
rob stalling non-critical load ip: 18634208 freq: 13
rob stalling non-critical load ip: 18634276 freq: 9
rob stalling non-critical load ip: 18634364 freq: 10
rob stalling non-critical load ip: 18634432 freq: 13
rob stalling non-critical load ip: 18634892 freq: 9
rob stalling non-critical load ip: 18757300 freq: 1
rob stalling non-critical load ip: 18757332 freq: 4
rob stalling non-critical load ip: 18757352 freq: 7
rob stalling non-critical load ip: 18757540 freq: 5
rob stalling non-critical load ip: 18757776 freq: 4
rob stalling non-critical load ip: 18759348 freq: 1
rob stalling non-critical load ip: 18760628 freq: 6
rob stalling non-critical load ip: 18760808 freq: 1
rob stalling non-critical load ip: 18760852 freq: 5
rob stalling non-critical load ip: 18783856 freq: 117
rob stalling non-critical load ip: 18783872 freq: 19
rob stalling non-critical load ip: 18783896 freq: 3
rob stalling non-critical load ip: 18783940 freq: 28
rob stalling non-critical load ip: 18783960 freq: 2
rob stalling non-critical load ip: 18783964 freq: 2
rob stalling non-critical load ip: 18790068 freq: 29
rob stalling non-critical load ip: 18790796 freq: 14
rob stalling non-critical load ip: 18790812 freq: 13
rob stalling non-critical load ip: 18790940 freq: 12
rob stalling non-critical load ip: 18790984 freq: 2
rob stalling non-critical load ip: 18791368 freq: 25
rob stalling non-critical load ip: 18791472 freq: 7
rob stalling non-critical load ip: 18791500 freq: 1
rob stalling non-critical load ip: 18791504 freq: 23
rob stalling non-critical load ip: 18791520 freq: 18
rob stalling non-critical load ip: 18791532 freq: 1
rob stalling non-critical load ip: 18791552 freq: 7
rob stalling non-critical load ip: 18791568 freq: 6
rob stalling non-critical load ip: 18791632 freq: 6
rob stalling non-critical load ip: 18791716 freq: 5
rob stalling non-critical load ip: 18791796 freq: 115
rob stalling non-critical load ip: 18791860 freq: 5
rob stalling non-critical load ip: 18791880 freq: 23
rob stalling non-critical load ip: 18792068 freq: 2
rob stalling non-critical load ip: 18792084 freq: 2
rob stalling non-critical load ip: 18792108 freq: 46
rob stalling non-critical load ip: 18792112 freq: 48
rob stalling non-critical load ip: 18792136 freq: 2
rob stalling non-critical load ip: 18792888 freq: 6
rob stalling non-critical load ip: 18793196 freq: 2
rob stalling non-critical load ip: 18847852 freq: 5
rob stalling non-critical load ip: 18847888 freq: 7
rob stalling non-critical load ip: 18847912 freq: 3
rob stalling non-critical load ip: 18847948 freq: 9
rob stalling non-critical load ip: 18847984 freq: 10
rob stalling non-critical load ip: 18848012 freq: 2
rob stalling non-critical load ip: 18848072 freq: 10
rob stalling non-critical load ip: 18848112 freq: 1
rob stalling non-critical load ip: 18848160 freq: 1
rob stalling non-critical load ip: 18848172 freq: 9
rob stalling non-critical load ip: 18848228 freq: 4
rob stalling non-critical load ip: 18848240 freq: 2
rob stalling non-critical load ip: 18848296 freq: 3
rob stalling non-critical load ip: 18848340 freq: 4
rob stalling non-critical load ip: 18848564 freq: 4
rob stalling non-critical load ip: 18848928 freq: 27
rob stalling non-critical load ip: 18848936 freq: 12
rob stalling non-critical load ip: 18848996 freq: 8
rob stalling non-critical load ip: 18850924 freq: 12
rob stalling non-critical load ip: 18850996 freq: 1
rob stalling non-critical load ip: 18851012 freq: 2
rob stalling non-critical load ip: 18851080 freq: 3
rob stalling non-critical load ip: 18851244 freq: 1
rob stalling non-critical load ip: 18851432 freq: 5
rob stalling non-critical load ip: 18851444 freq: 4
rob stalling non-critical load ip: 18851816 freq: 4
rob stalling non-critical load ip: 18851888 freq: 1
rob stalling non-critical load ip: 18852788 freq: 1
rob stalling non-critical load ip: 18852812 freq: 1
rob stalling non-critical load ip: 18853212 freq: 7
rob stalling non-critical load ip: 18853284 freq: 3
rob stalling non-critical load ip: 18854632 freq: 5
rob stalling non-critical load ip: 18854636 freq: 21
rob stalling non-critical load ip: 18956724 freq: 36
rob stalling non-critical load ip: 18956760 freq: 4
rob stalling non-critical load ip: 18956848 freq: 2
rob stalling non-critical load ip: 18956864 freq: 1
rob stalling non-critical load ip: 18956900 freq: 4
rob stalling non-critical load ip: 18960512 freq: 25
rob stalling non-critical load ip: 18960552 freq: 13
rob stalling non-critical load ip: 18960584 freq: 45
rob stalling non-critical load ip: 18960616 freq: 4
rob stalling non-critical load ip: 18960676 freq: 5
rob stalling non-critical load ip: 18960688 freq: 13
rob stalling non-critical load ip: 18960700 freq: 4
rob stalling non-critical load ip: 18960780 freq: 6
rob stalling non-critical load ip: 18960796 freq: 2
rob stalling non-critical load ip: 18960812 freq: 4
rob stalling non-critical load ip: 18960836 freq: 28
rob stalling non-critical load ip: 18960848 freq: 1
rob stalling non-critical load ip: 18960860 freq: 5
rob stalling non-critical load ip: 18960876 freq: 1
rob stalling non-critical load ip: 18960940 freq: 7
rob stalling non-critical load ip: 18960956 freq: 5
rob stalling non-critical load ip: 18960972 freq: 2
rob stalling non-critical load ip: 19454556 freq: 2
rob stalling non-critical load ip: 19489264 freq: 1
rob stalling non-critical load ip: 19489332 freq: 25
rob stalling non-critical load ip: 19489344 freq: 202
rob stalling non-critical load ip: 19489356 freq: 421
rob stalling non-critical load ip: 19489368 freq: 29
rob stalling non-critical load ip: 19489396 freq: 25
rob stalling non-critical load ip: 19489408 freq: 53
rob stalling non-critical load ip: 19489580 freq: 2
rob stalling non-critical load ip: 19493692 freq: 2
rob stalling non-critical load ip: 19493820 freq: 26
rob stalling non-critical load ip: 19493832 freq: 4
rob stalling non-critical load ip: 19493916 freq: 19
rob stalling non-critical load ip: 19493920 freq: 19
rob stalling non-critical load ip: 19493924 freq: 18
rob stalling non-critical load ip: 19493928 freq: 3
rob stalling non-critical load ip: 19493932 freq: 26
rob stalling non-critical load ip: 19493940 freq: 8
rob stalling non-critical load ip: 19493948 freq: 6
rob stalling non-critical load ip: 19493956 freq: 11
rob stalling non-critical load ip: 19493960 freq: 15
rob stalling non-critical load ip: 19493984 freq: 2
rob stalling non-critical load ip: 19494000 freq: 4
rob stalling non-critical load ip: 19494032 freq: 208
rob stalling non-critical load ip: 19494040 freq: 89
rob stalling non-critical load ip: 19494052 freq: 245
rob stalling non-critical load ip: 19494060 freq: 84
rob stalling non-critical load ip: 19494068 freq: 156
rob stalling non-critical load ip: 19494076 freq: 7711
rob stalling non-critical load ip: 19494084 freq: 134
rob stalling non-critical load ip: 19494096 freq: 174
rob stalling non-critical load ip: 19494104 freq: 20744
rob stalling non-critical load ip: 19494112 freq: 310
rob stalling non-critical load ip: 19494176 freq: 8
rob stalling non-critical load ip: 19494212 freq: 5
rob stalling non-critical load ip: 19494292 freq: 149
rob stalling non-critical load ip: 19494380 freq: 30
rob stalling non-critical load ip: 19494412 freq: 3
rob stalling non-critical load ip: 19494452 freq: 3
rob stalling non-critical load ip: 19494656 freq: 1
rob stalling non-critical load ip: 19494664 freq: 18
rob stalling non-critical load ip: 19495680 freq: 19
rob stalling non-critical load ip: 19495700 freq: 87
rob stalling non-critical load ip: 19495740 freq: 197
rob stalling non-critical load ip: 19495772 freq: 165
rob stalling non-critical load ip: 19495816 freq: 155
rob stalling non-critical load ip: 19496092 freq: 2
rob stalling non-critical load ip: 19496192 freq: 14829
rob stalling non-critical load ip: 19496208 freq: 2429
rob stalling non-critical load ip: 19496224 freq: 11398
rob stalling non-critical load ip: 19496236 freq: 14646
rob stalling non-critical load ip: 19496264 freq: 955
rob stalling non-critical load ip: 19496548 freq: 21
rob stalling non-critical load ip: 19496676 freq: 79
rob stalling non-critical load ip: 19496688 freq: 83
rob stalling non-critical load ip: 19496700 freq: 2173
rob stalling non-critical load ip: 19496712 freq: 31
rob stalling non-critical load ip: 19496768 freq: 269
rob stalling non-critical load ip: 19496772 freq: 228
rob stalling non-critical load ip: 19496776 freq: 208
rob stalling non-critical load ip: 19496780 freq: 198
rob stalling non-critical load ip: 19496788 freq: 1671
rob stalling non-critical load ip: 19496792 freq: 165
rob stalling non-critical load ip: 19496796 freq: 1477
rob stalling non-critical load ip: 19496804 freq: 68
rob stalling non-critical load ip: 19496812 freq: 30
rob stalling non-critical load ip: 19496816 freq: 1635
rob stalling non-critical load ip: 19496824 freq: 48
rob stalling non-critical load ip: 19496832 freq: 607
rob stalling non-critical load ip: 19496840 freq: 23
rob stalling non-critical load ip: 19496880 freq: 2460
rob stalling non-critical load ip: 19496888 freq: 398
rob stalling non-critical load ip: 19496900 freq: 3888
rob stalling non-critical load ip: 19496908 freq: 320
rob stalling non-critical load ip: 19496916 freq: 3404
rob stalling non-critical load ip: 19496924 freq: 1762
rob stalling non-critical load ip: 19496932 freq: 142
rob stalling non-critical load ip: 19496944 freq: 389
rob stalling non-critical load ip: 19496952 freq: 5979
rob stalling non-critical load ip: 19496960 freq: 321
rob stalling non-critical load ip: 19497140 freq: 4625
rob stalling non-critical load ip: 19497228 freq: 22
rob stalling non-critical load ip: 19497260 freq: 17
rob stalling non-critical load ip: 19497416 freq: 6
rob stalling non-critical load ip: 19497448 freq: 86
rob stalling non-critical load ip: 19497544 freq: 3
rob stalling non-critical load ip: 19497852 freq: 3
rob stalling non-critical load ip: 19499140 freq: 30
rob stalling non-critical load ip: 19499416 freq: 4
rob stalling non-critical load ip: 19499804 freq: 6
rob stalling non-critical load ip: 19499832 freq: 30
rob stalling non-critical load ip: 19500044 freq: 3
rob stalling non-critical load ip: 19500084 freq: 35
rob stalling non-critical load ip: 19500756 freq: 17
rob stalling non-critical load ip: 19500968 freq: 7
rob stalling non-critical load ip: 19501032 freq: 8
rob stalling non-critical load ip: 19501068 freq: 32
rob stalling non-critical load ip: 19501084 freq: 1
rob stalling non-critical load ip: 19695740 freq: 45
rob stalling non-critical load ip: 19695780 freq: 19
rob stalling non-critical load ip: 19695796 freq: 36
rob stalling non-critical load ip: 19695888 freq: 9
rob stalling non-critical load ip: 19695908 freq: 5
rob stalling non-critical load ip: 19695924 freq: 6
rob stalling non-critical load ip: 19695928 freq: 6
rob stalling non-critical load ip: 19695960 freq: 5
rob stalling non-critical load ip: 19695992 freq: 4
rob stalling non-critical load ip: 19696032 freq: 2
rob stalling non-critical load ip: 19697760 freq: 3
rob stalling non-critical load ip: 19698064 freq: 1
rob stalling non-critical load ip: 19698128 freq: 2
rob stalling non-critical load ip: 19698132 freq: 4
rob stalling non-critical load ip: 19698148 freq: 2
rob stalling non-critical load ip: 19698204 freq: 25
rob stalling non-critical load ip: 19698228 freq: 6
rob stalling non-critical load ip: 19698324 freq: 1
rob stalling non-critical load ip: 19698368 freq: 1
rob stalling non-critical load ip: 19698464 freq: 5
rob stalling non-critical load ip: 19698480 freq: 2
rob stalling non-critical load ip: 19698540 freq: 3
rob stalling non-critical load ip: 19698580 freq: 1
rob stalling non-critical load ip: 19698700 freq: 3
rob stalling non-critical load ip: 19698736 freq: 1
rob stalling non-critical load ip: 19698952 freq: 3
rob stalling non-critical load ip: 19699940 freq: 1
rob stalling non-critical load ip: 19699952 freq: 3
rob stalling non-critical load ip: 19699968 freq: 9
rob stalling non-critical load ip: 19700112 freq: 1
rob stalling non-critical load ip: 19700320 freq: 6
rob stalling non-critical load ip: 19700336 freq: 3
rob stalling non-critical load ip: 19700340 freq: 1
rob stalling non-critical load ip: 19700608 freq: 1
rob stalling non-critical load ip: 19701436 freq: 3
rob stalling non-critical load ip: 19701440 freq: 52
rob stalling non-critical load ip: 19701452 freq: 3
rob stalling non-critical load ip: 19701456 freq: 10
rob stalling non-critical load ip: 19701552 freq: 4
rob stalling non-critical load ip: 19701852 freq: 1291
rob stalling non-critical load ip: 19701876 freq: 56
rob stalling non-critical load ip: 19701920 freq: 26
rob stalling non-critical load ip: 19701924 freq: 103
rob stalling non-critical load ip: 19701944 freq: 54
rob stalling non-critical load ip: 19701964 freq: 7
rob stalling non-critical load ip: 19702004 freq: 2
rob stalling non-critical load ip: 19702132 freq: 1
rob stalling non-critical load ip: 19702220 freq: 2
rob stalling non-critical load ip: 19702392 freq: 8
rob stalling non-critical load ip: 19702444 freq: 5
rob stalling non-critical load ip: 19702604 freq: 33
rob stalling non-critical load ip: 19702608 freq: 3
rob stalling non-critical load ip: 19702672 freq: 1
rob stalling non-critical load ip: 19702696 freq: 7
rob stalling non-critical load ip: 19704780 freq: 3
rob stalling non-critical load ip: 19705608 freq: 18
rob stalling non-critical load ip: 19705632 freq: 3
rob stalling non-critical load ip: 19706104 freq: 1
rob stalling non-critical load ip: 19706140 freq: 5
rob stalling non-critical load ip: 19706228 freq: 10
rob stalling non-critical load ip: 19706416 freq: 1
rob stalling non-critical load ip: 19706592 freq: 4
rob stalling non-critical load ip: 19706608 freq: 2
rob stalling non-critical load ip: 19706632 freq: 5
rob stalling non-critical load ip: 19706848 freq: 2
rob stalling non-critical load ip: 19706884 freq: 5
rob stalling non-critical load ip: 19707028 freq: 18
rob stalling non-critical load ip: 19707040 freq: 2
rob stalling non-critical load ip: 19707104 freq: 1
rob stalling non-critical load ip: 19707188 freq: 2
rob stalling non-critical load ip: 19707268 freq: 9
rob stalling non-critical load ip: 19707288 freq: 2
rob stalling non-critical load ip: 19707756 freq: 9
rob stalling non-critical load ip: 19707776 freq: 3
rob stalling non-critical load ip: 19707780 freq: 3
rob stalling non-critical load ip: 19707844 freq: 3
rob stalling non-critical load ip: 19708048 freq: 5
rob stalling non-critical load ip: 19708440 freq: 1
rob stalling non-critical load ip: 19708660 freq: 1
rob stalling non-critical load ip: 19708996 freq: 9
rob stalling non-critical load ip: 19710620 freq: 3
rob stalling non-critical load ip: 19711940 freq: 16
rob stalling non-critical load ip: 19711948 freq: 21
rob stalling non-critical load ip: 19723140 freq: 2
rob stalling non-critical load ip: 19723236 freq: 80
rob stalling non-critical load ip: 19723284 freq: 6
rob stalling non-critical load ip: 19723320 freq: 29
rob stalling non-critical load ip: 19723336 freq: 35
rob stalling non-critical load ip: 19723352 freq: 11
rob stalling non-critical load ip: 19723368 freq: 6
rob stalling non-critical load ip: 19723384 freq: 1
rob stalling non-critical load ip: 19723456 freq: 3
rob stalling non-critical load ip: 19724416 freq: 6
rob stalling non-critical load ip: 19724432 freq: 12
rob stalling non-critical load ip: 19724576 freq: 21
rob stalling non-critical load ip: 19724872 freq: 3
rob stalling non-critical load ip: 19725616 freq: 29
rob stalling non-critical load ip: 19725644 freq: 5
rob stalling non-critical load ip: 19725656 freq: 1
rob stalling non-critical load ip: 19725660 freq: 6
rob stalling non-critical load ip: 19725688 freq: 3
rob stalling non-critical load ip: 19725704 freq: 14
rob stalling non-critical load ip: 19725720 freq: 14
rob stalling non-critical load ip: 19725880 freq: 1
rob stalling non-critical load ip: 19725904 freq: 7
rob stalling non-critical load ip: 19730756 freq: 2
rob stalling non-critical load ip: 19730884 freq: 3
rob stalling non-critical load ip: 19730936 freq: 6
rob stalling non-critical load ip: 19731836 freq: 2
rob stalling non-critical load ip: 19731932 freq: 3
rob stalling non-critical load ip: 19731936 freq: 3
rob stalling non-critical load ip: 19732288 freq: 12
rob stalling non-critical load ip: 19732408 freq: 2
rob stalling non-critical load ip: 19732644 freq: 11
rob stalling non-critical load ip: 19732912 freq: 5
rob stalling non-critical load ip: 19732928 freq: 2
rob stalling non-critical load ip: 19732940 freq: 11
rob stalling non-critical load ip: 19732956 freq: 6
rob stalling non-critical load ip: 19732984 freq: 4
rob stalling non-critical load ip: 19733036 freq: 4
rob stalling non-critical load ip: 19733048 freq: 3
rob stalling non-critical load ip: 19733224 freq: 3
rob stalling non-critical load ip: 19733228 freq: 4
rob stalling non-critical load ip: 19733500 freq: 36
rob stalling non-critical load ip: 19745436 freq: 16
rob stalling non-critical load ip: 19745684 freq: 6
rob stalling non-critical load ip: 19746212 freq: 6
rob stalling non-critical load ip: 19746244 freq: 42
rob stalling non-critical load ip: 19746296 freq: 6
rob stalling non-critical load ip: 19746308 freq: 13
rob stalling non-critical load ip: 19746344 freq: 2
rob stalling non-critical load ip: 19748964 freq: 52
rob stalling non-critical load ip: 19748980 freq: 1
rob stalling non-critical load ip: 19749004 freq: 3
rob stalling non-critical load ip: 19749068 freq: 23
rob stalling non-critical load ip: 19791508 freq: 10
rob stalling non-critical load ip: 19791796 freq: 29
rob stalling non-critical load ip: 19795528 freq: 7
rob stalling non-critical load ip: 19795568 freq: 1
rob stalling non-critical load ip: 19795660 freq: 4
rob stalling non-critical load ip: 19837204 freq: 3
rob stalling non-critical load ip: 19837224 freq: 3
rob stalling non-critical load ip: 19850508 freq: 2
rob stalling non-critical load ip: 19850568 freq: 5
rob stalling non-critical load ip: 19850992 freq: 3
rob stalling non-critical load ip: 19851160 freq: 31
rob stalling non-critical load ip: 19851192 freq: 6
rob stalling non-critical load ip: 19851292 freq: 11
rob stalling non-critical load ip: 19851632 freq: 12
rob stalling non-critical load ip: 19852592 freq: 3
rob stalling non-critical load ip: 19852596 freq: 3
rob stalling non-critical load ip: 19852760 freq: 2
[...]
Critical_ROB_Stalls_Percent_1_Bucket_6: 5839
Non-critical_ROB_Stalls_Percent_1_Bucket_6: 3937
Critical_ROB_Stalls_Percent_2_Bucket_0: 444144
Non-critical_ROB_Stalls_Percent_2_Bucket_0: 285850
Critical_ROB_Stalls_Percent_2_Bucket_1: 3971
Non-critical_ROB_Stalls_Percent_2_Bucket_1: 22473
Critical_ROB_Stalls_Percent_2_Bucket_2: 2581
Non-critical_ROB_Stalls_Percent_2_Bucket_2: 3621
Critical_ROB_Stalls_Percent_2_Bucket_3: 3307
Non-critical_ROB_Stalls_Percent_2_Bucket_3: 2150
Critical_ROB_Stalls_Percent_2_Bucket_4: 4802
Non-critical_ROB_Stalls_Percent_2_Bucket_4: 1351
Critical_ROB_Stalls_Percent_2_Bucket_5: 5905
Non-critical_ROB_Stalls_Percent_2_Bucket_5: 1239
Critical_ROB_Stalls_Percent_2_Bucket_6: 5844
Non-critical_ROB_Stalls_Percent_2_Bucket_6: 3932
Critical_ROB_Stalls_Percent_3_Bucket_0: 481392
Non-critical_ROB_Stalls_Percent_3_Bucket_0: 248602
Critical_ROB_Stalls_Percent_3_Bucket_1: 4346
Non-critical_ROB_Stalls_Percent_3_Bucket_1: 22098
Critical_ROB_Stalls_Percent_3_Bucket_2: 2622
Non-critical_ROB_Stalls_Percent_3_Bucket_2: 3580
Critical_ROB_Stalls_Percent_3_Bucket_3: 3356
Non-critical_ROB_Stalls_Percent_3_Bucket_3: 2101
Critical_ROB_Stalls_Percent_3_Bucket_4: 4843
Non-critical_ROB_Stalls_Percent_3_Bucket_4: 1310
Critical_ROB_Stalls_Percent_3_Bucket_5: 5918
Non-critical_ROB_Stalls_Percent_3_Bucket_5: 1226
Critical_ROB_Stalls_Percent_3_Bucket_6: 5881
Non-critical_ROB_Stalls_Percent_3_Bucket_6: 3895
Critical_ROB_Stalls_Percent_4_Bucket_0: 515522
Non-critical_ROB_Stalls_Percent_4_Bucket_0: 214472
Critical_ROB_Stalls_Percent_4_Bucket_1: 7107
Non-critical_ROB_Stalls_Percent_4_Bucket_1: 19337
Critical_ROB_Stalls_Percent_4_Bucket_2: 2710
Non-critical_ROB_Stalls_Percent_4_Bucket_2: 3492
Critical_ROB_Stalls_Percent_4_Bucket_3: 3380
Non-critical_ROB_Stalls_Percent_4_Bucket_3: 2077
Critical_ROB_Stalls_Percent_4_Bucket_4: 4851
Non-critical_ROB_Stalls_Percent_4_Bucket_4: 1302
Critical_ROB_Stalls_Percent_4_Bucket_5: 5938
Non-critical_ROB_Stalls_Percent_4_Bucket_5: 1206
Critical_ROB_Stalls_Percent_4_Bucket_6: 5893
Non-critical_ROB_Stalls_Percent_4_Bucket_6: 3883
Critical_ROB_Stalls_Percent_5_Bucket_0: 555223
Non-critical_ROB_Stalls_Percent_5_Bucket_0: 174771
Critical_ROB_Stalls_Percent_5_Bucket_1: 7152
Non-critical_ROB_Stalls_Percent_5_Bucket_1: 19292
Critical_ROB_Stalls_Percent_5_Bucket_2: 2731
Non-critical_ROB_Stalls_Percent_5_Bucket_2: 3471
Critical_ROB_Stalls_Percent_5_Bucket_3: 3393
Non-critical_ROB_Stalls_Percent_5_Bucket_3: 2064
Critical_ROB_Stalls_Percent_5_Bucket_4: 4855
Non-critical_ROB_Stalls_Percent_5_Bucket_4: 1298
Critical_ROB_Stalls_Percent_5_Bucket_5: 5939
Non-critical_ROB_Stalls_Percent_5_Bucket_5: 1205
Critical_ROB_Stalls_Percent_5_Bucket_6: 5895
Non-critical_ROB_Stalls_Percent_5_Bucket_6: 3881
Critical_ROB_Stalls_Percent_6_Bucket_0: 591703
Non-critical_ROB_Stalls_Percent_6_Bucket_0: 138291
Critical_ROB_Stalls_Percent_6_Bucket_1: 8669
Non-critical_ROB_Stalls_Percent_6_Bucket_1: 17775
Critical_ROB_Stalls_Percent_6_Bucket_2: 2814
Non-critical_ROB_Stalls_Percent_6_Bucket_2: 3388
Critical_ROB_Stalls_Percent_6_Bucket_3: 3433
Non-critical_ROB_Stalls_Percent_6_Bucket_3: 2024
Critical_ROB_Stalls_Percent_6_Bucket_4: 4865
Non-critical_ROB_Stalls_Percent_6_Bucket_4: 1288
Critical_ROB_Stalls_Percent_6_Bucket_5: 5943
Non-critical_ROB_Stalls_Percent_6_Bucket_5: 1201
Critical_ROB_Stalls_Percent_6_Bucket_6: 5906
Non-critical_ROB_Stalls_Percent_6_Bucket_6: 3870
Critical_ROB_Stalls_Percent_7_Bucket_0: 624632
Non-critical_ROB_Stalls_Percent_7_Bucket_0: 105362
Critical_ROB_Stalls_Percent_7_Bucket_1: 10927
Non-critical_ROB_Stalls_Percent_7_Bucket_1: 15517
Critical_ROB_Stalls_Percent_7_Bucket_2: 3355
Non-critical_ROB_Stalls_Percent_7_Bucket_2: 2847
Critical_ROB_Stalls_Percent_7_Bucket_3: 3813
Non-critical_ROB_Stalls_Percent_7_Bucket_3: 1644
Critical_ROB_Stalls_Percent_7_Bucket_4: 5091
Non-critical_ROB_Stalls_Percent_7_Bucket_4: 1062
Critical_ROB_Stalls_Percent_7_Bucket_5: 6188
Non-critical_ROB_Stalls_Percent_7_Bucket_5: 956
Critical_ROB_Stalls_Percent_7_Bucket_6: 8095
Non-critical_ROB_Stalls_Percent_7_Bucket_6: 1681
Critical_ROB_Stalls_Percent_8_Bucket_0: 658168
Non-critical_ROB_Stalls_Percent_8_Bucket_0: 71826
Critical_ROB_Stalls_Percent_8_Bucket_1: 15147
Non-critical_ROB_Stalls_Percent_8_Bucket_1: 11297
Critical_ROB_Stalls_Percent_8_Bucket_2: 3911
Non-critical_ROB_Stalls_Percent_8_Bucket_2: 2291
Critical_ROB_Stalls_Percent_8_Bucket_3: 4092
Non-critical_ROB_Stalls_Percent_8_Bucket_3: 1365
Critical_ROB_Stalls_Percent_8_Bucket_4: 5302
Non-critical_ROB_Stalls_Percent_8_Bucket_4: 851
Critical_ROB_Stalls_Percent_8_Bucket_5: 6327
Non-critical_ROB_Stalls_Percent_8_Bucket_5: 817
Critical_ROB_Stalls_Percent_8_Bucket_6: 8273
Non-critical_ROB_Stalls_Percent_8_Bucket_6: 1503
Average ROB occupancy Load Stall Begin: 23.8184
Average ROB occupancy Load Stall End: 28.7747
Min ROB occupancy Load Stall Begin: 1
Max ROB occupancy Load Stall Begin: 351
Min ROB occupancy Load Stall End: 1
Max ROB occupancy Load Stall End: 352
Average ROB occupancy Critical Load Stall Begin: -nan
Average ROB occupancy Critical Load Stall End: -nan
Min ROB occupancy Critical Load Stall Begin: 400
Max ROB occupancy Critical Load Stall Begin: 0
Min ROB occupancy Critical Load Stall End: 400
Max ROB occupancy Critical Load Stall End: 0
 ROB Load Stall Begin Bucket Count 0: 736813
 ROB Load Stall End Bucket Count 0: 729994
 ROB Critical Load Stall Begin Bucket Count 0: 0
 ROB Critical Load Stall End Bucket Count 0: 0
 ROB Load Stall Begin Bucket Count 1: 22723
 ROB Load Stall End Bucket Count 1: 26444
 ROB Critical Load Stall Begin Bucket Count 1: 0
 ROB Critical Load Stall End Bucket Count 1: 0
 ROB Load Stall Begin Bucket Count 2: 5541
 ROB Load Stall End Bucket Count 2: 6202
 ROB Critical Load Stall Begin Bucket Count 2: 0
 ROB Critical Load Stall End Bucket Count 2: 0
 ROB Load Stall Begin Bucket Count 3: 4896
 ROB Load Stall End Bucket Count 3: 5457
 ROB Critical Load Stall Begin Bucket Count 3: 0
 ROB Critical Load Stall End Bucket Count 3: 0
 ROB Load Stall Begin Bucket Count 4: 6469
 ROB Load Stall End Bucket Count 4: 6153
 ROB Critical Load Stall Begin Bucket Count 4: 0
 ROB Critical Load Stall End Bucket Count 4: 0
 ROB Load Stall Begin Bucket Count 5: 6780
 ROB Load Stall End Bucket Count 5: 7144
 ROB Critical Load Stall Begin Bucket Count 5: 0
 ROB Critical Load Stall End Bucket Count 5: 0
 ROB Load Stall Begin Bucket Count 6: 7948
 ROB Load Stall End Bucket Count 6: 9776
 ROB Critical Load Stall Begin Bucket Count 6: 0
 ROB Critical Load Stall End Bucket Count 6: 0
PIST Tag Read Accesses: 56240
PIST Read Accesses: 28120
PIST Tag Write Accesses: 56240
PIST Write Accesses: 28120
Criticality detector called times: 350518
Max global_stall_cycles_count: 180583
Threshold Modified: 1 times, factor: -1
Sturdy critical IP cache stats: 
 Unused entries: 0
CIC Tag Read Accesses: 0
CIC Read Accesses: 0
CIC Tag Write Accesses: 0
CIC Write Accesses: 0
Wobbly critical IP cache stats: 
 Unused entries: 123
CIC Tag Read Accesses: 52131272
CIC Read Accesses: 0
CIC Tag Write Accesses: 5
CIC Write Accesses: 0
ITLB TOTAL     ACCESS:    8976517  HIT:    7695763  MISS:    1280754  HIT %:    85.7322  MISS %:    14.2678   MPKI: 25.6151
ITLB LOAD TRANSLATION ACCESS:    8976517  HIT:    7695763  MISS:    1280754  HIT %:    85.7322  MISS %:    14.2678   MPKI: 25.6151
ITLB PREFETCH  REQUESTED:          0  ISSUED:          0  USEFUL:          0  USELESS:          0
ITLB USEFUL LOAD PREFETCHES:          0 PREFETCH ISSUED TO LOWER LEVEL:          0  ACCURACY: -nan
ITLB TIMELY PREFETCHES:          0 LATE PREFETCHES: 0 DROPPED PREFETCHES: 0
ITLB PREFETCHES SAME FILL-ORIGIN LEVEL: 0 DIFFERENT FILL-ORIGIN LEVEL: 0
ITLB AVERAGE MISS LATENCY: 29.5027 cycles
ITLB RQ	ACCESS:   10982386	FORWARD:          0	MERGED:    1467138	TO_CACHE:    9515248

DTLB TOTAL     ACCESS:    6177698  HIT:    4563816  MISS:    1613882  HIT %:    73.8757  MISS %:    26.1243   MPKI: 32.2776
DTLB LOAD TRANSLATION ACCESS:    6177698  HIT:    4563816  MISS:    1613882  HIT %:    73.8757  MISS %:    26.1243   MPKI: 32.2776
DTLB PREFETCH  REQUESTED:          0  ISSUED:          0  USEFUL:          0  USELESS:          0
DTLB USEFUL LOAD PREFETCHES:          0 PREFETCH ISSUED TO LOWER LEVEL:          0  ACCURACY: -nan
DTLB TIMELY PREFETCHES:          0 LATE PREFETCHES: 0 DROPPED PREFETCHES: 0
DTLB PREFETCHES SAME FILL-ORIGIN LEVEL: 0 DIFFERENT FILL-ORIGIN LEVEL: 0
DTLB AVERAGE MISS LATENCY: 30.243 cycles
DTLB RQ	ACCESS:    9150316	FORWARD:          0	MERGED:    2647418	TO_CACHE:    6502898

STLB TOTAL     ACCESS:    2894636  HIT:     772122  MISS:    2122514  HIT %:    26.6742  MISS %:    73.3258   MPKI: 42.4503
STLB LOAD TRANSLATION ACCESS:    2894636  HIT:     772122  MISS:    2122514  HIT %:    26.6742  MISS %:    73.3258   MPKI: 42.4503
STLB PREFETCH  REQUESTED:          0  ISSUED:          0  USEFUL:          0  USELESS:          0
STLB USEFUL LOAD PREFETCHES:          0 PREFETCH ISSUED TO LOWER LEVEL:          0  ACCURACY: -nan
STLB TIMELY PREFETCHES:          0 LATE PREFETCHES: 0 DROPPED PREFETCHES: 0
STLB PREFETCHES SAME FILL-ORIGIN LEVEL: 0 DIFFERENT FILL-ORIGIN LEVEL: 0
STLB AVERAGE MISS LATENCY: 28.4251 cycles
STLB RQ	ACCESS:    2894636	FORWARD:          0	MERGED:          0	TO_CACHE:    2894636

STLB Hit, L1D data hit: 0
STLB Hit, L2C data hit: 0
STLB Hit, LLC data hit: 0
STLB Hit, LLC data miss: 0
STLB STLB hints to L2: 0
L1D TOTAL     ACCESS:    8682369  HIT:    8261114  MISS:     421255  HIT %:    95.1482  MISS %:    4.85184   MPKI: 8.4251
L1D LOAD      ACCESS:    4961890  HIT:    4661710  MISS:     300180  HIT %:    93.9503  MISS %:    6.04971   MPKI: 6.0036
L1D RFO       ACCESS:    3720479  HIT:    3599404  MISS:     121075  HIT %:    96.7457  MISS %:    3.25429   MPKI: 2.4215
L1D PREFETCH  REQUESTED:          0  ISSUED:          0  USEFUL:          0  USELESS:          0
L1D USEFUL LOAD PREFETCHES:          0 PREFETCH ISSUED TO LOWER LEVEL:          0  ACCURACY: -nan
L1D TIMELY PREFETCHES:          0 LATE PREFETCHES: 0 DROPPED PREFETCHES: 0
L1D PREFETCHES SAME FILL-ORIGIN LEVEL: 0 DIFFERENT FILL-ORIGIN LEVEL: 0
L1D AVERAGE MISS LATENCY: 59.001 cycles
L1D RQ	ACCESS:    8804877	FORWARD:          0	MERGED:    3788484	TO_CACHE:    4983672
L1D WQ	ACCESS:    4201871	FORWARD:      32721	MERGED:      35227	TO_CACHE:    4166644

L1D UNIQUE REGIONS ACCESSED: 0
L1D REGIONS CONFLICTS: 0
L1D Cross Page Prefetch Requests: 0
L1D Same Page Prefetch Requests: 0
L1D ROI Sum of L1D PQ occupancy: 0
L1D PREFETCHES PUSHED FROM L2C: 0
L1I TOTAL     ACCESS:   10375029  HIT:    8466340  MISS:    1908689  HIT %:     81.603  MISS %:     18.397   MPKI: 38.1738
L1I LOAD      ACCESS:   10375029  HIT:    8466340  MISS:    1908689  HIT %:     81.603  MISS %:     18.397   MPKI: 38.1738
L1I PREFETCH  REQUESTED:          0  ISSUED:          0  USEFUL:          0  USELESS:          0
L1I USEFUL LOAD PREFETCHES:          0 PREFETCH ISSUED TO LOWER LEVEL:          0  ACCURACY: -nan
L1I TIMELY PREFETCHES:          0 LATE PREFETCHES: 0 DROPPED PREFETCHES: 0
L1I PREFETCHES SAME FILL-ORIGIN LEVEL: 0 DIFFERENT FILL-ORIGIN LEVEL: 0
L1I AVERAGE MISS LATENCY: 14.9521 cycles
L1I RQ	ACCESS:   19525265	FORWARD:          0	MERGED:    8542879	TO_CACHE:   10982386

BTB BRANCH_DIRECT_JUMP	ACCESS:          0  HIT:          0  MISS:          0
BTB BRANCH_INDIRECT	ACCESS:          0  HIT:          0  MISS:          0
BTB BRANCH_CONDITIONAL	ACCESS:          0  HIT:          0  MISS:          0
BTB BRANCH_DIRECT_CALL	ACCESS:          0  HIT:          0  MISS:          0
BTB BRANCH_INDIRECT_CALL	ACCESS:          0  HIT:          0  MISS:          0
BTB BRANCH_RETURN	ACCESS:          0  HIT:          0  MISS:          0
BTB BRANCH_OTHER ACCESS:          0  HIT:          0  MISS:          0

L2C TOTAL     ACCESS:    5091920  HIT:    4752665  MISS:     339255  HIT %:    93.3374  MISS %:    6.66261   MPKI: 6.7851
L2C LOAD      ACCESS:    2208866  HIT:    2124811  MISS:      84055  HIT %:    96.1947  MISS %:    3.80535   MPKI: 1.6811
L2C DATA LOAD MPKI: 1.1943
L2C INSTRUCTION LOAD MPKI: 0.4868
L2C RFO       ACCESS:     121059  HIT:      36807  MISS:      84252  HIT %:    30.4042  MISS %:    69.5958   MPKI: 1.68504
L2C PREFETCH  ACCESS:     228928  HIT:      79501  MISS:     149427  HIT %:    34.7275  MISS %:    65.2725   MPKI: 2.98854
L2C DATA PREFETCH MPKI: 2.98854
L2C INSTRUCTION PREFETCH MPKI: 0
L2C WRITEBACK ACCESS:     175329  HIT:     168347  MISS:       6982  HIT %:    96.0178  MISS %:    3.98223   MPKI: 0.13964
L2C LOAD TRANSLATION ACCESS:    2357738  HIT:    2343199  MISS:      14539  HIT %:    99.3833  MISS %:    0.61665   MPKI: 0.29078
L2C PREFETCH  REQUESTED:     242127  ISSUED:     242127  USEFUL:     106225  USELESS:      42995
L2C USEFUL LOAD PREFETCHES:     106225 PREFETCH ISSUED TO LOWER LEVEL:     156951  ACCURACY: 67.6804
L2C TIMELY PREFETCHES:     106225 LATE PREFETCHES: 7524 DROPPED PREFETCHES: 0
L2C PREFETCHES SAME FILL-ORIGIN LEVEL: 156951 DIFFERENT FILL-ORIGIN LEVEL: 0
L2C AVERAGE MISS LATENCY: 142.811 cycles
L2C RQ	ACCESS:    4687682	FORWARD:          0	MERGED:          0	TO_CACHE:    4687666
L2C WQ	ACCESS:     175329	FORWARD:         16	MERGED:          0	TO_CACHE:     175329
L2C PQ	ACCESS:     242127	FORWARD:          0	MERGED:          0	TO_CACHE:     242127

L2C Instructions Evicting Data 21159
L2C Translations Evicting Data 12792
L2C Data Evicting Data 260458
L2C Instructions Evicting Instructions 2078
L2C Translations Evicting Instructions 1146
L2C Data Evicting Instructions 20525
L2C Instructions Evicting Translations 1103
L2C Translations Evicting Translations 601
L2C Data Evicting Translations 12411
L2C Dense regions hint from L2: 0
PSCL5 TOTAL     ACCESS:    2122514  HIT:    2122514  MISS:          0  HIT %:        100  MISS %:          0   MPKI: 0
PSCL5 LOAD TRANSLATION ACCESS:    2122514  HIT:    2122514  MISS:          0  HIT %:        100  MISS %:          0   MPKI: 0
PSCL5 PREFETCH  REQUESTED:          0  ISSUED:          0  USEFUL:          0  USELESS:          0
PSCL5 USEFUL LOAD PREFETCHES:          0 PREFETCH ISSUED TO LOWER LEVEL:          0  ACCURACY: -nan
PSCL5 TIMELY PREFETCHES:          0 LATE PREFETCHES: 0 DROPPED PREFETCHES: 0
PSCL5 PREFETCHES SAME FILL-ORIGIN LEVEL: 0 DIFFERENT FILL-ORIGIN LEVEL: 0

PSCL4 TOTAL     ACCESS:    2122514  HIT:    2122514  MISS:          0  HIT %:        100  MISS %:          0   MPKI: 0
PSCL4 LOAD TRANSLATION ACCESS:    2122514  HIT:    2122514  MISS:          0  HIT %:        100  MISS %:          0   MPKI: 0
PSCL4 PREFETCH  REQUESTED:          0  ISSUED:          0  USEFUL:          0  USELESS:          0
PSCL4 USEFUL LOAD PREFETCHES:          0 PREFETCH ISSUED TO LOWER LEVEL:          0  ACCURACY: -nan
PSCL4 TIMELY PREFETCHES:          0 LATE PREFETCHES: 0 DROPPED PREFETCHES: 0
PSCL4 PREFETCHES SAME FILL-ORIGIN LEVEL: 0 DIFFERENT FILL-ORIGIN LEVEL: 0

PSCL3 TOTAL     ACCESS:    2121217  HIT:    2120827  MISS:        390  HIT %:    99.9816  MISS %:  0.0183857   MPKI: 0.0078
PSCL3 LOAD TRANSLATION ACCESS:    2121217  HIT:    2120827  MISS:        390  HIT %:    99.9816  MISS %:  0.0183857   MPKI: 0.0078
PSCL3 PREFETCH  REQUESTED:          0  ISSUED:          0  USEFUL:          0  USELESS:          0
PSCL3 USEFUL LOAD PREFETCHES:          0 PREFETCH ISSUED TO LOWER LEVEL:          0  ACCURACY: -nan
PSCL3 TIMELY PREFETCHES:          0 LATE PREFETCHES: 0 DROPPED PREFETCHES: 0
PSCL3 PREFETCHES SAME FILL-ORIGIN LEVEL: 0 DIFFERENT FILL-ORIGIN LEVEL: 0

PSCL2 TOTAL     ACCESS:    2122514  HIT:    1887547  MISS:     234967  HIT %:    88.9298  MISS %:    11.0702   MPKI: 4.69934
PSCL2 LOAD TRANSLATION ACCESS:    2122514  HIT:    1887547  MISS:     234967  HIT %:    88.9298  MISS %:    11.0702   MPKI: 4.69934
PSCL2 PREFETCH  REQUESTED:          0  ISSUED:          0  USEFUL:          0  USELESS:          0
PSCL2 USEFUL LOAD PREFETCHES:          0 PREFETCH ISSUED TO LOWER LEVEL:          0  ACCURACY: -nan
PSCL2 TIMELY PREFETCHES:          0 LATE PREFETCHES: 0 DROPPED PREFETCHES: 0
PSCL2 PREFETCHES SAME FILL-ORIGIN LEVEL: 0 DIFFERENT FILL-ORIGIN LEVEL: 0

LLC TOTAL     ACCESS:     439663  HIT:     225033  MISS:     214630  HIT %:    51.1831  MISS %:    48.8169   MPKI: 4.2926
LLC LOAD      ACCESS:      76536  HIT:      43084  MISS:      33452  HIT %:    56.2925  MISS %:    43.7075   MPKI: 0.66904
LLC RFO       ACCESS:      84246  HIT:      39471  MISS:      44775  HIT %:    46.8521  MISS %:    53.1479   MPKI: 0.8955
LLC PREFETCH  ACCESS:     156951  HIT:      27434  MISS:     129517  HIT %:    17.4793  MISS %:    82.5207   MPKI: 2.59034
LLC WRITEBACK ACCESS:     107391  HIT:     106344  MISS:       1047  HIT %:    99.0251  MISS %:   0.974942   MPKI: 0.02094
LLC LOAD TRANSLATION ACCESS:      14539  HIT:       8700  MISS:       5839  HIT %:    59.8391  MISS %:    40.1609   MPKI: 0.11678
LLC PREFETCH  REQUESTED:          0  ISSUED:          0  USEFUL:       1777  USELESS:     129377
LLC USEFUL LOAD PREFETCHES:       1777 PREFETCH ISSUED TO LOWER LEVEL:     129517  ACCURACY: 1.37202
LLC TIMELY PREFETCHES:       1777 LATE PREFETCHES: 0 DROPPED PREFETCHES: 0
LLC PREFETCHES SAME FILL-ORIGIN LEVEL: 0 DIFFERENT FILL-ORIGIN LEVEL: 0
LLC AVERAGE MISS LATENCY: 180.255 cycles
LLC RQ	ACCESS:     175322	FORWARD:          0	MERGED:          0	TO_CACHE:     175321
LLC WQ	ACCESS:     107391	FORWARD:          1	MERGED:          0	TO_CACHE:     107391
LLC PQ	ACCESS:     156951	FORWARD:          0	MERGED:          0	TO_CACHE:     156951

LLC Dense regions hint to LLC: 0

RAW hits: 232124
Loads Generated: 9036999
Loads sent to L1D: 8804877
Stores Generated: 4201869
Stores sent to L1D: 4201871
Major fault: 0 Minor fault: 14149
Allocated PAGES: 14149
[Bingo] PHT Access: 71950
[Bingo] PHT Hit PC+Addr: 31281
[Bingo] PHT Hit PC+Offs: 23745
[Bingo] PHT Miss: 16924
[Bingo] Prefetch PC+Addr: 0
[Bingo] Prefetch PC+Offs: 0
[Bingo] Useful PC+Addr: 0
[Bingo] Useful PC+Offs: 0
[Bingo] Useless PC+Addr: 0
[Bingo] Useless PC+Offs: 0
[Bingo] L1 Prefetch per Region: 0
[Bingo] L2 Prefetch per Region: 5.45993
[Bingo] L3 Prefetch per Region: 0
[Bingo] No Prefetch per Region: 26.5401
[Bingo] Number of Voters Mean: 6.89876
[Bingo] Number of Voters SD: 8.39479
PHT read accesses: 620569
PHT write accesses: 28143
AT read accesses: 229079
AT write accesses: 245135
FT read accesses: 110764
FT write accesses: 71950
PS read accesses: 121966
PS write accesses: 55026
PHT tag read accesses: 1405417
PHT tag write accesses: 59424
AT tag read accesses: 11489265
AT tag write accesses: 257218
FT tag read accesses: 9714912
FT tag write accesses: 143344
PS tag read accesses: 7019344
PS tag write accesses: 176648

DRAM Statistics
 CHANNEL 0
 RQ ROW_BUFFER_HIT:     120075  ROW_BUFFER_MISS:      93508
 DBUS_CONGESTED:        121
 WQ ROW_BUFFER_HIT:       6908  ROW_BUFFER_MISS:      49255  FULL:          0

 AVG_CONGESTED_CYCLE: 4
 All warmup complete: 2
Channel 0 Bank busy for read cycles: 0
Channel 0 Bank busy for write cycles: 0
Channel 0
Rank 0
0banks busy for read cycles: 77640540
0banks busy for write cycles: 10232
1banks busy for read cycles: 2796659
1banks busy for write cycles: 1191652
2banks busy for read cycles: 1350416
2banks busy for write cycles: 583651
3banks busy for read cycles: 595965
3banks busy for write cycles: 380611
4banks busy for read cycles: 368798
4banks busy for write cycles: 262319
5banks busy for read cycles: 236855
5banks busy for write cycles: 205036
6banks busy for read cycles: 187294
6banks busy for write cycles: 166770
7banks busy for read cycles: 286594
7banks busy for write cycles: 158807
8banks busy for read cycles: 880870
8banks busy for write cycles: 327509

CPU 0 Branch Prediction Accuracy: 99.2133% MPKI: 1.44212 Average ROB Occupancy at Mispredict: 30.0413
Branch types
NOT_BRANCH: 0 0%
BRANCH_DIRECT_JUMP: 0 0%
BRANCH_INDIRECT: 0 0%
BRANCH_CONDITIONAL: 0 0%
BRANCH_DIRECT_CALL: 0 0%
BRANCH_INDIRECT_CALL: 0 0%
BRANCH_RETURN: 0 0%
BRANCH_OTHER: 0 0%

DRAM PAGES: 1048576
Allocated PAGES: 14149
