
*** ChampSim Multicore Out-of-Order Simulator ***

Warmup Instructions: 50000000
Simulation Instructions: 50000000
Number of CPUs: 1
LLC sets: 2048
LLC ways: 16
Off-chip DRAM Size: 4096 MB Channels: 1 Width: 64-bit Data Rate: 6400 MT/s
CPU 0 runs ../cloudsuite_traces//streaming_phase0_core0.trace.gz
.gz
NUM_OF_IPS_IN_CRITICAL_IP_TRAINING: 64
NUM_OF_CRITICAL_IP_TRAINING_TABLE_WAYS: 2
NUM_OF_CRITICAL_IP_TRAINING_TABLE_SETS: 32
WOBBLY_CRITICAL_IP_CACHE_SETS: 32
WOBBLY_CRITICAL_IP_CACHE_WAYS: 4
BTB has LRU replacement policy
ITLB has LRU replacement policy
DTLB has LRU replacement policy
STLB has LRU replacement policy
L1I has LRU replacement policy
L1D has LRU replacement policy
Bingo PHT WAYS: 16 and PHT_SIZE: 16384
Initialize SRRIP state for L2C
Initialize DRRIP state for LLC
UNIQUE_ASID[0] = €
UNIQUE_ASID[1] = 
Heartbeat CPU 0 instructions: 10000001 cycles: 3339824 heartbeat IPC: 2.99417 cumulative IPC: 2.99417 (Simulation time: 0 hr 2 min 3 sec) 
Heartbeat CPU 0 instructions: 20000002 cycles: 6681278 heartbeat IPC: 2.99271 cumulative IPC: 2.99344 (Simulation time: 0 hr 5 min 21 sec) 
Heartbeat CPU 0 instructions: 30000003 cycles: 10072406 heartbeat IPC: 2.94887 cumulative IPC: 2.97843 (Simulation time: 0 hr 8 min 27 sec) 
Heartbeat CPU 0 instructions: 40000003 cycles: 13467437 heartbeat IPC: 2.94548 cumulative IPC: 2.97013 (Simulation time: 0 hr 11 min 23 sec) 
Heartbeat CPU 0 instructions: 50000001 cycles: 16843115 heartbeat IPC: 2.96237 cumulative IPC: 2.96857 (Simulation time: 0 hr 15 min 0 sec) 

Warmup complete CPU 0 instructions: 50000001 cycles: 16843115 (Simulation time: 0 hr 15 min 0 sec) 

% increase in all ip prefetch 405.535
% increase in all ip prefetch -4.87177
Heartbeat CPU 0 instructions: 60000002 cycles: 34956055 heartbeat IPC: 0.552092 cumulative IPC: 0.552092 (Simulation time: 0 hr 20 min 19 sec) 
Heartbeat CPU 0 instructions: 70000000 cycles: 53402776 heartbeat IPC: 0.542102 cumulative IPC: 0.547051 (Simulation time: 0 hr 24 min 59 sec) 
Heartbeat CPU 0 instructions: 80000003 cycles: 71106404 heartbeat IPC: 0.564856 cumulative IPC: 0.55286 (Simulation time: 0 hr 28 min 55 sec) 
Heartbeat CPU 0 instructions: 90000003 cycles: 88561340 heartbeat IPC: 0.572904 cumulative IPC: 0.557738 (Simulation time: 0 hr 32 min 47 sec) 
Heartbeat CPU 0 instructions: 100000001 cycles: 106980045 heartbeat IPC: 0.542926 cumulative IPC: 0.554712 (Simulation time: 0 hr 34 min 51 sec) 
Finished CPU 0 instructions: 50000000 cycles: 90136930 cumulative IPC: 0.554712 (Simulation time: 0 hr 34 min 51 sec) 

ChampSim completed all CPUs

Region of Interest Statistics

CPU 0 cumulative IPC: 0.554712 instructions: 50000000 cycles: 90136930

CPU 0 Average Load ROB stall cycles: 7.26624e+06
CPU 0 Fraction of times ROB stalled by Loads: 11.0979
CPU 0 Percentage of Load stall cycles in Total stall cycles: 8.78528e+07
 Total stall cycles: 47754967
 Total load stall cycles: 41954059901076
CPU 0 NUM of IPS identified critical: 0
CPU 0 Num of Load IPs stalling ROB: 2804
Threshold modification factor: -1
Max PIST entries: 64
Min PIST entries: 0
Avg PIST entries: 31.39
Critical IP stalls, total frequency: 0
rob stalling non-critical load ip: 235820 freq: 1
rob stalling non-critical load ip: 236068 freq: 70
rob stalling non-critical load ip: 236144 freq: 46
rob stalling non-critical load ip: 236148 freq: 26
rob stalling non-critical load ip: 241552 freq: 35
rob stalling non-critical load ip: 241592 freq: 4
rob stalling non-critical load ip: 241736 freq: 21
rob stalling non-critical load ip: 241788 freq: 59
rob stalling non-critical load ip: 241796 freq: 3374
rob stalling non-critical load ip: 241836 freq: 13
rob stalling non-critical load ip: 241972 freq: 25
rob stalling non-critical load ip: 241992 freq: 44
rob stalling non-critical load ip: 241996 freq: 72
rob stalling non-critical load ip: 242000 freq: 40
rob stalling non-critical load ip: 242020 freq: 43
rob stalling non-critical load ip: 242148 freq: 62
rob stalling non-critical load ip: 242156 freq: 95
rob stalling non-critical load ip: 242176 freq: 1426
rob stalling non-critical load ip: 242180 freq: 2490
rob stalling non-critical load ip: 242184 freq: 185
rob stalling non-critical load ip: 242208 freq: 52
rob stalling non-critical load ip: 242224 freq: 54
rob stalling non-critical load ip: 242232 freq: 30
rob stalling non-critical load ip: 242236 freq: 8
rob stalling non-critical load ip: 243608 freq: 2
rob stalling non-critical load ip: 245668 freq: 879
rob stalling non-critical load ip: 245676 freq: 63
rob stalling non-critical load ip: 245716 freq: 7
rob stalling non-critical load ip: 245732 freq: 25
rob stalling non-critical load ip: 245772 freq: 1
rob stalling non-critical load ip: 245792 freq: 31
rob stalling non-critical load ip: 245800 freq: 249
rob stalling non-critical load ip: 245804 freq: 2
rob stalling non-critical load ip: 245848 freq: 168
rob stalling non-critical load ip: 245860 freq: 27
rob stalling non-critical load ip: 245864 freq: 43
rob stalling non-critical load ip: 245876 freq: 44
rob stalling non-critical load ip: 245880 freq: 52
rob stalling non-critical load ip: 245888 freq: 7
rob stalling non-critical load ip: 245892 freq: 19
rob stalling non-critical load ip: 246008 freq: 38
rob stalling non-critical load ip: 246168 freq: 67
rob stalling non-critical load ip: 246204 freq: 457
rob stalling non-critical load ip: 246216 freq: 383
rob stalling non-critical load ip: 246244 freq: 2353
rob stalling non-critical load ip: 246256 freq: 7
rob stalling non-critical load ip: 246344 freq: 322
rob stalling non-critical load ip: 246356 freq: 8
rob stalling non-critical load ip: 250184 freq: 5
rob stalling non-critical load ip: 250260 freq: 3
rob stalling non-critical load ip: 287024 freq: 27
rob stalling non-critical load ip: 287060 freq: 47
rob stalling non-critical load ip: 287088 freq: 11
rob stalling non-critical load ip: 287108 freq: 28
rob stalling non-critical load ip: 287112 freq: 9
rob stalling non-critical load ip: 287220 freq: 50
rob stalling non-critical load ip: 287244 freq: 22
rob stalling non-critical load ip: 287248 freq: 198
rob stalling non-critical load ip: 287268 freq: 35
rob stalling non-critical load ip: 300124 freq: 24
rob stalling non-critical load ip: 300172 freq: 6
rob stalling non-critical load ip: 300192 freq: 3
rob stalling non-critical load ip: 300224 freq: 1
rob stalling non-critical load ip: 300836 freq: 66
rob stalling non-critical load ip: 300840 freq: 558
rob stalling non-critical load ip: 300848 freq: 203
rob stalling non-critical load ip: 300912 freq: 494
rob stalling non-critical load ip: 300936 freq: 27
rob stalling non-critical load ip: 300964 freq: 1067
rob stalling non-critical load ip: 300972 freq: 1
rob stalling non-critical load ip: 301048 freq: 1
rob stalling non-critical load ip: 301056 freq: 5
rob stalling non-critical load ip: 301164 freq: 2
rob stalling non-critical load ip: 301188 freq: 23
rob stalling non-critical load ip: 301524 freq: 24
rob stalling non-critical load ip: 301712 freq: 21
rob stalling non-critical load ip: 301716 freq: 120
rob stalling non-critical load ip: 301720 freq: 4
rob stalling non-critical load ip: 318120 freq: 2
rob stalling non-critical load ip: 318132 freq: 9
rob stalling non-critical load ip: 318636 freq: 11
rob stalling non-critical load ip: 318948 freq: 5
rob stalling non-critical load ip: 318980 freq: 13
rob stalling non-critical load ip: 319220 freq: 2
rob stalling non-critical load ip: 323492 freq: 5
rob stalling non-critical load ip: 323496 freq: 4
rob stalling non-critical load ip: 329660 freq: 4
rob stalling non-critical load ip: 329676 freq: 13
rob stalling non-critical load ip: 341868 freq: 1153
rob stalling non-critical load ip: 341884 freq: 12
rob stalling non-critical load ip: 341888 freq: 1
rob stalling non-critical load ip: 341916 freq: 22
rob stalling non-critical load ip: 341940 freq: 9
rob stalling non-critical load ip: 341944 freq: 846
rob stalling non-critical load ip: 342004 freq: 819
rob stalling non-critical load ip: 342068 freq: 15
rob stalling non-critical load ip: 352028 freq: 2
rob stalling non-critical load ip: 352920 freq: 10
rob stalling non-critical load ip: 353000 freq: 46
rob stalling non-critical load ip: 353036 freq: 34
rob stalling non-critical load ip: 353040 freq: 213
rob stalling non-critical load ip: 353052 freq: 14
rob stalling non-critical load ip: 353076 freq: 26
rob stalling non-critical load ip: 353092 freq: 3
rob stalling non-critical load ip: 353216 freq: 9
rob stalling non-critical load ip: 353220 freq: 1171
rob stalling non-critical load ip: 353236 freq: 48
rob stalling non-critical load ip: 353260 freq: 18
rob stalling non-critical load ip: 353312 freq: 433
rob stalling non-critical load ip: 353316 freq: 78
rob stalling non-critical load ip: 353332 freq: 21
rob stalling non-critical load ip: 353356 freq: 16
rob stalling non-critical load ip: 353392 freq: 1739
rob stalling non-critical load ip: 353492 freq: 134
rob stalling non-critical load ip: 353540 freq: 8
rob stalling non-critical load ip: 353544 freq: 72
rob stalling non-critical load ip: 353548 freq: 9
rob stalling non-critical load ip: 353564 freq: 105
rob stalling non-critical load ip: 353604 freq: 60
rob stalling non-critical load ip: 353636 freq: 77
rob stalling non-critical load ip: 353640 freq: 143
rob stalling non-critical load ip: 353652 freq: 9
rob stalling non-critical load ip: 353696 freq: 19
rob stalling non-critical load ip: 353744 freq: 13
rob stalling non-critical load ip: 353784 freq: 69
rob stalling non-critical load ip: 353788 freq: 169
rob stalling non-critical load ip: 353828 freq: 141
rob stalling non-critical load ip: 353836 freq: 1
rob stalling non-critical load ip: 353852 freq: 2
rob stalling non-critical load ip: 353880 freq: 14
rob stalling non-critical load ip: 353904 freq: 6
rob stalling non-critical load ip: 353912 freq: 9
rob stalling non-critical load ip: 353948 freq: 57
rob stalling non-critical load ip: 353960 freq: 4
rob stalling non-critical load ip: 353984 freq: 6
rob stalling non-critical load ip: 354164 freq: 191
rob stalling non-critical load ip: 354176 freq: 5
rob stalling non-critical load ip: 354212 freq: 9
rob stalling non-critical load ip: 354712 freq: 29
rob stalling non-critical load ip: 354716 freq: 129
rob stalling non-critical load ip: 354728 freq: 9
rob stalling non-critical load ip: 354740 freq: 163
rob stalling non-critical load ip: 354744 freq: 7
rob stalling non-critical load ip: 354764 freq: 10
rob stalling non-critical load ip: 354776 freq: 12
rob stalling non-critical load ip: 355944 freq: 1
rob stalling non-critical load ip: 356340 freq: 3
rob stalling non-critical load ip: 356360 freq: 2
rob stalling non-critical load ip: 366536 freq: 1
rob stalling non-critical load ip: 374596 freq: 2
rob stalling non-critical load ip: 374788 freq: 3
rob stalling non-critical load ip: 375752 freq: 1
rob stalling non-critical load ip: 376768 freq: 1
rob stalling non-critical load ip: 378568 freq: 1
rob stalling non-critical load ip: 382412 freq: 1
rob stalling non-critical load ip: 385232 freq: 1
rob stalling non-critical load ip: 385248 freq: 1
rob stalling non-critical load ip: 385252 freq: 1
rob stalling non-critical load ip: 385516 freq: 1
rob stalling non-critical load ip: 392096 freq: 1
rob stalling non-critical load ip: 392132 freq: 1
rob stalling non-critical load ip: 393836 freq: 1
rob stalling non-critical load ip: 393920 freq: 1
rob stalling non-critical load ip: 394372 freq: 1
rob stalling non-critical load ip: 394384 freq: 88
rob stalling non-critical load ip: 396936 freq: 1
rob stalling non-critical load ip: 397708 freq: 1
rob stalling non-critical load ip: 398912 freq: 1
rob stalling non-critical load ip: 398992 freq: 3
rob stalling non-critical load ip: 399100 freq: 1
rob stalling non-critical load ip: 403384 freq: 1
rob stalling non-critical load ip: 406728 freq: 1
rob stalling non-critical load ip: 406856 freq: 1
rob stalling non-critical load ip: 411512 freq: 1
rob stalling non-critical load ip: 411540 freq: 1
rob stalling non-critical load ip: 411668 freq: 1
rob stalling non-critical load ip: 412172 freq: 1
rob stalling non-critical load ip: 412932 freq: 1
rob stalling non-critical load ip: 414216 freq: 1
rob stalling non-critical load ip: 516668 freq: 75
rob stalling non-critical load ip: 516676 freq: 7
rob stalling non-critical load ip: 516976 freq: 1088
rob stalling non-critical load ip: 517352 freq: 49
rob stalling non-critical load ip: 517404 freq: 5
rob stalling non-critical load ip: 553220 freq: 1
rob stalling non-critical load ip: 553860 freq: 1
rob stalling non-critical load ip: 556680 freq: 1
rob stalling non-critical load ip: 557576 freq: 1
rob stalling non-critical load ip: 569812 freq: 1
rob stalling non-critical load ip: 589008 freq: 7
rob stalling non-critical load ip: 589036 freq: 4
rob stalling non-critical load ip: 589072 freq: 1
rob stalling non-critical load ip: 589084 freq: 9
rob stalling non-critical load ip: 589120 freq: 3
rob stalling non-critical load ip: 589136 freq: 13
rob stalling non-critical load ip: 589144 freq: 100
rob stalling non-critical load ip: 589156 freq: 21
rob stalling non-critical load ip: 589180 freq: 17
rob stalling non-critical load ip: 589212 freq: 20
rob stalling non-critical load ip: 589232 freq: 2
rob stalling non-critical load ip: 589236 freq: 170
rob stalling non-critical load ip: 589240 freq: 131
rob stalling non-critical load ip: 589252 freq: 109
rob stalling non-critical load ip: 589256 freq: 34
rob stalling non-critical load ip: 589284 freq: 73
rob stalling non-critical load ip: 589288 freq: 33
rob stalling non-critical load ip: 589392 freq: 24
rob stalling non-critical load ip: 589908 freq: 4
rob stalling non-critical load ip: 589912 freq: 6
rob stalling non-critical load ip: 589916 freq: 21
rob stalling non-critical load ip: 589932 freq: 7
rob stalling non-critical load ip: 589948 freq: 34
rob stalling non-critical load ip: 589960 freq: 22
rob stalling non-critical load ip: 589964 freq: 7
rob stalling non-critical load ip: 590000 freq: 49
rob stalling non-critical load ip: 590012 freq: 48
rob stalling non-critical load ip: 590036 freq: 46
rob stalling non-critical load ip: 590064 freq: 20
rob stalling non-critical load ip: 590128 freq: 3
rob stalling non-critical load ip: 590136 freq: 14
rob stalling non-critical load ip: 590148 freq: 21
rob stalling non-critical load ip: 590200 freq: 7
rob stalling non-critical load ip: 590216 freq: 1
rob stalling non-critical load ip: 590220 freq: 3
rob stalling non-critical load ip: 590292 freq: 2
rob stalling non-critical load ip: 590352 freq: 8
rob stalling non-critical load ip: 590956 freq: 4
rob stalling non-critical load ip: 627316 freq: 1
rob stalling non-critical load ip: 722812 freq: 7
rob stalling non-critical load ip: 722832 freq: 21
rob stalling non-critical load ip: 722896 freq: 97
rob stalling non-critical load ip: 722920 freq: 9
rob stalling non-critical load ip: 784776 freq: 1
rob stalling non-critical load ip: 785028 freq: 1
rob stalling non-critical load ip: 785076 freq: 3
rob stalling non-critical load ip: 785312 freq: 1
rob stalling non-critical load ip: 801864 freq: 1
rob stalling non-critical load ip: 837080 freq: 1
rob stalling non-critical load ip: 838100 freq: 1
rob stalling non-critical load ip: 842608 freq: 3
rob stalling non-critical load ip: 842748 freq: 4
rob stalling non-critical load ip: 842824 freq: 2
rob stalling non-critical load ip: 843084 freq: 1
rob stalling non-critical load ip: 843140 freq: 2
rob stalling non-critical load ip: 843292 freq: 2
rob stalling non-critical load ip: 843344 freq: 2
rob stalling non-critical load ip: 843400 freq: 2
rob stalling non-critical load ip: 843448 freq: 2
rob stalling non-critical load ip: 843556 freq: 2
rob stalling non-critical load ip: 843716 freq: 2
rob stalling non-critical load ip: 844020 freq: 2
rob stalling non-critical load ip: 844168 freq: 2
rob stalling non-critical load ip: 844548 freq: 2
rob stalling non-critical load ip: 844640 freq: 2
rob stalling non-critical load ip: 844872 freq: 2
rob stalling non-critical load ip: 844968 freq: 2
rob stalling non-critical load ip: 845148 freq: 2
rob stalling non-critical load ip: 845196 freq: 2
rob stalling non-critical load ip: 845512 freq: 2
rob stalling non-critical load ip: 845648 freq: 2
rob stalling non-critical load ip: 845840 freq: 2
rob stalling non-critical load ip: 845996 freq: 5
rob stalling non-critical load ip: 846088 freq: 4
rob stalling non-critical load ip: 846400 freq: 3
rob stalling non-critical load ip: 846404 freq: 5
rob stalling non-critical load ip: 846484 freq: 3
rob stalling non-critical load ip: 852864 freq: 2
rob stalling non-critical load ip: 852948 freq: 19
rob stalling non-critical load ip: 852988 freq: 4
rob stalling non-critical load ip: 854096 freq: 1
rob stalling non-critical load ip: 855308 freq: 4
rob stalling non-critical load ip: 856100 freq: 125
rob stalling non-critical load ip: 856148 freq: 26
rob stalling non-critical load ip: 856428 freq: 3
rob stalling non-critical load ip: 857344 freq: 2630
rob stalling non-critical load ip: 857508 freq: 3254
rob stalling non-critical load ip: 857592 freq: 21
rob stalling non-critical load ip: 857616 freq: 638
rob stalling non-critical load ip: 857628 freq: 27
rob stalling non-critical load ip: 857640 freq: 2
rob stalling non-critical load ip: 857680 freq: 569
rob stalling non-critical load ip: 857892 freq: 48
rob stalling non-critical load ip: 857928 freq: 26
rob stalling non-critical load ip: 858172 freq: 4
rob stalling non-critical load ip: 858176 freq: 3
rob stalling non-critical load ip: 858192 freq: 1
rob stalling non-critical load ip: 858380 freq: 400
rob stalling non-critical load ip: 858396 freq: 20
rob stalling non-critical load ip: 858416 freq: 23
rob stalling non-critical load ip: 858432 freq: 34
rob stalling non-critical load ip: 858436 freq: 8
rob stalling non-critical load ip: 858440 freq: 19
rob stalling non-critical load ip: 858464 freq: 51
rob stalling non-critical load ip: 858468 freq: 98
rob stalling non-critical load ip: 858552 freq: 34
rob stalling non-critical load ip: 858620 freq: 4205
rob stalling non-critical load ip: 858624 freq: 10
rob stalling non-critical load ip: 858696 freq: 4217
rob stalling non-critical load ip: 858868 freq: 13
rob stalling non-critical load ip: 858880 freq: 101
rob stalling non-critical load ip: 858896 freq: 25
rob stalling non-critical load ip: 858900 freq: 279
rob stalling non-critical load ip: 858904 freq: 29
rob stalling non-critical load ip: 858912 freq: 29
rob stalling non-critical load ip: 858916 freq: 261
rob stalling non-critical load ip: 858940 freq: 10
rob stalling non-critical load ip: 858964 freq: 39
rob stalling non-critical load ip: 858984 freq: 84
rob stalling non-critical load ip: 859076 freq: 756
rob stalling non-critical load ip: 859088 freq: 488
rob stalling non-critical load ip: 859092 freq: 14
rob stalling non-critical load ip: 859100 freq: 15
rob stalling non-critical load ip: 859316 freq: 69
rob stalling non-critical load ip: 859632 freq: 41
rob stalling non-critical load ip: 859940 freq: 499
rob stalling non-critical load ip: 859960 freq: 27
rob stalling non-critical load ip: 859976 freq: 32
rob stalling non-critical load ip: 860000 freq: 660
rob stalling non-critical load ip: 860132 freq: 2279
rob stalling non-critical load ip: 860144 freq: 25
rob stalling non-critical load ip: 860224 freq: 2
rob stalling non-critical load ip: 860464 freq: 5
rob stalling non-critical load ip: 860480 freq: 2
rob stalling non-critical load ip: 860504 freq: 2
rob stalling non-critical load ip: 860636 freq: 8
rob stalling non-critical load ip: 860644 freq: 32
rob stalling non-critical load ip: 860708 freq: 41
rob stalling non-critical load ip: 860752 freq: 4
rob stalling non-critical load ip: 860976 freq: 1
rob stalling non-critical load ip: 861088 freq: 3
rob stalling non-critical load ip: 862156 freq: 2943
rob stalling non-critical load ip: 862192 freq: 775
rob stalling non-critical load ip: 862232 freq: 1237
rob stalling non-critical load ip: 862360 freq: 774
rob stalling non-critical load ip: 862384 freq: 265
rob stalling non-critical load ip: 862492 freq: 114
rob stalling non-critical load ip: 862504 freq: 10
rob stalling non-critical load ip: 862880 freq: 119
rob stalling non-critical load ip: 862896 freq: 8
rob stalling non-critical load ip: 862904 freq: 32
rob stalling non-critical load ip: 862916 freq: 5
rob stalling non-critical load ip: 863072 freq: 16
rob stalling non-critical load ip: 863124 freq: 172
rob stalling non-critical load ip: 863132 freq: 42
rob stalling non-critical load ip: 863136 freq: 205
rob stalling non-critical load ip: 863228 freq: 53
rob stalling non-critical load ip: 863260 freq: 48
rob stalling non-critical load ip: 863292 freq: 17
rob stalling non-critical load ip: 863916 freq: 4
rob stalling non-critical load ip: 864456 freq: 1
rob stalling non-critical load ip: 864484 freq: 8
rob stalling non-critical load ip: 864520 freq: 9
rob stalling non-critical load ip: 864892 freq: 1
rob stalling non-critical load ip: 867032 freq: 1
rob stalling non-critical load ip: 872452 freq: 2
rob stalling non-critical load ip: 873504 freq: 19
rob stalling non-critical load ip: 873520 freq: 4
rob stalling non-critical load ip: 873552 freq: 25
rob stalling non-critical load ip: 873556 freq: 107
rob stalling non-critical load ip: 873620 freq: 4
rob stalling non-critical load ip: 873708 freq: 5
rob stalling non-critical load ip: 873724 freq: 4
rob stalling non-critical load ip: 873756 freq: 6
rob stalling non-critical load ip: 873776 freq: 2
rob stalling non-critical load ip: 873924 freq: 1
rob stalling non-critical load ip: 874000 freq: 2
rob stalling non-critical load ip: 874172 freq: 10
rob stalling non-critical load ip: 874188 freq: 5
rob stalling non-critical load ip: 874236 freq: 17
rob stalling non-critical load ip: 874288 freq: 4
rob stalling non-critical load ip: 874304 freq: 13
rob stalling non-critical load ip: 874308 freq: 90
rob stalling non-critical load ip: 874336 freq: 2
rob stalling non-critical load ip: 874432 freq: 2
rob stalling non-critical load ip: 874496 freq: 2
rob stalling non-critical load ip: 874520 freq: 1
rob stalling non-critical load ip: 874552 freq: 12
rob stalling non-critical load ip: 874568 freq: 4
rob stalling non-critical load ip: 874600 freq: 5
rob stalling non-critical load ip: 876412 freq: 1
rob stalling non-critical load ip: 876596 freq: 2
rob stalling non-critical load ip: 876612 freq: 1
rob stalling non-critical load ip: 878164 freq: 8
rob stalling non-critical load ip: 878268 freq: 4
rob stalling non-critical load ip: 878396 freq: 2
rob stalling non-critical load ip: 878432 freq: 4
rob stalling non-critical load ip: 878516 freq: 2
rob stalling non-critical load ip: 878624 freq: 3
rob stalling non-critical load ip: 878740 freq: 4
rob stalling non-critical load ip: 878756 freq: 6
rob stalling non-critical load ip: 878760 freq: 8
rob stalling non-critical load ip: 878824 freq: 5
rob stalling non-critical load ip: 878860 freq: 3
rob stalling non-critical load ip: 881188 freq: 3
rob stalling non-critical load ip: 881736 freq: 11
rob stalling non-critical load ip: 882032 freq: 2
rob stalling non-critical load ip: 882228 freq: 1
rob stalling non-critical load ip: 888332 freq: 40
rob stalling non-critical load ip: 891664 freq: 1
rob stalling non-critical load ip: 891668 freq: 1
rob stalling non-critical load ip: 892300 freq: 2
rob stalling non-critical load ip: 894016 freq: 4
rob stalling non-critical load ip: 895208 freq: 1
rob stalling non-critical load ip: 895248 freq: 9
rob stalling non-critical load ip: 897480 freq: 1
rob stalling non-critical load ip: 906796 freq: 1
rob stalling non-critical load ip: 906876 freq: 21
rob stalling non-critical load ip: 910004 freq: 30
rob stalling non-critical load ip: 910088 freq: 4164
rob stalling non-critical load ip: 914940 freq: 21
rob stalling non-critical load ip: 914968 freq: 78
rob stalling non-critical load ip: 915504 freq: 105
rob stalling non-critical load ip: 915516 freq: 1216
rob stalling non-critical load ip: 915560 freq: 1572
rob stalling non-critical load ip: 919464 freq: 44
rob stalling non-critical load ip: 919532 freq: 30
rob stalling non-critical load ip: 919544 freq: 1
rob stalling non-critical load ip: 919548 freq: 2
rob stalling non-critical load ip: 919560 freq: 36
rob stalling non-critical load ip: 919624 freq: 33
rob stalling non-critical load ip: 919664 freq: 19
rob stalling non-critical load ip: 919668 freq: 31
rob stalling non-critical load ip: 919968 freq: 1878
rob stalling non-critical load ip: 919976 freq: 803
rob stalling non-critical load ip: 919980 freq: 9
rob stalling non-critical load ip: 920024 freq: 416
rob stalling non-critical load ip: 920040 freq: 435
rob stalling non-critical load ip: 920076 freq: 296
rob stalling non-critical load ip: 920108 freq: 17
rob stalling non-critical load ip: 920112 freq: 101
rob stalling non-critical load ip: 920148 freq: 89
rob stalling non-critical load ip: 920204 freq: 43
rob stalling non-critical load ip: 920216 freq: 30
rob stalling non-critical load ip: 920248 freq: 34
rob stalling non-critical load ip: 920320 freq: 31
rob stalling non-critical load ip: 920324 freq: 14
rob stalling non-critical load ip: 920344 freq: 6
rob stalling non-critical load ip: 920412 freq: 21
rob stalling non-critical load ip: 920440 freq: 36
rob stalling non-critical load ip: 920444 freq: 11
rob stalling non-critical load ip: 920512 freq: 17
rob stalling non-critical load ip: 920620 freq: 244
rob stalling non-critical load ip: 920732 freq: 92
rob stalling non-critical load ip: 920764 freq: 55
rob stalling non-critical load ip: 920856 freq: 27
rob stalling non-critical load ip: 920888 freq: 1
rob stalling non-critical load ip: 921224 freq: 11
rob stalling non-critical load ip: 921276 freq: 205
rob stalling non-critical load ip: 921300 freq: 2139
rob stalling non-critical load ip: 921304 freq: 20
rob stalling non-critical load ip: 921336 freq: 14
rob stalling non-critical load ip: 921408 freq: 45
rob stalling non-critical load ip: 921456 freq: 308
rob stalling non-critical load ip: 921460 freq: 358
rob stalling non-critical load ip: 921480 freq: 12
rob stalling non-critical load ip: 921496 freq: 18
rob stalling non-critical load ip: 921520 freq: 435
rob stalling non-critical load ip: 921544 freq: 439
rob stalling non-critical load ip: 921568 freq: 31
rob stalling non-critical load ip: 921760 freq: 2
rob stalling non-critical load ip: 921764 freq: 31
rob stalling non-critical load ip: 921768 freq: 1977
rob stalling non-critical load ip: 921784 freq: 159
rob stalling non-critical load ip: 921804 freq: 22
rob stalling non-critical load ip: 921904 freq: 207
rob stalling non-critical load ip: 921920 freq: 19
rob stalling non-critical load ip: 921924 freq: 513
rob stalling non-critical load ip: 921948 freq: 54
rob stalling non-critical load ip: 921952 freq: 254
rob stalling non-critical load ip: 921968 freq: 29
rob stalling non-critical load ip: 922008 freq: 3413
rob stalling non-critical load ip: 922016 freq: 7
rob stalling non-critical load ip: 922484 freq: 3
rob stalling non-critical load ip: 922500 freq: 17
rob stalling non-critical load ip: 922504 freq: 3
rob stalling non-critical load ip: 922520 freq: 28
rob stalling non-critical load ip: 922544 freq: 32
rob stalling non-critical load ip: 922548 freq: 2629
rob stalling non-critical load ip: 922596 freq: 25
rob stalling non-critical load ip: 922612 freq: 17
rob stalling non-critical load ip: 922616 freq: 40
rob stalling non-critical load ip: 922624 freq: 9
rob stalling non-critical load ip: 922644 freq: 23
rob stalling non-critical load ip: 922648 freq: 281
rob stalling non-critical load ip: 922652 freq: 6
rob stalling non-critical load ip: 922672 freq: 50
rob stalling non-critical load ip: 922812 freq: 471
rob stalling non-critical load ip: 922868 freq: 10
rob stalling non-critical load ip: 922888 freq: 874
rob stalling non-critical load ip: 922924 freq: 34
rob stalling non-critical load ip: 923060 freq: 1758
rob stalling non-critical load ip: 923064 freq: 1771
rob stalling non-critical load ip: 923076 freq: 83
rob stalling non-critical load ip: 923080 freq: 2007
rob stalling non-critical load ip: 923088 freq: 23
rob stalling non-critical load ip: 923096 freq: 20
rob stalling non-critical load ip: 923116 freq: 16
rob stalling non-critical load ip: 923816 freq: 69
rob stalling non-critical load ip: 923824 freq: 12
rob stalling non-critical load ip: 923832 freq: 10
rob stalling non-critical load ip: 930780 freq: 2282
rob stalling non-critical load ip: 930796 freq: 25
rob stalling non-critical load ip: 930828 freq: 26
rob stalling non-critical load ip: 930832 freq: 6
rob stalling non-critical load ip: 930840 freq: 2
rob stalling non-critical load ip: 930860 freq: 35
rob stalling non-critical load ip: 930864 freq: 6
rob stalling non-critical load ip: 931104 freq: 41
rob stalling non-critical load ip: 931120 freq: 4
rob stalling non-critical load ip: 931136 freq: 1
rob stalling non-critical load ip: 931172 freq: 45
rob stalling non-critical load ip: 931192 freq: 33
rob stalling non-critical load ip: 931204 freq: 2
rob stalling non-critical load ip: 931224 freq: 29
rob stalling non-critical load ip: 931308 freq: 47
rob stalling non-critical load ip: 931320 freq: 442
rob stalling non-critical load ip: 931372 freq: 9
rob stalling non-critical load ip: 931380 freq: 231
rob stalling non-critical load ip: 931412 freq: 35
rob stalling non-critical load ip: 931428 freq: 7
rob stalling non-critical load ip: 931436 freq: 41
rob stalling non-critical load ip: 931852 freq: 11
rob stalling non-critical load ip: 931896 freq: 15
rob stalling non-critical load ip: 931924 freq: 13
rob stalling non-critical load ip: 931940 freq: 33
rob stalling non-critical load ip: 931964 freq: 47
rob stalling non-critical load ip: 931968 freq: 130
rob stalling non-critical load ip: 932004 freq: 611
rob stalling non-critical load ip: 932012 freq: 6
rob stalling non-critical load ip: 932044 freq: 103
rob stalling non-critical load ip: 932056 freq: 42
rob stalling non-critical load ip: 932064 freq: 143
rob stalling non-critical load ip: 932072 freq: 479
rob stalling non-critical load ip: 932096 freq: 31
rob stalling non-critical load ip: 932124 freq: 11
rob stalling non-critical load ip: 938528 freq: 97
rob stalling non-critical load ip: 938540 freq: 28
rob stalling non-critical load ip: 938556 freq: 153
rob stalling non-critical load ip: 938612 freq: 193
rob stalling non-critical load ip: 938616 freq: 30
rob stalling non-critical load ip: 938644 freq: 10
rob stalling non-critical load ip: 938660 freq: 13
rob stalling non-critical load ip: 938668 freq: 42
rob stalling non-critical load ip: 938708 freq: 6
rob stalling non-critical load ip: 938724 freq: 9
rob stalling non-critical load ip: 938736 freq: 1
rob stalling non-critical load ip: 938756 freq: 73
rob stalling non-critical load ip: 938772 freq: 3
rob stalling non-critical load ip: 938796 freq: 1
rob stalling non-critical load ip: 938800 freq: 1
rob stalling non-critical load ip: 938860 freq: 31
rob stalling non-critical load ip: 938912 freq: 50
rob stalling non-critical load ip: 938928 freq: 14
rob stalling non-critical load ip: 939192 freq: 5
rob stalling non-critical load ip: 939204 freq: 58
rob stalling non-critical load ip: 944504 freq: 58
rob stalling non-critical load ip: 944536 freq: 58
rob stalling non-critical load ip: 944544 freq: 41
rob stalling non-critical load ip: 945012 freq: 20
rob stalling non-critical load ip: 945032 freq: 12
rob stalling non-critical load ip: 952748 freq: 415
rob stalling non-critical load ip: 952780 freq: 503
rob stalling non-critical load ip: 952796 freq: 194
rob stalling non-critical load ip: 952816 freq: 1223
rob stalling non-critical load ip: 952856 freq: 25
rob stalling non-critical load ip: 952900 freq: 460
rob stalling non-critical load ip: 952916 freq: 445
rob stalling non-critical load ip: 952920 freq: 68
rob stalling non-critical load ip: 952932 freq: 7
rob stalling non-critical load ip: 952968 freq: 68
rob stalling non-critical load ip: 952984 freq: 19
rob stalling non-critical load ip: 953040 freq: 70
rob stalling non-critical load ip: 953056 freq: 2
rob stalling non-critical load ip: 953072 freq: 2
rob stalling non-critical load ip: 953092 freq: 131
rob stalling non-critical load ip: 953116 freq: 1
rob stalling non-critical load ip: 953128 freq: 13
rob stalling non-critical load ip: 953140 freq: 27
rob stalling non-critical load ip: 953144 freq: 38
rob stalling non-critical load ip: 953164 freq: 39
rob stalling non-critical load ip: 953196 freq: 17
rob stalling non-critical load ip: 953208 freq: 4
rob stalling non-critical load ip: 953228 freq: 117
rob stalling non-critical load ip: 953336 freq: 234
rob stalling non-critical load ip: 953472 freq: 43
rob stalling non-critical load ip: 956308 freq: 56
rob stalling non-critical load ip: 956332 freq: 19
rob stalling non-critical load ip: 956340 freq: 18
rob stalling non-critical load ip: 959708 freq: 86
rob stalling non-critical load ip: 959720 freq: 22
rob stalling non-critical load ip: 959724 freq: 4
rob stalling non-critical load ip: 959740 freq: 40
rob stalling non-critical load ip: 959744 freq: 11
rob stalling non-critical load ip: 959760 freq: 4
rob stalling non-critical load ip: 959768 freq: 1
rob stalling non-critical load ip: 959812 freq: 30
rob stalling non-critical load ip: 959832 freq: 3
rob stalling non-critical load ip: 959864 freq: 52
rob stalling non-critical load ip: 959888 freq: 54
rob stalling non-critical load ip: 959976 freq: 97
rob stalling non-critical load ip: 1029576 freq: 2470
rob stalling non-critical load ip: 1029596 freq: 499
rob stalling non-critical load ip: 1029612 freq: 27
rob stalling non-critical load ip: 1029628 freq: 460
rob stalling non-critical load ip: 1029652 freq: 40
rob stalling non-critical load ip: 1029672 freq: 184
rob stalling non-critical load ip: 1029684 freq: 24
rob stalling non-critical load ip: 1029688 freq: 11
rob stalling non-critical load ip: 1029720 freq: 74
rob stalling non-critical load ip: 1029740 freq: 410
rob stalling non-critical load ip: 1029776 freq: 719
rob stalling non-critical load ip: 1029812 freq: 23
rob stalling non-critical load ip: 1029816 freq: 17
rob stalling non-critical load ip: 1029832 freq: 22
rob stalling non-critical load ip: 1029844 freq: 23
rob stalling non-critical load ip: 1029980 freq: 24
rob stalling non-critical load ip: 1029996 freq: 30
rob stalling non-critical load ip: 1030008 freq: 35
rob stalling non-critical load ip: 1030128 freq: 59
rob stalling non-critical load ip: 1030144 freq: 2570
rob stalling non-critical load ip: 1030160 freq: 78
rob stalling non-critical load ip: 1031328 freq: 27
rob stalling non-critical load ip: 1031356 freq: 52
rob stalling non-critical load ip: 1031360 freq: 439
rob stalling non-critical load ip: 1032164 freq: 13
rob stalling non-critical load ip: 1032188 freq: 42
rob stalling non-critical load ip: 1032208 freq: 35
rob stalling non-critical load ip: 1032212 freq: 33
rob stalling non-critical load ip: 1032216 freq: 10
rob stalling non-critical load ip: 1032224 freq: 26
rob stalling non-critical load ip: 1032240 freq: 53
rob stalling non-critical load ip: 16780456 freq: 903
rob stalling non-critical load ip: 16780584 freq: 841
rob stalling non-critical load ip: 16783496 freq: 2080
rob stalling non-critical load ip: 16783504 freq: 360
rob stalling non-critical load ip: 16783512 freq: 139
rob stalling non-critical load ip: 16783524 freq: 21
rob stalling non-critical load ip: 16783528 freq: 53
rob stalling non-critical load ip: 16783532 freq: 17654
rob stalling non-critical load ip: 16783536 freq: 49
rob stalling non-critical load ip: 16783544 freq: 81
rob stalling non-critical load ip: 16783548 freq: 2801
rob stalling non-critical load ip: 16783552 freq: 2681
rob stalling non-critical load ip: 16783556 freq: 2
rob stalling non-critical load ip: 16783564 freq: 7001
rob stalling non-critical load ip: 16783568 freq: 42
rob stalling non-critical load ip: 16783572 freq: 6075
rob stalling non-critical load ip: 16783576 freq: 6
rob stalling non-critical load ip: 16783752 freq: 322
rob stalling non-critical load ip: 16783760 freq: 60
rob stalling non-critical load ip: 16783768 freq: 40
rob stalling non-critical load ip: 16783780 freq: 1
rob stalling non-critical load ip: 16783784 freq: 3
rob stalling non-critical load ip: 16783788 freq: 1778
rob stalling non-critical load ip: 16783792 freq: 15
rob stalling non-critical load ip: 16783800 freq: 4
rob stalling non-critical load ip: 16783804 freq: 35
rob stalling non-critical load ip: 16783808 freq: 2397
rob stalling non-critical load ip: 16783812 freq: 1
rob stalling non-critical load ip: 16783820 freq: 127
rob stalling non-critical load ip: 16783828 freq: 80
rob stalling non-critical load ip: 16784128 freq: 6676
rob stalling non-critical load ip: 16784136 freq: 192
rob stalling non-critical load ip: 16784144 freq: 48
rob stalling non-critical load ip: 16784148 freq: 2
rob stalling non-critical load ip: 16784152 freq: 2843
rob stalling non-critical load ip: 16784156 freq: 99
rob stalling non-critical load ip: 16784160 freq: 1985
rob stalling non-critical load ip: 16784164 freq: 4
rob stalling non-critical load ip: 16784168 freq: 2724
rob stalling non-critical load ip: 16784176 freq: 285
rob stalling non-critical load ip: 16784184 freq: 70
rob stalling non-critical load ip: 16800184 freq: 1
rob stalling non-critical load ip: 16800512 freq: 1
rob stalling non-critical load ip: 16800520 freq: 25
rob stalling non-critical load ip: 16800536 freq: 10
rob stalling non-critical load ip: 16803568 freq: 6
rob stalling non-critical load ip: 16806728 freq: 4
rob stalling non-critical load ip: 16806772 freq: 1
rob stalling non-critical load ip: 16807120 freq: 2219
rob stalling non-critical load ip: 16807124 freq: 29
rob stalling non-critical load ip: 16807136 freq: 7
rob stalling non-critical load ip: 16807188 freq: 41
rob stalling non-critical load ip: 16807200 freq: 23
rob stalling non-critical load ip: 16807208 freq: 8
rob stalling non-critical load ip: 16807216 freq: 9
rob stalling non-critical load ip: 16807220 freq: 214
rob stalling non-critical load ip: 16807224 freq: 1
rob stalling non-critical load ip: 16807228 freq: 72
rob stalling non-critical load ip: 16807244 freq: 14
rob stalling non-critical load ip: 16807248 freq: 3
rob stalling non-critical load ip: 16807256 freq: 10
rob stalling non-critical load ip: 16807264 freq: 4
rob stalling non-critical load ip: 16807268 freq: 158
rob stalling non-critical load ip: 16807344 freq: 147
rob stalling non-critical load ip: 16807392 freq: 2564
rob stalling non-critical load ip: 16807812 freq: 13
rob stalling non-critical load ip: 16807864 freq: 53
rob stalling non-critical load ip: 16807908 freq: 10
rob stalling non-critical load ip: 16807956 freq: 28
rob stalling non-critical load ip: 16807964 freq: 24
rob stalling non-critical load ip: 16807984 freq: 23
rob stalling non-critical load ip: 16807996 freq: 8
rob stalling non-critical load ip: 16808024 freq: 9
rob stalling non-critical load ip: 16808028 freq: 39
rob stalling non-critical load ip: 16808052 freq: 1
rob stalling non-critical load ip: 16809368 freq: 3
rob stalling non-critical load ip: 16809376 freq: 5
rob stalling non-critical load ip: 16809664 freq: 4
rob stalling non-critical load ip: 16812528 freq: 23
rob stalling non-critical load ip: 16812716 freq: 1557
rob stalling non-critical load ip: 16812788 freq: 5
rob stalling non-critical load ip: 16813444 freq: 29
rob stalling non-critical load ip: 16813448 freq: 41
rob stalling non-critical load ip: 16813580 freq: 15
rob stalling non-critical load ip: 16813680 freq: 48
rob stalling non-critical load ip: 16813696 freq: 10
rob stalling non-critical load ip: 16813704 freq: 29
rob stalling non-critical load ip: 16813744 freq: 2
rob stalling non-critical load ip: 16813760 freq: 32
rob stalling non-critical load ip: 16813800 freq: 5
rob stalling non-critical load ip: 16813820 freq: 2
rob stalling non-critical load ip: 16815252 freq: 35
rob stalling non-critical load ip: 16815284 freq: 7
rob stalling non-critical load ip: 16815308 freq: 12
rob stalling non-critical load ip: 16817700 freq: 42
rob stalling non-critical load ip: 16817756 freq: 49
rob stalling non-critical load ip: 16817764 freq: 23
rob stalling non-critical load ip: 16817820 freq: 314
rob stalling non-critical load ip: 16817836 freq: 246
rob stalling non-critical load ip: 16817844 freq: 418
rob stalling non-critical load ip: 16817884 freq: 24
rob stalling non-critical load ip: 16817900 freq: 490
rob stalling non-critical load ip: 16817940 freq: 8
rob stalling non-critical load ip: 16817960 freq: 40
rob stalling non-critical load ip: 16820524 freq: 4
rob stalling non-critical load ip: 16820672 freq: 4
rob stalling non-critical load ip: 16820676 freq: 2
rob stalling non-critical load ip: 16820852 freq: 2
rob stalling non-critical load ip: 16820956 freq: 6
rob stalling non-critical load ip: 16820996 freq: 5
rob stalling non-critical load ip: 16821280 freq: 3
rob stalling non-critical load ip: 16821308 freq: 5
rob stalling non-critical load ip: 16821340 freq: 9
rob stalling non-critical load ip: 16821452 freq: 10
rob stalling non-critical load ip: 16821464 freq: 3
rob stalling non-critical load ip: 16821628 freq: 5
rob stalling non-critical load ip: 16821664 freq: 3
rob stalling non-critical load ip: 16821732 freq: 13
rob stalling non-critical load ip: 16821912 freq: 9
rob stalling non-critical load ip: 16821924 freq: 5
rob stalling non-critical load ip: 16821980 freq: 3
rob stalling non-critical load ip: 16822004 freq: 13
rob stalling non-critical load ip: 16822020 freq: 2
rob stalling non-critical load ip: 16822040 freq: 1
rob stalling non-critical load ip: 16822276 freq: 14
rob stalling non-critical load ip: 16822500 freq: 30
rob stalling non-critical load ip: 16822788 freq: 12
rob stalling non-critical load ip: 16822888 freq: 3
rob stalling non-critical load ip: 16823192 freq: 11
rob stalling non-critical load ip: 16823692 freq: 22
rob stalling non-critical load ip: 16823808 freq: 2
rob stalling non-critical load ip: 16823852 freq: 11
rob stalling non-critical load ip: 16823864 freq: 2
rob stalling non-critical load ip: 16826292 freq: 32
rob stalling non-critical load ip: 16826296 freq: 34
rob stalling non-critical load ip: 16827588 freq: 3
rob stalling non-critical load ip: 16828860 freq: 4
rob stalling non-critical load ip: 16828932 freq: 10
rob stalling non-critical load ip: 16844832 freq: 64
rob stalling non-critical load ip: 16844852 freq: 18
rob stalling non-critical load ip: 16844864 freq: 42
rob stalling non-critical load ip: 16845036 freq: 23
rob stalling non-critical load ip: 16845056 freq: 22
rob stalling non-critical load ip: 16845068 freq: 5
rob stalling non-critical load ip: 16845328 freq: 8
rob stalling non-critical load ip: 16851080 freq: 1531
rob stalling non-critical load ip: 16851160 freq: 410
rob stalling non-critical load ip: 16851208 freq: 107
rob stalling non-critical load ip: 16851340 freq: 553
rob stalling non-critical load ip: 16851388 freq: 3755
rob stalling non-critical load ip: 16851436 freq: 2113
rob stalling non-critical load ip: 16851456 freq: 9
rob stalling non-critical load ip: 16851464 freq: 2
rob stalling non-critical load ip: 16851472 freq: 100
rob stalling non-critical load ip: 16851552 freq: 36945
rob stalling non-critical load ip: 16851564 freq: 243
rob stalling non-critical load ip: 16851576 freq: 937
rob stalling non-critical load ip: 16851588 freq: 33587
rob stalling non-critical load ip: 16851600 freq: 335
rob stalling non-critical load ip: 16851612 freq: 2572
rob stalling non-critical load ip: 16851624 freq: 224
rob stalling non-critical load ip: 16851632 freq: 684
rob stalling non-critical load ip: 16851652 freq: 34007
rob stalling non-critical load ip: 16851728 freq: 617
rob stalling non-critical load ip: 16851776 freq: 8
rob stalling non-critical load ip: 16851796 freq: 14
rob stalling non-critical load ip: 16891612 freq: 27
rob stalling non-critical load ip: 16891620 freq: 29
rob stalling non-critical load ip: 16891628 freq: 21
rob stalling non-critical load ip: 16891636 freq: 21
rob stalling non-critical load ip: 16899304 freq: 1
rob stalling non-critical load ip: 16902228 freq: 5
rob stalling non-critical load ip: 16902260 freq: 3
rob stalling non-critical load ip: 16902264 freq: 3
rob stalling non-critical load ip: 16902320 freq: 3
rob stalling non-critical load ip: 16902396 freq: 37
rob stalling non-critical load ip: 16903028 freq: 58
rob stalling non-critical load ip: 16908452 freq: 3
rob stalling non-critical load ip: 16917068 freq: 1176
rob stalling non-critical load ip: 16917076 freq: 11
rob stalling non-critical load ip: 16917116 freq: 196
rob stalling non-critical load ip: 16917124 freq: 105
rob stalling non-critical load ip: 16917760 freq: 20
rob stalling non-critical load ip: 16917772 freq: 77
rob stalling non-critical load ip: 16935732 freq: 2
rob stalling non-critical load ip: 16977308 freq: 31
rob stalling non-critical load ip: 16977328 freq: 11
rob stalling non-critical load ip: 16977348 freq: 3
rob stalling non-critical load ip: 16977404 freq: 113
rob stalling non-critical load ip: 16977424 freq: 6
rob stalling non-critical load ip: 16977440 freq: 2
rob stalling non-critical load ip: 16977480 freq: 9
rob stalling non-critical load ip: 16981196 freq: 6
rob stalling non-critical load ip: 17022708 freq: 40
rob stalling non-critical load ip: 17022764 freq: 3
rob stalling non-critical load ip: 17077560 freq: 8
rob stalling non-critical load ip: 17077572 freq: 52
rob stalling non-critical load ip: 17077620 freq: 5
rob stalling non-critical load ip: 17077684 freq: 7
rob stalling non-critical load ip: 17077688 freq: 4
rob stalling non-critical load ip: 17077812 freq: 6
rob stalling non-critical load ip: 17077916 freq: 4
rob stalling non-critical load ip: 17077968 freq: 7
rob stalling non-critical load ip: 17078088 freq: 5
rob stalling non-critical load ip: 17078100 freq: 6
rob stalling non-critical load ip: 17078104 freq: 4
rob stalling non-critical load ip: 17078144 freq: 3
rob stalling non-critical load ip: 17078252 freq: 2
rob stalling non-critical load ip: 17079552 freq: 12
rob stalling non-critical load ip: 17079616 freq: 3
rob stalling non-critical load ip: 17079680 freq: 7
rob stalling non-critical load ip: 17079744 freq: 40
rob stalling non-critical load ip: 17080064 freq: 12
rob stalling non-critical load ip: 17080100 freq: 14
rob stalling non-critical load ip: 17084036 freq: 21
rob stalling non-critical load ip: 17084128 freq: 89
rob stalling non-critical load ip: 17084300 freq: 25
rob stalling non-critical load ip: 17084332 freq: 1431
rob stalling non-critical load ip: 17084388 freq: 1535
rob stalling non-critical load ip: 17084424 freq: 17
rob stalling non-critical load ip: 17084544 freq: 5011
rob stalling non-critical load ip: 17084576 freq: 2
rob stalling non-critical load ip: 17084592 freq: 34
rob stalling non-critical load ip: 17084596 freq: 6
rob stalling non-critical load ip: 17084652 freq: 174
rob stalling non-critical load ip: 17084656 freq: 169
rob stalling non-critical load ip: 17084692 freq: 9
rob stalling non-critical load ip: 17084752 freq: 32
rob stalling non-critical load ip: 17084772 freq: 14
rob stalling non-critical load ip: 17084780 freq: 292
rob stalling non-critical load ip: 17084836 freq: 3
rob stalling non-critical load ip: 17087300 freq: 21
rob stalling non-critical load ip: 17087304 freq: 6
rob stalling non-critical load ip: 17089924 freq: 18
rob stalling non-critical load ip: 17089932 freq: 8
rob stalling non-critical load ip: 17089968 freq: 7
rob stalling non-critical load ip: 17089988 freq: 2269
rob stalling non-critical load ip: 17090008 freq: 33
rob stalling non-critical load ip: 17090036 freq: 17
rob stalling non-critical load ip: 17090136 freq: 25
rob stalling non-critical load ip: 17090192 freq: 39
rob stalling non-critical load ip: 17105460 freq: 194
rob stalling non-critical load ip: 17105536 freq: 4
rob stalling non-critical load ip: 17105552 freq: 33
rob stalling non-critical load ip: 17109616 freq: 11
rob stalling non-critical load ip: 17109620 freq: 1
rob stalling non-critical load ip: 17147696 freq: 4
rob stalling non-critical load ip: 17148832 freq: 1380
rob stalling non-critical load ip: 17148844 freq: 4
rob stalling non-critical load ip: 17148848 freq: 2
rob stalling non-critical load ip: 17148868 freq: 18
rob stalling non-critical load ip: 17148904 freq: 25
rob stalling non-critical load ip: 17148972 freq: 1580
rob stalling non-critical load ip: 17148988 freq: 9
rob stalling non-critical load ip: 17149012 freq: 11
rob stalling non-critical load ip: 17149168 freq: 21
rob stalling non-critical load ip: 17149172 freq: 25
rob stalling non-critical load ip: 17149204 freq: 24
rob stalling non-critical load ip: 17149208 freq: 1350
rob stalling non-critical load ip: 17149340 freq: 30
rob stalling non-critical load ip: 17149344 freq: 14
rob stalling non-critical load ip: 17149400 freq: 52
rob stalling non-critical load ip: 17149504 freq: 68
rob stalling non-critical load ip: 17149516 freq: 15
rob stalling non-critical load ip: 17149600 freq: 123
rob stalling non-critical load ip: 17149604 freq: 68
rob stalling non-critical load ip: 17158540 freq: 12
rob stalling non-critical load ip: 17183060 freq: 32
rob stalling non-critical load ip: 17183076 freq: 28
rob stalling non-critical load ip: 17183108 freq: 2
rob stalling non-critical load ip: 17183140 freq: 3
rob stalling non-critical load ip: 17183188 freq: 30
rob stalling non-critical load ip: 17183232 freq: 13
rob stalling non-critical load ip: 17183244 freq: 5
rob stalling non-critical load ip: 17183268 freq: 2
rob stalling non-critical load ip: 17183380 freq: 1
rob stalling non-critical load ip: 17183392 freq: 1
rob stalling non-critical load ip: 17183476 freq: 4
rob stalling non-critical load ip: 17183520 freq: 2
rob stalling non-critical load ip: 17183568 freq: 1
rob stalling non-critical load ip: 17183812 freq: 22
rob stalling non-critical load ip: 17183836 freq: 1
rob stalling non-critical load ip: 17183952 freq: 5
rob stalling non-critical load ip: 17183960 freq: 40
rob stalling non-critical load ip: 17184072 freq: 31
rob stalling non-critical load ip: 17184084 freq: 7
rob stalling non-critical load ip: 17184100 freq: 23
rob stalling non-critical load ip: 17184500 freq: 10
rob stalling non-critical load ip: 17184644 freq: 1
rob stalling non-critical load ip: 17184740 freq: 11
rob stalling non-critical load ip: 17184900 freq: 1
rob stalling non-critical load ip: 17184924 freq: 3
rob stalling non-critical load ip: 17184968 freq: 2
rob stalling non-critical load ip: 17185032 freq: 1
rob stalling non-critical load ip: 17185072 freq: 9
rob stalling non-critical load ip: 17185076 freq: 5
rob stalling non-critical load ip: 17185696 freq: 1
rob stalling non-critical load ip: 17185764 freq: 6
rob stalling non-critical load ip: 17185796 freq: 7
rob stalling non-critical load ip: 17185856 freq: 1
rob stalling non-critical load ip: 17186780 freq: 2
rob stalling non-critical load ip: 17186844 freq: 5
rob stalling non-critical load ip: 17186964 freq: 2
rob stalling non-critical load ip: 17186996 freq: 2
rob stalling non-critical load ip: 17187060 freq: 5
rob stalling non-critical load ip: 17187196 freq: 4
rob stalling non-critical load ip: 17187208 freq: 2
rob stalling non-critical load ip: 17187260 freq: 2
rob stalling non-critical load ip: 17187276 freq: 3
rob stalling non-critical load ip: 17187284 freq: 7
rob stalling non-critical load ip: 17187304 freq: 3
rob stalling non-critical load ip: 17187388 freq: 3
rob stalling non-critical load ip: 17187408 freq: 1
rob stalling non-critical load ip: 17187440 freq: 3
rob stalling non-critical load ip: 17187456 freq: 4
rob stalling non-critical load ip: 17187964 freq: 3
rob stalling non-critical load ip: 17188224 freq: 13
rob stalling non-critical load ip: 17188264 freq: 7
rob stalling non-critical load ip: 17188292 freq: 24
rob stalling non-critical load ip: 17188308 freq: 34
rob stalling non-critical load ip: 17189432 freq: 9
rob stalling non-critical load ip: 17189488 freq: 12
rob stalling non-critical load ip: 17189520 freq: 8
rob stalling non-critical load ip: 17189536 freq: 20
rob stalling non-critical load ip: 17189616 freq: 3
rob stalling non-critical load ip: 17189632 freq: 5
rob stalling non-critical load ip: 17189652 freq: 1
rob stalling non-critical load ip: 17190268 freq: 8
rob stalling non-critical load ip: 17190288 freq: 3
rob stalling non-critical load ip: 17190300 freq: 5
rob stalling non-critical load ip: 17190412 freq: 4
rob stalling non-critical load ip: 17190504 freq: 6
rob stalling non-critical load ip: 17190516 freq: 12
rob stalling non-critical load ip: 17224964 freq: 2
rob stalling non-critical load ip: 17224980 freq: 38
rob stalling non-critical load ip: 17225096 freq: 13
rob stalling non-critical load ip: 17225204 freq: 24
rob stalling non-critical load ip: 17225220 freq: 400
rob stalling non-critical load ip: 17225312 freq: 1
rob stalling non-critical load ip: 17225488 freq: 3
rob stalling non-critical load ip: 17225500 freq: 61
rob stalling non-critical load ip: 17225528 freq: 4
rob stalling non-critical load ip: 17225540 freq: 3
rob stalling non-critical load ip: 17225876 freq: 81
rob stalling non-critical load ip: 17225984 freq: 19
rob stalling non-critical load ip: 17226208 freq: 6
rob stalling non-critical load ip: 17226228 freq: 1
rob stalling non-critical load ip: 17226332 freq: 1
rob stalling non-critical load ip: 17226772 freq: 24
rob stalling non-critical load ip: 17226796 freq: 9
rob stalling non-critical load ip: 17226812 freq: 26
rob stalling non-critical load ip: 17226856 freq: 1
rob stalling non-critical load ip: 17226872 freq: 5
rob stalling non-critical load ip: 17226948 freq: 56
rob stalling non-critical load ip: 17227476 freq: 5
rob stalling non-critical load ip: 17227744 freq: 4
rob stalling non-critical load ip: 17227996 freq: 4
rob stalling non-critical load ip: 17228024 freq: 3
rob stalling non-critical load ip: 17228064 freq: 2
rob stalling non-critical load ip: 17245100 freq: 81
rob stalling non-critical load ip: 17245104 freq: 4
rob stalling non-critical load ip: 17245188 freq: 2
rob stalling non-critical load ip: 17245192 freq: 1
rob stalling non-critical load ip: 17247576 freq: 50
rob stalling non-critical load ip: 17247588 freq: 7
rob stalling non-critical load ip: 17247664 freq: 13
rob stalling non-critical load ip: 17247668 freq: 69
rob stalling non-critical load ip: 17247840 freq: 51
rob stalling non-critical load ip: 17247844 freq: 2
rob stalling non-critical load ip: 17247864 freq: 21
rob stalling non-critical load ip: 17247888 freq: 13
rob stalling non-critical load ip: 17247952 freq: 11
rob stalling non-critical load ip: 17247988 freq: 58
rob stalling non-critical load ip: 17248120 freq: 163
rob stalling non-critical load ip: 17248624 freq: 17
rob stalling non-critical load ip: 17248652 freq: 17
rob stalling non-critical load ip: 17253688 freq: 2
rob stalling non-critical load ip: 17254328 freq: 8
rob stalling non-critical load ip: 17369828 freq: 1
rob stalling non-critical load ip: 17369844 freq: 3
rob stalling non-critical load ip: 17369860 freq: 4
rob stalling non-critical load ip: 17410740 freq: 10
rob stalling non-critical load ip: 17410756 freq: 14
rob stalling non-critical load ip: 17434108 freq: 1
rob stalling non-critical load ip: 17506076 freq: 12
rob stalling non-critical load ip: 17506584 freq: 12
rob stalling non-critical load ip: 17506760 freq: 1
rob stalling non-critical load ip: 17506824 freq: 3
rob stalling non-critical load ip: 17506884 freq: 20
rob stalling non-critical load ip: 17506964 freq: 4
rob stalling non-critical load ip: 17506996 freq: 2
rob stalling non-critical load ip: 17507044 freq: 20
rob stalling non-critical load ip: 17507160 freq: 4
rob stalling non-critical load ip: 17507336 freq: 4
rob stalling non-critical load ip: 17507428 freq: 4
rob stalling non-critical load ip: 17507476 freq: 2
rob stalling non-critical load ip: 17507492 freq: 3
rob stalling non-critical load ip: 17545664 freq: 81
rob stalling non-critical load ip: 17545788 freq: 1
rob stalling non-critical load ip: 17545868 freq: 6
rob stalling non-critical load ip: 17545908 freq: 26
rob stalling non-critical load ip: 17546088 freq: 441
rob stalling non-critical load ip: 17546104 freq: 44
rob stalling non-critical load ip: 17546120 freq: 58
rob stalling non-critical load ip: 17546160 freq: 20
rob stalling non-critical load ip: 17546172 freq: 15
rob stalling non-critical load ip: 17546260 freq: 37
rob stalling non-critical load ip: 17546280 freq: 2
rob stalling non-critical load ip: 17546300 freq: 2
rob stalling non-critical load ip: 17546368 freq: 1
rob stalling non-critical load ip: 17546416 freq: 9
rob stalling non-critical load ip: 17546460 freq: 9
rob stalling non-critical load ip: 17546908 freq: 78
rob stalling non-critical load ip: 17546944 freq: 32
rob stalling non-critical load ip: 17547028 freq: 15
rob stalling non-critical load ip: 17547052 freq: 12
rob stalling non-critical load ip: 17547352 freq: 147
rob stalling non-critical load ip: 17547356 freq: 5
rob stalling non-critical load ip: 17547720 freq: 6
rob stalling non-critical load ip: 17547760 freq: 3
rob stalling non-critical load ip: 17547776 freq: 2
rob stalling non-critical load ip: 17547868 freq: 2
rob stalling non-critical load ip: 17548040 freq: 45
rob stalling non-critical load ip: 17555508 freq: 45
rob stalling non-critical load ip: 17560976 freq: 17
rob stalling non-critical load ip: 17561040 freq: 1
rob stalling non-critical load ip: 17614016 freq: 2
rob stalling non-critical load ip: 17614256 freq: 2
rob stalling non-critical load ip: 17616192 freq: 2
rob stalling non-critical load ip: 17616612 freq: 1
rob stalling non-critical load ip: 17617800 freq: 2
rob stalling non-critical load ip: 17617868 freq: 2
rob stalling non-critical load ip: 17617944 freq: 1
rob stalling non-critical load ip: 17627436 freq: 2
rob stalling non-critical load ip: 17627540 freq: 8
rob stalling non-critical load ip: 17627548 freq: 1
rob stalling non-critical load ip: 17628068 freq: 1
rob stalling non-critical load ip: 17633688 freq: 4
rob stalling non-critical load ip: 17633724 freq: 4
rob stalling non-critical load ip: 17633728 freq: 2
rob stalling non-critical load ip: 17633764 freq: 6
rob stalling non-critical load ip: 17633784 freq: 1
rob stalling non-critical load ip: 17633908 freq: 1
rob stalling non-critical load ip: 17633912 freq: 1
rob stalling non-critical load ip: 17634056 freq: 1
rob stalling non-critical load ip: 17641524 freq: 3
rob stalling non-critical load ip: 17641540 freq: 6
rob stalling non-critical load ip: 17641560 freq: 4
rob stalling non-critical load ip: 17643980 freq: 1
rob stalling non-critical load ip: 17644128 freq: 10
rob stalling non-critical load ip: 17644276 freq: 198
rob stalling non-critical load ip: 17668448 freq: 1
rob stalling non-critical load ip: 17682628 freq: 3
rob stalling non-critical load ip: 17682728 freq: 1
rob stalling non-critical load ip: 17682804 freq: 7
rob stalling non-critical load ip: 17682824 freq: 11
rob stalling non-critical load ip: 17682900 freq: 5
rob stalling non-critical load ip: 17682932 freq: 2
rob stalling non-critical load ip: 17683092 freq: 1
rob stalling non-critical load ip: 17683164 freq: 4
rob stalling non-critical load ip: 17683268 freq: 1
rob stalling non-critical load ip: 17683332 freq: 3
rob stalling non-critical load ip: 17683380 freq: 9
rob stalling non-critical load ip: 17683456 freq: 8
rob stalling non-critical load ip: 17683576 freq: 3
rob stalling non-critical load ip: 17683688 freq: 1
rob stalling non-critical load ip: 17683752 freq: 3
rob stalling non-critical load ip: 17683908 freq: 5
rob stalling non-critical load ip: 17689552 freq: 1
rob stalling non-critical load ip: 17692512 freq: 1
rob stalling non-critical load ip: 17782316 freq: 79
rob stalling non-critical load ip: 17782380 freq: 439
rob stalling non-critical load ip: 17782384 freq: 4
rob stalling non-critical load ip: 17782400 freq: 31
rob stalling non-critical load ip: 17782428 freq: 9
rob stalling non-critical load ip: 17782476 freq: 43
rob stalling non-critical load ip: 17782536 freq: 37
rob stalling non-critical load ip: 17782548 freq: 10
rob stalling non-critical load ip: 17782600 freq: 19
rob stalling non-critical load ip: 17782928 freq: 44
rob stalling non-critical load ip: 17782984 freq: 19
rob stalling non-critical load ip: 17783272 freq: 18
rob stalling non-critical load ip: 17785020 freq: 3
rob stalling non-critical load ip: 17785228 freq: 2
rob stalling non-critical load ip: 17785376 freq: 1
rob stalling non-critical load ip: 17795408 freq: 2
rob stalling non-critical load ip: 17795512 freq: 26
rob stalling non-critical load ip: 17795524 freq: 10
rob stalling non-critical load ip: 17795544 freq: 4
rob stalling non-critical load ip: 17795560 freq: 1
rob stalling non-critical load ip: 17825288 freq: 31
rob stalling non-critical load ip: 17825316 freq: 4
rob stalling non-critical load ip: 17825320 freq: 16
rob stalling non-critical load ip: 17905356 freq: 3
rob stalling non-critical load ip: 17905412 freq: 6
rob stalling non-critical load ip: 17905436 freq: 4
rob stalling non-critical load ip: 17905520 freq: 3
rob stalling non-critical load ip: 17905544 freq: 4
rob stalling non-critical load ip: 17905564 freq: 1
rob stalling non-critical load ip: 17906156 freq: 2
rob stalling non-critical load ip: 17906336 freq: 200
rob stalling non-critical load ip: 17906384 freq: 1402
rob stalling non-critical load ip: 17906400 freq: 668
rob stalling non-critical load ip: 17906620 freq: 56
rob stalling non-critical load ip: 17906644 freq: 187
rob stalling non-critical load ip: 17906844 freq: 2517
rob stalling non-critical load ip: 17906852 freq: 12
rob stalling non-critical load ip: 17906888 freq: 187
rob stalling non-critical load ip: 17906912 freq: 42
rob stalling non-critical load ip: 17906968 freq: 54
rob stalling non-critical load ip: 17906980 freq: 48
rob stalling non-critical load ip: 17907064 freq: 1893
rob stalling non-critical load ip: 17908272 freq: 79
rob stalling non-critical load ip: 17908296 freq: 699
rob stalling non-critical load ip: 17908312 freq: 42
rob stalling non-critical load ip: 17908368 freq: 65
rob stalling non-critical load ip: 17909384 freq: 1
rob stalling non-critical load ip: 17912876 freq: 8
rob stalling non-critical load ip: 17912932 freq: 12
rob stalling non-critical load ip: 17912956 freq: 6
rob stalling non-critical load ip: 17912964 freq: 2
rob stalling non-critical load ip: 17913044 freq: 11
rob stalling non-critical load ip: 17913056 freq: 16
rob stalling non-critical load ip: 17913068 freq: 43
rob stalling non-critical load ip: 17913108 freq: 8
rob stalling non-critical load ip: 18019912 freq: 3
rob stalling non-critical load ip: 18019976 freq: 1
rob stalling non-critical load ip: 18022900 freq: 20
rob stalling non-critical load ip: 18022940 freq: 4
rob stalling non-critical load ip: 18022944 freq: 59
rob stalling non-critical load ip: 18022976 freq: 4
rob stalling non-critical load ip: 18023020 freq: 3
rob stalling non-critical load ip: 18023308 freq: 10
rob stalling non-critical load ip: 18025240 freq: 89
rob stalling non-critical load ip: 18025248 freq: 47
rob stalling non-critical load ip: 18025276 freq: 42
rob stalling non-critical load ip: 18025296 freq: 120
rob stalling non-critical load ip: 18025304 freq: 60
rob stalling non-critical load ip: 18025320 freq: 24
rob stalling non-critical load ip: 18025340 freq: 113
rob stalling non-critical load ip: 18025560 freq: 6
rob stalling non-critical load ip: 18025576 freq: 9
rob stalling non-critical load ip: 18025596 freq: 2
rob stalling non-critical load ip: 18025768 freq: 3
rob stalling non-critical load ip: 18025804 freq: 6
rob stalling non-critical load ip: 18025832 freq: 12
rob stalling non-critical load ip: 18025984 freq: 1
rob stalling non-critical load ip: 18026640 freq: 3
rob stalling non-critical load ip: 18026656 freq: 20
rob stalling non-critical load ip: 18026668 freq: 12
rob stalling non-critical load ip: 18026908 freq: 25
rob stalling non-critical load ip: 18026928 freq: 18
rob stalling non-critical load ip: 18026960 freq: 1
rob stalling non-critical load ip: 18026992 freq: 3
rob stalling non-critical load ip: 18027120 freq: 33
rob stalling non-critical load ip: 18027128 freq: 23
rob stalling non-critical load ip: 18027156 freq: 1714
rob stalling non-critical load ip: 18027212 freq: 43
rob stalling non-critical load ip: 18027236 freq: 44
rob stalling non-critical load ip: 18027488 freq: 4
rob stalling non-critical load ip: 18027552 freq: 2
rob stalling non-critical load ip: 18027924 freq: 48
rob stalling non-critical load ip: 18027932 freq: 9
rob stalling non-critical load ip: 18027940 freq: 1
rob stalling non-critical load ip: 18027972 freq: 4
rob stalling non-critical load ip: 18049648 freq: 89
rob stalling non-critical load ip: 18049664 freq: 595
rob stalling non-critical load ip: 18049672 freq: 5
rob stalling non-critical load ip: 18049728 freq: 14
rob stalling non-critical load ip: 18049736 freq: 4
rob stalling non-critical load ip: 18049744 freq: 8
rob stalling non-critical load ip: 18049920 freq: 288
rob stalling non-critical load ip: 18049936 freq: 22
rob stalling non-critical load ip: 18049956 freq: 1
rob stalling non-critical load ip: 18049972 freq: 2
rob stalling non-critical load ip: 18049996 freq: 51
rob stalling non-critical load ip: 18050004 freq: 5
rob stalling non-critical load ip: 18050036 freq: 92
rob stalling non-critical load ip: 18050048 freq: 10883
rob stalling non-critical load ip: 18050220 freq: 4
rob stalling non-critical load ip: 18064772 freq: 1
rob stalling non-critical load ip: 18073720 freq: 4
rob stalling non-critical load ip: 18074636 freq: 6
rob stalling non-critical load ip: 18074640 freq: 8
rob stalling non-critical load ip: 18085420 freq: 2
rob stalling non-critical load ip: 18085540 freq: 10
rob stalling non-critical load ip: 18110020 freq: 2
rob stalling non-critical load ip: 18128468 freq: 46
rob stalling non-critical load ip: 18128484 freq: 14
rob stalling non-critical load ip: 18128488 freq: 19
rob stalling non-critical load ip: 18128540 freq: 48
rob stalling non-critical load ip: 18128612 freq: 28
rob stalling non-critical load ip: 18128640 freq: 348
rob stalling non-critical load ip: 18128648 freq: 10
rob stalling non-critical load ip: 18128744 freq: 373
rob stalling non-critical load ip: 18128756 freq: 8
rob stalling non-critical load ip: 18132720 freq: 2283
rob stalling non-critical load ip: 18132760 freq: 256
rob stalling non-critical load ip: 18132804 freq: 37
rob stalling non-critical load ip: 18132832 freq: 171
rob stalling non-critical load ip: 18132844 freq: 24
rob stalling non-critical load ip: 18132856 freq: 14
rob stalling non-critical load ip: 18132872 freq: 18
rob stalling non-critical load ip: 18132896 freq: 166
rob stalling non-critical load ip: 18132908 freq: 233
rob stalling non-critical load ip: 18132916 freq: 12
rob stalling non-critical load ip: 18132980 freq: 21
rob stalling non-critical load ip: 18132996 freq: 2113
rob stalling non-critical load ip: 18133012 freq: 20
rob stalling non-critical load ip: 18133028 freq: 4
rob stalling non-critical load ip: 18133080 freq: 2642
rob stalling non-critical load ip: 18133112 freq: 270
rob stalling non-critical load ip: 18133280 freq: 6
rob stalling non-critical load ip: 18133368 freq: 66
rob stalling non-critical load ip: 18133388 freq: 8
rob stalling non-critical load ip: 18133392 freq: 15
rob stalling non-critical load ip: 18133404 freq: 11
rob stalling non-critical load ip: 18133408 freq: 50
rob stalling non-critical load ip: 18133456 freq: 11
rob stalling non-critical load ip: 18133528 freq: 3
rob stalling non-critical load ip: 18133592 freq: 13
rob stalling non-critical load ip: 18133608 freq: 3
rob stalling non-critical load ip: 18133656 freq: 1
rob stalling non-critical load ip: 18133936 freq: 10
rob stalling non-critical load ip: 18133964 freq: 7
rob stalling non-critical load ip: 18134000 freq: 1
rob stalling non-critical load ip: 18134084 freq: 11
rob stalling non-critical load ip: 18134132 freq: 1
rob stalling non-critical load ip: 18134192 freq: 7
rob stalling non-critical load ip: 18134276 freq: 5
rob stalling non-critical load ip: 18134316 freq: 19
rob stalling non-critical load ip: 18134344 freq: 12
rob stalling non-critical load ip: 18134356 freq: 3
rob stalling non-critical load ip: 18134420 freq: 3
rob stalling non-critical load ip: 18134436 freq: 4
rob stalling non-critical load ip: 18181104 freq: 25
rob stalling non-critical load ip: 18217476 freq: 3
rob stalling non-critical load ip: 18217700 freq: 1
rob stalling non-critical load ip: 18218052 freq: 3
rob stalling non-critical load ip: 18219216 freq: 1
rob stalling non-critical load ip: 18219408 freq: 2
rob stalling non-critical load ip: 18219844 freq: 29
rob stalling non-critical load ip: 18219900 freq: 25
rob stalling non-critical load ip: 18219948 freq: 201
rob stalling non-critical load ip: 18219952 freq: 1498
rob stalling non-critical load ip: 18219956 freq: 296
rob stalling non-critical load ip: 18219960 freq: 492
rob stalling non-critical load ip: 18219976 freq: 2
rob stalling non-critical load ip: 18220024 freq: 2
rob stalling non-critical load ip: 18220136 freq: 1816
rob stalling non-critical load ip: 18220228 freq: 214
rob stalling non-critical load ip: 18220236 freq: 62
rob stalling non-critical load ip: 18220252 freq: 88
rob stalling non-critical load ip: 18220268 freq: 53
rob stalling non-critical load ip: 18220280 freq: 72
rob stalling non-critical load ip: 18221308 freq: 68
rob stalling non-critical load ip: 18221328 freq: 460
rob stalling non-critical load ip: 18221352 freq: 17
rob stalling non-critical load ip: 18221376 freq: 12
rob stalling non-critical load ip: 18221444 freq: 501
rob stalling non-critical load ip: 18221460 freq: 15
rob stalling non-critical load ip: 18221496 freq: 12
rob stalling non-critical load ip: 18221516 freq: 6
rob stalling non-critical load ip: 18221520 freq: 122
rob stalling non-critical load ip: 18221548 freq: 21
rob stalling non-critical load ip: 18221568 freq: 59
rob stalling non-critical load ip: 18221580 freq: 409
rob stalling non-critical load ip: 18221616 freq: 16
rob stalling non-critical load ip: 18221664 freq: 25
rob stalling non-critical load ip: 18221700 freq: 21
rob stalling non-critical load ip: 18221712 freq: 9
rob stalling non-critical load ip: 18221716 freq: 12
rob stalling non-critical load ip: 18221728 freq: 28
rob stalling non-critical load ip: 18221792 freq: 2
rob stalling non-critical load ip: 18221808 freq: 13
rob stalling non-critical load ip: 18221856 freq: 64
rob stalling non-critical load ip: 18221868 freq: 370
rob stalling non-critical load ip: 18221884 freq: 129
rob stalling non-critical load ip: 18221920 freq: 61
rob stalling non-critical load ip: 18221956 freq: 73
rob stalling non-critical load ip: 18221996 freq: 11
rob stalling non-critical load ip: 18222152 freq: 18
rob stalling non-critical load ip: 18222216 freq: 21
rob stalling non-critical load ip: 18222592 freq: 52
rob stalling non-critical load ip: 18222628 freq: 8
rob stalling non-critical load ip: 18222684 freq: 23
rob stalling non-critical load ip: 18222724 freq: 36
rob stalling non-critical load ip: 18222968 freq: 77
rob stalling non-critical load ip: 18222984 freq: 20
rob stalling non-critical load ip: 18223248 freq: 1
rob stalling non-critical load ip: 18223664 freq: 835
rob stalling non-critical load ip: 18223672 freq: 51
rob stalling non-critical load ip: 18223688 freq: 2413
rob stalling non-critical load ip: 18223720 freq: 1304
rob stalling non-critical load ip: 18223728 freq: 39
rob stalling non-critical load ip: 18223736 freq: 198
rob stalling non-critical load ip: 18223752 freq: 19
rob stalling non-critical load ip: 18223756 freq: 54
rob stalling non-critical load ip: 18224052 freq: 187
rob stalling non-critical load ip: 18224072 freq: 436
rob stalling non-critical load ip: 18224096 freq: 29
rob stalling non-critical load ip: 18224128 freq: 11
rob stalling non-critical load ip: 18224140 freq: 23
rob stalling non-critical load ip: 18224240 freq: 53
rob stalling non-critical load ip: 18224368 freq: 24
rob stalling non-critical load ip: 18224372 freq: 44
rob stalling non-critical load ip: 18224388 freq: 5
rob stalling non-critical load ip: 18224404 freq: 18
rob stalling non-critical load ip: 18224420 freq: 531
rob stalling non-critical load ip: 18224436 freq: 18
rob stalling non-critical load ip: 18224448 freq: 22
rob stalling non-critical load ip: 18224596 freq: 37
rob stalling non-critical load ip: 18224648 freq: 2
rob stalling non-critical load ip: 18303116 freq: 23
rob stalling non-critical load ip: 18303200 freq: 6
rob stalling non-critical load ip: 18303228 freq: 1
rob stalling non-critical load ip: 18303276 freq: 2
rob stalling non-critical load ip: 18303300 freq: 1
rob stalling non-critical load ip: 18303304 freq: 1
rob stalling non-critical load ip: 18303560 freq: 2
rob stalling non-critical load ip: 18303772 freq: 3
rob stalling non-critical load ip: 18310964 freq: 2
rob stalling non-critical load ip: 18457504 freq: 3
rob stalling non-critical load ip: 18457572 freq: 3
rob stalling non-critical load ip: 18466760 freq: 2
rob stalling non-critical load ip: 18466768 freq: 4
rob stalling non-critical load ip: 18466824 freq: 4
rob stalling non-critical load ip: 18466888 freq: 1
rob stalling non-critical load ip: 18466940 freq: 6
rob stalling non-critical load ip: 18467084 freq: 3
rob stalling non-critical load ip: 18467160 freq: 3
rob stalling non-critical load ip: 18467180 freq: 2
rob stalling non-critical load ip: 18467416 freq: 1
rob stalling non-critical load ip: 18481752 freq: 2
rob stalling non-critical load ip: 18481788 freq: 158
rob stalling non-critical load ip: 18481820 freq: 40
rob stalling non-critical load ip: 18481952 freq: 6
rob stalling non-critical load ip: 18482232 freq: 3
rob stalling non-critical load ip: 18482800 freq: 5
rob stalling non-critical load ip: 18490424 freq: 1
rob stalling non-critical load ip: 18493424 freq: 5
rob stalling non-critical load ip: 18493428 freq: 4
rob stalling non-critical load ip: 18506444 freq: 1
rob stalling non-critical load ip: 18514352 freq: 2
rob stalling non-critical load ip: 18514400 freq: 4
rob stalling non-critical load ip: 18514792 freq: 7
rob stalling non-critical load ip: 18519248 freq: 1
rob stalling non-critical load ip: 18523884 freq: 1
rob stalling non-critical load ip: 18545452 freq: 1
rob stalling non-critical load ip: 18547412 freq: 1
rob stalling non-critical load ip: 18550640 freq: 1
rob stalling non-critical load ip: 18550920 freq: 1
rob stalling non-critical load ip: 18552516 freq: 1
rob stalling non-critical load ip: 18553752 freq: 1
rob stalling non-critical load ip: 18556720 freq: 56
rob stalling non-critical load ip: 18557252 freq: 564
rob stalling non-critical load ip: 18557256 freq: 572
rob stalling non-critical load ip: 18557288 freq: 2133
rob stalling non-critical load ip: 18557484 freq: 122
rob stalling non-critical load ip: 18557604 freq: 478
rob stalling non-critical load ip: 18562980 freq: 1
rob stalling non-critical load ip: 18563048 freq: 1
rob stalling non-critical load ip: 18564744 freq: 1
rob stalling non-critical load ip: 18570080 freq: 1
rob stalling non-critical load ip: 18583492 freq: 1
rob stalling non-critical load ip: 18587956 freq: 1
rob stalling non-critical load ip: 18596368 freq: 1
rob stalling non-critical load ip: 18601120 freq: 4
rob stalling non-critical load ip: 18604280 freq: 111
rob stalling non-critical load ip: 18604288 freq: 9
rob stalling non-critical load ip: 18604340 freq: 2
rob stalling non-critical load ip: 18604344 freq: 1331
rob stalling non-critical load ip: 18604364 freq: 12
rob stalling non-critical load ip: 18604368 freq: 57
rob stalling non-critical load ip: 18604372 freq: 7
rob stalling non-critical load ip: 18604396 freq: 13
rob stalling non-critical load ip: 18604480 freq: 25
rob stalling non-critical load ip: 18625668 freq: 72
rob stalling non-critical load ip: 18627428 freq: 1773
rob stalling non-critical load ip: 18631072 freq: 40
rob stalling non-critical load ip: 18631092 freq: 31
rob stalling non-critical load ip: 18631116 freq: 8
rob stalling non-critical load ip: 18634180 freq: 22
rob stalling non-critical load ip: 18634208 freq: 24
rob stalling non-critical load ip: 18634276 freq: 16
rob stalling non-critical load ip: 18634432 freq: 53
rob stalling non-critical load ip: 18634448 freq: 3
rob stalling non-critical load ip: 18634452 freq: 2
rob stalling non-critical load ip: 18634892 freq: 14
rob stalling non-critical load ip: 18642072 freq: 5
rob stalling non-critical load ip: 18757300 freq: 4
rob stalling non-critical load ip: 18757396 freq: 19
rob stalling non-critical load ip: 18757520 freq: 2
rob stalling non-critical load ip: 18757776 freq: 7
rob stalling non-critical load ip: 18759348 freq: 1
rob stalling non-critical load ip: 18760628 freq: 1
rob stalling non-critical load ip: 18776508 freq: 1
rob stalling non-critical load ip: 18783856 freq: 35
rob stalling non-critical load ip: 18783872 freq: 4
rob stalling non-critical load ip: 18783924 freq: 9
rob stalling non-critical load ip: 18783940 freq: 15
rob stalling non-critical load ip: 18783964 freq: 1
rob stalling non-critical load ip: 18784392 freq: 1
rob stalling non-critical load ip: 18790068 freq: 13
rob stalling non-critical load ip: 18790492 freq: 2
rob stalling non-critical load ip: 18790796 freq: 8
rob stalling non-critical load ip: 18790984 freq: 2
rob stalling non-critical load ip: 18791368 freq: 3
rob stalling non-critical load ip: 18791472 freq: 9
rob stalling non-critical load ip: 18791500 freq: 3
rob stalling non-critical load ip: 18791520 freq: 7
rob stalling non-critical load ip: 18791532 freq: 2
rob stalling non-critical load ip: 18791552 freq: 2
rob stalling non-critical load ip: 18791700 freq: 22
rob stalling non-critical load ip: 18791760 freq: 6
rob stalling non-critical load ip: 18791796 freq: 28
rob stalling non-critical load ip: 18791860 freq: 2
rob stalling non-critical load ip: 18791880 freq: 9
rob stalling non-critical load ip: 18792108 freq: 10
rob stalling non-critical load ip: 18792112 freq: 10
rob stalling non-critical load ip: 18792888 freq: 10
rob stalling non-critical load ip: 18793196 freq: 2
rob stalling non-critical load ip: 18847852 freq: 19
rob stalling non-critical load ip: 18847880 freq: 4
rob stalling non-critical load ip: 18847888 freq: 10
rob stalling non-critical load ip: 18847948 freq: 37
rob stalling non-critical load ip: 18847960 freq: 1
rob stalling non-critical load ip: 18847984 freq: 40
rob stalling non-critical load ip: 18848012 freq: 10
rob stalling non-critical load ip: 18848036 freq: 3
rob stalling non-critical load ip: 18848072 freq: 51
rob stalling non-critical load ip: 18848108 freq: 10
rob stalling non-critical load ip: 18848112 freq: 10
rob stalling non-critical load ip: 18848116 freq: 8
rob stalling non-critical load ip: 18848124 freq: 2
rob stalling non-critical load ip: 18848136 freq: 5
rob stalling non-critical load ip: 18848172 freq: 37
rob stalling non-critical load ip: 18848228 freq: 12
rob stalling non-critical load ip: 18848240 freq: 1
rob stalling non-critical load ip: 18848248 freq: 3
rob stalling non-critical load ip: 18848276 freq: 3
rob stalling non-critical load ip: 18848296 freq: 18
rob stalling non-critical load ip: 18848340 freq: 4
rob stalling non-critical load ip: 18848448 freq: 4
rob stalling non-critical load ip: 18848564 freq: 14
rob stalling non-critical load ip: 18848928 freq: 100
rob stalling non-critical load ip: 18848936 freq: 28
rob stalling non-critical load ip: 18848944 freq: 2
[...]
Critical_ROB_Stalls_Percent_1_Bucket_6: 24597
Non-critical_ROB_Stalls_Percent_1_Bucket_6: 8821
Critical_ROB_Stalls_Percent_2_Bucket_0: 332435
Non-critical_ROB_Stalls_Percent_2_Bucket_0: 210816
Critical_ROB_Stalls_Percent_2_Bucket_1: 6363
Non-critical_ROB_Stalls_Percent_2_Bucket_1: 23262
Critical_ROB_Stalls_Percent_2_Bucket_2: 3055
Non-critical_ROB_Stalls_Percent_2_Bucket_2: 6563
Critical_ROB_Stalls_Percent_2_Bucket_3: 3572
Non-critical_ROB_Stalls_Percent_2_Bucket_3: 4216
Critical_ROB_Stalls_Percent_2_Bucket_4: 4721
Non-critical_ROB_Stalls_Percent_2_Bucket_4: 3180
Critical_ROB_Stalls_Percent_2_Bucket_5: 5506
Non-critical_ROB_Stalls_Percent_2_Bucket_5: 3667
Critical_ROB_Stalls_Percent_2_Bucket_6: 24601
Non-critical_ROB_Stalls_Percent_2_Bucket_6: 8817
Critical_ROB_Stalls_Percent_3_Bucket_0: 361598
Non-critical_ROB_Stalls_Percent_3_Bucket_0: 181653
Critical_ROB_Stalls_Percent_3_Bucket_1: 7691
Non-critical_ROB_Stalls_Percent_3_Bucket_1: 21934
Critical_ROB_Stalls_Percent_3_Bucket_2: 3106
Non-critical_ROB_Stalls_Percent_3_Bucket_2: 6512
Critical_ROB_Stalls_Percent_3_Bucket_3: 3593
Non-critical_ROB_Stalls_Percent_3_Bucket_3: 4195
Critical_ROB_Stalls_Percent_3_Bucket_4: 4734
Non-critical_ROB_Stalls_Percent_3_Bucket_4: 3167
Critical_ROB_Stalls_Percent_3_Bucket_5: 5516
Non-critical_ROB_Stalls_Percent_3_Bucket_5: 3657
Critical_ROB_Stalls_Percent_3_Bucket_6: 24605
Non-critical_ROB_Stalls_Percent_3_Bucket_6: 8813
Critical_ROB_Stalls_Percent_4_Bucket_0: 389351
Non-critical_ROB_Stalls_Percent_4_Bucket_0: 153900
Critical_ROB_Stalls_Percent_4_Bucket_1: 8275
Non-critical_ROB_Stalls_Percent_4_Bucket_1: 21350
Critical_ROB_Stalls_Percent_4_Bucket_2: 3589
Non-critical_ROB_Stalls_Percent_4_Bucket_2: 6029
Critical_ROB_Stalls_Percent_4_Bucket_3: 4171
Non-critical_ROB_Stalls_Percent_4_Bucket_3: 3617
Critical_ROB_Stalls_Percent_4_Bucket_4: 5113
Non-critical_ROB_Stalls_Percent_4_Bucket_4: 2788
Critical_ROB_Stalls_Percent_4_Bucket_5: 5787
Non-critical_ROB_Stalls_Percent_4_Bucket_5: 3386
Critical_ROB_Stalls_Percent_4_Bucket_6: 25107
Non-critical_ROB_Stalls_Percent_4_Bucket_6: 8311
Critical_ROB_Stalls_Percent_5_Bucket_0: 412340
Non-critical_ROB_Stalls_Percent_5_Bucket_0: 130911
Critical_ROB_Stalls_Percent_5_Bucket_1: 11792
Non-critical_ROB_Stalls_Percent_5_Bucket_1: 17833
Critical_ROB_Stalls_Percent_5_Bucket_2: 4462
Non-critical_ROB_Stalls_Percent_5_Bucket_2: 5156
Critical_ROB_Stalls_Percent_5_Bucket_3: 4498
Non-critical_ROB_Stalls_Percent_5_Bucket_3: 3290
Critical_ROB_Stalls_Percent_5_Bucket_4: 5619
Non-critical_ROB_Stalls_Percent_5_Bucket_4: 2282
Critical_ROB_Stalls_Percent_5_Bucket_5: 6533
Non-critical_ROB_Stalls_Percent_5_Bucket_5: 2640
Critical_ROB_Stalls_Percent_5_Bucket_6: 27392
Non-critical_ROB_Stalls_Percent_5_Bucket_6: 6026
Critical_ROB_Stalls_Percent_6_Bucket_0: 439863
Non-critical_ROB_Stalls_Percent_6_Bucket_0: 103388
Critical_ROB_Stalls_Percent_6_Bucket_1: 13587
Non-critical_ROB_Stalls_Percent_6_Bucket_1: 16038
Critical_ROB_Stalls_Percent_6_Bucket_2: 4955
Non-critical_ROB_Stalls_Percent_6_Bucket_2: 4663
Critical_ROB_Stalls_Percent_6_Bucket_3: 4779
Non-critical_ROB_Stalls_Percent_6_Bucket_3: 3009
Critical_ROB_Stalls_Percent_6_Bucket_4: 5738
Non-critical_ROB_Stalls_Percent_6_Bucket_4: 2163
Critical_ROB_Stalls_Percent_6_Bucket_5: 6656
Non-critical_ROB_Stalls_Percent_6_Bucket_5: 2517
Critical_ROB_Stalls_Percent_6_Bucket_6: 28415
Non-critical_ROB_Stalls_Percent_6_Bucket_6: 5003
Critical_ROB_Stalls_Percent_7_Bucket_0: 465988
Non-critical_ROB_Stalls_Percent_7_Bucket_0: 77263
Critical_ROB_Stalls_Percent_7_Bucket_1: 17150
Non-critical_ROB_Stalls_Percent_7_Bucket_1: 12475
Critical_ROB_Stalls_Percent_7_Bucket_2: 5670
Non-critical_ROB_Stalls_Percent_7_Bucket_2: 3948
Critical_ROB_Stalls_Percent_7_Bucket_3: 5225
Non-critical_ROB_Stalls_Percent_7_Bucket_3: 2563
Critical_ROB_Stalls_Percent_7_Bucket_4: 6071
Non-critical_ROB_Stalls_Percent_7_Bucket_4: 1830
Critical_ROB_Stalls_Percent_7_Bucket_5: 6909
Non-critical_ROB_Stalls_Percent_7_Bucket_5: 2264
Critical_ROB_Stalls_Percent_7_Bucket_6: 28715
Non-critical_ROB_Stalls_Percent_7_Bucket_6: 4703
Critical_ROB_Stalls_Percent_8_Bucket_0: 489658
Non-critical_ROB_Stalls_Percent_8_Bucket_0: 53593
Critical_ROB_Stalls_Percent_8_Bucket_1: 19196
Non-critical_ROB_Stalls_Percent_8_Bucket_1: 10429
Critical_ROB_Stalls_Percent_8_Bucket_2: 6504
Non-critical_ROB_Stalls_Percent_8_Bucket_2: 3114
Critical_ROB_Stalls_Percent_8_Bucket_3: 5932
Non-critical_ROB_Stalls_Percent_8_Bucket_3: 1856
Critical_ROB_Stalls_Percent_8_Bucket_4: 6601
Non-critical_ROB_Stalls_Percent_8_Bucket_4: 1300
Critical_ROB_Stalls_Percent_8_Bucket_5: 7990
Non-critical_ROB_Stalls_Percent_8_Bucket_5: 1183
Critical_ROB_Stalls_Percent_8_Bucket_6: 31114
Non-critical_ROB_Stalls_Percent_8_Bucket_6: 2304
Average ROB occupancy Load Stall Begin: 42.1529
Average ROB occupancy Load Stall End: 47.9535
Min ROB occupancy Load Stall Begin: 1
Max ROB occupancy Load Stall Begin: 351
Min ROB occupancy Load Stall End: 1
Max ROB occupancy Load Stall End: 352
Average ROB occupancy Critical Load Stall Begin: -nan
Average ROB occupancy Critical Load Stall End: -nan
Min ROB occupancy Critical Load Stall Begin: 400
Max ROB occupancy Critical Load Stall Begin: 0
Min ROB occupancy Critical Load Stall End: 400
Max ROB occupancy Critical Load Stall End: 0
 ROB Load Stall Begin Bucket Count 0: 550122
 ROB Load Stall End Bucket Count 0: 543251
 ROB Critical Load Stall Begin Bucket Count 0: 0
 ROB Critical Load Stall End Bucket Count 0: 0
 ROB Load Stall Begin Bucket Count 1: 26997
 ROB Load Stall End Bucket Count 1: 29625
 ROB Critical Load Stall Begin Bucket Count 1: 0
 ROB Critical Load Stall End Bucket Count 1: 0
 ROB Load Stall Begin Bucket Count 2: 8847
 ROB Load Stall End Bucket Count 2: 9618
 ROB Critical Load Stall Begin Bucket Count 2: 0
 ROB Critical Load Stall End Bucket Count 2: 0
 ROB Load Stall Begin Bucket Count 3: 7034
 ROB Load Stall End Bucket Count 3: 7788
 ROB Critical Load Stall Begin Bucket Count 3: 0
 ROB Critical Load Stall End Bucket Count 3: 0
 ROB Load Stall Begin Bucket Count 4: 7703
 ROB Load Stall End Bucket Count 4: 7901
 ROB Critical Load Stall Begin Bucket Count 4: 0
 ROB Critical Load Stall End Bucket Count 4: 0
 ROB Load Stall Begin Bucket Count 5: 9360
 ROB Load Stall End Bucket Count 5: 9173
 ROB Critical Load Stall Begin Bucket Count 5: 0
 ROB Critical Load Stall End Bucket Count 5: 0
 ROB Load Stall Begin Bucket Count 6: 30711
 ROB Load Stall End Bucket Count 6: 33418
 ROB Critical Load Stall Begin Bucket Count 6: 0
 ROB Critical Load Stall End Bucket Count 6: 0
PIST Tag Read Accesses: 67966
PIST Read Accesses: 33983
PIST Tag Write Accesses: 67966
PIST Write Accesses: 33983
Criticality detector called times: 337267
Max global_stall_cycles_count: 366759
Threshold Modified: 1 times, factor: -1
Sturdy critical IP cache stats: 
 Unused entries: 0
CIC Tag Read Accesses: 0
CIC Read Accesses: 0
CIC Tag Write Accesses: 0
CIC Write Accesses: 0
Wobbly critical IP cache stats: 
 Unused entries: 112
CIC Tag Read Accesses: 52881881
CIC Read Accesses: 0
CIC Tag Write Accesses: 5075
CIC Write Accesses: 0
ITLB TOTAL     ACCESS:    9062804  HIT:    7708393  MISS:    1354411  HIT %:    85.0553  MISS %:    14.9447   MPKI: 27.0882
ITLB LOAD TRANSLATION ACCESS:    9062804  HIT:    7708393  MISS:    1354411  HIT %:    85.0553  MISS %:    14.9447   MPKI: 27.0882
ITLB PREFETCH  REQUESTED:          0  ISSUED:          0  USEFUL:          0  USELESS:          0
ITLB USEFUL LOAD PREFETCHES:          0 PREFETCH ISSUED TO LOWER LEVEL:          0  ACCURACY: -nan
ITLB TIMELY PREFETCHES:          0 LATE PREFETCHES: 0 DROPPED PREFETCHES: 0
ITLB PREFETCHES SAME FILL-ORIGIN LEVEL: 0 DIFFERENT FILL-ORIGIN LEVEL: 0
ITLB AVERAGE MISS LATENCY: 30.5584 cycles
ITLB RQ	ACCESS:   11277745	FORWARD:          0	MERGED:    1629269	TO_CACHE:    9648476

DTLB TOTAL     ACCESS:    6451712  HIT:    4517765  MISS:    1933947  HIT %:    70.0243  MISS %:    29.9757   MPKI: 38.6789
DTLB LOAD TRANSLATION ACCESS:    6451712  HIT:    4517765  MISS:    1933947  HIT %:    70.0243  MISS %:    29.9757   MPKI: 38.6789
DTLB PREFETCH  REQUESTED:          0  ISSUED:          0  USEFUL:          0  USELESS:          0
DTLB USEFUL LOAD PREFETCHES:          0 PREFETCH ISSUED TO LOWER LEVEL:          0  ACCURACY: -nan
DTLB TIMELY PREFETCHES:          0 LATE PREFETCHES: 0 DROPPED PREFETCHES: 0
DTLB PREFETCHES SAME FILL-ORIGIN LEVEL: 0 DIFFERENT FILL-ORIGIN LEVEL: 0
DTLB AVERAGE MISS LATENCY: 31.6117 cycles
DTLB RQ	ACCESS:    9401183	FORWARD:          0	MERGED:    2599462	TO_CACHE:    6801721

STLB TOTAL     ACCESS:    3288358  HIT:     843381  MISS:    2444977  HIT %:    25.6475  MISS %:    74.3525   MPKI: 48.8995
STLB LOAD TRANSLATION ACCESS:    3288358  HIT:     843381  MISS:    2444977  HIT %:    25.6475  MISS %:    74.3525   MPKI: 48.8995
STLB PREFETCH  REQUESTED:          0  ISSUED:          0  USEFUL:          0  USELESS:          0
STLB USEFUL LOAD PREFETCHES:          0 PREFETCH ISSUED TO LOWER LEVEL:          0  ACCURACY: -nan
STLB TIMELY PREFETCHES:          0 LATE PREFETCHES: 0 DROPPED PREFETCHES: 0
STLB PREFETCHES SAME FILL-ORIGIN LEVEL: 0 DIFFERENT FILL-ORIGIN LEVEL: 0
STLB AVERAGE MISS LATENCY: 29.7252 cycles
STLB RQ	ACCESS:    3288358	FORWARD:          0	MERGED:          0	TO_CACHE:    3288358

STLB Hit, L1D data hit: 0
STLB Hit, L2C data hit: 0
STLB Hit, LLC data hit: 0
STLB Hit, LLC data miss: 0
STLB STLB hints to L2: 0
L1D TOTAL     ACCESS:    8926740  HIT:    8345299  MISS:     581441  HIT %:    93.4865  MISS %:    6.51348   MPKI: 11.6288
L1D LOAD      ACCESS:    5207831  HIT:    4745687  MISS:     462144  HIT %:     91.126  MISS %:    8.87402   MPKI: 9.24288
L1D RFO       ACCESS:    3718909  HIT:    3599612  MISS:     119297  HIT %:    96.7922  MISS %:    3.20785   MPKI: 2.38594
L1D PREFETCH  REQUESTED:          0  ISSUED:          0  USEFUL:          0  USELESS:          0
L1D USEFUL LOAD PREFETCHES:          0 PREFETCH ISSUED TO LOWER LEVEL:          0  ACCURACY: -nan
L1D TIMELY PREFETCHES:          0 LATE PREFETCHES: 0 DROPPED PREFETCHES: 0
L1D PREFETCHES SAME FILL-ORIGIN LEVEL: 0 DIFFERENT FILL-ORIGIN LEVEL: 0
L1D AVERAGE MISS LATENCY: 52.2918 cycles
L1D RQ	ACCESS:    8897032	FORWARD:          0	MERGED:    3632243	TO_CACHE:    5224935
L1D WQ	ACCESS:    4243948	FORWARD:      39854	MERGED:      67700	TO_CACHE:    4176248

L1D UNIQUE REGIONS ACCESSED: 0
L1D REGIONS CONFLICTS: 0
L1D Cross Page Prefetch Requests: 0
L1D Same Page Prefetch Requests: 0
L1D ROI Sum of L1D PQ occupancy: 0
L1D PREFETCHES PUSHED FROM L2C: 0
L1I TOTAL     ACCESS:   10725357  HIT:    8996975  MISS:    1728382  HIT %:    83.8851  MISS %:    16.1149   MPKI: 34.5676
L1I LOAD      ACCESS:   10725357  HIT:    8996975  MISS:    1728382  HIT %:    83.8851  MISS %:    16.1149   MPKI: 34.5676
L1I PREFETCH  REQUESTED:          0  ISSUED:          0  USEFUL:          0  USELESS:          0
L1I USEFUL LOAD PREFETCHES:          0 PREFETCH ISSUED TO LOWER LEVEL:          0  ACCURACY: -nan
L1I TIMELY PREFETCHES:          0 LATE PREFETCHES: 0 DROPPED PREFETCHES: 0
L1I PREFETCHES SAME FILL-ORIGIN LEVEL: 0 DIFFERENT FILL-ORIGIN LEVEL: 0
L1I AVERAGE MISS LATENCY: 16.6103 cycles
L1I RQ	ACCESS:   20361896	FORWARD:          0	MERGED:    9084151	TO_CACHE:   11277745

BTB BRANCH_DIRECT_JUMP	ACCESS:          0  HIT:          0  MISS:          0
BTB BRANCH_INDIRECT	ACCESS:          0  HIT:          0  MISS:          0
BTB BRANCH_CONDITIONAL	ACCESS:          0  HIT:          0  MISS:          0
BTB BRANCH_DIRECT_CALL	ACCESS:          0  HIT:          0  MISS:          0
BTB BRANCH_INDIRECT_CALL	ACCESS:          0  HIT:          0  MISS:          0
BTB BRANCH_RETURN	ACCESS:          0  HIT:          0  MISS:          0
BTB BRANCH_OTHER ACCESS:          0  HIT:          0  MISS:          0

L2C TOTAL     ACCESS:    5544375  HIT:    5074365  MISS:     470010  HIT %:    91.5228  MISS %:    8.47724   MPKI: 9.4002
L2C LOAD      ACCESS:    2190524  HIT:    2078038  MISS:     112486  HIT %:    94.8649  MISS %:    5.13512   MPKI: 2.24972
L2C DATA LOAD MPKI: 1.68048
L2C INSTRUCTION LOAD MPKI: 0.56924
L2C RFO       ACCESS:     119288  HIT:      34668  MISS:      84620  HIT %:    29.0624  MISS %:    70.9376   MPKI: 1.6924
L2C PREFETCH  ACCESS:     364773  HIT:     114031  MISS:     250742  HIT %:    31.2608  MISS %:    68.7392   MPKI: 5.01484
L2C DATA PREFETCH MPKI: 5.01484
L2C INSTRUCTION PREFETCH MPKI: 0
L2C WRITEBACK ACCESS:     204407  HIT:     198228  MISS:       6179  HIT %:    96.9771  MISS %:    3.02289   MPKI: 0.12358
L2C LOAD TRANSLATION ACCESS:    2665383  HIT:    2649400  MISS:      15983  HIT %:    99.4003  MISS %:   0.599651   MPKI: 0.31966
L2C PREFETCH  REQUESTED:     385556  ISSUED:     385556  USEFUL:     180555  USELESS:      70694
L2C USEFUL LOAD PREFETCHES:     180555 PREFETCH ISSUED TO LOWER LEVEL:     257874  ACCURACY: 70.0168
L2C TIMELY PREFETCHES:     180555 LATE PREFETCHES: 7134 DROPPED PREFETCHES: 0
L2C PREFETCHES SAME FILL-ORIGIN LEVEL: 257874 DIFFERENT FILL-ORIGIN LEVEL: 0
L2C AVERAGE MISS LATENCY: 134.076 cycles
L2C RQ	ACCESS:    4975206	FORWARD:          0	MERGED:          0	TO_CACHE:    4975199
L2C WQ	ACCESS:     204407	FORWARD:          8	MERGED:          0	TO_CACHE:     204407
L2C PQ	ACCESS:     385556	FORWARD:          0	MERGED:          0	TO_CACHE:     385555

L2C Instructions Evicting Data 24230
L2C Translations Evicting Data 14118
L2C Data Evicting Data 383076
L2C Instructions Evicting Instructions 3102
L2C Translations Evicting Instructions 1230
L2C Data Evicting Instructions 22633
L2C Instructions Evicting Translations 1130
L2C Translations Evicting Translations 635
L2C Data Evicting Translations 13677
L2C Dense regions hint from L2: 0
PSCL5 TOTAL     ACCESS:    2444977  HIT:    2444977  MISS:          0  HIT %:        100  MISS %:          0   MPKI: 0
PSCL5 LOAD TRANSLATION ACCESS:    2444977  HIT:    2444977  MISS:          0  HIT %:        100  MISS %:          0   MPKI: 0
PSCL5 PREFETCH  REQUESTED:          0  ISSUED:          0  USEFUL:          0  USELESS:          0
PSCL5 USEFUL LOAD PREFETCHES:          0 PREFETCH ISSUED TO LOWER LEVEL:          0  ACCURACY: -nan
PSCL5 TIMELY PREFETCHES:          0 LATE PREFETCHES: 0 DROPPED PREFETCHES: 0
PSCL5 PREFETCHES SAME FILL-ORIGIN LEVEL: 0 DIFFERENT FILL-ORIGIN LEVEL: 0

PSCL4 TOTAL     ACCESS:    2444977  HIT:    2444977  MISS:          0  HIT %:        100  MISS %:          0   MPKI: 0
PSCL4 LOAD TRANSLATION ACCESS:    2444977  HIT:    2444977  MISS:          0  HIT %:        100  MISS %:          0   MPKI: 0
PSCL4 PREFETCH  REQUESTED:          0  ISSUED:          0  USEFUL:          0  USELESS:          0
PSCL4 USEFUL LOAD PREFETCHES:          0 PREFETCH ISSUED TO LOWER LEVEL:          0  ACCURACY: -nan
PSCL4 TIMELY PREFETCHES:          0 LATE PREFETCHES: 0 DROPPED PREFETCHES: 0
PSCL4 PREFETCHES SAME FILL-ORIGIN LEVEL: 0 DIFFERENT FILL-ORIGIN LEVEL: 0

PSCL3 TOTAL     ACCESS:    2444360  HIT:    2444144  MISS:        216  HIT %:    99.9912  MISS %: 0.00883667   MPKI: 0.00432
PSCL3 LOAD TRANSLATION ACCESS:    2444360  HIT:    2444144  MISS:        216  HIT %:    99.9912  MISS %: 0.00883667   MPKI: 0.00432
PSCL3 PREFETCH  REQUESTED:          0  ISSUED:          0  USEFUL:          0  USELESS:          0
PSCL3 USEFUL LOAD PREFETCHES:          0 PREFETCH ISSUED TO LOWER LEVEL:          0  ACCURACY: -nan
PSCL3 TIMELY PREFETCHES:          0 LATE PREFETCHES: 0 DROPPED PREFETCHES: 0
PSCL3 PREFETCHES SAME FILL-ORIGIN LEVEL: 0 DIFFERENT FILL-ORIGIN LEVEL: 0

PSCL2 TOTAL     ACCESS:    2444977  HIT:    2224635  MISS:     220342  HIT %:     90.988  MISS %:    9.01203   MPKI: 4.40684
PSCL2 LOAD TRANSLATION ACCESS:    2444977  HIT:    2224635  MISS:     220342  HIT %:     90.988  MISS %:    9.01203   MPKI: 4.40684
PSCL2 PREFETCH  REQUESTED:          0  ISSUED:          0  USEFUL:          0  USELESS:          0
PSCL2 USEFUL LOAD PREFETCHES:          0 PREFETCH ISSUED TO LOWER LEVEL:          0  ACCURACY: -nan
PSCL2 TIMELY PREFETCHES:          0 LATE PREFETCHES: 0 DROPPED PREFETCHES: 0
PSCL2 PREFETCHES SAME FILL-ORIGIN LEVEL: 0 DIFFERENT FILL-ORIGIN LEVEL: 0

LLC TOTAL     ACCESS:     601991  HIT:     259395  MISS:     342596  HIT %:    43.0895  MISS %:    56.9105   MPKI: 6.85192
LLC LOAD      ACCESS:     105374  HIT:      39053  MISS:      66321  HIT %:    37.0613  MISS %:    62.9387   MPKI: 1.32642
LLC RFO       ACCESS:      84598  HIT:      37526  MISS:      47072  HIT %:     44.358  MISS %:     55.642   MPKI: 0.94144
LLC PREFETCH  ACCESS:     257875  HIT:      95111  MISS:     162764  HIT %:    36.8826  MISS %:    63.1174   MPKI: 3.25528
LLC WRITEBACK ACCESS:     138161  HIT:      82920  MISS:      55241  HIT %:    60.0169  MISS %:    39.9831   MPKI: 1.10482
LLC LOAD TRANSLATION ACCESS:      15983  HIT:       4785  MISS:      11198  HIT %:    29.9381  MISS %:    70.0619   MPKI: 0.22396
LLC PREFETCH  REQUESTED:          0  ISSUED:          0  USEFUL:       2533  USELESS:     178388
LLC USEFUL LOAD PREFETCHES:       2533 PREFETCH ISSUED TO LOWER LEVEL:     162764  ACCURACY: 1.55624
LLC TIMELY PREFETCHES:       2533 LATE PREFETCHES: 0 DROPPED PREFETCHES: 0
LLC PREFETCHES SAME FILL-ORIGIN LEVEL: 0 DIFFERENT FILL-ORIGIN LEVEL: 0
LLC AVERAGE MISS LATENCY: 143.901 cycles
LLC RQ	ACCESS:     205955	FORWARD:          0	MERGED:          0	TO_CACHE:     205955
LLC WQ	ACCESS:     138161	FORWARD:          0	MERGED:          0	TO_CACHE:     138161
LLC PQ	ACCESS:     257874	FORWARD:          0	MERGED:          0	TO_CACHE:     257874

LLC Dense regions hint to LLC: 0

RAW hits: 317488
Loads Generated: 9214521
Loads sent to L1D: 8897032
Stores Generated: 4243946
Stores sent to L1D: 4243948
Major fault: 0 Minor fault: 14955
Allocated PAGES: 14955
[Bingo] PHT Access: 94873
[Bingo] PHT Hit PC+Addr: 43811
[Bingo] PHT Hit PC+Offs: 33778
[Bingo] PHT Miss: 17284
[Bingo] Prefetch PC+Addr: 0
[Bingo] Prefetch PC+Offs: 0
[Bingo] Useful PC+Addr: 0
[Bingo] Useful PC+Offs: 0
[Bingo] Useless PC+Addr: 0
[Bingo] Useless PC+Offs: 0
[Bingo] L1 Prefetch per Region: 0
[Bingo] L2 Prefetch per Region: 6.01513
[Bingo] L3 Prefetch per Region: 0
[Bingo] No Prefetch per Region: 25.9849
[Bingo] Number of Voters Mean: 8.97537
[Bingo] Number of Voters SD: 11.7717
PHT read accesses: 916091
PHT write accesses: 50774
AT read accesses: 373735
AT write accesses: 408100
FT read accesses: 177410
FT write accesses: 94873
PS read accesses: 173078
PS write accesses: 77589
PHT tag read accesses: 2179829
PHT tag write accesses: 94585
AT tag read accesses: 17226812
AT tag write accesses: 424513
FT tag read accesses: 13369178
FT tag write accesses: 211557
PS tag read accesses: 10304728
PS tag write accesses: 250354

DRAM Statistics
 CHANNEL 0
 RQ ROW_BUFFER_HIT:     149306  ROW_BUFFER_MISS:     138041
 DBUS_CONGESTED:        145
 WQ ROW_BUFFER_HIT:       6741  ROW_BUFFER_MISS:      43948  FULL:          0

 AVG_CONGESTED_CYCLE: 4
 All warmup complete: 2
Channel 0 Bank busy for read cycles: 0
Channel 0 Bank busy for write cycles: 0
Channel 0
Rank 0
0banks busy for read cycles: 74516446
0banks busy for write cycles: 15415
1banks busy for read cycles: 5497032
1banks busy for write cycles: 2094845
2banks busy for read cycles: 2375340
2banks busy for write cycles: 797121
3banks busy for read cycles: 1072691
3banks busy for write cycles: 421926
4banks busy for read cycles: 658130
4banks busy for write cycles: 256280
5banks busy for read cycles: 367892
5banks busy for write cycles: 168249
6banks busy for read cycles: 287961
6banks busy for write cycles: 119761
7banks busy for read cycles: 329183
7banks busy for write cycles: 97323
8banks busy for read cycles: 784359
8banks busy for write cycles: 276977

CPU 0 Branch Prediction Accuracy: 99.2576% MPKI: 1.4377 Average ROB Occupancy at Mispredict: 31.7815
Branch types
NOT_BRANCH: 0 0%
BRANCH_DIRECT_JUMP: 0 0%
BRANCH_INDIRECT: 0 0%
BRANCH_CONDITIONAL: 0 0%
BRANCH_DIRECT_CALL: 0 0%
BRANCH_INDIRECT_CALL: 0 0%
BRANCH_RETURN: 0 0%
BRANCH_OTHER: 0 0%

DRAM PAGES: 1048576
Allocated PAGES: 14955
