
*** ChampSim Multicore Out-of-Order Simulator ***

Warmup Instructions: 50000000
Simulation Instructions: 50000000
Number of CPUs: 1
LLC sets: 2048
LLC ways: 16
Off-chip DRAM Size: 4096 MB Channels: 1 Width: 64-bit Data Rate: 6400 MT/s
CPU 0 runs ../cloudsuite_traces//streaming_phase5_core0.trace.gz
.gz
NUM_OF_IPS_IN_CRITICAL_IP_TRAINING: 64
NUM_OF_CRITICAL_IP_TRAINING_TABLE_WAYS: 2
NUM_OF_CRITICAL_IP_TRAINING_TABLE_SETS: 32
WOBBLY_CRITICAL_IP_CACHE_SETS: 32
WOBBLY_CRITICAL_IP_CACHE_WAYS: 4
BTB has LRU replacement policy
ITLB has LRU replacement policy
DTLB has LRU replacement policy
STLB has LRU replacement policy
L1I has LRU replacement policy
L1D has LRU replacement policy
Bingo PHT WAYS: 16 and PHT_SIZE: 16384
Initialize SRRIP state for L2C
Initialize DRRIP state for LLC
UNIQUE_ASID[0] = €
UNIQUE_ASID[1] = 
Heartbeat CPU 0 instructions: 10000002 cycles: 3341687 heartbeat IPC: 2.9925 cumulative IPC: 2.9925 (Simulation time: 0 hr 3 min 6 sec) 
Heartbeat CPU 0 instructions: 20000000 cycles: 6709958 heartbeat IPC: 2.96888 cumulative IPC: 2.98064 (Simulation time: 0 hr 6 min 14 sec) 
Heartbeat CPU 0 instructions: 30000003 cycles: 10049527 heartbeat IPC: 2.9944 cumulative IPC: 2.98522 (Simulation time: 0 hr 9 min 15 sec) 
Heartbeat CPU 0 instructions: 40000000 cycles: 13434036 heartbeat IPC: 2.95464 cumulative IPC: 2.97751 (Simulation time: 0 hr 12 min 14 sec) 
Heartbeat CPU 0 instructions: 50000001 cycles: 16817763 heartbeat IPC: 2.95532 cumulative IPC: 2.97305 (Simulation time: 0 hr 15 min 15 sec) 

Warmup complete CPU 0 instructions: 50000001 cycles: 16817763 (Simulation time: 0 hr 15 min 15 sec) 

% increase in all ip prefetch 410.947
% increase in all ip prefetch -2.17398
Heartbeat CPU 0 instructions: 60000001 cycles: 34461944 heartbeat IPC: 0.566759 cumulative IPC: 0.566759 (Simulation time: 0 hr 19 min 34 sec) 
Heartbeat CPU 0 instructions: 70000003 cycles: 52022602 heartbeat IPC: 0.569455 cumulative IPC: 0.568104 (Simulation time: 0 hr 23 min 21 sec) 
Heartbeat CPU 0 instructions: 80000003 cycles: 69497365 heartbeat IPC: 0.572254 cumulative IPC: 0.56948 (Simulation time: 0 hr 27 min 24 sec) 
Heartbeat CPU 0 instructions: 90000000 cycles: 87524012 heartbeat IPC: 0.554734 cumulative IPC: 0.565721 (Simulation time: 0 hr 32 min 5 sec) 
Heartbeat CPU 0 instructions: 100000000 cycles: 105096512 heartbeat IPC: 0.569071 cumulative IPC: 0.566388 (Simulation time: 0 hr 34 min 39 sec) 
Finished CPU 0 instructions: 50000001 cycles: 88278750 cumulative IPC: 0.566388 (Simulation time: 0 hr 34 min 39 sec) 

ChampSim completed all CPUs

Region of Interest Statistics

CPU 0 cumulative IPC: 0.566388 instructions: 50000001 cycles: 88278750

CPU 0 Average Load ROB stall cycles: 6.99504e+06
CPU 0 Fraction of times ROB stalled by Loads: 11.8776
CPU 0 Percentage of Load stall cycles in Total stall cycles: 8.90441e+07
 Total stall cycles: 47721286
 Total load stall cycles: 42492968266841
CPU 0 NUM of IPS identified critical: 0
CPU 0 Num of Load IPs stalling ROB: 2277
Threshold modification factor: -1
Max PIST entries: 64
Min PIST entries: 0
Avg PIST entries: 31.13
Critical IP stalls, total frequency: 0
rob stalling non-critical load ip: 236068 freq: 81
rob stalling non-critical load ip: 236144 freq: 95
rob stalling non-critical load ip: 236148 freq: 29
rob stalling non-critical load ip: 241788 freq: 34
rob stalling non-critical load ip: 241796 freq: 4511
rob stalling non-critical load ip: 241836 freq: 13
rob stalling non-critical load ip: 241972 freq: 36
rob stalling non-critical load ip: 241992 freq: 62
rob stalling non-critical load ip: 241996 freq: 91
rob stalling non-critical load ip: 242000 freq: 42
rob stalling non-critical load ip: 242020 freq: 45
rob stalling non-critical load ip: 242148 freq: 56
rob stalling non-critical load ip: 242156 freq: 108
rob stalling non-critical load ip: 242176 freq: 1253
rob stalling non-critical load ip: 242180 freq: 2826
rob stalling non-critical load ip: 242184 freq: 241
rob stalling non-critical load ip: 242208 freq: 80
rob stalling non-critical load ip: 242224 freq: 53
rob stalling non-critical load ip: 242232 freq: 32
rob stalling non-critical load ip: 245668 freq: 1218
rob stalling non-critical load ip: 245676 freq: 26
rob stalling non-critical load ip: 245732 freq: 30
rob stalling non-critical load ip: 245792 freq: 36
rob stalling non-critical load ip: 245800 freq: 264
rob stalling non-critical load ip: 245816 freq: 4
rob stalling non-critical load ip: 245820 freq: 2
rob stalling non-critical load ip: 245848 freq: 240
rob stalling non-critical load ip: 245860 freq: 26
rob stalling non-critical load ip: 245864 freq: 52
rob stalling non-critical load ip: 245876 freq: 45
rob stalling non-critical load ip: 245880 freq: 55
rob stalling non-critical load ip: 245892 freq: 27
rob stalling non-critical load ip: 246008 freq: 48
rob stalling non-critical load ip: 246168 freq: 89
rob stalling non-critical load ip: 246204 freq: 528
rob stalling non-critical load ip: 246216 freq: 395
rob stalling non-critical load ip: 246244 freq: 2424
rob stalling non-critical load ip: 246256 freq: 7
rob stalling non-critical load ip: 246344 freq: 172
rob stalling non-critical load ip: 246356 freq: 6
rob stalling non-critical load ip: 287024 freq: 38
rob stalling non-critical load ip: 287060 freq: 33
rob stalling non-critical load ip: 287088 freq: 24
rob stalling non-critical load ip: 287108 freq: 35
rob stalling non-critical load ip: 287112 freq: 12
rob stalling non-critical load ip: 287220 freq: 57
rob stalling non-critical load ip: 287244 freq: 23
rob stalling non-critical load ip: 287248 freq: 244
rob stalling non-critical load ip: 287268 freq: 23
rob stalling non-critical load ip: 300124 freq: 11
rob stalling non-critical load ip: 300132 freq: 1
rob stalling non-critical load ip: 300172 freq: 3
rob stalling non-critical load ip: 300836 freq: 59
rob stalling non-critical load ip: 300840 freq: 363
rob stalling non-critical load ip: 300848 freq: 196
rob stalling non-critical load ip: 300912 freq: 340
rob stalling non-critical load ip: 300936 freq: 20
rob stalling non-critical load ip: 300964 freq: 830
rob stalling non-critical load ip: 301524 freq: 11
rob stalling non-critical load ip: 301712 freq: 52
rob stalling non-critical load ip: 301716 freq: 304
rob stalling non-critical load ip: 301720 freq: 36
rob stalling non-critical load ip: 318120 freq: 2
rob stalling non-critical load ip: 318132 freq: 5
rob stalling non-critical load ip: 318636 freq: 5
rob stalling non-critical load ip: 318948 freq: 2
rob stalling non-critical load ip: 319000 freq: 1
rob stalling non-critical load ip: 319220 freq: 1
rob stalling non-critical load ip: 329660 freq: 15
rob stalling non-critical load ip: 329676 freq: 11
rob stalling non-critical load ip: 341868 freq: 1083
rob stalling non-critical load ip: 341884 freq: 9
rob stalling non-critical load ip: 341892 freq: 8
rob stalling non-critical load ip: 341916 freq: 12
rob stalling non-critical load ip: 341940 freq: 18
rob stalling non-critical load ip: 341944 freq: 844
rob stalling non-critical load ip: 342004 freq: 467
rob stalling non-critical load ip: 342068 freq: 23
rob stalling non-critical load ip: 352028 freq: 3
rob stalling non-critical load ip: 352136 freq: 3
rob stalling non-critical load ip: 352920 freq: 17
rob stalling non-critical load ip: 353000 freq: 36
rob stalling non-critical load ip: 353036 freq: 26
rob stalling non-critical load ip: 353040 freq: 2
rob stalling non-critical load ip: 353052 freq: 12
rob stalling non-critical load ip: 353076 freq: 23
rob stalling non-critical load ip: 353216 freq: 21
rob stalling non-critical load ip: 353220 freq: 1653
rob stalling non-critical load ip: 353236 freq: 26
rob stalling non-critical load ip: 353260 freq: 21
rob stalling non-critical load ip: 353312 freq: 179
rob stalling non-critical load ip: 353316 freq: 89
rob stalling non-critical load ip: 353332 freq: 12
rob stalling non-critical load ip: 353356 freq: 19
rob stalling non-critical load ip: 353392 freq: 1820
rob stalling non-critical load ip: 353492 freq: 106
rob stalling non-critical load ip: 353524 freq: 17
rob stalling non-critical load ip: 353540 freq: 32
rob stalling non-critical load ip: 353544 freq: 276
rob stalling non-critical load ip: 353548 freq: 20
rob stalling non-critical load ip: 353564 freq: 254
rob stalling non-critical load ip: 353588 freq: 6
rob stalling non-critical load ip: 353604 freq: 50
rob stalling non-critical load ip: 353636 freq: 80
rob stalling non-critical load ip: 353640 freq: 167
rob stalling non-critical load ip: 353652 freq: 22
rob stalling non-critical load ip: 353696 freq: 24
rob stalling non-critical load ip: 353744 freq: 6
rob stalling non-critical load ip: 353784 freq: 87
rob stalling non-critical load ip: 353788 freq: 182
rob stalling non-critical load ip: 353828 freq: 410
rob stalling non-critical load ip: 353832 freq: 10
rob stalling non-critical load ip: 353880 freq: 15
rob stalling non-critical load ip: 353904 freq: 7
rob stalling non-critical load ip: 353912 freq: 9
rob stalling non-critical load ip: 353948 freq: 77
rob stalling non-critical load ip: 353960 freq: 6
rob stalling non-critical load ip: 354164 freq: 190
rob stalling non-critical load ip: 354176 freq: 12
rob stalling non-critical load ip: 354180 freq: 2
rob stalling non-critical load ip: 354204 freq: 5
rob stalling non-critical load ip: 354212 freq: 9
rob stalling non-critical load ip: 354712 freq: 7
rob stalling non-critical load ip: 354716 freq: 139
rob stalling non-critical load ip: 354728 freq: 17
rob stalling non-critical load ip: 354740 freq: 171
rob stalling non-critical load ip: 354744 freq: 16
rob stalling non-critical load ip: 354752 freq: 7
rob stalling non-critical load ip: 354764 freq: 47
rob stalling non-critical load ip: 354776 freq: 86
rob stalling non-critical load ip: 516668 freq: 112
rob stalling non-critical load ip: 516676 freq: 9
rob stalling non-critical load ip: 516968 freq: 2
rob stalling non-critical load ip: 516976 freq: 1222
rob stalling non-critical load ip: 517352 freq: 40
rob stalling non-critical load ip: 517396 freq: 12
rob stalling non-critical load ip: 517404 freq: 10
rob stalling non-critical load ip: 589036 freq: 4
rob stalling non-critical load ip: 589072 freq: 3
rob stalling non-critical load ip: 589084 freq: 6
rob stalling non-critical load ip: 589120 freq: 10
rob stalling non-critical load ip: 589136 freq: 15
rob stalling non-critical load ip: 589144 freq: 90
rob stalling non-critical load ip: 589156 freq: 14
rob stalling non-critical load ip: 589180 freq: 15
rob stalling non-critical load ip: 589212 freq: 25
rob stalling non-critical load ip: 589228 freq: 2
rob stalling non-critical load ip: 589232 freq: 2
rob stalling non-critical load ip: 589236 freq: 206
rob stalling non-critical load ip: 589240 freq: 109
rob stalling non-critical load ip: 589252 freq: 158
rob stalling non-critical load ip: 589284 freq: 134
rob stalling non-critical load ip: 589288 freq: 42
rob stalling non-critical load ip: 589392 freq: 11
rob stalling non-critical load ip: 589908 freq: 11
rob stalling non-critical load ip: 589912 freq: 9
rob stalling non-critical load ip: 589916 freq: 20
rob stalling non-critical load ip: 589932 freq: 22
rob stalling non-critical load ip: 589948 freq: 43
rob stalling non-critical load ip: 589960 freq: 32
rob stalling non-critical load ip: 589964 freq: 6
rob stalling non-critical load ip: 590000 freq: 49
rob stalling non-critical load ip: 590012 freq: 52
rob stalling non-critical load ip: 590036 freq: 48
rob stalling non-critical load ip: 590040 freq: 49
rob stalling non-critical load ip: 590064 freq: 21
rob stalling non-critical load ip: 590128 freq: 9
rob stalling non-critical load ip: 590136 freq: 6
rob stalling non-critical load ip: 590148 freq: 18
rob stalling non-critical load ip: 590200 freq: 3
rob stalling non-critical load ip: 590216 freq: 8
rob stalling non-critical load ip: 590220 freq: 2
rob stalling non-critical load ip: 590224 freq: 1
rob stalling non-critical load ip: 590352 freq: 5
rob stalling non-critical load ip: 590956 freq: 1
rob stalling non-critical load ip: 591084 freq: 3
rob stalling non-critical load ip: 722816 freq: 8
rob stalling non-critical load ip: 722832 freq: 22
rob stalling non-critical load ip: 722892 freq: 17
rob stalling non-critical load ip: 722896 freq: 100
rob stalling non-critical load ip: 722920 freq: 16
rob stalling non-critical load ip: 846400 freq: 2
rob stalling non-critical load ip: 846404 freq: 9
rob stalling non-critical load ip: 852948 freq: 19
rob stalling non-critical load ip: 852988 freq: 12
rob stalling non-critical load ip: 855704 freq: 2
rob stalling non-critical load ip: 855720 freq: 1
rob stalling non-critical load ip: 855724 freq: 4
rob stalling non-critical load ip: 856100 freq: 118
rob stalling non-critical load ip: 856148 freq: 27
rob stalling non-critical load ip: 856176 freq: 5
rob stalling non-critical load ip: 856428 freq: 5
rob stalling non-critical load ip: 857344 freq: 2762
rob stalling non-critical load ip: 857376 freq: 1
rob stalling non-critical load ip: 857508 freq: 3462
rob stalling non-critical load ip: 857592 freq: 24
rob stalling non-critical load ip: 857616 freq: 601
rob stalling non-critical load ip: 857628 freq: 26
rob stalling non-critical load ip: 857640 freq: 3
rob stalling non-critical load ip: 857680 freq: 638
rob stalling non-critical load ip: 857820 freq: 65
rob stalling non-critical load ip: 857892 freq: 54
rob stalling non-critical load ip: 857928 freq: 33
rob stalling non-critical load ip: 857976 freq: 3
rob stalling non-critical load ip: 858072 freq: 1
rob stalling non-critical load ip: 858172 freq: 9
rob stalling non-critical load ip: 858176 freq: 14
rob stalling non-critical load ip: 858192 freq: 2
rob stalling non-critical load ip: 858380 freq: 655
rob stalling non-critical load ip: 858396 freq: 26
rob stalling non-critical load ip: 858416 freq: 27
rob stalling non-critical load ip: 858432 freq: 34
rob stalling non-critical load ip: 858436 freq: 11
rob stalling non-critical load ip: 858440 freq: 20
rob stalling non-critical load ip: 858464 freq: 47
rob stalling non-critical load ip: 858468 freq: 136
rob stalling non-critical load ip: 858552 freq: 43
rob stalling non-critical load ip: 858556 freq: 63
rob stalling non-critical load ip: 858620 freq: 4510
rob stalling non-critical load ip: 858624 freq: 16
rob stalling non-critical load ip: 858696 freq: 4527
rob stalling non-critical load ip: 858868 freq: 6
rob stalling non-critical load ip: 858880 freq: 107
rob stalling non-critical load ip: 858896 freq: 32
rob stalling non-critical load ip: 858900 freq: 169
rob stalling non-critical load ip: 858904 freq: 50
rob stalling non-critical load ip: 858912 freq: 47
rob stalling non-critical load ip: 858916 freq: 159
rob stalling non-critical load ip: 858940 freq: 3
rob stalling non-critical load ip: 858964 freq: 36
rob stalling non-critical load ip: 858984 freq: 81
rob stalling non-critical load ip: 859076 freq: 759
rob stalling non-critical load ip: 859088 freq: 537
rob stalling non-critical load ip: 859092 freq: 14
rob stalling non-critical load ip: 859100 freq: 16
rob stalling non-critical load ip: 859316 freq: 89
rob stalling non-critical load ip: 859328 freq: 17
rob stalling non-critical load ip: 859632 freq: 43
rob stalling non-critical load ip: 859940 freq: 565
rob stalling non-critical load ip: 859960 freq: 49
rob stalling non-critical load ip: 859976 freq: 37
rob stalling non-critical load ip: 860000 freq: 907
rob stalling non-critical load ip: 860132 freq: 2368
rob stalling non-critical load ip: 860144 freq: 21
rob stalling non-critical load ip: 860636 freq: 8
rob stalling non-critical load ip: 860708 freq: 21
rob stalling non-critical load ip: 861004 freq: 1
rob stalling non-critical load ip: 861084 freq: 1
rob stalling non-critical load ip: 861088 freq: 1
rob stalling non-critical load ip: 862156 freq: 3169
rob stalling non-critical load ip: 862192 freq: 775
rob stalling non-critical load ip: 862232 freq: 1560
rob stalling non-critical load ip: 862360 freq: 949
rob stalling non-critical load ip: 862384 freq: 267
rob stalling non-critical load ip: 862492 freq: 150
rob stalling non-critical load ip: 862504 freq: 14
rob stalling non-critical load ip: 862880 freq: 112
rob stalling non-critical load ip: 862896 freq: 5
rob stalling non-critical load ip: 862904 freq: 19
rob stalling non-critical load ip: 862916 freq: 7
rob stalling non-critical load ip: 863072 freq: 17
rob stalling non-critical load ip: 863124 freq: 99
rob stalling non-critical load ip: 863132 freq: 14
rob stalling non-critical load ip: 863136 freq: 243
rob stalling non-critical load ip: 863228 freq: 80
rob stalling non-critical load ip: 863260 freq: 81
rob stalling non-critical load ip: 863292 freq: 30
rob stalling non-critical load ip: 867796 freq: 5
rob stalling non-critical load ip: 881188 freq: 5
rob stalling non-critical load ip: 881224 freq: 2
rob stalling non-critical load ip: 881372 freq: 1
rob stalling non-critical load ip: 881736 freq: 4
rob stalling non-critical load ip: 888332 freq: 44
rob stalling non-critical load ip: 894016 freq: 10
rob stalling non-critical load ip: 906644 freq: 1
rob stalling non-critical load ip: 906876 freq: 8
rob stalling non-critical load ip: 910004 freq: 33
rob stalling non-critical load ip: 910088 freq: 4431
rob stalling non-critical load ip: 914940 freq: 36
rob stalling non-critical load ip: 914968 freq: 129
rob stalling non-critical load ip: 915504 freq: 236
rob stalling non-critical load ip: 915516 freq: 2429
rob stalling non-critical load ip: 915560 freq: 1725
rob stalling non-critical load ip: 919464 freq: 45
rob stalling non-critical load ip: 919532 freq: 25
rob stalling non-critical load ip: 919544 freq: 4
rob stalling non-critical load ip: 919548 freq: 6
rob stalling non-critical load ip: 919560 freq: 23
rob stalling non-critical load ip: 919624 freq: 40
rob stalling non-critical load ip: 919640 freq: 1
rob stalling non-critical load ip: 919664 freq: 31
rob stalling non-critical load ip: 919668 freq: 46
rob stalling non-critical load ip: 919968 freq: 1877
rob stalling non-critical load ip: 919976 freq: 954
rob stalling non-critical load ip: 919980 freq: 16
rob stalling non-critical load ip: 920024 freq: 470
rob stalling non-critical load ip: 920040 freq: 36
rob stalling non-critical load ip: 920076 freq: 248
rob stalling non-critical load ip: 920108 freq: 25
rob stalling non-critical load ip: 920112 freq: 127
rob stalling non-critical load ip: 920148 freq: 85
rob stalling non-critical load ip: 920204 freq: 33
rob stalling non-critical load ip: 920216 freq: 28
rob stalling non-critical load ip: 920248 freq: 30
rob stalling non-critical load ip: 920320 freq: 15
rob stalling non-critical load ip: 920324 freq: 30
rob stalling non-critical load ip: 920344 freq: 17
rob stalling non-critical load ip: 920412 freq: 17
rob stalling non-critical load ip: 920440 freq: 35
rob stalling non-critical load ip: 920444 freq: 5
rob stalling non-critical load ip: 920504 freq: 1
rob stalling non-critical load ip: 920508 freq: 124
rob stalling non-critical load ip: 920512 freq: 4
rob stalling non-critical load ip: 920620 freq: 292
rob stalling non-critical load ip: 920632 freq: 3
rob stalling non-critical load ip: 920732 freq: 111
rob stalling non-critical load ip: 920764 freq: 35
rob stalling non-critical load ip: 920856 freq: 39
rob stalling non-critical load ip: 921224 freq: 12
rob stalling non-critical load ip: 921276 freq: 204
rob stalling non-critical load ip: 921300 freq: 2313
rob stalling non-critical load ip: 921336 freq: 14
rob stalling non-critical load ip: 921400 freq: 469
rob stalling non-critical load ip: 921408 freq: 48
rob stalling non-critical load ip: 921456 freq: 357
rob stalling non-critical load ip: 921460 freq: 386
rob stalling non-critical load ip: 921480 freq: 8
rob stalling non-critical load ip: 921496 freq: 14
rob stalling non-critical load ip: 921500 freq: 1
rob stalling non-critical load ip: 921520 freq: 468
rob stalling non-critical load ip: 921544 freq: 478
rob stalling non-critical load ip: 921568 freq: 22
rob stalling non-critical load ip: 921764 freq: 34
rob stalling non-critical load ip: 921768 freq: 2144
rob stalling non-critical load ip: 921784 freq: 157
rob stalling non-critical load ip: 921804 freq: 22
rob stalling non-critical load ip: 921904 freq: 113
rob stalling non-critical load ip: 921920 freq: 18
rob stalling non-critical load ip: 921924 freq: 656
rob stalling non-critical load ip: 921948 freq: 70
rob stalling non-critical load ip: 921952 freq: 231
rob stalling non-critical load ip: 921968 freq: 27
rob stalling non-critical load ip: 922008 freq: 3678
rob stalling non-critical load ip: 922016 freq: 12
rob stalling non-critical load ip: 922500 freq: 19
rob stalling non-critical load ip: 922520 freq: 24
rob stalling non-critical load ip: 922544 freq: 29
rob stalling non-critical load ip: 922548 freq: 2758
rob stalling non-critical load ip: 922596 freq: 20
rob stalling non-critical load ip: 922612 freq: 23
rob stalling non-critical load ip: 922616 freq: 54
rob stalling non-critical load ip: 922624 freq: 8
rob stalling non-critical load ip: 922644 freq: 18
rob stalling non-critical load ip: 922648 freq: 292
rob stalling non-critical load ip: 922652 freq: 11
rob stalling non-critical load ip: 922672 freq: 45
rob stalling non-critical load ip: 922812 freq: 512
rob stalling non-critical load ip: 922868 freq: 15
rob stalling non-critical load ip: 922888 freq: 704
rob stalling non-critical load ip: 922924 freq: 39
rob stalling non-critical load ip: 923060 freq: 1830
rob stalling non-critical load ip: 923064 freq: 1811
rob stalling non-critical load ip: 923076 freq: 105
rob stalling non-critical load ip: 923080 freq: 2071
rob stalling non-critical load ip: 923088 freq: 42
rob stalling non-critical load ip: 923096 freq: 20
rob stalling non-critical load ip: 923116 freq: 10
rob stalling non-critical load ip: 923816 freq: 81
rob stalling non-critical load ip: 923824 freq: 8
rob stalling non-critical load ip: 923832 freq: 10
rob stalling non-critical load ip: 930780 freq: 2170
rob stalling non-critical load ip: 930796 freq: 23
rob stalling non-critical load ip: 930828 freq: 21
rob stalling non-critical load ip: 930832 freq: 4
rob stalling non-critical load ip: 930840 freq: 2
rob stalling non-critical load ip: 930860 freq: 44
rob stalling non-critical load ip: 930864 freq: 4
rob stalling non-critical load ip: 931104 freq: 53
rob stalling non-critical load ip: 931120 freq: 7
rob stalling non-critical load ip: 931136 freq: 4
rob stalling non-critical load ip: 931172 freq: 83
rob stalling non-critical load ip: 931192 freq: 29
rob stalling non-critical load ip: 931196 freq: 7
rob stalling non-critical load ip: 931200 freq: 41
rob stalling non-critical load ip: 931224 freq: 46
rob stalling non-critical load ip: 931228 freq: 3
rob stalling non-critical load ip: 931308 freq: 32
rob stalling non-critical load ip: 931320 freq: 344
rob stalling non-critical load ip: 931372 freq: 5
rob stalling non-critical load ip: 931380 freq: 175
rob stalling non-critical load ip: 931412 freq: 45
rob stalling non-critical load ip: 931428 freq: 2
rob stalling non-critical load ip: 931436 freq: 74
rob stalling non-critical load ip: 931852 freq: 3
rob stalling non-critical load ip: 931896 freq: 25
rob stalling non-critical load ip: 931924 freq: 17
rob stalling non-critical load ip: 931940 freq: 32
rob stalling non-critical load ip: 931964 freq: 43
rob stalling non-critical load ip: 931968 freq: 143
rob stalling non-critical load ip: 932004 freq: 804
rob stalling non-critical load ip: 932012 freq: 14
rob stalling non-critical load ip: 932044 freq: 127
rob stalling non-critical load ip: 932048 freq: 2
rob stalling non-critical load ip: 932056 freq: 39
rob stalling non-critical load ip: 932064 freq: 145
rob stalling non-critical load ip: 932072 freq: 521
rob stalling non-critical load ip: 932096 freq: 28
rob stalling non-critical load ip: 932124 freq: 17
rob stalling non-critical load ip: 938528 freq: 182
rob stalling non-critical load ip: 938540 freq: 50
rob stalling non-critical load ip: 938556 freq: 66
rob stalling non-critical load ip: 938612 freq: 158
rob stalling non-critical load ip: 938616 freq: 60
rob stalling non-critical load ip: 938644 freq: 14
rob stalling non-critical load ip: 938660 freq: 24
rob stalling non-critical load ip: 938668 freq: 54
rob stalling non-critical load ip: 938692 freq: 3
rob stalling non-critical load ip: 938708 freq: 7
rob stalling non-critical load ip: 938720 freq: 1
rob stalling non-critical load ip: 938724 freq: 15
rob stalling non-critical load ip: 938736 freq: 3
rob stalling non-critical load ip: 938756 freq: 72
rob stalling non-critical load ip: 938772 freq: 3
rob stalling non-critical load ip: 938796 freq: 1
rob stalling non-critical load ip: 938860 freq: 33
rob stalling non-critical load ip: 938912 freq: 45
rob stalling non-critical load ip: 938928 freq: 19
rob stalling non-critical load ip: 939012 freq: 10
rob stalling non-critical load ip: 939192 freq: 7
rob stalling non-critical load ip: 939204 freq: 52
rob stalling non-critical load ip: 944504 freq: 62
rob stalling non-critical load ip: 944536 freq: 70
rob stalling non-critical load ip: 944544 freq: 67
rob stalling non-critical load ip: 945012 freq: 21
rob stalling non-critical load ip: 945032 freq: 15
rob stalling non-critical load ip: 952748 freq: 402
rob stalling non-critical load ip: 952780 freq: 499
rob stalling non-critical load ip: 952796 freq: 143
rob stalling non-critical load ip: 952816 freq: 1283
rob stalling non-critical load ip: 952856 freq: 25
rob stalling non-critical load ip: 952900 freq: 501
rob stalling non-critical load ip: 952916 freq: 500
rob stalling non-critical load ip: 952920 freq: 131
rob stalling non-critical load ip: 952932 freq: 13
rob stalling non-critical load ip: 952968 freq: 88
rob stalling non-critical load ip: 952984 freq: 42
rob stalling non-critical load ip: 953040 freq: 79
rob stalling non-critical load ip: 953092 freq: 133
rob stalling non-critical load ip: 953116 freq: 2
rob stalling non-critical load ip: 953128 freq: 10
rob stalling non-critical load ip: 953140 freq: 33
rob stalling non-critical load ip: 953144 freq: 33
rob stalling non-critical load ip: 953164 freq: 49
rob stalling non-critical load ip: 953196 freq: 29
rob stalling non-critical load ip: 953208 freq: 1
rob stalling non-critical load ip: 953228 freq: 107
rob stalling non-critical load ip: 953336 freq: 207
rob stalling non-critical load ip: 953472 freq: 44
rob stalling non-critical load ip: 956308 freq: 119
rob stalling non-critical load ip: 956332 freq: 24
rob stalling non-critical load ip: 956340 freq: 24
rob stalling non-critical load ip: 959708 freq: 85
rob stalling non-critical load ip: 959720 freq: 14
rob stalling non-critical load ip: 959724 freq: 3
rob stalling non-critical load ip: 959740 freq: 4
rob stalling non-critical load ip: 959744 freq: 3
rob stalling non-critical load ip: 959768 freq: 4
rob stalling non-critical load ip: 959812 freq: 11
rob stalling non-critical load ip: 959832 freq: 2
rob stalling non-critical load ip: 959864 freq: 15
rob stalling non-critical load ip: 959888 freq: 19
rob stalling non-critical load ip: 959976 freq: 54
rob stalling non-critical load ip: 964560 freq: 3
rob stalling non-critical load ip: 1029576 freq: 2628
rob stalling non-critical load ip: 1029596 freq: 475
rob stalling non-critical load ip: 1029612 freq: 22
rob stalling non-critical load ip: 1029628 freq: 476
rob stalling non-critical load ip: 1029652 freq: 30
rob stalling non-critical load ip: 1029672 freq: 307
rob stalling non-critical load ip: 1029684 freq: 13
rob stalling non-critical load ip: 1029688 freq: 8
rob stalling non-critical load ip: 1029720 freq: 104
rob stalling non-critical load ip: 1029740 freq: 522
rob stalling non-critical load ip: 1029776 freq: 739
rob stalling non-critical load ip: 1029812 freq: 23
rob stalling non-critical load ip: 1029816 freq: 35
rob stalling non-critical load ip: 1029832 freq: 37
rob stalling non-critical load ip: 1029844 freq: 33
rob stalling non-critical load ip: 1029980 freq: 29
rob stalling non-critical load ip: 1029996 freq: 49
rob stalling non-critical load ip: 1030008 freq: 42
rob stalling non-critical load ip: 1030128 freq: 95
rob stalling non-critical load ip: 1030144 freq: 2702
rob stalling non-critical load ip: 1030160 freq: 109
rob stalling non-critical load ip: 1031328 freq: 19
rob stalling non-critical load ip: 1031356 freq: 56
rob stalling non-critical load ip: 1031360 freq: 570
rob stalling non-critical load ip: 1032164 freq: 12
rob stalling non-critical load ip: 1032168 freq: 2
rob stalling non-critical load ip: 1032188 freq: 46
rob stalling non-critical load ip: 1032208 freq: 35
rob stalling non-critical load ip: 1032212 freq: 25
rob stalling non-critical load ip: 1032224 freq: 17
rob stalling non-critical load ip: 1032240 freq: 79
rob stalling non-critical load ip: 16780456 freq: 1083
rob stalling non-critical load ip: 16780584 freq: 1085
rob stalling non-critical load ip: 16783496 freq: 2373
rob stalling non-critical load ip: 16783504 freq: 335
rob stalling non-critical load ip: 16783512 freq: 155
rob stalling non-critical load ip: 16783524 freq: 63
rob stalling non-critical load ip: 16783528 freq: 51
rob stalling non-critical load ip: 16783532 freq: 18289
rob stalling non-critical load ip: 16783536 freq: 65
rob stalling non-critical load ip: 16783544 freq: 102
rob stalling non-critical load ip: 16783548 freq: 2876
rob stalling non-critical load ip: 16783552 freq: 2760
rob stalling non-critical load ip: 16783556 freq: 3
rob stalling non-critical load ip: 16783564 freq: 7135
rob stalling non-critical load ip: 16783568 freq: 35
rob stalling non-critical load ip: 16783572 freq: 6107
rob stalling non-critical load ip: 16783576 freq: 10
rob stalling non-critical load ip: 16783752 freq: 420
rob stalling non-critical load ip: 16783760 freq: 52
rob stalling non-critical load ip: 16783768 freq: 47
rob stalling non-critical load ip: 16783780 freq: 9
rob stalling non-critical load ip: 16783784 freq: 4
rob stalling non-critical load ip: 16783788 freq: 1635
rob stalling non-critical load ip: 16783792 freq: 15
rob stalling non-critical load ip: 16783804 freq: 78
rob stalling non-critical load ip: 16783808 freq: 2459
rob stalling non-critical load ip: 16783820 freq: 171
rob stalling non-critical load ip: 16783828 freq: 132
rob stalling non-critical load ip: 16784128 freq: 7556
rob stalling non-critical load ip: 16784136 freq: 473
rob stalling non-critical load ip: 16784144 freq: 74
rob stalling non-critical load ip: 16784152 freq: 2813
rob stalling non-critical load ip: 16784160 freq: 1929
rob stalling non-critical load ip: 16784164 freq: 3
rob stalling non-critical load ip: 16784168 freq: 3140
rob stalling non-critical load ip: 16784172 freq: 1
rob stalling non-critical load ip: 16784176 freq: 457
rob stalling non-critical load ip: 16784184 freq: 59
rob stalling non-critical load ip: 16796968 freq: 1
rob stalling non-critical load ip: 16800136 freq: 13
rob stalling non-critical load ip: 16800184 freq: 1
rob stalling non-critical load ip: 16800512 freq: 5
rob stalling non-critical load ip: 16800520 freq: 134
rob stalling non-critical load ip: 16800536 freq: 104
rob stalling non-critical load ip: 16800552 freq: 8
rob stalling non-critical load ip: 16803568 freq: 5
rob stalling non-critical load ip: 16806692 freq: 4
rob stalling non-critical load ip: 16806724 freq: 14
rob stalling non-critical load ip: 16807120 freq: 2273
rob stalling non-critical load ip: 16807124 freq: 32
rob stalling non-critical load ip: 16807128 freq: 6
rob stalling non-critical load ip: 16807136 freq: 13
rob stalling non-critical load ip: 16807188 freq: 29
rob stalling non-critical load ip: 16807200 freq: 40
rob stalling non-critical load ip: 16807208 freq: 9
rob stalling non-critical load ip: 16807216 freq: 8
rob stalling non-critical load ip: 16807220 freq: 385
rob stalling non-critical load ip: 16807228 freq: 81
rob stalling non-critical load ip: 16807232 freq: 1
rob stalling non-critical load ip: 16807244 freq: 15
rob stalling non-critical load ip: 16807252 freq: 5
rob stalling non-critical load ip: 16807256 freq: 5
rob stalling non-critical load ip: 16807268 freq: 148
rob stalling non-critical load ip: 16807344 freq: 301
rob stalling non-critical load ip: 16807352 freq: 80
rob stalling non-critical load ip: 16807392 freq: 2744
rob stalling non-critical load ip: 16807812 freq: 11
rob stalling non-critical load ip: 16807816 freq: 53
rob stalling non-critical load ip: 16807828 freq: 3
rob stalling non-critical load ip: 16807864 freq: 247
rob stalling non-critical load ip: 16807908 freq: 7
rob stalling non-critical load ip: 16807956 freq: 99
rob stalling non-critical load ip: 16807964 freq: 183
rob stalling non-critical load ip: 16807980 freq: 1
rob stalling non-critical load ip: 16807984 freq: 132
rob stalling non-critical load ip: 16807996 freq: 5
rob stalling non-critical load ip: 16808000 freq: 48
rob stalling non-critical load ip: 16808024 freq: 14
rob stalling non-critical load ip: 16808028 freq: 86
rob stalling non-critical load ip: 16808052 freq: 4
rob stalling non-critical load ip: 16809368 freq: 1
rob stalling non-critical load ip: 16809376 freq: 7
rob stalling non-critical load ip: 16809664 freq: 30
rob stalling non-critical load ip: 16812528 freq: 55
rob stalling non-critical load ip: 16812716 freq: 1043
rob stalling non-critical load ip: 16813444 freq: 33
rob stalling non-critical load ip: 16813580 freq: 2
rob stalling non-critical load ip: 16813584 freq: 12
rob stalling non-critical load ip: 16813612 freq: 5
rob stalling non-critical load ip: 16813680 freq: 28
rob stalling non-critical load ip: 16813696 freq: 5
rob stalling non-critical load ip: 16813704 freq: 22
rob stalling non-critical load ip: 16813744 freq: 1
rob stalling non-critical load ip: 16813760 freq: 18
rob stalling non-critical load ip: 16813800 freq: 3
rob stalling non-critical load ip: 16813820 freq: 3
rob stalling non-critical load ip: 16815252 freq: 19
rob stalling non-critical load ip: 16815284 freq: 2
rob stalling non-critical load ip: 16815308 freq: 6
rob stalling non-critical load ip: 16815860 freq: 5
rob stalling non-critical load ip: 16817700 freq: 84
rob stalling non-critical load ip: 16817756 freq: 24
rob stalling non-critical load ip: 16817764 freq: 19
rob stalling non-critical load ip: 16817820 freq: 267
rob stalling non-critical load ip: 16817836 freq: 16
rob stalling non-critical load ip: 16817844 freq: 353
rob stalling non-critical load ip: 16817884 freq: 13
rob stalling non-critical load ip: 16817900 freq: 396
rob stalling non-critical load ip: 16817940 freq: 2
rob stalling non-critical load ip: 16817960 freq: 21
rob stalling non-critical load ip: 16819192 freq: 5
rob stalling non-critical load ip: 16819204 freq: 1
rob stalling non-critical load ip: 16820524 freq: 12
rob stalling non-critical load ip: 16820656 freq: 10
rob stalling non-critical load ip: 16820672 freq: 30
rob stalling non-critical load ip: 16820676 freq: 12
rob stalling non-critical load ip: 16820916 freq: 1
rob stalling non-critical load ip: 16820956 freq: 6
rob stalling non-critical load ip: 16820996 freq: 13
rob stalling non-critical load ip: 16821244 freq: 4
rob stalling non-critical load ip: 16821280 freq: 5
rob stalling non-critical load ip: 16821296 freq: 4
rob stalling non-critical load ip: 16821308 freq: 8
rob stalling non-critical load ip: 16821340 freq: 27
rob stalling non-critical load ip: 16821452 freq: 9
rob stalling non-critical load ip: 16821600 freq: 3
rob stalling non-critical load ip: 16821664 freq: 2
rob stalling non-critical load ip: 16821732 freq: 14
rob stalling non-critical load ip: 16821912 freq: 10
rob stalling non-critical load ip: 16821924 freq: 2
rob stalling non-critical load ip: 16821980 freq: 4
rob stalling non-critical load ip: 16822004 freq: 18
rob stalling non-critical load ip: 16822020 freq: 1
rob stalling non-critical load ip: 16822116 freq: 3
rob stalling non-critical load ip: 16822276 freq: 13
rob stalling non-critical load ip: 16822500 freq: 239
rob stalling non-critical load ip: 16822504 freq: 2
rob stalling non-critical load ip: 16822668 freq: 23
rob stalling non-critical load ip: 16822788 freq: 9
rob stalling non-critical load ip: 16822888 freq: 10
rob stalling non-critical load ip: 16822900 freq: 4
rob stalling non-critical load ip: 16823128 freq: 27
rob stalling non-critical load ip: 16823132 freq: 4
rob stalling non-critical load ip: 16823192 freq: 13
rob stalling non-critical load ip: 16823220 freq: 13
rob stalling non-critical load ip: 16823688 freq: 4
rob stalling non-critical load ip: 16823692 freq: 172
rob stalling non-critical load ip: 16823808 freq: 1
rob stalling non-critical load ip: 16823852 freq: 12
rob stalling non-critical load ip: 16827588 freq: 1
rob stalling non-critical load ip: 16827980 freq: 1
rob stalling non-critical load ip: 16844832 freq: 81
rob stalling non-critical load ip: 16844852 freq: 12
rob stalling non-critical load ip: 16844864 freq: 5
rob stalling non-critical load ip: 16845036 freq: 35
rob stalling non-critical load ip: 16845056 freq: 16
rob stalling non-critical load ip: 16845064 freq: 14
rob stalling non-critical load ip: 16845068 freq: 15
rob stalling non-critical load ip: 16845328 freq: 12
rob stalling non-critical load ip: 16851080 freq: 1790
rob stalling non-critical load ip: 16851116 freq: 4
rob stalling non-critical load ip: 16851160 freq: 418
rob stalling non-critical load ip: 16851208 freq: 119
rob stalling non-critical load ip: 16851340 freq: 560
rob stalling non-critical load ip: 16851388 freq: 4252
rob stalling non-critical load ip: 16851436 freq: 2303
rob stalling non-critical load ip: 16851456 freq: 12
rob stalling non-critical load ip: 16851464 freq: 5
rob stalling non-critical load ip: 16851472 freq: 112
rob stalling non-critical load ip: 16851552 freq: 39327
rob stalling non-critical load ip: 16851564 freq: 253
rob stalling non-critical load ip: 16851576 freq: 951
rob stalling non-critical load ip: 16851588 freq: 35599
rob stalling non-critical load ip: 16851600 freq: 346
rob stalling non-critical load ip: 16851612 freq: 2607
rob stalling non-critical load ip: 16851624 freq: 274
rob stalling non-critical load ip: 16851632 freq: 864
rob stalling non-critical load ip: 16851652 freq: 36143
rob stalling non-critical load ip: 16851728 freq: 642
rob stalling non-critical load ip: 16851776 freq: 13
rob stalling non-critical load ip: 16851796 freq: 18
rob stalling non-critical load ip: 16891612 freq: 107
rob stalling non-critical load ip: 16891620 freq: 97
rob stalling non-critical load ip: 16891628 freq: 86
rob stalling non-critical load ip: 16891636 freq: 73
rob stalling non-critical load ip: 16891648 freq: 2
rob stalling non-critical load ip: 16892324 freq: 2
rob stalling non-critical load ip: 16898936 freq: 3
rob stalling non-critical load ip: 16899136 freq: 1
rob stalling non-critical load ip: 16899252 freq: 2
rob stalling non-critical load ip: 16900600 freq: 3
rob stalling non-critical load ip: 16902228 freq: 6
rob stalling non-critical load ip: 16902260 freq: 8
rob stalling non-critical load ip: 16902268 freq: 7
rob stalling non-critical load ip: 16902320 freq: 6
rob stalling non-critical load ip: 16902380 freq: 31
rob stalling non-critical load ip: 16902392 freq: 1
rob stalling non-critical load ip: 16902396 freq: 299
rob stalling non-critical load ip: 16903028 freq: 108
rob stalling non-critical load ip: 16908636 freq: 2
rob stalling non-critical load ip: 16917068 freq: 1188
rob stalling non-critical load ip: 16917076 freq: 18
rob stalling non-critical load ip: 16917116 freq: 57
rob stalling non-critical load ip: 16917124 freq: 70
rob stalling non-critical load ip: 16917760 freq: 89
rob stalling non-critical load ip: 16917772 freq: 70
rob stalling non-critical load ip: 16977328 freq: 6
rob stalling non-critical load ip: 16977348 freq: 1
rob stalling non-critical load ip: 16977404 freq: 8
rob stalling non-critical load ip: 16977424 freq: 5
rob stalling non-critical load ip: 16977480 freq: 6
rob stalling non-critical load ip: 16981196 freq: 6
rob stalling non-critical load ip: 17022708 freq: 22
rob stalling non-critical load ip: 17022764 freq: 2
rob stalling non-critical load ip: 17077560 freq: 57
rob stalling non-critical load ip: 17077572 freq: 326
rob stalling non-critical load ip: 17077640 freq: 7
rob stalling non-critical load ip: 17077644 freq: 13
rob stalling non-critical load ip: 17077668 freq: 6
rob stalling non-critical load ip: 17077684 freq: 6
rob stalling non-critical load ip: 17077688 freq: 18
rob stalling non-critical load ip: 17077812 freq: 11
rob stalling non-critical load ip: 17077916 freq: 34
rob stalling non-critical load ip: 17077968 freq: 9
rob stalling non-critical load ip: 17078012 freq: 7
rob stalling non-critical load ip: 17078020 freq: 4
rob stalling non-critical load ip: 17078036 freq: 2
rob stalling non-critical load ip: 17078040 freq: 10
rob stalling non-critical load ip: 17078080 freq: 9
rob stalling non-critical load ip: 17078088 freq: 4
rob stalling non-critical load ip: 17078100 freq: 22
rob stalling non-critical load ip: 17078104 freq: 31
rob stalling non-critical load ip: 17078144 freq: 5
rob stalling non-critical load ip: 17078156 freq: 5
rob stalling non-critical load ip: 17078228 freq: 55
rob stalling non-critical load ip: 17078240 freq: 1
rob stalling non-critical load ip: 17078252 freq: 7
rob stalling non-critical load ip: 17079552 freq: 12
rob stalling non-critical load ip: 17079616 freq: 5
rob stalling non-critical load ip: 17079680 freq: 3
rob stalling non-critical load ip: 17079744 freq: 19
rob stalling non-critical load ip: 17080064 freq: 7
rob stalling non-critical load ip: 17080100 freq: 7
rob stalling non-critical load ip: 17080388 freq: 2
rob stalling non-critical load ip: 17084128 freq: 303
rob stalling non-critical load ip: 17084160 freq: 20
rob stalling non-critical load ip: 17084192 freq: 8
rob stalling non-critical load ip: 17084300 freq: 173
rob stalling non-critical load ip: 17084332 freq: 1547
rob stalling non-critical load ip: 17084340 freq: 114
rob stalling non-critical load ip: 17084388 freq: 1165
rob stalling non-critical load ip: 17084424 freq: 21
rob stalling non-critical load ip: 17084544 freq: 5159
rob stalling non-critical load ip: 17084576 freq: 5
rob stalling non-critical load ip: 17084592 freq: 107
rob stalling non-critical load ip: 17084596 freq: 29
rob stalling non-critical load ip: 17084652 freq: 106
rob stalling non-critical load ip: 17084656 freq: 236
rob stalling non-critical load ip: 17084752 freq: 50
rob stalling non-critical load ip: 17084772 freq: 15
rob stalling non-critical load ip: 17084780 freq: 164
rob stalling non-critical load ip: 17084836 freq: 8
rob stalling non-critical load ip: 17087300 freq: 58
rob stalling non-critical load ip: 17087304 freq: 2
rob stalling non-critical load ip: 17087348 freq: 12
rob stalling non-critical load ip: 17089924 freq: 16
rob stalling non-critical load ip: 17089932 freq: 6
rob stalling non-critical load ip: 17089968 freq: 6
rob stalling non-critical load ip: 17089988 freq: 2149
rob stalling non-critical load ip: 17090008 freq: 26
rob stalling non-critical load ip: 17090036 freq: 28
rob stalling non-critical load ip: 17090060 freq: 52
rob stalling non-critical load ip: 17090136 freq: 36
rob stalling non-critical load ip: 17090192 freq: 54
rob stalling non-critical load ip: 17090196 freq: 143
rob stalling non-critical load ip: 17105460 freq: 310
rob stalling non-critical load ip: 17105536 freq: 11
rob stalling non-critical load ip: 17105552 freq: 46
rob stalling non-critical load ip: 17109616 freq: 39
rob stalling non-critical load ip: 17109620 freq: 7
rob stalling non-critical load ip: 17147696 freq: 4
rob stalling non-critical load ip: 17148832 freq: 1365
rob stalling non-critical load ip: 17148844 freq: 11
rob stalling non-critical load ip: 17148868 freq: 13
rob stalling non-critical load ip: 17148904 freq: 25
rob stalling non-critical load ip: 17148972 freq: 1659
rob stalling non-critical load ip: 17148988 freq: 18
rob stalling non-critical load ip: 17149012 freq: 15
rob stalling non-critical load ip: 17149168 freq: 25
rob stalling non-critical load ip: 17149172 freq: 30
rob stalling non-critical load ip: 17149204 freq: 21
rob stalling non-critical load ip: 17149208 freq: 1400
rob stalling non-critical load ip: 17149340 freq: 24
rob stalling non-critical load ip: 17149344 freq: 16
rob stalling non-critical load ip: 17149400 freq: 59
rob stalling non-critical load ip: 17149504 freq: 77
rob stalling non-critical load ip: 17149516 freq: 26
rob stalling non-critical load ip: 17149568 freq: 33
rob stalling non-critical load ip: 17149600 freq: 157
rob stalling non-critical load ip: 17149604 freq: 97
rob stalling non-critical load ip: 17158540 freq: 11
rob stalling non-critical load ip: 17183032 freq: 4
rob stalling non-critical load ip: 17183048 freq: 8
rob stalling non-critical load ip: 17183060 freq: 225
rob stalling non-critical load ip: 17183076 freq: 219
rob stalling non-critical load ip: 17183108 freq: 4
rob stalling non-critical load ip: 17183120 freq: 4
rob stalling non-critical load ip: 17183140 freq: 2
rob stalling non-critical load ip: 17183160 freq: 3
rob stalling non-critical load ip: 17183188 freq: 241
rob stalling non-critical load ip: 17183232 freq: 8
rob stalling non-critical load ip: 17183244 freq: 19
rob stalling non-critical load ip: 17183248 freq: 48
rob stalling non-critical load ip: 17183268 freq: 4
rob stalling non-critical load ip: 17183284 freq: 2
rob stalling non-critical load ip: 17183380 freq: 1
rob stalling non-critical load ip: 17183392 freq: 9
rob stalling non-critical load ip: 17183436 freq: 5
rob stalling non-critical load ip: 17183452 freq: 1
rob stalling non-critical load ip: 17183476 freq: 41
rob stalling non-critical load ip: 17183520 freq: 4
rob stalling non-critical load ip: 17183812 freq: 82
rob stalling non-critical load ip: 17183836 freq: 6
rob stalling non-critical load ip: 17183952 freq: 4
rob stalling non-critical load ip: 17183960 freq: 187
rob stalling non-critical load ip: 17184072 freq: 107
rob stalling non-critical load ip: 17184084 freq: 59
rob stalling non-critical load ip: 17184100 freq: 134
rob stalling non-critical load ip: 17184500 freq: 9
rob stalling non-critical load ip: 17184740 freq: 10
rob stalling non-critical load ip: 17184768 freq: 4
rob stalling non-critical load ip: 17184896 freq: 3
rob stalling non-critical load ip: 17184900 freq: 1
rob stalling non-critical load ip: 17184924 freq: 5
rob stalling non-critical load ip: 17184968 freq: 7
rob stalling non-critical load ip: 17185032 freq: 2
rob stalling non-critical load ip: 17185072 freq: 46
rob stalling non-critical load ip: 17185076 freq: 44
rob stalling non-critical load ip: 17185180 freq: 8
rob stalling non-critical load ip: 17185196 freq: 8
rob stalling non-critical load ip: 17185528 freq: 2
rob stalling non-critical load ip: 17185608 freq: 5
rob stalling non-critical load ip: 17185632 freq: 72
rob stalling non-critical load ip: 17185696 freq: 2
rob stalling non-critical load ip: 17185716 freq: 1
rob stalling non-critical load ip: 17185796 freq: 78
rob stalling non-critical load ip: 17186488 freq: 1
rob stalling non-critical load ip: 17186496 freq: 1
rob stalling non-critical load ip: 17186964 freq: 5
rob stalling non-critical load ip: 17186996 freq: 1
rob stalling non-critical load ip: 17187196 freq: 5
rob stalling non-critical load ip: 17187208 freq: 3
rob stalling non-critical load ip: 17187260 freq: 4
rob stalling non-critical load ip: 17187276 freq: 5
rob stalling non-critical load ip: 17187304 freq: 65
rob stalling non-critical load ip: 17187388 freq: 25
rob stalling non-critical load ip: 17187456 freq: 3
rob stalling non-critical load ip: 17188224 freq: 20
rob stalling non-critical load ip: 17188228 freq: 10
rob stalling non-critical load ip: 17188244 freq: 3
rob stalling non-critical load ip: 17188264 freq: 9
rob stalling non-critical load ip: 17188292 freq: 41
rob stalling non-critical load ip: 17188308 freq: 102
rob stalling non-critical load ip: 17188316 freq: 19
rob stalling non-critical load ip: 17188320 freq: 5
rob stalling non-critical load ip: 17189416 freq: 11
rob stalling non-critical load ip: 17189432 freq: 7
rob stalling non-critical load ip: 17189488 freq: 18
rob stalling non-critical load ip: 17189504 freq: 14
rob stalling non-critical load ip: 17189520 freq: 12
rob stalling non-critical load ip: 17189536 freq: 17
rob stalling non-critical load ip: 17189616 freq: 10
rob stalling non-critical load ip: 17189660 freq: 4
rob stalling non-critical load ip: 17190268 freq: 3
rob stalling non-critical load ip: 17190300 freq: 3
rob stalling non-critical load ip: 17190504 freq: 5
rob stalling non-critical load ip: 17190516 freq: 5
rob stalling non-critical load ip: 17224964 freq: 6
rob stalling non-critical load ip: 17224980 freq: 166
rob stalling non-critical load ip: 17224996 freq: 7
rob stalling non-critical load ip: 17225096 freq: 29
rob stalling non-critical load ip: 17225180 freq: 3
rob stalling non-critical load ip: 17225204 freq: 134
rob stalling non-critical load ip: 17225220 freq: 893
rob stalling non-critical load ip: 17225292 freq: 1
rob stalling non-critical load ip: 17225488 freq: 6
rob stalling non-critical load ip: 17225500 freq: 93
rob stalling non-critical load ip: 17225528 freq: 5
rob stalling non-critical load ip: 17225540 freq: 6
rob stalling non-critical load ip: 17225876 freq: 84
rob stalling non-critical load ip: 17225984 freq: 42
rob stalling non-critical load ip: 17226112 freq: 14
rob stalling non-critical load ip: 17226196 freq: 1
rob stalling non-critical load ip: 17226208 freq: 37
rob stalling non-critical load ip: 17226228 freq: 1
rob stalling non-critical load ip: 17226296 freq: 3
rob stalling non-critical load ip: 17226320 freq: 1
rob stalling non-critical load ip: 17226332 freq: 8
rob stalling non-critical load ip: 17226856 freq: 3
rob stalling non-critical load ip: 17226948 freq: 106
rob stalling non-critical load ip: 17227856 freq: 2
rob stalling non-critical load ip: 17227996 freq: 11
rob stalling non-critical load ip: 17228064 freq: 2
rob stalling non-critical load ip: 17228276 freq: 1
rob stalling non-critical load ip: 17245100 freq: 501
rob stalling non-critical load ip: 17245104 freq: 2
rob stalling non-critical load ip: 17247576 freq: 111
rob stalling non-critical load ip: 17247588 freq: 4
rob stalling non-critical load ip: 17247664 freq: 16
rob stalling non-critical load ip: 17247668 freq: 62
rob stalling non-critical load ip: 17247840 freq: 51
rob stalling non-critical load ip: 17247844 freq: 1
rob stalling non-critical load ip: 17247864 freq: 16
rob stalling non-critical load ip: 17247888 freq: 24
rob stalling non-critical load ip: 17247952 freq: 11
rob stalling non-critical load ip: 17247988 freq: 72
rob stalling non-critical load ip: 17248008 freq: 66
rob stalling non-critical load ip: 17248120 freq: 134
rob stalling non-critical load ip: 17248624 freq: 16
rob stalling non-critical load ip: 17248652 freq: 17
rob stalling non-critical load ip: 17253688 freq: 7
rob stalling non-critical load ip: 17254328 freq: 5
rob stalling non-critical load ip: 17369668 freq: 3
rob stalling non-critical load ip: 17369860 freq: 2
rob stalling non-critical load ip: 17370164 freq: 1
rob stalling non-critical load ip: 17410740 freq: 5
rob stalling non-critical load ip: 17410756 freq: 13
rob stalling non-critical load ip: 17506076 freq: 54
rob stalling non-critical load ip: 17506176 freq: 1
rob stalling non-critical load ip: 17506192 freq: 6
rob stalling non-critical load ip: 17506356 freq: 1
rob stalling non-critical load ip: 17506380 freq: 45
rob stalling non-critical load ip: 17506584 freq: 131
rob stalling non-critical load ip: 17506760 freq: 118
rob stalling non-critical load ip: 17506824 freq: 4
rob stalling non-critical load ip: 17506844 freq: 6
rob stalling non-critical load ip: 17506884 freq: 18
rob stalling non-critical load ip: 17506964 freq: 38
rob stalling non-critical load ip: 17506996 freq: 1
rob stalling non-critical load ip: 17507036 freq: 1
rob stalling non-critical load ip: 17507044 freq: 182
rob stalling non-critical load ip: 17507064 freq: 1
rob stalling non-critical load ip: 17507072 freq: 10
rob stalling non-critical load ip: 17507324 freq: 1
rob stalling non-critical load ip: 17507336 freq: 3
rob stalling non-critical load ip: 17507380 freq: 5
rob stalling non-critical load ip: 17507396 freq: 1
rob stalling non-critical load ip: 17507428 freq: 50
rob stalling non-critical load ip: 17507476 freq: 8
rob stalling non-critical load ip: 17507492 freq: 4
rob stalling non-critical load ip: 17546088 freq: 23
rob stalling non-critical load ip: 17546908 freq: 2
rob stalling non-critical load ip: 17547352 freq: 11
rob stalling non-critical load ip: 17547760 freq: 1
rob stalling non-critical load ip: 17547868 freq: 2
rob stalling non-critical load ip: 17548040 freq: 22
rob stalling non-critical load ip: 17555508 freq: 36
rob stalling non-critical load ip: 17555564 freq: 5
rob stalling non-critical load ip: 17561040 freq: 1
rob stalling non-critical load ip: 17612428 freq: 2
rob stalling non-critical load ip: 17612436 freq: 2
rob stalling non-critical load ip: 17615996 freq: 1
rob stalling non-critical load ip: 17616024 freq: 1
rob stalling non-critical load ip: 17616080 freq: 1
rob stalling non-critical load ip: 17616612 freq: 1
rob stalling non-critical load ip: 17616996 freq: 1
rob stalling non-critical load ip: 17617600 freq: 2
rob stalling non-critical load ip: 17617868 freq: 2
rob stalling non-critical load ip: 17617884 freq: 1
rob stalling non-critical load ip: 17627540 freq: 8
rob stalling non-critical load ip: 17628144 freq: 2
rob stalling non-critical load ip: 17633724 freq: 4
rob stalling non-critical load ip: 17633764 freq: 1
rob stalling non-critical load ip: 17633908 freq: 1
rob stalling non-critical load ip: 17633912 freq: 1
rob stalling non-critical load ip: 17634056 freq: 1
rob stalling non-critical load ip: 17634192 freq: 1
rob stalling non-critical load ip: 17641524 freq: 6
rob stalling non-critical load ip: 17641540 freq: 2
rob stalling non-critical load ip: 17643356 freq: 1
rob stalling non-critical load ip: 17643608 freq: 4
rob stalling non-critical load ip: 17643644 freq: 4
rob stalling non-critical load ip: 17643696 freq: 1
rob stalling non-critical load ip: 17643764 freq: 3
rob stalling non-critical load ip: 17643980 freq: 2
rob stalling non-critical load ip: 17644128 freq: 8
rob stalling non-critical load ip: 17644276 freq: 194
rob stalling non-critical load ip: 17682780 freq: 2
rob stalling non-critical load ip: 17682804 freq: 1
rob stalling non-critical load ip: 17682824 freq: 12
rob stalling non-critical load ip: 17683092 freq: 1
rob stalling non-critical load ip: 17683132 freq: 1
rob stalling non-critical load ip: 17683164 freq: 2
rob stalling non-critical load ip: 17683228 freq: 10
rob stalling non-critical load ip: 17683256 freq: 2
rob stalling non-critical load ip: 17683312 freq: 1
rob stalling non-critical load ip: 17683332 freq: 2
rob stalling non-critical load ip: 17683456 freq: 9
rob stalling non-critical load ip: 17683576 freq: 2
rob stalling non-critical load ip: 17683752 freq: 1
rob stalling non-critical load ip: 17683888 freq: 1
rob stalling non-critical load ip: 17683908 freq: 4
rob stalling non-critical load ip: 17782316 freq: 312
rob stalling non-critical load ip: 17782320 freq: 26
rob stalling non-critical load ip: 17782380 freq: 619
rob stalling non-critical load ip: 17782384 freq: 5
rob stalling non-critical load ip: 17782400 freq: 27
rob stalling non-critical load ip: 17782428 freq: 17
rob stalling non-critical load ip: 17782476 freq: 272
rob stalling non-critical load ip: 17782496 freq: 5
rob stalling non-critical load ip: 17782536 freq: 42
rob stalling non-critical load ip: 17782548 freq: 14
rob stalling non-critical load ip: 17782576 freq: 1
rob stalling non-critical load ip: 17782600 freq: 25
rob stalling non-critical load ip: 17782700 freq: 12
rob stalling non-critical load ip: 17782716 freq: 6
rob stalling non-critical load ip: 17782732 freq: 6
rob stalling non-critical load ip: 17782928 freq: 247
rob stalling non-critical load ip: 17782984 freq: 57
rob stalling non-critical load ip: 17783272 freq: 18
rob stalling non-critical load ip: 17905520 freq: 1
rob stalling non-critical load ip: 17905544 freq: 5
rob stalling non-critical load ip: 17906156 freq: 70
rob stalling non-critical load ip: 17906336 freq: 243
rob stalling non-critical load ip: 17906384 freq: 1335
rob stalling non-critical load ip: 17906400 freq: 312
rob stalling non-critical load ip: 17906620 freq: 54
rob stalling non-critical load ip: 17906636 freq: 12
rob stalling non-critical load ip: 17906644 freq: 159
rob stalling non-critical load ip: 17906844 freq: 2406
rob stalling non-critical load ip: 17906852 freq: 16
rob stalling non-critical load ip: 17906888 freq: 466
rob stalling non-critical load ip: 17906912 freq: 39
rob stalling non-critical load ip: 17906968 freq: 50
rob stalling non-critical load ip: 17906980 freq: 51
rob stalling non-critical load ip: 17907064 freq: 2194
rob stalling non-critical load ip: 17908272 freq: 197
rob stalling non-critical load ip: 17908296 freq: 528
rob stalling non-critical load ip: 17908312 freq: 37
rob stalling non-critical load ip: 17908368 freq: 53
rob stalling non-critical load ip: 17912876 freq: 14
rob stalling non-critical load ip: 17912932 freq: 18
rob stalling non-critical load ip: 17913044 freq: 22
rob stalling non-critical load ip: 17913056 freq: 15
rob stalling non-critical load ip: 17913068 freq: 104
rob stalling non-critical load ip: 17913108 freq: 16
rob stalling non-critical load ip: 18022900 freq: 19
rob stalling non-critical load ip: 18022940 freq: 5
rob stalling non-critical load ip: 18022944 freq: 60
rob stalling non-critical load ip: 18022976 freq: 2
rob stalling non-critical load ip: 18023308 freq: 5
rob stalling non-critical load ip: 18025240 freq: 68
rob stalling non-critical load ip: 18025248 freq: 16
rob stalling non-critical load ip: 18025276 freq: 52
rob stalling non-critical load ip: 18025296 freq: 99
rob stalling non-critical load ip: 18025304 freq: 55
rob stalling non-critical load ip: 18025320 freq: 15
rob stalling non-critical load ip: 18025340 freq: 145
rob stalling non-critical load ip: 18025560 freq: 12
rob stalling non-critical load ip: 18025576 freq: 4
rob stalling non-critical load ip: 18025596 freq: 2
rob stalling non-critical load ip: 18025768 freq: 2
rob stalling non-critical load ip: 18025804 freq: 6
rob stalling non-critical load ip: 18025832 freq: 7
rob stalling non-critical load ip: 18026640 freq: 7
rob stalling non-critical load ip: 18026668 freq: 15
rob stalling non-critical load ip: 18026908 freq: 31
rob stalling non-critical load ip: 18026928 freq: 26
rob stalling non-critical load ip: 18026992 freq: 3
rob stalling non-critical load ip: 18027120 freq: 50
rob stalling non-critical load ip: 18027128 freq: 10
rob stalling non-critical load ip: 18027156 freq: 1528
rob stalling non-critical load ip: 18027236 freq: 127
rob stalling non-critical load ip: 18027924 freq: 69
rob stalling non-critical load ip: 18027932 freq: 45
rob stalling non-critical load ip: 18027940 freq: 1
rob stalling non-critical load ip: 18027976 freq: 1
rob stalling non-critical load ip: 18049648 freq: 10
rob stalling non-critical load ip: 18049664 freq: 18
rob stalling non-critical load ip: 18049744 freq: 4
rob stalling non-critical load ip: 18049920 freq: 57
rob stalling non-critical load ip: 18049936 freq: 8
rob stalling non-critical load ip: 18049996 freq: 35
rob stalling non-critical load ip: 18050004 freq: 39
rob stalling non-critical load ip: 18073772 freq: 2
rob stalling non-critical load ip: 18074072 freq: 2
rob stalling non-critical load ip: 18074084 freq: 1
rob stalling non-critical load ip: 18074636 freq: 22
rob stalling non-critical load ip: 18074640 freq: 4
rob stalling non-critical load ip: 18085540 freq: 13
rob stalling non-critical load ip: 18110020 freq: 6
rob stalling non-critical load ip: 18110220 freq: 4
rob stalling non-critical load ip: 18110800 freq: 3
rob stalling non-critical load ip: 18128468 freq: 95
rob stalling non-critical load ip: 18128484 freq: 15
rob stalling non-critical load ip: 18128540 freq: 109
rob stalling non-critical load ip: 18128612 freq: 43
rob stalling non-critical load ip: 18128640 freq: 350
rob stalling non-critical load ip: 18128648 freq: 10
rob stalling non-critical load ip: 18128744 freq: 336
rob stalling non-critical load ip: 18132720 freq: 2094
rob stalling non-critical load ip: 18132760 freq: 455
rob stalling non-critical load ip: 18132804 freq: 45
rob stalling non-critical load ip: 18132832 freq: 207
rob stalling non-critical load ip: 18132844 freq: 20
rob stalling non-critical load ip: 18132856 freq: 14
rob stalling non-critical load ip: 18132872 freq: 32
rob stalling non-critical load ip: 18132896 freq: 155
rob stalling non-critical load ip: 18132908 freq: 271
rob stalling non-critical load ip: 18132916 freq: 17
rob stalling non-critical load ip: 18132980 freq: 32
rob stalling non-critical load ip: 18132996 freq: 2076
rob stalling non-critical load ip: 18133012 freq: 13
rob stalling non-critical load ip: 18133028 freq: 4
rob stalling non-critical load ip: 18133080 freq: 2846
rob stalling non-critical load ip: 18133112 freq: 270
rob stalling non-critical load ip: 18133280 freq: 37
rob stalling non-critical load ip: 18133368 freq: 287
rob stalling non-critical load ip: 18133388 freq: 4
rob stalling non-critical load ip: 18133392 freq: 102
rob stalling non-critical load ip: 18133404 freq: 28
rob stalling non-critical load ip: 18133408 freq: 173
rob stalling non-critical load ip: 18133456 freq: 8
rob stalling non-critical load ip: 18133528 freq: 10
rob stalling non-critical load ip: 18133592 freq: 28
rob stalling non-critical load ip: 18133608 freq: 9
rob stalling non-critical load ip: 18133736 freq: 3
rob stalling non-critical load ip: 18133864 freq: 2
rob stalling non-critical load ip: 18133936 freq: 29
rob stalling non-critical load ip: 18133940 freq: 20
rob stalling non-critical load ip: 18133964 freq: 18
rob stalling non-critical load ip: 18134000 freq: 6
rob stalling non-critical load ip: 18134084 freq: 48
rob stalling non-critical load ip: 18134132 freq: 4
rob stalling non-critical load ip: 18134192 freq: 6
rob stalling non-critical load ip: 18134276 freq: 7
rob stalling non-critical load ip: 18134316 freq: 126
rob stalling non-critical load ip: 18134344 freq: 35
rob stalling non-critical load ip: 18134356 freq: 19
rob stalling non-critical load ip: 18134420 freq: 18
rob stalling non-critical load ip: 18134436 freq: 11
rob stalling non-critical load ip: 18217476 freq: 2
rob stalling non-critical load ip: 18217700 freq: 1
rob stalling non-critical load ip: 18219844 freq: 122
rob stalling non-critical load ip: 18219900 freq: 38
rob stalling non-critical load ip: 18219948 freq: 232
rob stalling non-critical load ip: 18219952 freq: 1079
rob stalling non-critical load ip: 18219956 freq: 293
rob stalling non-critical load ip: 18219960 freq: 203
rob stalling non-critical load ip: 18219976 freq: 4
rob stalling non-critical load ip: 18220024 freq: 8
rob stalling non-critical load ip: 18220136 freq: 706
rob stalling non-critical load ip: 18220228 freq: 144
rob stalling non-critical load ip: 18220236 freq: 32
rob stalling non-critical load ip: 18220252 freq: 60
rob stalling non-critical load ip: 18220268 freq: 41
rob stalling non-critical load ip: 18220280 freq: 20
rob stalling non-critical load ip: 18221308 freq: 161
rob stalling non-critical load ip: 18221328 freq: 21
rob stalling non-critical load ip: 18221352 freq: 12
rob stalling non-critical load ip: 18221376 freq: 6
rob stalling non-critical load ip: 18221444 freq: 17
rob stalling non-critical load ip: 18221516 freq: 16
rob stalling non-critical load ip: 18221520 freq: 178
rob stalling non-critical load ip: 18221540 freq: 48
rob stalling non-critical load ip: 18221548 freq: 7
rob stalling non-critical load ip: 18221568 freq: 10
rob stalling non-critical load ip: 18221616 freq: 15
rob stalling non-critical load ip: 18221664 freq: 29
rob stalling non-critical load ip: 18221700 freq: 20
rob stalling non-critical load ip: 18221716 freq: 25
rob stalling non-critical load ip: 18221728 freq: 15
rob stalling non-critical load ip: 18221856 freq: 39
rob stalling non-critical load ip: 18221868 freq: 654
rob stalling non-critical load ip: 18221884 freq: 195
rob stalling non-critical load ip: 18221920 freq: 54
rob stalling non-critical load ip: 18221956 freq: 93
rob stalling non-critical load ip: 18221996 freq: 18
rob stalling non-critical load ip: 18222012 freq: 2
rob stalling non-critical load ip: 18222592 freq: 64
rob stalling non-critical load ip: 18222684 freq: 15
rob stalling non-critical load ip: 18222700 freq: 3
rob stalling non-critical load ip: 18222724 freq: 21
rob stalling non-critical load ip: 18222968 freq: 146
rob stalling non-critical load ip: 18222984 freq: 38
rob stalling non-critical load ip: 18223664 freq: 288
rob stalling non-critical load ip: 18223672 freq: 26
rob stalling non-critical load ip: 18223688 freq: 1356
rob stalling non-critical load ip: 18223720 freq: 808
rob stalling non-critical load ip: 18223728 freq: 36
rob stalling non-critical load ip: 18223736 freq: 155
rob stalling non-critical load ip: 18223752 freq: 16
rob stalling non-critical load ip: 18223756 freq: 47
rob stalling non-critical load ip: 18224052 freq: 104
rob stalling non-critical load ip: 18224072 freq: 206
rob stalling non-critical load ip: 18224096 freq: 19
rob stalling non-critical load ip: 18224128 freq: 4
rob stalling non-critical load ip: 18224140 freq: 12
rob stalling non-critical load ip: 18224240 freq: 30
rob stalling non-critical load ip: 18224368 freq: 21
rob stalling non-critical load ip: 18224372 freq: 23
rob stalling non-critical load ip: 18224388 freq: 6
rob stalling non-critical load ip: 18224404 freq: 7
rob stalling non-critical load ip: 18224420 freq: 264
rob stalling non-critical load ip: 18224436 freq: 10
rob stalling non-critical load ip: 18224448 freq: 9
rob stalling non-critical load ip: 18224596 freq: 28
rob stalling non-critical load ip: 18224656 freq: 1
rob stalling non-critical load ip: 18302544 freq: 2
rob stalling non-critical load ip: 18303116 freq: 23
rob stalling non-critical load ip: 18303200 freq: 8
rob stalling non-critical load ip: 18303272 freq: 7
rob stalling non-critical load ip: 18303304 freq: 3
rob stalling non-critical load ip: 18303328 freq: 1
rob stalling non-critical load ip: 18457504 freq: 10
rob stalling non-critical load ip: 18457564 freq: 2
rob stalling non-critical load ip: 18457572 freq: 25
rob stalling non-critical load ip: 18457592 freq: 16
rob stalling non-critical load ip: 18466760 freq: 4
rob stalling non-critical load ip: 18466768 freq: 1
rob stalling non-critical load ip: 18466824 freq: 3
rob stalling non-critical load ip: 18466844 freq: 1
rob stalling non-critical load ip: 18466888 freq: 5
rob stalling non-critical load ip: 18466904 freq: 2
rob stalling non-critical load ip: 18466940 freq: 2
rob stalling non-critical load ip: 18466952 freq: 12
rob stalling non-critical load ip: 18466988 freq: 2
rob stalling non-critical load ip: 18467104 freq: 4
rob stalling non-critical load ip: 18467160 freq: 3
rob stalling non-critical load ip: 18467180 freq: 1
rob stalling non-critical load ip: 18481752 freq: 1
rob stalling non-critical load ip: 18481788 freq: 279
rob stalling non-critical load ip: 18481820 freq: 47
rob stalling non-critical load ip: 18481948 freq: 3
rob stalling non-critical load ip: 18482424 freq: 2
rob stalling non-critical load ip: 18482800 freq: 1
rob stalling non-critical load ip: 18491992 freq: 12
rob stalling non-critical load ip: 18508724 freq: 1
rob stalling non-critical load ip: 18556720 freq: 52
rob stalling non-critical load ip: 18557252 freq: 385
rob stalling non-critical load ip: 18557256 freq: 395
rob stalling non-critical load ip: 18557288 freq: 1506
rob stalling non-critical load ip: 18557484 freq: 77
rob stalling non-critical load ip: 18557604 freq: 326
rob stalling non-critical load ip: 18563692 freq: 2
rob stalling non-critical load ip: 18574920 freq: 4
rob stalling non-critical load ip: 18574968 freq: 1
rob stalling non-critical load ip: 18581768 freq: 2
rob stalling non-critical load ip: 18582808 freq: 2
rob stalling non-critical load ip: 18583108 freq: 2
rob stalling non-critical load ip: 18597784 freq: 1
rob stalling non-critical load ip: 18604280 freq: 134
rob stalling non-critical load ip: 18604288 freq: 11
rob stalling non-critical load ip: 18604344 freq: 1403
rob stalling non-critical load ip: 18604364 freq: 19
rob stalling non-critical load ip: 18604368 freq: 68
rob stalling non-critical load ip: 18604372 freq: 10
rob stalling non-critical load ip: 18604396 freq: 17
rob stalling non-critical load ip: 18604480 freq: 18
rob stalling non-critical load ip: 18625668 freq: 73
rob stalling non-critical load ip: 18630436 freq: 2
rob stalling non-critical load ip: 18631072 freq: 2
rob stalling non-critical load ip: 18631092 freq: 27
rob stalling non-critical load ip: 18631116 freq: 3
rob stalling non-critical load ip: 18634180 freq: 7
rob stalling non-critical load ip: 18634208 freq: 8
rob stalling non-critical load ip: 18634364 freq: 5
rob stalling non-critical load ip: 18634892 freq: 19
rob stalling non-critical load ip: 18642072 freq: 5
rob stalling non-critical load ip: 18757300 freq: 5
rob stalling non-critical load ip: 18757332 freq: 2
rob stalling non-critical load ip: 18757352 freq: 17
rob stalling non-critical load ip: 18757520 freq: 2
rob stalling non-critical load ip: 18760628 freq: 4
rob stalling non-critical load ip: 18776508 freq: 1
rob stalling non-critical load ip: 18783856 freq: 153
rob stalling non-critical load ip: 18783872 freq: 26
rob stalling non-critical load ip: 18783892 freq: 2
rob stalling non-critical load ip: 18783896 freq: 3
rob stalling non-critical load ip: 18783924 freq: 7
rob stalling non-critical load ip: 18783940 freq: 31
rob stalling non-critical load ip: 18783960 freq: 3
rob stalling non-critical load ip: 18783964 freq: 4
rob stalling non-critical load ip: 18786216 freq: 3
rob stalling non-critical load ip: 18790068 freq: 35
rob stalling non-critical load ip: 18790796 freq: 29
rob stalling non-critical load ip: 18790812 freq: 20
rob stalling non-critical load ip: 18790940 freq: 18
rob stalling non-critical load ip: 18790984 freq: 4
rob stalling non-critical load ip: 18791368 freq: 33
rob stalling non-critical load ip: 18791384 freq: 2
rob stalling non-critical load ip: 18791472 freq: 3
rob stalling non-critical load ip: 18791500 freq: 1
rob stalling non-critical load ip: 18791504 freq: 28
rob stalling non-critical load ip: 18791520 freq: 26
rob stalling non-critical load ip: 18791552 freq: 13
rob stalling non-critical load ip: 18791568 freq: 6
rob stalling non-critical load ip: 18791632 freq: 21
rob stalling non-critical load ip: 18791672 freq: 6
rob stalling non-critical load ip: 18791700 freq: 99
rob stalling non-critical load ip: 18791756 freq: 3
rob stalling non-critical load ip: 18791860 freq: 2
rob stalling non-critical load ip: 18791880 freq: 40
rob stalling non-critical load ip: 18792068 freq: 2
rob stalling non-critical load ip: 18792084 freq: 4
rob stalling non-critical load ip: 18792108 freq: 74
rob stalling non-critical load ip: 18792112 freq: 81
rob stalling non-critical load ip: 18792136 freq: 2
rob stalling non-critical load ip: 18792332 freq: 8
rob stalling non-critical load ip: 18792888 freq: 11
rob stalling non-critical load ip: 18793196 freq: 3
rob stalling non-critical load ip: 18793340 freq: 2
rob stalling non-critical load ip: 18847852 freq: 3
rob stalling non-critical load ip: 18847912 freq: 8
rob stalling non-critical load ip: 18847948 freq: 31
rob stalling non-critical load ip: 18847960 freq: 1
rob stalling non-critical load ip: 18847964 freq: 2
rob stalling non-critical load ip: 18847984 freq: 38
rob stalling non-critical load ip: 18848012 freq: 4
rob stalling non-critical load ip: 18848020 freq: 4
rob stalling non-critical load ip: 18848036 freq: 5
rob stalling non-critical load ip: 18848072 freq: 33
rob stalling non-critical load ip: 18848108 freq: 4
rob stalling non-critical load ip: 18848112 freq: 4
rob stalling non-critical load ip: 18848136 freq: 2
rob stalling non-critical load ip: 18848172 freq: 4
rob stalling non-critical load ip: 18848228 freq: 2
rob stalling non-critical load ip: 18848276 freq: 6
rob stalling non-critical load ip: 18848296 freq: 13
rob stalling non-critical load ip: 18848340 freq: 5
rob stalling non-critical load ip: 18848364 freq: 1
rob stalling non-critical load ip: 18848448 freq: 6
rob stalling non-critical load ip: 18848564 freq: 2
rob stalling non-critical load ip: 18848928 freq: 7
rob stalling non-critical load ip: 18848936 freq: 7
rob stalling non-critical load ip: 18850924 freq: 3
rob stalling non-critical load ip: 18851012 freq: 2
rob stalling non-critical load ip: 18851052 freq: 3
rob stalling non-critical load ip: 18851080 freq: 3
rob stalling non-critical load ip: 18851664 freq: 1
rob stalling non-critical load ip: 18851816 freq: 2
rob stalling non-critical load ip: 18851888 freq: 2
rob stalling non-critical load ip: 18853212 freq: 31
rob stalling non-critical load ip: 18853232 freq: 10
rob stalling non-critical load ip: 18853284 freq: 8
rob stalling non-critical load ip: 18860616 freq: 73
rob stalling non-critical load ip: 18945652 freq: 4
rob stalling non-critical load ip: 18953912 freq: 6
rob stalling non-critical load ip: 18956604 freq: 1
rob stalling non-critical load ip: 18956636 freq: 1
rob stalling non-critical load ip: 18956724 freq: 38
rob stalling non-critical load ip: 18956808 freq: 4
rob stalling non-critical load ip: 18956864 freq: 1
rob stalling non-critical load ip: 18960512 freq: 15
rob stalling non-critical load ip: 18960552 freq: 11
rob stalling non-critical load ip: 18960568 freq: 2
rob stalling non-critical load ip: 18960584 freq: 58
rob stalling non-critical load ip: 18960616 freq: 4
rob stalling non-critical load ip: 18960676 freq: 9
rob stalling non-critical load ip: 18960688 freq: 31
rob stalling non-critical load ip: 18960700 freq: 4
rob stalling non-critical load ip: 18960780 freq: 5
rob stalling non-critical load ip: 18960812 freq: 8
rob stalling non-critical load ip: 18960836 freq: 23
rob stalling non-critical load ip: 18960860 freq: 10
rob stalling non-critical load ip: 18960876 freq: 6
rob stalling non-critical load ip: 18960892 freq: 2
rob stalling non-critical load ip: 18960908 freq: 3
rob stalling non-critical load ip: 18960940 freq: 4
rob stalling non-critical load ip: 18960956 freq: 3
rob stalling non-critical load ip: 18960972 freq: 3
rob stalling non-critical load ip: 18962968 freq: 1363
rob stalling non-critical load ip: 18962988 freq: 47
rob stalling non-critical load ip: 18963004 freq: 6
rob stalling non-critical load ip: 18963020 freq: 21
rob stalling non-critical load ip: 18963036 freq: 18
rob stalling non-critical load ip: 18963052 freq: 22
rob stalling non-critical load ip: 18963084 freq: 26
rob stalling non-critical load ip: 18963096 freq: 5
rob stalling non-critical load ip: 18963100 freq: 7
rob stalling non-critical load ip: 18963116 freq: 16
rob stalling non-critical load ip: 19454556 freq: 8
rob stalling non-critical load ip: 19489332 freq: 23
rob stalling non-critical load ip: 19489344 freq: 198
rob stalling non-critical load ip: 19489356 freq: 398
rob stalling non-critical load ip: 19489368 freq: 28
rob stalling non-critical load ip: 19489396 freq: 21
rob stalling non-critical load ip: 19489408 freq: 63
rob stalling non-critical load ip: 19489780 freq: 1
rob stalling non-critical load ip: 19489804 freq: 1
rob stalling non-critical load ip: 19490544 freq: 418
rob stalling non-critical load ip: 19490552 freq: 2
rob stalling non-critical load ip: 19490564 freq: 2
rob stalling non-critical load ip: 19490572 freq: 1
rob stalling non-critical load ip: 19490580 freq: 1
rob stalling non-critical load ip: 19490588 freq: 8
rob stalling non-critical load ip: 19490596 freq: 1
rob stalling non-critical load ip: 19490608 freq: 23
rob stalling non-critical load ip: 19490616 freq: 423
rob stalling non-critical load ip: 19490624 freq: 403
rob stalling non-critical load ip: 19490804 freq: 4
rob stalling non-critical load ip: 19492736 freq: 2
rob stalling non-critical load ip: 19493820 freq: 44
rob stalling non-critical load ip: 19493844 freq: 2
rob stalling non-critical load ip: 19493912 freq: 2
rob stalling non-critical load ip: 19493916 freq: 39
rob stalling non-critical load ip: 19493920 freq: 40
rob stalling non-critical load ip: 19493924 freq: 39
rob stalling non-critical load ip: 19493928 freq: 5
rob stalling non-critical load ip: 19493932 freq: 46
rob stalling non-critical load ip: 19493940 freq: 10
rob stalling non-critical load ip: 19493948 freq: 9
rob stalling non-critical load ip: 19493956 freq: 10
rob stalling non-critical load ip: 19493960 freq: 13
rob stalling non-critical load ip: 19493984 freq: 16
rob stalling non-critical load ip: 19494000 freq: 7
rob stalling non-critical load ip: 19494032 freq: 342
rob stalling non-critical load ip: 19494040 freq: 147
rob stalling non-critical load ip: 19494052 freq: 327
rob stalling non-critical load ip: 19494060 freq: 149
rob stalling non-critical load ip: 19494068 freq: 173
rob stalling non-critical load ip: 19494076 freq: 13225
rob stalling non-critical load ip: 19494084 freq: 204
rob stalling non-critical load ip: 19494096 freq: 356
rob stalling non-critical load ip: 19494104 freq: 35567
rob stalling non-critical load ip: 19494112 freq: 660
rob stalling non-critical load ip: 19494176 freq: 12
rob stalling non-critical load ip: 19494212 freq: 8
rob stalling non-critical load ip: 19494292 freq: 214
rob stalling non-critical load ip: 19494380 freq: 53
rob stalling non-critical load ip: 19494624 freq: 1
rob stalling non-critical load ip: 19494664 freq: 11
rob stalling non-critical load ip: 19495680 freq: 21
rob stalling non-critical load ip: 19495700 freq: 150
rob stalling non-critical load ip: 19495740 freq: 178
rob stalling non-critical load ip: 19495772 freq: 149
rob stalling non-critical load ip: 19495816 freq: 149
rob stalling non-critical load ip: 19496036 freq: 4
rob stalling non-critical load ip: 19496064 freq: 1
rob stalling non-critical load ip: 19496192 freq: 12466
rob stalling non-critical load ip: 19496208 freq: 3408
rob stalling non-critical load ip: 19496224 freq: 10826
rob stalling non-critical load ip: 19496236 freq: 12650
rob stalling non-critical load ip: 19496264 freq: 914
rob stalling non-critical load ip: 19496548 freq: 17
rob stalling non-critical load ip: 19496676 freq: 79
rob stalling non-critical load ip: 19496688 freq: 87
rob stalling non-critical load ip: 19496700 freq: 2215
rob stalling non-critical load ip: 19496712 freq: 34
rob stalling non-critical load ip: 19496768 freq: 276
rob stalling non-critical load ip: 19496772 freq: 256
rob stalling non-critical load ip: 19496776 freq: 189
rob stalling non-critical load ip: 19496780 freq: 182
rob stalling non-critical load ip: 19496788 freq: 1596
rob stalling non-critical load ip: 19496792 freq: 233
rob stalling non-critical load ip: 19496796 freq: 1392
rob stalling non-critical load ip: 19496804 freq: 49
rob stalling non-critical load ip: 19496812 freq: 26
rob stalling non-critical load ip: 19496816 freq: 1534
rob stalling non-critical load ip: 19496824 freq: 14
rob stalling non-critical load ip: 19496832 freq: 620
rob stalling non-critical load ip: 19496840 freq: 22
rob stalling non-critical load ip: 19496848 freq: 6
rob stalling non-critical load ip: 19496880 freq: 2567
rob stalling non-critical load ip: 19496888 freq: 234
rob stalling non-critical load ip: 19496900 freq: 1040
[...]
Critical_ROB_Stalls_Percent_1_Bucket_6: 14421
Non-critical_ROB_Stalls_Percent_1_Bucket_6: 3545
Critical_ROB_Stalls_Percent_2_Bucket_0: 381831
Non-critical_ROB_Stalls_Percent_2_Bucket_0: 249207
Critical_ROB_Stalls_Percent_2_Bucket_1: 3843
Non-critical_ROB_Stalls_Percent_2_Bucket_1: 25285
Critical_ROB_Stalls_Percent_2_Bucket_2: 2793
Non-critical_ROB_Stalls_Percent_2_Bucket_2: 5212
Critical_ROB_Stalls_Percent_2_Bucket_3: 4526
Non-critical_ROB_Stalls_Percent_2_Bucket_3: 3712
Critical_ROB_Stalls_Percent_2_Bucket_4: 9267
Non-critical_ROB_Stalls_Percent_2_Bucket_4: 3399
Critical_ROB_Stalls_Percent_2_Bucket_5: 12077
Non-critical_ROB_Stalls_Percent_2_Bucket_5: 2412
Critical_ROB_Stalls_Percent_2_Bucket_6: 14432
Non-critical_ROB_Stalls_Percent_2_Bucket_6: 3534
Critical_ROB_Stalls_Percent_3_Bucket_0: 415786
Non-critical_ROB_Stalls_Percent_3_Bucket_0: 215252
Critical_ROB_Stalls_Percent_3_Bucket_1: 4549
Non-critical_ROB_Stalls_Percent_3_Bucket_1: 24579
Critical_ROB_Stalls_Percent_3_Bucket_2: 2824
Non-critical_ROB_Stalls_Percent_3_Bucket_2: 5181
Critical_ROB_Stalls_Percent_3_Bucket_3: 4538
Non-critical_ROB_Stalls_Percent_3_Bucket_3: 3700
Critical_ROB_Stalls_Percent_3_Bucket_4: 9277
Non-critical_ROB_Stalls_Percent_3_Bucket_4: 3389
Critical_ROB_Stalls_Percent_3_Bucket_5: 12083
Non-critical_ROB_Stalls_Percent_3_Bucket_5: 2406
Critical_ROB_Stalls_Percent_3_Bucket_6: 14454
Non-critical_ROB_Stalls_Percent_3_Bucket_6: 3512
Critical_ROB_Stalls_Percent_4_Bucket_0: 448142
Non-critical_ROB_Stalls_Percent_4_Bucket_0: 182896
Critical_ROB_Stalls_Percent_4_Bucket_1: 7008
Non-critical_ROB_Stalls_Percent_4_Bucket_1: 22120
Critical_ROB_Stalls_Percent_4_Bucket_2: 2950
Non-critical_ROB_Stalls_Percent_4_Bucket_2: 5055
Critical_ROB_Stalls_Percent_4_Bucket_3: 4622
Non-critical_ROB_Stalls_Percent_4_Bucket_3: 3616
Critical_ROB_Stalls_Percent_4_Bucket_4: 9376
Non-critical_ROB_Stalls_Percent_4_Bucket_4: 3290
Critical_ROB_Stalls_Percent_4_Bucket_5: 12187
Non-critical_ROB_Stalls_Percent_4_Bucket_5: 2302
Critical_ROB_Stalls_Percent_4_Bucket_6: 14471
Non-critical_ROB_Stalls_Percent_4_Bucket_6: 3495
Critical_ROB_Stalls_Percent_5_Bucket_0: 482349
Non-critical_ROB_Stalls_Percent_5_Bucket_0: 148689
Critical_ROB_Stalls_Percent_5_Bucket_1: 8517
Non-critical_ROB_Stalls_Percent_5_Bucket_1: 20611
Critical_ROB_Stalls_Percent_5_Bucket_2: 2993
Non-critical_ROB_Stalls_Percent_5_Bucket_2: 5012
Critical_ROB_Stalls_Percent_5_Bucket_3: 4633
Non-critical_ROB_Stalls_Percent_5_Bucket_3: 3605
Critical_ROB_Stalls_Percent_5_Bucket_4: 9378
Non-critical_ROB_Stalls_Percent_5_Bucket_4: 3288
Critical_ROB_Stalls_Percent_5_Bucket_5: 12196
Non-critical_ROB_Stalls_Percent_5_Bucket_5: 2293
Critical_ROB_Stalls_Percent_5_Bucket_6: 14476
Non-critical_ROB_Stalls_Percent_5_Bucket_6: 3490
Critical_ROB_Stalls_Percent_6_Bucket_0: 511596
Non-critical_ROB_Stalls_Percent_6_Bucket_0: 119442
Critical_ROB_Stalls_Percent_6_Bucket_1: 11741
Non-critical_ROB_Stalls_Percent_6_Bucket_1: 17387
Critical_ROB_Stalls_Percent_6_Bucket_2: 3870
Non-critical_ROB_Stalls_Percent_6_Bucket_2: 4135
Critical_ROB_Stalls_Percent_6_Bucket_3: 5439
Non-critical_ROB_Stalls_Percent_6_Bucket_3: 2799
Critical_ROB_Stalls_Percent_6_Bucket_4: 10127
Non-critical_ROB_Stalls_Percent_6_Bucket_4: 2539
Critical_ROB_Stalls_Percent_6_Bucket_5: 12564
Non-critical_ROB_Stalls_Percent_6_Bucket_5: 1925
Critical_ROB_Stalls_Percent_6_Bucket_6: 14944
Non-critical_ROB_Stalls_Percent_6_Bucket_6: 3022
Critical_ROB_Stalls_Percent_7_Bucket_0: 541136
Non-critical_ROB_Stalls_Percent_7_Bucket_0: 89902
Critical_ROB_Stalls_Percent_7_Bucket_1: 15892
Non-critical_ROB_Stalls_Percent_7_Bucket_1: 13236
Critical_ROB_Stalls_Percent_7_Bucket_2: 4463
Non-critical_ROB_Stalls_Percent_7_Bucket_2: 3542
Critical_ROB_Stalls_Percent_7_Bucket_3: 5925
Non-critical_ROB_Stalls_Percent_7_Bucket_3: 2313
Critical_ROB_Stalls_Percent_7_Bucket_4: 10545
Non-critical_ROB_Stalls_Percent_7_Bucket_4: 2121
Critical_ROB_Stalls_Percent_7_Bucket_5: 12780
Non-critical_ROB_Stalls_Percent_7_Bucket_5: 1709
Critical_ROB_Stalls_Percent_7_Bucket_6: 15187
Non-critical_ROB_Stalls_Percent_7_Bucket_6: 2779
Critical_ROB_Stalls_Percent_8_Bucket_0: 571306
Non-critical_ROB_Stalls_Percent_8_Bucket_0: 59732
Critical_ROB_Stalls_Percent_8_Bucket_1: 17605
Non-critical_ROB_Stalls_Percent_8_Bucket_1: 11523
Critical_ROB_Stalls_Percent_8_Bucket_2: 5178
Non-critical_ROB_Stalls_Percent_8_Bucket_2: 2827
Critical_ROB_Stalls_Percent_8_Bucket_3: 6494
Non-critical_ROB_Stalls_Percent_8_Bucket_3: 1744
Critical_ROB_Stalls_Percent_8_Bucket_4: 11132
Non-critical_ROB_Stalls_Percent_8_Bucket_4: 1534
Critical_ROB_Stalls_Percent_8_Bucket_5: 13276
Non-critical_ROB_Stalls_Percent_8_Bucket_5: 1213
Critical_ROB_Stalls_Percent_8_Bucket_6: 16166
Non-critical_ROB_Stalls_Percent_8_Bucket_6: 1800
Average ROB occupancy Load Stall Begin: 34.0248
Average ROB occupancy Load Stall End: 39.7584
Min ROB occupancy Load Stall Begin: 1
Max ROB occupancy Load Stall Begin: 351
Min ROB occupancy Load Stall End: 1
Max ROB occupancy Load Stall End: 352
Average ROB occupancy Critical Load Stall Begin: -nan
Average ROB occupancy Critical Load Stall End: -nan
Min ROB occupancy Critical Load Stall Begin: 400
Max ROB occupancy Critical Load Stall Begin: 0
Min ROB occupancy Critical Load Stall End: 400
Max ROB occupancy Critical Load Stall End: 0
 ROB Load Stall Begin Bucket Count 0: 637817
 ROB Load Stall End Bucket Count 0: 631038
 ROB Critical Load Stall Begin Bucket Count 0: 0
 ROB Critical Load Stall End Bucket Count 0: 0
 ROB Load Stall Begin Bucket Count 1: 25928
 ROB Load Stall End Bucket Count 1: 29128
 ROB Critical Load Stall Begin Bucket Count 1: 0
 ROB Critical Load Stall End Bucket Count 1: 0
 ROB Load Stall Begin Bucket Count 2: 7645
 ROB Load Stall End Bucket Count 2: 8005
 ROB Critical Load Stall Begin Bucket Count 2: 0
 ROB Critical Load Stall End Bucket Count 2: 0
 ROB Load Stall Begin Bucket Count 3: 8532
 ROB Load Stall End Bucket Count 3: 8238
 ROB Critical Load Stall Begin Bucket Count 3: 0
 ROB Critical Load Stall End Bucket Count 3: 0
 ROB Load Stall Begin Bucket Count 4: 13798
 ROB Load Stall End Bucket Count 4: 12666
 ROB Critical Load Stall Begin Bucket Count 4: 0
 ROB Critical Load Stall End Bucket Count 4: 0
 ROB Load Stall Begin Bucket Count 5: 14088
 ROB Load Stall End Bucket Count 5: 14489
 ROB Critical Load Stall Begin Bucket Count 5: 0
 ROB Critical Load Stall End Bucket Count 5: 0
 ROB Load Stall Begin Bucket Count 6: 13723
 ROB Load Stall End Bucket Count 6: 17966
 ROB Critical Load Stall Begin Bucket Count 6: 0
 ROB Critical Load Stall End Bucket Count 6: 0
PIST Tag Read Accesses: 61356
PIST Read Accesses: 30678
PIST Tag Write Accesses: 61356
PIST Write Accesses: 30678
Criticality detector called times: 357335
Max global_stall_cycles_count: 258260
Threshold Modified: 1 times, factor: -1
Sturdy critical IP cache stats: 
 Unused entries: 0
CIC Tag Read Accesses: 0
CIC Read Accesses: 0
CIC Tag Write Accesses: 0
CIC Write Accesses: 0
Wobbly critical IP cache stats: 
 Unused entries: 115
CIC Tag Read Accesses: 52704233
CIC Read Accesses: 0
CIC Tag Write Accesses: 4941
CIC Write Accesses: 0
ITLB TOTAL     ACCESS:    8946530  HIT:    7599929  MISS:    1346601  HIT %:    84.9483  MISS %:    15.0517   MPKI: 26.932
ITLB LOAD TRANSLATION ACCESS:    8946530  HIT:    7599929  MISS:    1346601  HIT %:    84.9483  MISS %:    15.0517   MPKI: 26.932
ITLB PREFETCH  REQUESTED:          0  ISSUED:          0  USEFUL:          0  USELESS:          0
ITLB USEFUL LOAD PREFETCHES:          0 PREFETCH ISSUED TO LOWER LEVEL:          0  ACCURACY: -nan
ITLB TIMELY PREFETCHES:          0 LATE PREFETCHES: 0 DROPPED PREFETCHES: 0
ITLB PREFETCHES SAME FILL-ORIGIN LEVEL: 0 DIFFERENT FILL-ORIGIN LEVEL: 0
ITLB AVERAGE MISS LATENCY: 30.2938 cycles
ITLB RQ	ACCESS:   11042367	FORWARD:          0	MERGED:    1521333	TO_CACHE:    9521034

DTLB TOTAL     ACCESS:    6333477  HIT:    4477587  MISS:    1855890  HIT %:    70.6971  MISS %:    29.3029   MPKI: 37.1178
DTLB LOAD TRANSLATION ACCESS:    6333477  HIT:    4477587  MISS:    1855890  HIT %:    70.6971  MISS %:    29.3029   MPKI: 37.1178
DTLB PREFETCH  REQUESTED:          0  ISSUED:          0  USEFUL:          0  USELESS:          0
DTLB USEFUL LOAD PREFETCHES:          0 PREFETCH ISSUED TO LOWER LEVEL:          0  ACCURACY: -nan
DTLB TIMELY PREFETCHES:          0 LATE PREFETCHES: 0 DROPPED PREFETCHES: 0
DTLB PREFETCHES SAME FILL-ORIGIN LEVEL: 0 DIFFERENT FILL-ORIGIN LEVEL: 0
DTLB AVERAGE MISS LATENCY: 31.0533 cycles
DTLB RQ	ACCESS:    9340887	FORWARD:          0	MERGED:    2669376	TO_CACHE:    6671511

STLB TOTAL     ACCESS:    3202491  HIT:     820991  MISS:    2381500  HIT %:     25.636  MISS %:     74.364   MPKI: 47.63
STLB LOAD TRANSLATION ACCESS:    3202491  HIT:     820991  MISS:    2381500  HIT %:     25.636  MISS %:     74.364   MPKI: 47.63
STLB PREFETCH  REQUESTED:          0  ISSUED:          0  USEFUL:          0  USELESS:          0
STLB USEFUL LOAD PREFETCHES:          0 PREFETCH ISSUED TO LOWER LEVEL:          0  ACCURACY: -nan
STLB TIMELY PREFETCHES:          0 LATE PREFETCHES: 0 DROPPED PREFETCHES: 0
STLB PREFETCHES SAME FILL-ORIGIN LEVEL: 0 DIFFERENT FILL-ORIGIN LEVEL: 0
STLB AVERAGE MISS LATENCY: 29.1232 cycles
STLB RQ	ACCESS:    3202491	FORWARD:          0	MERGED:          0	TO_CACHE:    3202491

STLB Hit, L1D data hit: 0
STLB Hit, L2C data hit: 0
STLB Hit, LLC data hit: 0
STLB Hit, LLC data miss: 0
STLB STLB hints to L2: 0
L1D TOTAL     ACCESS:    8800129  HIT:    8238079  MISS:     562050  HIT %:    93.6132  MISS %:    6.38684   MPKI: 11.241
L1D LOAD      ACCESS:    5076801  HIT:    4664985  MISS:     411816  HIT %:    91.8883  MISS %:    8.11172   MPKI: 8.23632
L1D RFO       ACCESS:    3723328  HIT:    3573094  MISS:     150234  HIT %:    95.9651  MISS %:    4.03494   MPKI: 3.00468
L1D PREFETCH  REQUESTED:          0  ISSUED:          0  USEFUL:          0  USELESS:          0
L1D USEFUL LOAD PREFETCHES:          0 PREFETCH ISSUED TO LOWER LEVEL:          0  ACCURACY: -nan
L1D TIMELY PREFETCHES:          0 LATE PREFETCHES: 0 DROPPED PREFETCHES: 0
L1D PREFETCHES SAME FILL-ORIGIN LEVEL: 0 DIFFERENT FILL-ORIGIN LEVEL: 0
L1D AVERAGE MISS LATENCY: 67.5854 cycles
L1D RQ	ACCESS:    8936367	FORWARD:          0	MERGED:    3805454	TO_CACHE:    5097246
L1D WQ	ACCESS:    4300691	FORWARD:      33667	MERGED:      57050	TO_CACHE:    4243641

L1D UNIQUE REGIONS ACCESSED: 0
L1D REGIONS CONFLICTS: 0
L1D Cross Page Prefetch Requests: 0
L1D Same Page Prefetch Requests: 0
L1D ROI Sum of L1D PQ occupancy: 0
L1D PREFETCHES PUSHED FROM L2C: 0
L1I TOTAL     ACCESS:   10456993  HIT:    8607173  MISS:    1849820  HIT %:    82.3102  MISS %:    17.6898   MPKI: 36.9964
L1I LOAD      ACCESS:   10456993  HIT:    8607173  MISS:    1849820  HIT %:    82.3102  MISS %:    17.6898   MPKI: 36.9964
L1I PREFETCH  REQUESTED:          0  ISSUED:          0  USEFUL:          0  USELESS:          0
L1I USEFUL LOAD PREFETCHES:          0 PREFETCH ISSUED TO LOWER LEVEL:          0  ACCURACY: -nan
L1I TIMELY PREFETCHES:          0 LATE PREFETCHES: 0 DROPPED PREFETCHES: 0
L1I PREFETCHES SAME FILL-ORIGIN LEVEL: 0 DIFFERENT FILL-ORIGIN LEVEL: 0
L1I AVERAGE MISS LATENCY: 15.2229 cycles
L1I RQ	ACCESS:   19772609	FORWARD:          0	MERGED:    8730242	TO_CACHE:   11042367

BTB BRANCH_DIRECT_JUMP	ACCESS:          0  HIT:          0  MISS:          0
BTB BRANCH_INDIRECT	ACCESS:          0  HIT:          0  MISS:          0
BTB BRANCH_CONDITIONAL	ACCESS:          0  HIT:          0  MISS:          0
BTB BRANCH_DIRECT_CALL	ACCESS:          0  HIT:          0  MISS:          0
BTB BRANCH_INDIRECT_CALL	ACCESS:          0  HIT:          0  MISS:          0
BTB BRANCH_RETURN	ACCESS:          0  HIT:          0  MISS:          0
BTB BRANCH_OTHER ACCESS:          0  HIT:          0  MISS:          0

L2C TOTAL     ACCESS:    5584264  HIT:    5114075  MISS:     470189  HIT %:    91.5801  MISS %:    8.41989   MPKI: 9.40378
L2C LOAD      ACCESS:    2261631  HIT:    2153259  MISS:     108372  HIT %:    95.2082  MISS %:    4.79176   MPKI: 2.16744
L2C DATA LOAD MPKI: 1.63902
L2C INSTRUCTION LOAD MPKI: 0.52842
L2C RFO       ACCESS:     150221  HIT:      42076  MISS:     108145  HIT %:    28.0094  MISS %:    71.9906   MPKI: 2.1629
L2C PREFETCH  ACCESS:     326644  HIT:      96072  MISS:     230572  HIT %:    29.4118  MISS %:    70.5882   MPKI: 4.61144
L2C DATA PREFETCH MPKI: 4.61144
L2C INSTRUCTION PREFETCH MPKI: 0
L2C WRITEBACK ACCESS:     239876  HIT:     233075  MISS:       6801  HIT %:    97.1648  MISS %:    2.83521   MPKI: 0.13602
L2C LOAD TRANSLATION ACCESS:    2605892  HIT:    2589593  MISS:      16299  HIT %:    99.3745  MISS %:   0.625467   MPKI: 0.32598
L2C PREFETCH  REQUESTED:     347666  ISSUED:     347666  USEFUL:     168959  USELESS:      61556
L2C USEFUL LOAD PREFETCHES:     168959 PREFETCH ISSUED TO LOWER LEVEL:     240678  ACCURACY: 70.2013
L2C TIMELY PREFETCHES:     168959 LATE PREFETCHES: 10106 DROPPED PREFETCHES: 0
L2C PREFETCHES SAME FILL-ORIGIN LEVEL: 240678 DIFFERENT FILL-ORIGIN LEVEL: 0
L2C AVERAGE MISS LATENCY: 156.484 cycles
L2C RQ	ACCESS:    5017762	FORWARD:          0	MERGED:          0	TO_CACHE:    5017747
L2C WQ	ACCESS:     239876	FORWARD:         15	MERGED:          0	TO_CACHE:     239876
L2C PQ	ACCESS:     347666	FORWARD:          0	MERGED:          0	TO_CACHE:     347666

L2C Instructions Evicting Data 22754
L2C Translations Evicting Data 14507
L2C Data Evicting Data 384189
L2C Instructions Evicting Instructions 2593
L2C Translations Evicting Instructions 1140
L2C Data Evicting Instructions 22210
L2C Instructions Evicting Translations 1074
L2C Translations Evicting Translations 652
L2C Data Evicting Translations 14269
L2C Dense regions hint from L2: 0
PSCL5 TOTAL     ACCESS:    2381500  HIT:    2381500  MISS:          0  HIT %:        100  MISS %:          0   MPKI: 0
PSCL5 LOAD TRANSLATION ACCESS:    2381500  HIT:    2381500  MISS:          0  HIT %:        100  MISS %:          0   MPKI: 0
PSCL5 PREFETCH  REQUESTED:          0  ISSUED:          0  USEFUL:          0  USELESS:          0
PSCL5 USEFUL LOAD PREFETCHES:          0 PREFETCH ISSUED TO LOWER LEVEL:          0  ACCURACY: -nan
PSCL5 TIMELY PREFETCHES:          0 LATE PREFETCHES: 0 DROPPED PREFETCHES: 0
PSCL5 PREFETCHES SAME FILL-ORIGIN LEVEL: 0 DIFFERENT FILL-ORIGIN LEVEL: 0

PSCL4 TOTAL     ACCESS:    2381500  HIT:    2381500  MISS:          0  HIT %:        100  MISS %:          0   MPKI: 0
PSCL4 LOAD TRANSLATION ACCESS:    2381500  HIT:    2381500  MISS:          0  HIT %:        100  MISS %:          0   MPKI: 0
PSCL4 PREFETCH  REQUESTED:          0  ISSUED:          0  USEFUL:          0  USELESS:          0
PSCL4 USEFUL LOAD PREFETCHES:          0 PREFETCH ISSUED TO LOWER LEVEL:          0  ACCURACY: -nan
PSCL4 TIMELY PREFETCHES:          0 LATE PREFETCHES: 0 DROPPED PREFETCHES: 0
PSCL4 PREFETCHES SAME FILL-ORIGIN LEVEL: 0 DIFFERENT FILL-ORIGIN LEVEL: 0

PSCL3 TOTAL     ACCESS:    2378573  HIT:    2378094  MISS:        479  HIT %:    99.9799  MISS %:  0.0201381   MPKI: 0.00958
PSCL3 LOAD TRANSLATION ACCESS:    2378573  HIT:    2378094  MISS:        479  HIT %:    99.9799  MISS %:  0.0201381   MPKI: 0.00958
PSCL3 PREFETCH  REQUESTED:          0  ISSUED:          0  USEFUL:          0  USELESS:          0
PSCL3 USEFUL LOAD PREFETCHES:          0 PREFETCH ISSUED TO LOWER LEVEL:          0  ACCURACY: -nan
PSCL3 TIMELY PREFETCHES:          0 LATE PREFETCHES: 0 DROPPED PREFETCHES: 0
PSCL3 PREFETCHES SAME FILL-ORIGIN LEVEL: 0 DIFFERENT FILL-ORIGIN LEVEL: 0

PSCL2 TOTAL     ACCESS:    2381500  HIT:    2157476  MISS:     224024  HIT %:    90.5932  MISS %:    9.40684   MPKI: 4.48048
PSCL2 LOAD TRANSLATION ACCESS:    2381500  HIT:    2157476  MISS:     224024  HIT %:    90.5932  MISS %:    9.40684   MPKI: 4.48048
PSCL2 PREFETCH  REQUESTED:          0  ISSUED:          0  USEFUL:          0  USELESS:          0
PSCL2 USEFUL LOAD PREFETCHES:          0 PREFETCH ISSUED TO LOWER LEVEL:          0  ACCURACY: -nan
PSCL2 TIMELY PREFETCHES:          0 LATE PREFETCHES: 0 DROPPED PREFETCHES: 0
PSCL2 PREFETCHES SAME FILL-ORIGIN LEVEL: 0 DIFFERENT FILL-ORIGIN LEVEL: 0

LLC TOTAL     ACCESS:     616839  HIT:     318642  MISS:     298197  HIT %:    51.6572  MISS %:    48.3428   MPKI: 5.96394
LLC LOAD      ACCESS:      98266  HIT:      53107  MISS:      45159  HIT %:    54.0441  MISS %:    45.9559   MPKI: 0.90318
LLC RFO       ACCESS:     108144  HIT:      38755  MISS:      69389  HIT %:    35.8365  MISS %:    64.1635   MPKI: 1.38778
LLC PREFETCH  ACCESS:     240678  HIT:      65692  MISS:     174986  HIT %:    27.2946  MISS %:    72.7054   MPKI: 3.49972
LLC WRITEBACK ACCESS:     153452  HIT:     150768  MISS:       2684  HIT %:    98.2509  MISS %:    1.74908   MPKI: 0.05368
LLC LOAD TRANSLATION ACCESS:      16299  HIT:      10320  MISS:       5979  HIT %:    63.3168  MISS %:    36.6832   MPKI: 0.11958
LLC PREFETCH  REQUESTED:          0  ISSUED:          0  USEFUL:       3491  USELESS:     171991
LLC USEFUL LOAD PREFETCHES:       3491 PREFETCH ISSUED TO LOWER LEVEL:     174986  ACCURACY: 1.99502
LLC TIMELY PREFETCHES:       3491 LATE PREFETCHES: 0 DROPPED PREFETCHES: 0
LLC PREFETCHES SAME FILL-ORIGIN LEVEL: 0 DIFFERENT FILL-ORIGIN LEVEL: 0
LLC AVERAGE MISS LATENCY: 202.349 cycles
LLC RQ	ACCESS:     222710	FORWARD:          0	MERGED:          0	TO_CACHE:     222709
LLC WQ	ACCESS:     153452	FORWARD:          1	MERGED:          0	TO_CACHE:     153452
LLC PQ	ACCESS:     240678	FORWARD:          0	MERGED:          0	TO_CACHE:     240678

LLC Dense regions hint to LLC: 0

RAW hits: 251531
Loads Generated: 9187898
Loads sent to L1D: 8936367
Stores Generated: 4300691
Stores sent to L1D: 4300691
Major fault: 0 Minor fault: 14378
Allocated PAGES: 14378
[Bingo] PHT Access: 86575
[Bingo] PHT Hit PC+Addr: 36042
[Bingo] PHT Hit PC+Offs: 29931
[Bingo] PHT Miss: 20602
[Bingo] Prefetch PC+Addr: 0
[Bingo] Prefetch PC+Offs: 0
[Bingo] Useful PC+Addr: 0
[Bingo] Useful PC+Offs: 0
[Bingo] Useless PC+Addr: 0
[Bingo] Useless PC+Offs: 0
[Bingo] L1 Prefetch per Region: 0
[Bingo] L2 Prefetch per Region: 6.31736
[Bingo] L3 Prefetch per Region: 0
[Bingo] No Prefetch per Region: 25.6826
[Bingo] Number of Voters Mean: 8.20855
[Bingo] Number of Voters SD: 8.90159
PHT read accesses: 761618
PHT write accesses: 37512
AT read accesses: 331266
AT write accesses: 352668
FT read accesses: 137595
FT write accesses: 86575
PS read accesses: 150476
PS write accesses: 65973
PHT tag read accesses: 1840094
PHT tag write accesses: 73554
AT tag read accesses: 15790145
AT tag write accesses: 368769
FT tag read accesses: 12668439
FT tag write accesses: 176593
PS tag read accesses: 9237856
PS tag write accesses: 216166

DRAM Statistics
 CHANNEL 0
 RQ ROW_BUFFER_HIT:     167189  ROW_BUFFER_MISS:     128323
 DBUS_CONGESTED:        168
 WQ ROW_BUFFER_HIT:      10960  ROW_BUFFER_MISS:      78165  FULL:          0

 AVG_CONGESTED_CYCLE: 4
 All warmup complete: 2
Channel 0 Bank busy for read cycles: 0
Channel 0 Bank busy for write cycles: 0
Channel 0
Rank 0
0banks busy for read cycles: 74757064
0banks busy for write cycles: 14128
1banks busy for read cycles: 3472753
1banks busy for write cycles: 1613523
2banks busy for read cycles: 1652148
2banks busy for write cycles: 775358
3banks busy for read cycles: 867934
3banks busy for write cycles: 482853
4banks busy for read cycles: 577077
4banks busy for write cycles: 360580
5banks busy for read cycles: 347088
5banks busy for write cycles: 261921
6banks busy for read cycles: 273368
6banks busy for write cycles: 205077
7banks busy for read cycles: 385269
7banks busy for write cycles: 217333
8banks busy for read cycles: 1261266
8banks busy for write cycles: 754011

CPU 0 Branch Prediction Accuracy: 99.243% MPKI: 1.41642 Average ROB Occupancy at Mispredict: 30.6154
Branch types
NOT_BRANCH: 0 0%
BRANCH_DIRECT_JUMP: 0 0%
BRANCH_INDIRECT: 0 0%
BRANCH_CONDITIONAL: 0 0%
BRANCH_DIRECT_CALL: 0 0%
BRANCH_INDIRECT_CALL: 0 0%
BRANCH_RETURN: 0 0%
BRANCH_OTHER: 0 0%

DRAM PAGES: 1048576
Allocated PAGES: 14378
