
*** ChampSim Multicore Out-of-Order Simulator ***

Warmup Instructions: 50000000
Simulation Instructions: 50000000
Number of CPUs: 1
LLC sets: 2048
LLC ways: 16
Off-chip DRAM Size: 4096 MB Channels: 1 Width: 64-bit Data Rate: 6400 MT/s
CPU 0 runs ../cloudsuite_traces//streaming_phase0_core2.trace.gz
.gz
BTB has LRU replacement policy
ITLB has LRU replacement policy
DTLB has LRU replacement policy
STLB has LRU replacement policy
L1I has LRU replacement policy
L1D has LRU replacement policy
Bingo PHT WAYS: 16 and PHT_SIZE: 16384
Initialize SRRIP state for L2C
Initialize DRRIP state for LLC
UNIQUE_ASID[0] = €
UNIQUE_ASID[1] = 
Heartbeat CPU 0 instructions: 10000003 cycles: 3330051 heartbeat IPC: 3.00296 cumulative IPC: 3.00296 (Simulation time: 0 hr 1 min 17 sec) 
Heartbeat CPU 0 instructions: 20000001 cycles: 6656152 heartbeat IPC: 3.00652 cumulative IPC: 3.00474 (Simulation time: 0 hr 2 min 41 sec) 
Heartbeat CPU 0 instructions: 30000001 cycles: 10068155 heartbeat IPC: 2.93083 cumulative IPC: 2.97969 (Simulation time: 0 hr 4 min 40 sec) 
Heartbeat CPU 0 instructions: 40000000 cycles: 13445326 heartbeat IPC: 2.96106 cumulative IPC: 2.97501 (Simulation time: 0 hr 6 min 26 sec) 
Heartbeat CPU 0 instructions: 50000000 cycles: 16843357 heartbeat IPC: 2.94288 cumulative IPC: 2.96853 (Simulation time: 0 hr 8 min 5 sec) 

Warmup complete CPU 0 instructions: 50000004 cycles: 16843358 (Simulation time: 0 hr 8 min 5 sec) 

Heartbeat CPU 0 instructions: 60000000 cycles: 35298092 heartbeat IPC: 0.541866 cumulative IPC: 0.541866 (Simulation time: 0 hr 11 min 42 sec) 
Heartbeat CPU 0 instructions: 70000003 cycles: 52980527 heartbeat IPC: 0.565533 cumulative IPC: 0.553447 (Simulation time: 0 hr 15 min 0 sec) 
Heartbeat CPU 0 instructions: 80000001 cycles: 68977348 heartbeat IPC: 0.625124 cumulative IPC: 0.57544 (Simulation time: 0 hr 17 min 45 sec) 
Heartbeat CPU 0 instructions: 90000002 cycles: 84749907 heartbeat IPC: 0.634013 cumulative IPC: 0.589045 (Simulation time: 0 hr 20 min 16 sec) 
Heartbeat CPU 0 instructions: 100000000 cycles: 102363173 heartbeat IPC: 0.567754 cumulative IPC: 0.58466 (Simulation time: 0 hr 22 min 58 sec) 
Finished CPU 0 instructions: 50000000 cycles: 85519816 cumulative IPC: 0.58466 (Simulation time: 0 hr 22 min 58 sec) 

ChampSim completed all CPUs

Region of Interest Statistics

CPU 0 cumulative IPC: 0.58466 instructions: 50000000 cycles: 85519816

CPU 0 Average Load ROB stall cycles: 1.94964e+07
CPU 0 Fraction of times ROB stalled by Loads: 31.2078
CPU 0 Percentage of Load stall cycles in Total stall cycles: 1.48179e+08
Issued all: 34507716
Issued LT all: 27111957
rob_not_full_when_issued_lt_all: 24043040
Issued LT one: 25201321
rob_not_full_when_issued_lt_one: 22334630
 Total stall cycles: 71806498
 Total load stall cycles: 106402178083664
Unique Load IPs: 7205
CPU 0 NUM of IPS identified critical: 125
CPU 0 Num of Load IPs stalling ROB: 0
Threshold modification factor: 0
Trouble in retire width: -nan
MaC = Marked as critical.
lt_50_percent_before_Mac: 60
gt_90_percent_before_Mac: 5
gt_75_percent_before_Mac: 24
gt_50_percent_before_Mac: 27
stall_proportion_bin_same_before_after: 0
stall_proportion_bin_lower_before_after: 0
stall_proportion_bin_upper_before_after: 0
average_stall_proportion_before: 0.0307928
average_stall_proportion_after: 0.032717
Critical_IP_Detector_Accuracy_70: 0
Critical_IP_Detector_Accuracy_80: 0
Critical_IP_Detector_Accuracy_90: 0
Critical_IP_Detector_Coverage_70: 0
Critical_IP_Detector_Coverage_80: 0
Critical_IP_Detector_Coverage_90: 0
stat_90_percent_critical_ip_stalls_freq: 747587
stat_90_percent_non_critical_ip_stalls_freq: 18446744073708804029
AVERAGE_ROB_Occupancy_90_Percent_Critical_IP_Stalls: 52.7586
AVERAGE_ROB_Occupancy_90_Percent_Non_Critical_IP_Stalls: 3.65769e-12
Critical_IP_ROB_Stalls_Bucket_0: 99691
Non-critical_IP_ROB_Stalls_Bucket_0: 897198
Critical_IP_ROB_Stalls_Bucket_1: 32404
Non-critical_IP_ROB_Stalls_Bucket_1: 432222
Critical_IP_ROB_Stalls_Bucket_2: 6481
Non-critical_IP_ROB_Stalls_Bucket_2: 72573
Critical_IP_ROB_Stalls_Bucket_3: 3588
Non-critical_IP_ROB_Stalls_Bucket_3: 48106
Critical_IP_ROB_Stalls_Bucket_4: 2747
Non-critical_IP_ROB_Stalls_Bucket_4: 20716
Critical_IP_ROB_Stalls_Bucket_5: 3160
Non-critical_IP_ROB_Stalls_Bucket_5: 20325
Critical_IP_ROB_Stalls_Bucket_6: 8176
Non-critical_IP_ROB_Stalls_Bucket_6: 55786
0 => IPs accounting for >50 percent of stalls, 1 => 55, 2 => 60, 3 => 65 and so on till 90.
percent50: inf num IPs:  1
percent55: inf num IPs: 1
percent60: inf num IPs: 1
percent65: inf num IPs: 1
percent70: inf num IPs: 1
percent75: inf num IPs: 1
percent80: inf num IPs: 1
percent85: inf num IPs: 1
percent90: inf num IPs: 1
Critical_ROB_Stalls_Percent_0_Bucket_0: 430726
Non-critical_ROB_Stalls_Percent_0_Bucket_0: 566163
Critical_ROB_Stalls_Percent_0_Bucket_1: 224708
Non-critical_ROB_Stalls_Percent_0_Bucket_1: 239918
Critical_ROB_Stalls_Percent_0_Bucket_2: 42652
Non-critical_ROB_Stalls_Percent_0_Bucket_2: 36402
Critical_ROB_Stalls_Percent_0_Bucket_3: 30930
Non-critical_ROB_Stalls_Percent_0_Bucket_3: 20764
Critical_ROB_Stalls_Percent_0_Bucket_4: 8443
Non-critical_ROB_Stalls_Percent_0_Bucket_4: 15020
Critical_ROB_Stalls_Percent_0_Bucket_5: 4349
Non-critical_ROB_Stalls_Percent_0_Bucket_5: 19136
Critical_ROB_Stalls_Percent_0_Bucket_6: 5779
Non-critical_ROB_Stalls_Percent_0_Bucket_6: 58183
Critical_ROB_Stalls_Percent_1_Bucket_0: 430726
Non-critical_ROB_Stalls_Percent_1_Bucket_0: 566163
Critical_ROB_Stalls_Percent_1_Bucket_1: 224708
Non-critical_ROB_Stalls_Percent_1_Bucket_1: 239918
Critical_ROB_Stalls_Percent_1_Bucket_2: 42652
Non-critical_ROB_Stalls_Percent_1_Bucket_2: 36402
Critical_ROB_Stalls_Percent_1_Bucket_3: 30930
Non-critical_ROB_Stalls_Percent_1_Bucket_3: 20764
Critical_ROB_Stalls_Percent_1_Bucket_4: 8443
Non-critical_ROB_Stalls_Percent_1_Bucket_4: 15020
Critical_ROB_Stalls_Percent_1_Bucket_5: 4349
Non-critical_ROB_Stalls_Percent_1_Bucket_5: 19136
Critical_ROB_Stalls_Percent_1_Bucket_6: 5779
Non-critical_ROB_Stalls_Percent_1_Bucket_6: 58183
Critical_ROB_Stalls_Percent_2_Bucket_0: 430726
Non-critical_ROB_Stalls_Percent_2_Bucket_0: 566163
Critical_ROB_Stalls_Percent_2_Bucket_1: 224708
Non-critical_ROB_Stalls_Percent_2_Bucket_1: 239918
Critical_ROB_Stalls_Percent_2_Bucket_2: 42652
Non-critical_ROB_Stalls_Percent_2_Bucket_2: 36402
Critical_ROB_Stalls_Percent_2_Bucket_3: 30930
Non-critical_ROB_Stalls_Percent_2_Bucket_3: 20764
Critical_ROB_Stalls_Percent_2_Bucket_4: 8443
Non-critical_ROB_Stalls_Percent_2_Bucket_4: 15020
Critical_ROB_Stalls_Percent_2_Bucket_5: 4349
Non-critical_ROB_Stalls_Percent_2_Bucket_5: 19136
Critical_ROB_Stalls_Percent_2_Bucket_6: 5779
Non-critical_ROB_Stalls_Percent_2_Bucket_6: 58183
Critical_ROB_Stalls_Percent_3_Bucket_0: 430726
Non-critical_ROB_Stalls_Percent_3_Bucket_0: 566163
Critical_ROB_Stalls_Percent_3_Bucket_1: 224708
Non-critical_ROB_Stalls_Percent_3_Bucket_1: 239918
Critical_ROB_Stalls_Percent_3_Bucket_2: 42652
Non-critical_ROB_Stalls_Percent_3_Bucket_2: 36402
Critical_ROB_Stalls_Percent_3_Bucket_3: 30930
Non-critical_ROB_Stalls_Percent_3_Bucket_3: 20764
Critical_ROB_Stalls_Percent_3_Bucket_4: 8443
Non-critical_ROB_Stalls_Percent_3_Bucket_4: 15020
Critical_ROB_Stalls_Percent_3_Bucket_5: 4349
Non-critical_ROB_Stalls_Percent_3_Bucket_5: 19136
Critical_ROB_Stalls_Percent_3_Bucket_6: 5779
Non-critical_ROB_Stalls_Percent_3_Bucket_6: 58183
Critical_ROB_Stalls_Percent_4_Bucket_0: 430726
Non-critical_ROB_Stalls_Percent_4_Bucket_0: 566163
Critical_ROB_Stalls_Percent_4_Bucket_1: 224708
Non-critical_ROB_Stalls_Percent_4_Bucket_1: 239918
Critical_ROB_Stalls_Percent_4_Bucket_2: 42652
Non-critical_ROB_Stalls_Percent_4_Bucket_2: 36402
Critical_ROB_Stalls_Percent_4_Bucket_3: 30930
Non-critical_ROB_Stalls_Percent_4_Bucket_3: 20764
Critical_ROB_Stalls_Percent_4_Bucket_4: 8443
Non-critical_ROB_Stalls_Percent_4_Bucket_4: 15020
Critical_ROB_Stalls_Percent_4_Bucket_5: 4349
Non-critical_ROB_Stalls_Percent_4_Bucket_5: 19136
Critical_ROB_Stalls_Percent_4_Bucket_6: 5779
Non-critical_ROB_Stalls_Percent_4_Bucket_6: 58183
Critical_ROB_Stalls_Percent_5_Bucket_0: 430726
Non-critical_ROB_Stalls_Percent_5_Bucket_0: 566163
Critical_ROB_Stalls_Percent_5_Bucket_1: 224708
Non-critical_ROB_Stalls_Percent_5_Bucket_1: 239918
Critical_ROB_Stalls_Percent_5_Bucket_2: 42652
Non-critical_ROB_Stalls_Percent_5_Bucket_2: 36402
Critical_ROB_Stalls_Percent_5_Bucket_3: 30930
Non-critical_ROB_Stalls_Percent_5_Bucket_3: 20764
Critical_ROB_Stalls_Percent_5_Bucket_4: 8443
Non-critical_ROB_Stalls_Percent_5_Bucket_4: 15020
Critical_ROB_Stalls_Percent_5_Bucket_5: 4349
Non-critical_ROB_Stalls_Percent_5_Bucket_5: 19136
Critical_ROB_Stalls_Percent_5_Bucket_6: 5779
Non-critical_ROB_Stalls_Percent_5_Bucket_6: 58183
Critical_ROB_Stalls_Percent_6_Bucket_0: 430726
Non-critical_ROB_Stalls_Percent_6_Bucket_0: 566163
Critical_ROB_Stalls_Percent_6_Bucket_1: 224708
Non-critical_ROB_Stalls_Percent_6_Bucket_1: 239918
Critical_ROB_Stalls_Percent_6_Bucket_2: 42652
Non-critical_ROB_Stalls_Percent_6_Bucket_2: 36402
Critical_ROB_Stalls_Percent_6_Bucket_3: 30930
Non-critical_ROB_Stalls_Percent_6_Bucket_3: 20764
Critical_ROB_Stalls_Percent_6_Bucket_4: 8443
Non-critical_ROB_Stalls_Percent_6_Bucket_4: 15020
Critical_ROB_Stalls_Percent_6_Bucket_5: 4349
Non-critical_ROB_Stalls_Percent_6_Bucket_5: 19136
Critical_ROB_Stalls_Percent_6_Bucket_6: 5779
Non-critical_ROB_Stalls_Percent_6_Bucket_6: 58183
Critical_ROB_Stalls_Percent_7_Bucket_0: 430726
Non-critical_ROB_Stalls_Percent_7_Bucket_0: 566163
Critical_ROB_Stalls_Percent_7_Bucket_1: 224708
Non-critical_ROB_Stalls_Percent_7_Bucket_1: 239918
Critical_ROB_Stalls_Percent_7_Bucket_2: 42652
Non-critical_ROB_Stalls_Percent_7_Bucket_2: 36402
Critical_ROB_Stalls_Percent_7_Bucket_3: 30930
Non-critical_ROB_Stalls_Percent_7_Bucket_3: 20764
Critical_ROB_Stalls_Percent_7_Bucket_4: 8443
Non-critical_ROB_Stalls_Percent_7_Bucket_4: 15020
Critical_ROB_Stalls_Percent_7_Bucket_5: 4349
Non-critical_ROB_Stalls_Percent_7_Bucket_5: 19136
Critical_ROB_Stalls_Percent_7_Bucket_6: 5779
Non-critical_ROB_Stalls_Percent_7_Bucket_6: 58183
Critical_ROB_Stalls_Percent_8_Bucket_0: 430726
Non-critical_ROB_Stalls_Percent_8_Bucket_0: 566163
Critical_ROB_Stalls_Percent_8_Bucket_1: 224708
Non-critical_ROB_Stalls_Percent_8_Bucket_1: 239918
Critical_ROB_Stalls_Percent_8_Bucket_2: 42652
Non-critical_ROB_Stalls_Percent_8_Bucket_2: 36402
Critical_ROB_Stalls_Percent_8_Bucket_3: 30930
Non-critical_ROB_Stalls_Percent_8_Bucket_3: 20764
Critical_ROB_Stalls_Percent_8_Bucket_4: 8443
Non-critical_ROB_Stalls_Percent_8_Bucket_4: 15020
Critical_ROB_Stalls_Percent_8_Bucket_5: 4349
Non-critical_ROB_Stalls_Percent_8_Bucket_5: 19136
Critical_ROB_Stalls_Percent_8_Bucket_6: 5779
Non-critical_ROB_Stalls_Percent_8_Bucket_6: 58183
Average ROB occupancy Load Stall Begin: 42.626
Average ROB occupancy Load Stall End: 62.7735
Min ROB occupancy Load Stall Begin: 1
Max ROB occupancy Load Stall Begin: 352
Min ROB occupancy Load Stall End: 1
Max ROB occupancy Load Stall End: 352
Average ROB occupancy Critical Load Stall Begin: 48.8615
Average ROB occupancy Critical Load Stall End: 59.9403
Min ROB occupancy Critical Load Stall Begin: 1
Max ROB occupancy Critical Load Stall Begin: 352
Min ROB occupancy Critical Load Stall End: 1
Max ROB occupancy Critical Load Stall End: 352
 ROB Load Stall Begin Bucket Count 0: 1321063
 ROB Load Stall End Bucket Count 0: 996889
 ROB Critical Load Stall Begin Bucket Count 0: 56851
 ROB Critical Load Stall End Bucket Count 0: 49879
 ROB Load Stall Begin Bucket Count 1: 214831
 ROB Load Stall End Bucket Count 1: 464626
 ROB Critical Load Stall Begin Bucket Count 1: 12703
 ROB Critical Load Stall End Bucket Count 1: 18128
 ROB Load Stall Begin Bucket Count 2: 47164
 ROB Load Stall End Bucket Count 2: 79054
 ROB Critical Load Stall Begin Bucket Count 2: 2349
 ROB Critical Load Stall End Bucket Count 2: 2961
 ROB Load Stall Begin Bucket Count 3: 25980
 ROB Load Stall End Bucket Count 3: 51694
 ROB Critical Load Stall Begin Bucket Count 3: 1051
 ROB Critical Load Stall End Bucket Count 3: 1410
 ROB Load Stall Begin Bucket Count 4: 21326
 ROB Load Stall End Bucket Count 4: 23463
 ROB Critical Load Stall Begin Bucket Count 4: 1195
 ROB Critical Load Stall End Bucket Count 4: 1241
 ROB Load Stall Begin Bucket Count 5: 26790
 ROB Load Stall End Bucket Count 5: 23485
 ROB Critical Load Stall Begin Bucket Count 5: 1326
 ROB Critical Load Stall End Bucket Count 5: 1360
 ROB Load Stall Begin Bucket Count 6: 46019
 ROB Load Stall End Bucket Count 6: 63962
 ROB Critical Load Stall Begin Bucket Count 6: 1878
 ROB Critical Load Stall End Bucket Count 6: 2385
PIST Tag Read Accesses: 0
PIST Read Accesses: 0
PIST Tag Write Accesses: 0
PIST Write Accesses: 0
Criticality detector called times: 0
Max global_stall_cycles_count: 0
Threshold Modified: 0 times, factor: 0
Sturdy critical IP cache stats: 
 Unused entries: 0
CIC Tag Read Accesses: 0
CIC Read Accesses: 0
CIC Tag Write Accesses: 0
CIC Write Accesses: 0
Wobbly critical IP cache stats: 
 Unused entries: 0
CIC Tag Read Accesses: 72229425
CIC Read Accesses: 0
CIC Tag Write Accesses: 1045390
CIC Write Accesses: 0
ITLB TOTAL     ACCESS:    8533059  HIT:    8006112  MISS:     526947  HIT %:    93.8246  MISS %:    6.17536   MPKI: 10.5389
ITLB LOAD TRANSLATION ACCESS:    8533059  HIT:    8006112  MISS:     526947  HIT %:    93.8246  MISS %:    6.17536   MPKI: 10.5389
ITLB PREFETCH  REQUESTED:          0  ISSUED:          0  USEFUL:          0  USELESS:          0
ITLB USEFUL LOAD PREFETCHES:          0 PREFETCH ISSUED TO LOWER LEVEL:          0  ACCURACY: -nan
ITLB TIMELY PREFETCHES:          0 LATE PREFETCHES: 0 DROPPED PREFETCHES: 0
ITLB PREFETCHES SAME FILL-ORIGIN LEVEL: 0 DIFFERENT FILL-ORIGIN LEVEL: 0
ITLB AVERAGE MISS LATENCY: 32.8311 cycles
ITLB RQ	ACCESS:    9323475	FORWARD:          0	MERGED:     590583	TO_CACHE:    8732892

DTLB TOTAL     ACCESS:    4723879  HIT:    3792260  MISS:     931619  HIT %:    80.2785  MISS %:    19.7215   MPKI: 18.6324
DTLB LOAD TRANSLATION ACCESS:    4723879  HIT:    3792260  MISS:     931619  HIT %:    80.2785  MISS %:    19.7215   MPKI: 18.6324
DTLB PREFETCH  REQUESTED:          0  ISSUED:          0  USEFUL:          0  USELESS:          0
DTLB USEFUL LOAD PREFETCHES:          0 PREFETCH ISSUED TO LOWER LEVEL:          0  ACCURACY: -nan
DTLB TIMELY PREFETCHES:          0 LATE PREFETCHES: 0 DROPPED PREFETCHES: 0
DTLB PREFETCHES SAME FILL-ORIGIN LEVEL: 0 DIFFERENT FILL-ORIGIN LEVEL: 0
DTLB AVERAGE MISS LATENCY: 35.4331 cycles
DTLB RQ	ACCESS:    5806922	FORWARD:          0	MERGED:     940138	TO_CACHE:    4866784

STLB TOTAL     ACCESS:    1458566  HIT:     308556  MISS:    1150010  HIT %:    21.1548  MISS %:    78.8452   MPKI: 23.0002
STLB LOAD TRANSLATION ACCESS:    1458566  HIT:     308556  MISS:    1150010  HIT %:    21.1548  MISS %:    78.8452   MPKI: 23.0002
STLB PREFETCH  REQUESTED:          0  ISSUED:          0  USEFUL:          0  USELESS:          0
STLB USEFUL LOAD PREFETCHES:          0 PREFETCH ISSUED TO LOWER LEVEL:          0  ACCURACY: -nan
STLB TIMELY PREFETCHES:          0 LATE PREFETCHES: 0 DROPPED PREFETCHES: 0
STLB PREFETCHES SAME FILL-ORIGIN LEVEL: 0 DIFFERENT FILL-ORIGIN LEVEL: 0
STLB AVERAGE MISS LATENCY: 32.2199 cycles
STLB RQ	ACCESS:    1458566	FORWARD:          0	MERGED:          0	TO_CACHE:    1458566

STLB Hit, L1D data hit: 0
STLB Hit, L2C data hit: 0
STLB Hit, LLC data hit: 0
STLB Hit, LLC data miss: 0
STLB STLB hints to L2: 0
L1D TOTAL     ACCESS:    4463190  HIT:    3979446  MISS:     483744  HIT %:    89.1615  MISS %:    10.8385   MPKI: 9.67488
L1D LOAD      ACCESS:    3092069  HIT:    2647556  MISS:     444513  HIT %:    85.6241  MISS %:    14.3759   MPKI: 8.89026
L1D RFO       ACCESS:    1371121  HIT:    1331890  MISS:      39231  HIT %:    97.1388  MISS %:    2.86124   MPKI: 0.78462
L1D PREFETCH  REQUESTED:          0  ISSUED:          0  USEFUL:          0  USELESS:          0
L1D USEFUL LOAD PREFETCHES:          0 PREFETCH ISSUED TO LOWER LEVEL:          0  ACCURACY: -nan
L1D TIMELY PREFETCHES:          0 LATE PREFETCHES: 0 DROPPED PREFETCHES: 0
L1D PREFETCHES SAME FILL-ORIGIN LEVEL: 0 DIFFERENT FILL-ORIGIN LEVEL: 0
L1D AVERAGE MISS LATENCY: 109.071 cycles
L1D RQ	ACCESS:    7326368	FORWARD:          0	MERGED:    2997301	TO_CACHE:    4320781
L1D WQ	ACCESS:    1513454	FORWARD:       8286	MERGED:      27313	TO_CACHE:    1486141

L1D UNIQUE REGIONS ACCESSED: 0
L1D REGIONS CONFLICTS: 0
L1D Cross Page Prefetch Requests: 0
L1D Same Page Prefetch Requests: 0
L1D ROI Sum of L1D PQ occupancy: 0
L1D PREFETCHES PUSHED FROM L2C: 0
L1I TOTAL     ACCESS:    9189196  HIT:    8753423  MISS:     435773  HIT %:    95.2578  MISS %:    4.74223   MPKI: 8.71546
L1I LOAD      ACCESS:    9189196  HIT:    8753423  MISS:     435773  HIT %:    95.2578  MISS %:    4.74223   MPKI: 8.71546
L1I PREFETCH  REQUESTED:          0  ISSUED:          0  USEFUL:          0  USELESS:          0
L1I USEFUL LOAD PREFETCHES:          0 PREFETCH ISSUED TO LOWER LEVEL:          0  ACCURACY: -nan
L1I TIMELY PREFETCHES:          0 LATE PREFETCHES: 0 DROPPED PREFETCHES: 0
L1I PREFETCHES SAME FILL-ORIGIN LEVEL: 0 DIFFERENT FILL-ORIGIN LEVEL: 0
L1I AVERAGE MISS LATENCY: 19.2139 cycles
L1I RQ	ACCESS:   15777454	FORWARD:          0	MERGED:    6453979	TO_CACHE:    9323475

BTB BRANCH_DIRECT_JUMP	ACCESS:          0  HIT:          0  MISS:          0
BTB BRANCH_INDIRECT	ACCESS:          0  HIT:          0  MISS:          0
BTB BRANCH_CONDITIONAL	ACCESS:          0  HIT:          0  MISS:          0
BTB BRANCH_DIRECT_CALL	ACCESS:          0  HIT:          0  MISS:          0
BTB BRANCH_INDIRECT_CALL	ACCESS:          0  HIT:          0  MISS:          0
BTB BRANCH_RETURN	ACCESS:          0  HIT:          0  MISS:          0
BTB BRANCH_OTHER ACCESS:          0  HIT:          0  MISS:          0

L2C TOTAL     ACCESS:    2317389  HIT:    1899305  MISS:     418084  HIT %:    81.9588  MISS %:    18.0412   MPKI: 8.36168
L2C LOAD      ACCESS:     880277  HIT:     498352  MISS:     381925  HIT %:    56.6131  MISS %:    43.3869   MPKI: 7.6385
L2C DATA LOAD MPKI: 7.2321
L2C INSTRUCTION LOAD MPKI: 0.4064
L2C RFO       ACCESS:      39225  HIT:      19801  MISS:      19424  HIT %:    50.4806  MISS %:    49.5194   MPKI: 0.38848
L2C PREFETCH  ACCESS:      12260  HIT:       5363  MISS:       6897  HIT %:    43.7439  MISS %:    56.2561   MPKI: 0.13794
L2C DATA PREFETCH MPKI: 0.13794
L2C INSTRUCTION PREFETCH MPKI: 0
L2C WRITEBACK ACCESS:     101178  HIT:     100001  MISS:       1177  HIT %:    98.8367  MISS %:     1.1633   MPKI: 0.02354
L2C LOAD TRANSLATION ACCESS:    1284449  HIT:    1275788  MISS:       8661  HIT %:    99.3257  MISS %:   0.674297   MPKI: 0.17322
L2C PREFETCH  REQUESTED:      13417  ISSUED:      13417  USEFUL:       2092  USELESS:       4837
L2C USEFUL LOAD PREFETCHES:       2092 PREFETCH ISSUED TO LOWER LEVEL:       6947  ACCURACY: 30.1137
L2C TIMELY PREFETCHES:       2092 LATE PREFETCHES: 50 DROPPED PREFETCHES: 0
L2C PREFETCHES SAME FILL-ORIGIN LEVEL: 6947 DIFFERENT FILL-ORIGIN LEVEL: 0
L2C AVERAGE MISS LATENCY: 119.111 cycles
L2C RQ	ACCESS:    2203966	FORWARD:          0	MERGED:          0	TO_CACHE:    2203957
L2C WQ	ACCESS:     101178	FORWARD:          9	MERGED:          0	TO_CACHE:     101178
L2C PQ	ACCESS:      13417	FORWARD:          0	MERGED:          0	TO_CACHE:      13417

L2C Instructions Evicting Data 18775
L2C Translations Evicting Data 7949
L2C Data Evicting Data 361996
L2C Instructions Evicting Instructions 1137
L2C Translations Evicting Instructions 458
L2C Data Evicting Instructions 18163
L2C Instructions Evicting Translations 408
L2C Translations Evicting Translations 254
L2C Data Evicting Translations 7767
L2C Dense regions hint from L2: 0
PSCL5 TOTAL     ACCESS:    1150010  HIT:    1150010  MISS:          0  HIT %:        100  MISS %:          0   MPKI: 0
PSCL5 LOAD TRANSLATION ACCESS:    1150010  HIT:    1150010  MISS:          0  HIT %:        100  MISS %:          0   MPKI: 0
PSCL5 PREFETCH  REQUESTED:          0  ISSUED:          0  USEFUL:          0  USELESS:          0
PSCL5 USEFUL LOAD PREFETCHES:          0 PREFETCH ISSUED TO LOWER LEVEL:          0  ACCURACY: -nan
PSCL5 TIMELY PREFETCHES:          0 LATE PREFETCHES: 0 DROPPED PREFETCHES: 0
PSCL5 PREFETCHES SAME FILL-ORIGIN LEVEL: 0 DIFFERENT FILL-ORIGIN LEVEL: 0

PSCL4 TOTAL     ACCESS:    1150010  HIT:    1150010  MISS:          0  HIT %:        100  MISS %:          0   MPKI: 0
PSCL4 LOAD TRANSLATION ACCESS:    1150010  HIT:    1150010  MISS:          0  HIT %:        100  MISS %:          0   MPKI: 0
PSCL4 PREFETCH  REQUESTED:          0  ISSUED:          0  USEFUL:          0  USELESS:          0
PSCL4 USEFUL LOAD PREFETCHES:          0 PREFETCH ISSUED TO LOWER LEVEL:          0  ACCURACY: -nan
PSCL4 TIMELY PREFETCHES:          0 LATE PREFETCHES: 0 DROPPED PREFETCHES: 0
PSCL4 PREFETCHES SAME FILL-ORIGIN LEVEL: 0 DIFFERENT FILL-ORIGIN LEVEL: 0

PSCL3 TOTAL     ACCESS:    1149593  HIT:    1149400  MISS:        193  HIT %:    99.9832  MISS %:  0.0167886   MPKI: 0.00386
PSCL3 LOAD TRANSLATION ACCESS:    1149593  HIT:    1149400  MISS:        193  HIT %:    99.9832  MISS %:  0.0167886   MPKI: 0.00386
PSCL3 PREFETCH  REQUESTED:          0  ISSUED:          0  USEFUL:          0  USELESS:          0
PSCL3 USEFUL LOAD PREFETCHES:          0 PREFETCH ISSUED TO LOWER LEVEL:          0  ACCURACY: -nan
PSCL3 TIMELY PREFETCHES:          0 LATE PREFETCHES: 0 DROPPED PREFETCHES: 0
PSCL3 PREFETCHES SAME FILL-ORIGIN LEVEL: 0 DIFFERENT FILL-ORIGIN LEVEL: 0

PSCL2 TOTAL     ACCESS:    1150010  HIT:    1015595  MISS:     134415  HIT %:    88.3118  MISS %:    11.6882   MPKI: 2.6883
PSCL2 LOAD TRANSLATION ACCESS:    1150010  HIT:    1015595  MISS:     134415  HIT %:    88.3118  MISS %:    11.6882   MPKI: 2.6883
PSCL2 PREFETCH  REQUESTED:          0  ISSUED:          0  USEFUL:          0  USELESS:          0
PSCL2 USEFUL LOAD PREFETCHES:          0 PREFETCH ISSUED TO LOWER LEVEL:          0  ACCURACY: -nan
PSCL2 TIMELY PREFETCHES:          0 LATE PREFETCHES: 0 DROPPED PREFETCHES: 0
PSCL2 PREFETCHES SAME FILL-ORIGIN LEVEL: 0 DIFFERENT FILL-ORIGIN LEVEL: 0

LLC TOTAL     ACCESS:     468749  HIT:     101930  MISS:     366819  HIT %:    21.7451  MISS %:    78.2549   MPKI: 7.33638
LLC LOAD      ACCESS:     381876  HIT:      42681  MISS:     339195  HIT %:    11.1767  MISS %:    88.8233   MPKI: 6.7839
LLC RFO       ACCESS:      19423  HIT:       3929  MISS:      15494  HIT %:    20.2286  MISS %:    79.7714   MPKI: 0.30988
LLC PREFETCH  ACCESS:       6947  HIT:       2409  MISS:       4538  HIT %:    34.6768  MISS %:    65.3232   MPKI: 0.09076
LLC WRITEBACK ACCESS:      51842  HIT:      49738  MISS:       2104  HIT %:    95.9415  MISS %:    4.05849   MPKI: 0.04208
LLC LOAD TRANSLATION ACCESS:       8661  HIT:       3173  MISS:       5488  HIT %:    36.6355  MISS %:    63.3645   MPKI: 0.10976
LLC PREFETCH  REQUESTED:          0  ISSUED:          0  USEFUL:        279  USELESS:      27603
LLC USEFUL LOAD PREFETCHES:        279 PREFETCH ISSUED TO LOWER LEVEL:       4538  ACCURACY: 6.14808
LLC TIMELY PREFETCHES:        279 LATE PREFETCHES: 0 DROPPED PREFETCHES: 0
LLC PREFETCHES SAME FILL-ORIGIN LEVEL: 0 DIFFERENT FILL-ORIGIN LEVEL: 0
LLC AVERAGE MISS LATENCY: 101.311 cycles
LLC RQ	ACCESS:     409960	FORWARD:          0	MERGED:          0	TO_CACHE:     409960
LLC WQ	ACCESS:      51842	FORWARD:          0	MERGED:          0	TO_CACHE:      51842
LLC PQ	ACCESS:       6947	FORWARD:          0	MERGED:          0	TO_CACHE:       6947

LLC Dense regions hint to LLC: 0

RAW hits: 81504
Loads Generated: 7407872
Loads sent to L1D: 7326368
Stores Generated: 1513454
Stores sent to L1D: 1513454
Major fault: 0 Minor fault: 17128
Allocated PAGES: 17128
[Bingo] PHT Access: 7456
[Bingo] PHT Hit PC+Addr: 3880
[Bingo] PHT Hit PC+Offs: 3307
[Bingo] PHT Miss: 269
[Bingo] Prefetch PC+Addr: 0
[Bingo] Prefetch PC+Offs: 0
[Bingo] Useful PC+Addr: 0
[Bingo] Useful PC+Offs: 0
[Bingo] Useless PC+Addr: 0
[Bingo] Useless PC+Offs: 0
[Bingo] L1 Prefetch per Region: 0
[Bingo] L2 Prefetch per Region: 2.87714
[Bingo] L3 Prefetch per Region: 0
[Bingo] No Prefetch per Region: 29.1229
[Bingo] Number of Voters Mean: 11.2849
[Bingo] Number of Voters SD: 26.6915
PHT read accesses: 73514
PHT write accesses: 1545
AT read accesses: 7195
AT write accesses: 7196
FT read accesses: 7901
FT write accesses: 7456
PS read accesses: 14386
PS write accesses: 7187
PHT tag read accesses: 118378
PHT tag write accesses: 5425
AT tag read accesses: 5755655
AT tag write accesses: 8741
FT tag read accesses: 5870114
FT tag write accesses: 12990
PS tag read accesses: 505477
PS tag write accesses: 21571

DRAM Statistics
 CHANNEL 0
 RQ ROW_BUFFER_HIT:     262164  ROW_BUFFER_MISS:     102551
 DBUS_CONGESTED:        224
 WQ ROW_BUFFER_HIT:      23650  ROW_BUFFER_MISS:      11235  FULL:          0

 AVG_CONGESTED_CYCLE: 4
 All warmup complete: 2
Channel 0 Bank busy for read cycles: 0
Channel 0 Bank busy for write cycles: 0
Channel 0
Rank 0
0banks busy for read cycles: 57039777
0banks busy for write cycles: 22576
1banks busy for read cycles: 19324091
1banks busy for write cycles: 4610986
2banks busy for read cycles: 1877478
2banks busy for write cycles: 811269
3banks busy for read cycles: 793849
3banks busy for write cycles: 251382
4banks busy for read cycles: 361523
4banks busy for write cycles: 82862
5banks busy for read cycles: 164087
5banks busy for write cycles: 28385
6banks busy for read cycles: 73084
6banks busy for write cycles: 9982
7banks busy for read cycles: 28357
7banks busy for write cycles: 10102
8banks busy for read cycles: 16004
8banks busy for write cycles: 14023

CPU 0 Branch Prediction Accuracy: 99.5713% MPKI: 0.6457 Average ROB Occupancy at Mispredict: 44.7214
Branch types
NOT_BRANCH: 0 0%
BRANCH_DIRECT_JUMP: 0 0%
BRANCH_INDIRECT: 0 0%
BRANCH_CONDITIONAL: 0 0%
BRANCH_DIRECT_CALL: 0 0%
BRANCH_INDIRECT_CALL: 0 0%
BRANCH_RETURN: 0 0%
BRANCH_OTHER: 0 0%

DRAM PAGES: 1048576
Allocated PAGES: 17128
