
*** ChampSim Multicore Out-of-Order Simulator ***

Warmup Instructions: 50000000
Simulation Instructions: 50000000
Number of CPUs: 1
LLC sets: 2048
LLC ways: 16
Off-chip DRAM Size: 4096 MB Channels: 1 Width: 64-bit Data Rate: 6400 MT/s
CPU 0 runs ../cloudsuite_traces//streaming_phase0_core2.trace.gz
.gz
BTB has LRU replacement policy
ITLB has LRU replacement policy
DTLB has LRU replacement policy
STLB has LRU replacement policy
L1I has LRU replacement policy
IP Table Entries: 64
L1D has LRU replacement policy
Initialize SRRIP state for L2C
Initialize DRRIP state for LLC
UNIQUE_ASID[0] = €
UNIQUE_ASID[1] = 
Heartbeat CPU 0 instructions: 10000003 cycles: 3329267 heartbeat IPC: 3.00366 cumulative IPC: 3.00366 (Simulation time: 0 hr 0 min 30 sec) 
Heartbeat CPU 0 instructions: 20000001 cycles: 6654866 heartbeat IPC: 3.00698 cumulative IPC: 3.00532 (Simulation time: 0 hr 1 min 2 sec) 
Heartbeat CPU 0 instructions: 30000001 cycles: 10066344 heartbeat IPC: 2.93128 cumulative IPC: 2.98023 (Simulation time: 0 hr 1 min 44 sec) 
Heartbeat CPU 0 instructions: 40000000 cycles: 13443036 heartbeat IPC: 2.96148 cumulative IPC: 2.97552 (Simulation time: 0 hr 2 min 19 sec) 
Heartbeat CPU 0 instructions: 50000000 cycles: 16840999 heartbeat IPC: 2.94294 cumulative IPC: 2.96895 (Simulation time: 0 hr 2 min 58 sec) 

Warmup complete CPU 0 instructions: 50000004 cycles: 16841000 (Simulation time: 0 hr 2 min 58 sec) 

Heartbeat CPU 0 instructions: 60000000 cycles: 35318639 heartbeat IPC: 0.541195 cumulative IPC: 0.541194 (Simulation time: 0 hr 4 min 8 sec) 
Heartbeat CPU 0 instructions: 70000003 cycles: 53007807 heartbeat IPC: 0.565318 cumulative IPC: 0.552993 (Simulation time: 0 hr 5 min 13 sec) 
Heartbeat CPU 0 instructions: 80000001 cycles: 69004713 heartbeat IPC: 0.625121 cumulative IPC: 0.575112 (Simulation time: 0 hr 6 min 9 sec) 
Heartbeat CPU 0 instructions: 90000002 cycles: 84782616 heartbeat IPC: 0.633798 cumulative IPC: 0.588741 (Simulation time: 0 hr 6 min 47 sec) 
Heartbeat CPU 0 instructions: 100000000 cycles: 102397945 heartbeat IPC: 0.567687 cumulative IPC: 0.584406 (Simulation time: 0 hr 7 min 21 sec) 
Finished CPU 0 instructions: 50000000 cycles: 85556946 cumulative IPC: 0.584406 (Simulation time: 0 hr 7 min 21 sec) 

ChampSim completed all CPUs

Region of Interest Statistics

CPU 0 cumulative IPC: 0.584406 instructions: 50000000 cycles: 85556946

CPU 0 Average Load ROB stall cycles: 1.9527e+07
CPU 0 Fraction of times ROB stalled by Loads: 31.2161
CPU 0 Percentage of Load stall cycles in Total stall cycles: 1.48066e+08
Issued all: 34551307
Issued LT all: 27155144
rob_not_full_when_issued_lt_all: 24039473
Issued LT one: 25245183
rob_not_full_when_issued_lt_one: 22333089
HPCA_2009 critical_dynamic_instances_0: 99473
HPCA_2009 unique_critical_ips_0: 2912
multiple_destinations_0: 0
load_to_same_dest_0: 0
low_issue_rate_0: 8243392
total_issue_rate_checked_count_0: 8839815
 Total stall cycles: 71849677
 Total load stall cycles: 106384854565580
Unique Load IPs: 7205
CPU 0 NUM of IPS identified critical: 0
CPU 0 Num of Load IPs stalling ROB: 0
Threshold modification factor: 0
Trouble in retire width: -nan
MaC = Marked as critical.
lt_50_percent_before_Mac: 0
gt_90_percent_before_Mac: 0
gt_75_percent_before_Mac: 0
gt_50_percent_before_Mac: 0
stall_proportion_bin_same_before_after: 0
stall_proportion_bin_lower_before_after: 0
stall_proportion_bin_upper_before_after: 0
average_stall_proportion_before: -nan
average_stall_proportion_after: -nan
Critical IP stalls, total frequency: 0
Non-critical IP stalls, total frequency: 0
Total Freq all stalling IPs: 0
Critical_IP_Detector_Accuracy_70: 0.000343407
Critical_IP_Detector_Accuracy_80: 0.000343407
Critical_IP_Detector_Accuracy_90: 0.000343407
Critical_IP_Detector_Coverage_70: 1
Critical_IP_Detector_Coverage_80: 1
Critical_IP_Detector_Coverage_90: 1
stat_90_percent_critical_ip_stalls_freq: 745807
stat_90_percent_non_critical_ip_stalls_freq: 18446744073708805809
AVERAGE_ROB_Occupancy_90_Percent_Critical_IP_Stalls: 53.0128
AVERAGE_ROB_Occupancy_90_Percent_Non_Critical_IP_Stalls: 3.66661e-12
Critical_IP_ROB_Stalls_Bucket_0: 0
Non-critical_IP_ROB_Stalls_Bucket_0: 993695
Critical_IP_ROB_Stalls_Bucket_1: 0
Non-critical_IP_ROB_Stalls_Bucket_1: 463422
Critical_IP_ROB_Stalls_Bucket_2: 0
Non-critical_IP_ROB_Stalls_Bucket_2: 79394
Critical_IP_ROB_Stalls_Bucket_3: 0
Non-critical_IP_ROB_Stalls_Bucket_3: 52341
Critical_IP_ROB_Stalls_Bucket_4: 0
Non-critical_IP_ROB_Stalls_Bucket_4: 23603
Critical_IP_ROB_Stalls_Bucket_5: 0
Non-critical_IP_ROB_Stalls_Bucket_5: 23851
Critical_IP_ROB_Stalls_Bucket_6: 0
Non-critical_IP_ROB_Stalls_Bucket_6: 64373
0 => IPs accounting for >50 percent of stalls, 1 => 55, 2 => 60, 3 => 65 and so on till 90.
percent50: inf num IPs:  1
percent55: inf num IPs: 1
percent60: inf num IPs: 1
percent65: inf num IPs: 1
percent70: inf num IPs: 1
percent75: inf num IPs: 1
percent80: inf num IPs: 1
percent85: inf num IPs: 1
percent90: inf num IPs: 1
Critical_ROB_Stalls_Percent_0_Bucket_0: 428901
Non-critical_ROB_Stalls_Percent_0_Bucket_0: 564794
Critical_ROB_Stalls_Percent_0_Bucket_1: 223390
Non-critical_ROB_Stalls_Percent_0_Bucket_1: 240032
Critical_ROB_Stalls_Percent_0_Bucket_2: 43368
Non-critical_ROB_Stalls_Percent_0_Bucket_2: 36026
Critical_ROB_Stalls_Percent_0_Bucket_3: 31253
Non-critical_ROB_Stalls_Percent_0_Bucket_3: 21088
Critical_ROB_Stalls_Percent_0_Bucket_4: 8493
Non-critical_ROB_Stalls_Percent_0_Bucket_4: 15110
Critical_ROB_Stalls_Percent_0_Bucket_5: 4589
Non-critical_ROB_Stalls_Percent_0_Bucket_5: 19262
Critical_ROB_Stalls_Percent_0_Bucket_6: 5813
Non-critical_ROB_Stalls_Percent_0_Bucket_6: 58560
Critical_ROB_Stalls_Percent_1_Bucket_0: 428901
Non-critical_ROB_Stalls_Percent_1_Bucket_0: 564794
Critical_ROB_Stalls_Percent_1_Bucket_1: 223390
Non-critical_ROB_Stalls_Percent_1_Bucket_1: 240032
Critical_ROB_Stalls_Percent_1_Bucket_2: 43368
Non-critical_ROB_Stalls_Percent_1_Bucket_2: 36026
Critical_ROB_Stalls_Percent_1_Bucket_3: 31253
Non-critical_ROB_Stalls_Percent_1_Bucket_3: 21088
Critical_ROB_Stalls_Percent_1_Bucket_4: 8493
Non-critical_ROB_Stalls_Percent_1_Bucket_4: 15110
Critical_ROB_Stalls_Percent_1_Bucket_5: 4589
Non-critical_ROB_Stalls_Percent_1_Bucket_5: 19262
Critical_ROB_Stalls_Percent_1_Bucket_6: 5813
Non-critical_ROB_Stalls_Percent_1_Bucket_6: 58560
Critical_ROB_Stalls_Percent_2_Bucket_0: 428901
Non-critical_ROB_Stalls_Percent_2_Bucket_0: 564794
Critical_ROB_Stalls_Percent_2_Bucket_1: 223390
Non-critical_ROB_Stalls_Percent_2_Bucket_1: 240032
Critical_ROB_Stalls_Percent_2_Bucket_2: 43368
Non-critical_ROB_Stalls_Percent_2_Bucket_2: 36026
Critical_ROB_Stalls_Percent_2_Bucket_3: 31253
Non-critical_ROB_Stalls_Percent_2_Bucket_3: 21088
Critical_ROB_Stalls_Percent_2_Bucket_4: 8493
Non-critical_ROB_Stalls_Percent_2_Bucket_4: 15110
Critical_ROB_Stalls_Percent_2_Bucket_5: 4589
Non-critical_ROB_Stalls_Percent_2_Bucket_5: 19262
Critical_ROB_Stalls_Percent_2_Bucket_6: 5813
Non-critical_ROB_Stalls_Percent_2_Bucket_6: 58560
Critical_ROB_Stalls_Percent_3_Bucket_0: 428901
Non-critical_ROB_Stalls_Percent_3_Bucket_0: 564794
Critical_ROB_Stalls_Percent_3_Bucket_1: 223390
Non-critical_ROB_Stalls_Percent_3_Bucket_1: 240032
Critical_ROB_Stalls_Percent_3_Bucket_2: 43368
Non-critical_ROB_Stalls_Percent_3_Bucket_2: 36026
Critical_ROB_Stalls_Percent_3_Bucket_3: 31253
Non-critical_ROB_Stalls_Percent_3_Bucket_3: 21088
Critical_ROB_Stalls_Percent_3_Bucket_4: 8493
Non-critical_ROB_Stalls_Percent_3_Bucket_4: 15110
Critical_ROB_Stalls_Percent_3_Bucket_5: 4589
Non-critical_ROB_Stalls_Percent_3_Bucket_5: 19262
Critical_ROB_Stalls_Percent_3_Bucket_6: 5813
Non-critical_ROB_Stalls_Percent_3_Bucket_6: 58560
Critical_ROB_Stalls_Percent_4_Bucket_0: 428901
Non-critical_ROB_Stalls_Percent_4_Bucket_0: 564794
Critical_ROB_Stalls_Percent_4_Bucket_1: 223390
Non-critical_ROB_Stalls_Percent_4_Bucket_1: 240032
Critical_ROB_Stalls_Percent_4_Bucket_2: 43368
Non-critical_ROB_Stalls_Percent_4_Bucket_2: 36026
Critical_ROB_Stalls_Percent_4_Bucket_3: 31253
Non-critical_ROB_Stalls_Percent_4_Bucket_3: 21088
Critical_ROB_Stalls_Percent_4_Bucket_4: 8493
Non-critical_ROB_Stalls_Percent_4_Bucket_4: 15110
Critical_ROB_Stalls_Percent_4_Bucket_5: 4589
Non-critical_ROB_Stalls_Percent_4_Bucket_5: 19262
Critical_ROB_Stalls_Percent_4_Bucket_6: 5813
Non-critical_ROB_Stalls_Percent_4_Bucket_6: 58560
Critical_ROB_Stalls_Percent_5_Bucket_0: 428901
Non-critical_ROB_Stalls_Percent_5_Bucket_0: 564794
Critical_ROB_Stalls_Percent_5_Bucket_1: 223390
Non-critical_ROB_Stalls_Percent_5_Bucket_1: 240032
Critical_ROB_Stalls_Percent_5_Bucket_2: 43368
Non-critical_ROB_Stalls_Percent_5_Bucket_2: 36026
Critical_ROB_Stalls_Percent_5_Bucket_3: 31253
Non-critical_ROB_Stalls_Percent_5_Bucket_3: 21088
Critical_ROB_Stalls_Percent_5_Bucket_4: 8493
Non-critical_ROB_Stalls_Percent_5_Bucket_4: 15110
Critical_ROB_Stalls_Percent_5_Bucket_5: 4589
Non-critical_ROB_Stalls_Percent_5_Bucket_5: 19262
Critical_ROB_Stalls_Percent_5_Bucket_6: 5813
Non-critical_ROB_Stalls_Percent_5_Bucket_6: 58560
Critical_ROB_Stalls_Percent_6_Bucket_0: 428901
Non-critical_ROB_Stalls_Percent_6_Bucket_0: 564794
Critical_ROB_Stalls_Percent_6_Bucket_1: 223390
Non-critical_ROB_Stalls_Percent_6_Bucket_1: 240032
Critical_ROB_Stalls_Percent_6_Bucket_2: 43368
Non-critical_ROB_Stalls_Percent_6_Bucket_2: 36026
Critical_ROB_Stalls_Percent_6_Bucket_3: 31253
Non-critical_ROB_Stalls_Percent_6_Bucket_3: 21088
Critical_ROB_Stalls_Percent_6_Bucket_4: 8493
Non-critical_ROB_Stalls_Percent_6_Bucket_4: 15110
Critical_ROB_Stalls_Percent_6_Bucket_5: 4589
Non-critical_ROB_Stalls_Percent_6_Bucket_5: 19262
Critical_ROB_Stalls_Percent_6_Bucket_6: 5813
Non-critical_ROB_Stalls_Percent_6_Bucket_6: 58560
Critical_ROB_Stalls_Percent_7_Bucket_0: 428901
Non-critical_ROB_Stalls_Percent_7_Bucket_0: 564794
Critical_ROB_Stalls_Percent_7_Bucket_1: 223390
Non-critical_ROB_Stalls_Percent_7_Bucket_1: 240032
Critical_ROB_Stalls_Percent_7_Bucket_2: 43368
Non-critical_ROB_Stalls_Percent_7_Bucket_2: 36026
Critical_ROB_Stalls_Percent_7_Bucket_3: 31253
Non-critical_ROB_Stalls_Percent_7_Bucket_3: 21088
Critical_ROB_Stalls_Percent_7_Bucket_4: 8493
Non-critical_ROB_Stalls_Percent_7_Bucket_4: 15110
Critical_ROB_Stalls_Percent_7_Bucket_5: 4589
Non-critical_ROB_Stalls_Percent_7_Bucket_5: 19262
Critical_ROB_Stalls_Percent_7_Bucket_6: 5813
Non-critical_ROB_Stalls_Percent_7_Bucket_6: 58560
Critical_ROB_Stalls_Percent_8_Bucket_0: 428901
Non-critical_ROB_Stalls_Percent_8_Bucket_0: 564794
Critical_ROB_Stalls_Percent_8_Bucket_1: 223390
Non-critical_ROB_Stalls_Percent_8_Bucket_1: 240032
Critical_ROB_Stalls_Percent_8_Bucket_2: 43368
Non-critical_ROB_Stalls_Percent_8_Bucket_2: 36026
Critical_ROB_Stalls_Percent_8_Bucket_3: 31253
Non-critical_ROB_Stalls_Percent_8_Bucket_3: 21088
Critical_ROB_Stalls_Percent_8_Bucket_4: 8493
Non-critical_ROB_Stalls_Percent_8_Bucket_4: 15110
Critical_ROB_Stalls_Percent_8_Bucket_5: 4589
Non-critical_ROB_Stalls_Percent_8_Bucket_5: 19262
Critical_ROB_Stalls_Percent_8_Bucket_6: 5813
Non-critical_ROB_Stalls_Percent_8_Bucket_6: 58560
Average ROB occupancy Load Stall Begin: 42.8318
Average ROB occupancy Load Stall End: 63.0185
Min ROB occupancy Load Stall Begin: 1
Max ROB occupancy Load Stall Begin: 352
Min ROB occupancy Load Stall End: 1
Max ROB occupancy Load Stall End: 352
Average ROB occupancy Critical Load Stall Begin: -nan
Average ROB occupancy Critical Load Stall End: -nan
Min ROB occupancy Critical Load Stall Begin: 400
Max ROB occupancy Critical Load Stall Begin: 0
Min ROB occupancy Critical Load Stall End: 400
Max ROB occupancy Critical Load Stall End: 0
 ROB Load Stall Begin Bucket Count 0: 1317282
 ROB Load Stall End Bucket Count 0: 993695
 ROB Critical Load Stall Begin Bucket Count 0: 0
 ROB Critical Load Stall End Bucket Count 0: 0
 ROB Load Stall Begin Bucket Count 1: 215034
 ROB Load Stall End Bucket Count 1: 463422
 ROB Critical Load Stall Begin Bucket Count 1: 0
 ROB Critical Load Stall End Bucket Count 1: 0
 ROB Load Stall Begin Bucket Count 2: 47250
 ROB Load Stall End Bucket Count 2: 79394
 ROB Critical Load Stall Begin Bucket Count 2: 0
 ROB Critical Load Stall End Bucket Count 2: 0
 ROB Load Stall Begin Bucket Count 3: 26290
 ROB Load Stall End Bucket Count 3: 52341
 ROB Critical Load Stall Begin Bucket Count 3: 0
 ROB Critical Load Stall End Bucket Count 3: 0
 ROB Load Stall Begin Bucket Count 4: 21482
 ROB Load Stall End Bucket Count 4: 23603
 ROB Critical Load Stall Begin Bucket Count 4: 0
 ROB Critical Load Stall End Bucket Count 4: 0
 ROB Load Stall Begin Bucket Count 5: 27020
 ROB Load Stall End Bucket Count 5: 23851
 ROB Critical Load Stall Begin Bucket Count 5: 0
 ROB Critical Load Stall End Bucket Count 5: 0
 ROB Load Stall Begin Bucket Count 6: 46321
 ROB Load Stall End Bucket Count 6: 64373
 ROB Critical Load Stall Begin Bucket Count 6: 0
 ROB Critical Load Stall End Bucket Count 6: 0
PIST Tag Read Accesses: 0
PIST Read Accesses: 0
PIST Tag Write Accesses: 0
PIST Write Accesses: 0
Criticality detector called times: 0
Max global_stall_cycles_count: 0
Threshold Modified: 0 times, factor: 0
ITLB TOTAL     ACCESS:    8532452  HIT:    8005494  MISS:     526958  HIT %:    93.8241  MISS %:    6.17593   MPKI: 10.5392
ITLB LOAD TRANSLATION ACCESS:    8532452  HIT:    8005494  MISS:     526958  HIT %:    93.8241  MISS %:    6.17593   MPKI: 10.5392
ITLB PREFETCH  REQUESTED:          0  ISSUED:          0  USEFUL:          0  USELESS:          0
ITLB USEFUL LOAD PREFETCHES:          0 PREFETCH ISSUED TO LOWER LEVEL:          0  ACCURACY: -nan
ITLB TIMELY PREFETCHES:          0 LATE PREFETCHES: 0 DROPPED PREFETCHES: 0
ITLB PREFETCHES SAME FILL-ORIGIN LEVEL: 0 DIFFERENT FILL-ORIGIN LEVEL: 0
ITLB AVERAGE MISS LATENCY: 32.8338 cycles
ITLB RQ	ACCESS:    9323603	FORWARD:          0	MERGED:     591393	TO_CACHE:    8732210

DTLB TOTAL     ACCESS:    4719695  HIT:    3788253  MISS:     931442  HIT %:    80.2648  MISS %:    19.7352   MPKI: 18.6288
DTLB LOAD TRANSLATION ACCESS:    4719695  HIT:    3788253  MISS:     931442  HIT %:    80.2648  MISS %:    19.7352   MPKI: 18.6288
DTLB PREFETCH  REQUESTED:          0  ISSUED:          0  USEFUL:          0  USELESS:          0
DTLB USEFUL LOAD PREFETCHES:          0 PREFETCH ISSUED TO LOWER LEVEL:          0  ACCURACY: -nan
DTLB TIMELY PREFETCHES:          0 LATE PREFETCHES: 0 DROPPED PREFETCHES: 0
DTLB PREFETCHES SAME FILL-ORIGIN LEVEL: 0 DIFFERENT FILL-ORIGIN LEVEL: 0
DTLB AVERAGE MISS LATENCY: 35.4476 cycles
DTLB RQ	ACCESS:    5803043	FORWARD:          0	MERGED:     940500	TO_CACHE:    4862543

STLB TOTAL     ACCESS:    1458945  HIT:     308945  MISS:    1150000  HIT %:    21.1759  MISS %:    78.8241   MPKI: 23
STLB LOAD TRANSLATION ACCESS:    1458400  HIT:     308691  MISS:    1149709  HIT %:    21.1664  MISS %:    78.8336   MPKI: 22.9942
STLB TRANSLATION FROM L1D PREFETCHER ACCESS:        545  HIT:        254  MISS:        291  HIT %:    46.6055  MISS %:    53.3945   MPKI: 0.00582
STLB PREFETCH  REQUESTED:          0  ISSUED:          0  USEFUL:         94  USELESS:        187
STLB USEFUL LOAD PREFETCHES:         94 PREFETCH ISSUED TO LOWER LEVEL:          0  ACCURACY: inf
STLB TIMELY PREFETCHES:         94 LATE PREFETCHES: 0 DROPPED PREFETCHES: 0
STLB PREFETCHES SAME FILL-ORIGIN LEVEL: 0 DIFFERENT FILL-ORIGIN LEVEL: 0
STLB AVERAGE MISS LATENCY: 32.2386 cycles
STLB RQ	ACCESS:    1460978	FORWARD:          0	MERGED:       2027	TO_CACHE:    1458951

STLB Hit, L1D data hit: 0
STLB Hit, L2C data hit: 0
STLB Hit, LLC data hit: 0
STLB Hit, LLC data miss: 0
STLB STLB hints to L2: 0
L1D TOTAL     ACCESS:    4462253  HIT:    3977096  MISS:     485157  HIT %:    89.1275  MISS %:    10.8725   MPKI: 9.70314
L1D LOAD      ACCESS:    3088715  HIT:    2644369  MISS:     444346  HIT %:    85.6139  MISS %:    14.3861   MPKI: 8.88692
L1D RFO       ACCESS:    1371143  HIT:    1331917  MISS:      39226  HIT %:    97.1392  MISS %:    2.86082   MPKI: 0.78452
L1D PREFETCH  ACCESS:       2395  HIT:        810  MISS:       1585  HIT %:    33.8205  MISS %:    66.1795   MPKI: 0.0317
L1D PREFETCH  REQUESTED:       5166  ISSUED:       5156  USEFUL:        357  USELESS:       1229
L1D USEFUL LOAD PREFETCHES:        357 PREFETCH ISSUED TO LOWER LEVEL:       1669  ACCURACY: 21.3901
L1D TIMELY PREFETCHES:        357 LATE PREFETCHES: 84 DROPPED PREFETCHES: 0
L1D PREFETCHES SAME FILL-ORIGIN LEVEL: 1669 DIFFERENT FILL-ORIGIN LEVEL: 0
L1D AVERAGE MISS LATENCY: 10042.9 cycles
L1D RQ	ACCESS:    7326361	FORWARD:          0	MERGED:    3001117	TO_CACHE:    4316964
L1D WQ	ACCESS:    1513454	FORWARD:       8280	MERGED:      27375	TO_CACHE:    1486079
L1D PQ	ACCESS:       2578	FORWARD:          0	MERGED:          0	TO_CACHE:       2578

L1D UNIQUE REGIONS ACCESSED: 0
L1D REGIONS CONFLICTS: 0
L1D Cross Page Prefetch Requests: 0
L1D Same Page Prefetch Requests: 40096
L1D ROI Sum of L1D PQ occupancy: 93774
L1D PREFETCHES PUSHED FROM L2C: 0
L1I TOTAL     ACCESS:    9189400  HIT:    8753626  MISS:     435774  HIT %:    95.2579  MISS %:    4.74214   MPKI: 8.71548
L1I LOAD      ACCESS:    9189400  HIT:    8753626  MISS:     435774  HIT %:    95.2579  MISS %:    4.74214   MPKI: 8.71548
L1I PREFETCH  REQUESTED:          0  ISSUED:          0  USEFUL:          0  USELESS:          0
L1I USEFUL LOAD PREFETCHES:          0 PREFETCH ISSUED TO LOWER LEVEL:          0  ACCURACY: -nan
L1I TIMELY PREFETCHES:          0 LATE PREFETCHES: 0 DROPPED PREFETCHES: 0
L1I PREFETCHES SAME FILL-ORIGIN LEVEL: 0 DIFFERENT FILL-ORIGIN LEVEL: 0
L1I AVERAGE MISS LATENCY: 19.1309 cycles
L1I RQ	ACCESS:   15777217	FORWARD:          0	MERGED:    6453614	TO_CACHE:    9323603

BTB BRANCH_DIRECT_JUMP	ACCESS:          0  HIT:          0  MISS:          0
BTB BRANCH_INDIRECT	ACCESS:          0  HIT:          0  MISS:          0
BTB BRANCH_CONDITIONAL	ACCESS:          0  HIT:          0  MISS:          0
BTB BRANCH_DIRECT_CALL	ACCESS:          0  HIT:          0  MISS:          0
BTB BRANCH_INDIRECT_CALL	ACCESS:          0  HIT:          0  MISS:          0
BTB BRANCH_RETURN	ACCESS:          0  HIT:          0  MISS:          0
BTB BRANCH_OTHER ACCESS:          0  HIT:          0  MISS:          0

L2C TOTAL     ACCESS:    2306741  HIT:    1893224  MISS:     413517  HIT %:    82.0735  MISS %:    17.9265   MPKI: 8.27034
L2C LOAD      ACCESS:     880028  HIT:     496903  MISS:     383125  HIT %:    56.4645  MISS %:    43.5355   MPKI: 7.6625
L2C DATA LOAD MPKI: 7.26188
L2C INSTRUCTION LOAD MPKI: 0.40062
L2C RFO       ACCESS:      39220  HIT:      19956  MISS:      19264  HIT %:    50.8822  MISS %:    49.1178   MPKI: 0.38528
L2C PREFETCH  ACCESS:       1669  HIT:        220  MISS:       1449  HIT %:    13.1815  MISS %:    86.8185   MPKI: 0.02898
L2C DATA PREFETCH MPKI: 0.02898
L2C INSTRUCTION PREFETCH MPKI: 0
L2C WRITEBACK ACCESS:     101245  HIT:     100097  MISS:       1148  HIT %:    98.8661  MISS %:    1.13388   MPKI: 0.02296
L2C LOAD TRANSLATION ACCESS:    1284277  HIT:    1275746  MISS:       8531  HIT %:    99.3357  MISS %:   0.664265   MPKI: 0.17062
L2C TRANSLATION FROM L1D PREFETCHER ACCESS:        302  HIT:        302  MISS:          0  HIT %:        100  MISS %:          0   MPKI: 0
L2C PREFETCH  REQUESTED:          0  ISSUED:          0  USEFUL:         56  USELESS:       3928
L2C USEFUL LOAD PREFETCHES:         56 PREFETCH ISSUED TO LOWER LEVEL:       1449  ACCURACY: 3.86473
L2C TIMELY PREFETCHES:         56 LATE PREFETCHES: 0 DROPPED PREFETCHES: 0
L2C PREFETCHES SAME FILL-ORIGIN LEVEL: 0 DIFFERENT FILL-ORIGIN LEVEL: 0
L2C AVERAGE MISS LATENCY: 119.12 cycles
L2C RQ	ACCESS:    2203841	FORWARD:          0	MERGED:          0	TO_CACHE:    2203831
L2C WQ	ACCESS:     101245	FORWARD:         10	MERGED:          0	TO_CACHE:     101245
L2C PQ	ACCESS:       1669	FORWARD:          0	MERGED:          0	TO_CACHE:       1669

L2C Instructions Evicting Data 18567
L2C Translations Evicting Data 7860
L2C Data Evicting Data 358043
L2C Instructions Evicting Instructions 1071
L2C Translations Evicting Instructions 417
L2C Data Evicting Instructions 18011
L2C Instructions Evicting Translations 393
L2C Translations Evicting Translations 254
L2C Data Evicting Translations 7753
L2C Dense regions hint from L2: 0
PSCL5 TOTAL     ACCESS:    1150000  HIT:    1150000  MISS:          0  HIT %:        100  MISS %:          0   MPKI: 0
PSCL5 LOAD TRANSLATION ACCESS:    1149709  HIT:    1149709  MISS:          0  HIT %:        100  MISS %:          0   MPKI: 0
PSCL5 TRANSLATION FROM L1D PREFETCHER ACCESS:        291  HIT:        291  MISS:          0  HIT %:        100  MISS %:          0   MPKI: 0
PSCL5 PREFETCH  REQUESTED:          0  ISSUED:          0  USEFUL:          0  USELESS:          0
PSCL5 USEFUL LOAD PREFETCHES:          0 PREFETCH ISSUED TO LOWER LEVEL:          0  ACCURACY: -nan
PSCL5 TIMELY PREFETCHES:          0 LATE PREFETCHES: 0 DROPPED PREFETCHES: 0
PSCL5 PREFETCHES SAME FILL-ORIGIN LEVEL: 0 DIFFERENT FILL-ORIGIN LEVEL: 0

PSCL4 TOTAL     ACCESS:    1150000  HIT:    1150000  MISS:          0  HIT %:        100  MISS %:          0   MPKI: 0
PSCL4 LOAD TRANSLATION ACCESS:    1149709  HIT:    1149709  MISS:          0  HIT %:        100  MISS %:          0   MPKI: 0
PSCL4 TRANSLATION FROM L1D PREFETCHER ACCESS:        291  HIT:        291  MISS:          0  HIT %:        100  MISS %:          0   MPKI: 0
PSCL4 PREFETCH  REQUESTED:          0  ISSUED:          0  USEFUL:          0  USELESS:          0
PSCL4 USEFUL LOAD PREFETCHES:          0 PREFETCH ISSUED TO LOWER LEVEL:          0  ACCURACY: -nan
PSCL4 TIMELY PREFETCHES:          0 LATE PREFETCHES: 0 DROPPED PREFETCHES: 0
PSCL4 PREFETCHES SAME FILL-ORIGIN LEVEL: 0 DIFFERENT FILL-ORIGIN LEVEL: 0

PSCL3 TOTAL     ACCESS:    1149492  HIT:    1149299  MISS:        193  HIT %:    99.9832  MISS %:    0.01679   MPKI: 0.00386
PSCL3 LOAD TRANSLATION ACCESS:    1149201  HIT:    1149008  MISS:        193  HIT %:    99.9832  MISS %:  0.0167943   MPKI: 0.00386
PSCL3 TRANSLATION FROM L1D PREFETCHER ACCESS:        291  HIT:        291  MISS:          0  HIT %:        100  MISS %:          0   MPKI: 0
PSCL3 PREFETCH  REQUESTED:          0  ISSUED:          0  USEFUL:          0  USELESS:          0
PSCL3 USEFUL LOAD PREFETCHES:          0 PREFETCH ISSUED TO LOWER LEVEL:          0  ACCURACY: -nan
PSCL3 TIMELY PREFETCHES:          0 LATE PREFETCHES: 0 DROPPED PREFETCHES: 0
PSCL3 PREFETCHES SAME FILL-ORIGIN LEVEL: 0 DIFFERENT FILL-ORIGIN LEVEL: 0

PSCL2 TOTAL     ACCESS:    1150000  HIT:    1015445  MISS:     134555  HIT %:    88.2996  MISS %:    11.7004   MPKI: 2.6911
PSCL2 LOAD TRANSLATION ACCESS:    1149720  HIT:    1015165  MISS:     134555  HIT %:    88.2967  MISS %:    11.7033   MPKI: 2.6911
PSCL2 TRANSLATION FROM L1D PREFETCHER ACCESS:        280  HIT:        280  MISS:          0  HIT %:        100  MISS %:          0   MPKI: 0
PSCL2 PREFETCH  REQUESTED:          0  ISSUED:          0  USEFUL:          0  USELESS:          0
PSCL2 USEFUL LOAD PREFETCHES:          0 PREFETCH ISSUED TO LOWER LEVEL:          0  ACCURACY: -nan
PSCL2 TIMELY PREFETCHES:          0 LATE PREFETCHES: 0 DROPPED PREFETCHES: 0
PSCL2 PREFETCHES SAME FILL-ORIGIN LEVEL: 0 DIFFERENT FILL-ORIGIN LEVEL: 0

LLC TOTAL     ACCESS:     464372  HIT:      99825  MISS:     364547  HIT %:    21.4968  MISS %:    78.5032   MPKI: 7.29094
LLC LOAD      ACCESS:     383125  HIT:      43107  MISS:     340018  HIT %:    11.2514  MISS %:    88.7486   MPKI: 6.80036
LLC RFO       ACCESS:      19264  HIT:       3844  MISS:      15420  HIT %:    19.9543  MISS %:    80.0457   MPKI: 0.3084
LLC PREFETCH  ACCESS:       1449  HIT:        102  MISS:       1347  HIT %:    7.03934  MISS %:    92.9607   MPKI: 0.02694
LLC WRITEBACK ACCESS:      52003  HIT:      49753  MISS:       2250  HIT %:    95.6733  MISS %:    4.32667   MPKI: 0.045
LLC LOAD TRANSLATION ACCESS:       8531  HIT:       3019  MISS:       5512  HIT %:    35.3886  MISS %:    64.6114   MPKI: 0.11024
LLC PREFETCH  REQUESTED:          0  ISSUED:          0  USEFUL:         25  USELESS:      10760
LLC USEFUL LOAD PREFETCHES:         25 PREFETCH ISSUED TO LOWER LEVEL:       1347  ACCURACY: 1.85598
LLC TIMELY PREFETCHES:         25 LATE PREFETCHES: 0 DROPPED PREFETCHES: 0
LLC PREFETCHES SAME FILL-ORIGIN LEVEL: 0 DIFFERENT FILL-ORIGIN LEVEL: 0
LLC AVERAGE MISS LATENCY: 100.812 cycles
LLC RQ	ACCESS:     410920	FORWARD:          0	MERGED:          0	TO_CACHE:     410920
LLC WQ	ACCESS:      52003	FORWARD:          0	MERGED:          0	TO_CACHE:      52003
LLC PQ	ACCESS:       1449	FORWARD:          0	MERGED:          0	TO_CACHE:       1449

LLC Dense regions hint to LLC: 0

RAW hits: 81511
Loads Generated: 7407872
Loads sent to L1D: 7326361
Stores Generated: 1513454
Stores sent to L1D: 1513454
Major fault: 0 Minor fault: 17128
Allocated PAGES: 17128

stream: 
stream:times selected: 8020
stream:pref_filled: 28662
stream:pref_useful: 27102
stream:pref_late: 141
stream:misses: 1340
stream:misses_by_poll: 0

CS: 
CS:times selected: 138
CS:pref_filled: 17
CS:pref_useful: 17
CS:pref_late: 0
CS:misses: 20
CS:misses_by_poll: 0

CPLX: 
CPLX:times selected: 7705
CPLX:pref_filled: 511
CPLX:pref_useful: 450
CPLX:pref_late: 5
CPLX:misses: 4693
CPLX:misses_by_poll: 0

NL_L1: 
NL:times selected: 15
NL:pref_filled: 9
NL:pref_useful: 9
NL:pref_late: 1
NL:misses: 10
NL:misses_by_poll: 0

total selections: 15878
total_filled: 1585
total_useful: 357
total_late: 148
total_polluted: 0
total_misses_after_warmup: 1658
conflicts: 4595
Degree Incremented Times: 160
Degree Decremented Times: 0

L1 IP Table Write Accesses: 7921
L1 IP Table Read Accesses: 3326
L1 RST Write Accesses: 757
L1 RST Read Accesses: 1514
L1 CSPT Write Accesses: 757
L1 CSPT Read Accesses: 2293
L1 RR Filter Tag Write Accesses: 2588
L1 RR Filter Tag Read Accesses: 145388
L1 IP Table Tag Write Accesses: 13393
L1 IP Table Tag Read Accesses: 13393
L1 RST Tag Write Accesses: 0
L1 RST Tag Read Accesses: 6420
L1 RR Filter Write Accesses: 0
L1 RR Filter Read Accesses: 4934
test: 2831

DRAM Statistics
 CHANNEL 0
 RQ ROW_BUFFER_HIT:     261050  ROW_BUFFER_MISS:     101247
 DBUS_CONGESTED:        181
 WQ ROW_BUFFER_HIT:      24291  ROW_BUFFER_MISS:      11027  FULL:          0

 AVG_CONGESTED_CYCLE: 4
 All warmup complete: 2
Channel 0 Bank busy for read cycles: 0
Channel 0 Bank busy for write cycles: 0
Channel 0
Rank 0
0banks busy for read cycles: 56898896
0banks busy for write cycles: 22855
1banks busy for read cycles: 19482897
1banks busy for write cycles: 4720109
2banks busy for read cycles: 1876868
2banks busy for write cycles: 834879
3banks busy for read cycles: 766825
3banks busy for write cycles: 238762
4banks busy for read cycles: 324744
4banks busy for write cycles: 79742
5banks busy for read cycles: 146240
5banks busy for write cycles: 26538
6banks busy for read cycles: 66302
6banks busy for write cycles: 12334
7banks busy for read cycles: 25754
7banks busy for write cycles: 9041
8banks busy for read cycles: 11921
8banks busy for write cycles: 12240

CPU 0 Branch Prediction Accuracy: 99.5713% MPKI: 0.6457 Average ROB Occupancy at Mispredict: 44.7963
Branch types
NOT_BRANCH: 0 0%
BRANCH_DIRECT_JUMP: 0 0%
BRANCH_INDIRECT: 0 0%
BRANCH_CONDITIONAL: 0 0%
BRANCH_DIRECT_CALL: 0 0%
BRANCH_INDIRECT_CALL: 0 0%
BRANCH_RETURN: 0 0%
BRANCH_OTHER: 0 0%

DRAM PAGES: 1048576
Allocated PAGES: 17128
