
*** ChampSim Multicore Out-of-Order Simulator ***

Warmup Instructions: 50000000
Simulation Instructions: 50000000
Number of CPUs: 1
LLC sets: 2048
LLC ways: 16
Off-chip DRAM Size: 4096 MB Channels: 1 Width: 64-bit Data Rate: 6400 MT/s
CPU 0 runs ../cloudsuite_traces//streaming_phase0_core1.trace.gz
.gz
NUM_OF_IPS_IN_CRITICAL_IP_TRAINING: 64
NUM_OF_CRITICAL_IP_TRAINING_TABLE_WAYS: 2
NUM_OF_CRITICAL_IP_TRAINING_TABLE_SETS: 32
WOBBLY_CRITICAL_IP_CACHE_SETS: 32
WOBBLY_CRITICAL_IP_CACHE_WAYS: 4
BTB has LRU replacement policy
ITLB has LRU replacement policy
DTLB has LRU replacement policy
STLB has LRU replacement policy
L1I has LRU replacement policy
L1D has LRU replacement policy
Bingo PHT WAYS: 16 and PHT_SIZE: 16384
Initialize SRRIP state for L2C
Initialize DRRIP state for LLC
UNIQUE_ASID[0] = €
UNIQUE_ASID[1] = 
Heartbeat CPU 0 instructions: 10000000 cycles: 3333089 heartbeat IPC: 3.00022 cumulative IPC: 3.00022 (Simulation time: 0 hr 1 min 47 sec) 
Heartbeat CPU 0 instructions: 20000001 cycles: 6708161 heartbeat IPC: 2.9629 cumulative IPC: 2.98144 (Simulation time: 0 hr 4 min 56 sec) 
Heartbeat CPU 0 instructions: 30000001 cycles: 10106114 heartbeat IPC: 2.94295 cumulative IPC: 2.9685 (Simulation time: 0 hr 8 min 2 sec) 
Heartbeat CPU 0 instructions: 40000003 cycles: 13485382 heartbeat IPC: 2.95922 cumulative IPC: 2.96618 (Simulation time: 0 hr 11 min 8 sec) 
Heartbeat CPU 0 instructions: 50000001 cycles: 16840964 heartbeat IPC: 2.98011 cumulative IPC: 2.96895 (Simulation time: 0 hr 14 min 16 sec) 

Warmup complete CPU 0 instructions: 50000001 cycles: 16840964 (Simulation time: 0 hr 14 min 16 sec) 

% increase in all ip prefetch 322.158
% increase in all ip prefetch -2.84555
Heartbeat CPU 0 instructions: 60000000 cycles: 34066554 heartbeat IPC: 0.580532 cumulative IPC: 0.580532 (Simulation time: 0 hr 18 min 10 sec) 
Heartbeat CPU 0 instructions: 70000000 cycles: 50959760 heartbeat IPC: 0.591954 cumulative IPC: 0.586187 (Simulation time: 0 hr 21 min 43 sec) 
Heartbeat CPU 0 instructions: 80000000 cycles: 67590910 heartbeat IPC: 0.601281 cumulative IPC: 0.591134 (Simulation time: 0 hr 25 min 6 sec) 
Heartbeat CPU 0 instructions: 90000001 cycles: 84455039 heartbeat IPC: 0.592975 cumulative IPC: 0.591593 (Simulation time: 0 hr 28 min 35 sec) 
Heartbeat CPU 0 instructions: 100000000 cycles: 102869563 heartbeat IPC: 0.54305 cumulative IPC: 0.581202 (Simulation time: 0 hr 33 min 22 sec) 
Finished CPU 0 instructions: 50000001 cycles: 86028601 cumulative IPC: 0.581202 (Simulation time: 0 hr 33 min 22 sec) 

ChampSim completed all CPUs

Region of Interest Statistics

CPU 0 cumulative IPC: 0.581202 instructions: 50000001 cycles: 86028601

CPU 0 Average Load ROB stall cycles: 7.40496e+06
CPU 0 Fraction of times ROB stalled by Loads: 13.8707
CPU 0 Percentage of Load stall cycles in Total stall cycles: 1.10561e+08
 Total stall cycles: 54059030
 Total load stall cycles: 59768275953266
CPU 0 NUM of IPS identified critical: 0
CPU 0 Num of Load IPs stalling ROB: 2642
Threshold modification factor: -1
Max PIST entries: 64
Min PIST entries: 0
Avg PIST entries: 27.67
Critical IP stalls, total frequency: 0
rob stalling non-critical load ip: 236068 freq: 52
rob stalling non-critical load ip: 236072 freq: 3
rob stalling non-critical load ip: 236144 freq: 35
rob stalling non-critical load ip: 236148 freq: 29
rob stalling non-critical load ip: 241552 freq: 36
rob stalling non-critical load ip: 241592 freq: 2
rob stalling non-critical load ip: 241736 freq: 21
rob stalling non-critical load ip: 241788 freq: 30
rob stalling non-critical load ip: 241796 freq: 2228
rob stalling non-critical load ip: 241836 freq: 16
rob stalling non-critical load ip: 241972 freq: 29
rob stalling non-critical load ip: 241992 freq: 43
rob stalling non-critical load ip: 241996 freq: 54
rob stalling non-critical load ip: 242000 freq: 45
rob stalling non-critical load ip: 242004 freq: 2
rob stalling non-critical load ip: 242020 freq: 28
rob stalling non-critical load ip: 242148 freq: 39
rob stalling non-critical load ip: 242156 freq: 66
rob stalling non-critical load ip: 242176 freq: 805
rob stalling non-critical load ip: 242180 freq: 1737
rob stalling non-critical load ip: 242184 freq: 101
rob stalling non-critical load ip: 242208 freq: 40
rob stalling non-critical load ip: 242224 freq: 40
rob stalling non-critical load ip: 242232 freq: 11
rob stalling non-critical load ip: 243608 freq: 2
rob stalling non-critical load ip: 243684 freq: 1
rob stalling non-critical load ip: 245188 freq: 1
rob stalling non-critical load ip: 245668 freq: 560
rob stalling non-critical load ip: 245676 freq: 99
rob stalling non-critical load ip: 245732 freq: 21
rob stalling non-critical load ip: 245792 freq: 23
rob stalling non-critical load ip: 245800 freq: 157
rob stalling non-critical load ip: 245804 freq: 1
rob stalling non-critical load ip: 245848 freq: 89
rob stalling non-critical load ip: 245860 freq: 18
rob stalling non-critical load ip: 245864 freq: 26
rob stalling non-critical load ip: 245876 freq: 20
rob stalling non-critical load ip: 245880 freq: 22
rob stalling non-critical load ip: 245888 freq: 6
rob stalling non-critical load ip: 245892 freq: 14
rob stalling non-critical load ip: 246008 freq: 29
rob stalling non-critical load ip: 246168 freq: 48
rob stalling non-critical load ip: 246204 freq: 272
rob stalling non-critical load ip: 246216 freq: 279
rob stalling non-critical load ip: 246244 freq: 1409
rob stalling non-critical load ip: 246256 freq: 3
rob stalling non-critical load ip: 246344 freq: 261
rob stalling non-critical load ip: 246356 freq: 5
rob stalling non-critical load ip: 250184 freq: 2
rob stalling non-critical load ip: 250260 freq: 1
rob stalling non-critical load ip: 287024 freq: 10
rob stalling non-critical load ip: 287060 freq: 17
rob stalling non-critical load ip: 287088 freq: 6
rob stalling non-critical load ip: 287108 freq: 27
rob stalling non-critical load ip: 287220 freq: 39
rob stalling non-critical load ip: 287244 freq: 19
rob stalling non-critical load ip: 287248 freq: 117
rob stalling non-critical load ip: 287268 freq: 17
rob stalling non-critical load ip: 300124 freq: 23
rob stalling non-critical load ip: 300172 freq: 1
rob stalling non-critical load ip: 300192 freq: 1
rob stalling non-critical load ip: 300224 freq: 2
rob stalling non-critical load ip: 300836 freq: 42
rob stalling non-critical load ip: 300840 freq: 365
rob stalling non-critical load ip: 300848 freq: 153
rob stalling non-critical load ip: 300912 freq: 305
rob stalling non-critical load ip: 300936 freq: 11
rob stalling non-critical load ip: 300964 freq: 703
rob stalling non-critical load ip: 301048 freq: 3
rob stalling non-critical load ip: 301056 freq: 4
rob stalling non-critical load ip: 301164 freq: 2
rob stalling non-critical load ip: 301188 freq: 20
rob stalling non-critical load ip: 301524 freq: 21
rob stalling non-critical load ip: 301712 freq: 8
rob stalling non-critical load ip: 301716 freq: 43
rob stalling non-critical load ip: 301720 freq: 11
rob stalling non-critical load ip: 303592 freq: 1
rob stalling non-critical load ip: 316060 freq: 1
rob stalling non-critical load ip: 316092 freq: 1
rob stalling non-critical load ip: 318120 freq: 3
rob stalling non-critical load ip: 318132 freq: 10
rob stalling non-critical load ip: 318636 freq: 10
rob stalling non-critical load ip: 318800 freq: 1
rob stalling non-critical load ip: 318948 freq: 3
rob stalling non-critical load ip: 319220 freq: 4
rob stalling non-critical load ip: 329676 freq: 6
rob stalling non-critical load ip: 341868 freq: 703
rob stalling non-critical load ip: 341884 freq: 8
rob stalling non-critical load ip: 341888 freq: 1
rob stalling non-critical load ip: 341916 freq: 8
rob stalling non-critical load ip: 341940 freq: 11
rob stalling non-critical load ip: 341944 freq: 560
rob stalling non-critical load ip: 342004 freq: 493
rob stalling non-critical load ip: 342068 freq: 15
rob stalling non-critical load ip: 352920 freq: 11
rob stalling non-critical load ip: 353000 freq: 23
rob stalling non-critical load ip: 353036 freq: 29
rob stalling non-critical load ip: 353040 freq: 60
rob stalling non-critical load ip: 353052 freq: 10
rob stalling non-critical load ip: 353076 freq: 15
rob stalling non-critical load ip: 353092 freq: 3
rob stalling non-critical load ip: 353216 freq: 4
rob stalling non-critical load ip: 353220 freq: 771
rob stalling non-critical load ip: 353236 freq: 14
rob stalling non-critical load ip: 353260 freq: 8
rob stalling non-critical load ip: 353312 freq: 192
rob stalling non-critical load ip: 353316 freq: 39
rob stalling non-critical load ip: 353332 freq: 9
rob stalling non-critical load ip: 353356 freq: 9
rob stalling non-critical load ip: 353392 freq: 1100
rob stalling non-critical load ip: 353416 freq: 2
rob stalling non-critical load ip: 353420 freq: 2
rob stalling non-critical load ip: 353492 freq: 141
rob stalling non-critical load ip: 353540 freq: 13
rob stalling non-critical load ip: 353544 freq: 79
rob stalling non-critical load ip: 353564 freq: 98
rob stalling non-critical load ip: 353604 freq: 28
rob stalling non-critical load ip: 353636 freq: 60
rob stalling non-critical load ip: 353640 freq: 92
rob stalling non-critical load ip: 353652 freq: 6
rob stalling non-critical load ip: 353696 freq: 7
rob stalling non-critical load ip: 353744 freq: 8
rob stalling non-critical load ip: 353784 freq: 55
rob stalling non-critical load ip: 353788 freq: 115
rob stalling non-critical load ip: 353828 freq: 115
rob stalling non-critical load ip: 353852 freq: 2
rob stalling non-critical load ip: 353880 freq: 10
rob stalling non-critical load ip: 353904 freq: 5
rob stalling non-critical load ip: 353912 freq: 1
rob stalling non-critical load ip: 353948 freq: 35
rob stalling non-critical load ip: 354164 freq: 133
rob stalling non-critical load ip: 354176 freq: 3
rob stalling non-critical load ip: 354180 freq: 2
rob stalling non-critical load ip: 354200 freq: 2
rob stalling non-critical load ip: 354212 freq: 6
rob stalling non-critical load ip: 354712 freq: 18
rob stalling non-critical load ip: 354716 freq: 54
rob stalling non-critical load ip: 354728 freq: 3
rob stalling non-critical load ip: 354740 freq: 119
rob stalling non-critical load ip: 354744 freq: 7
rob stalling non-critical load ip: 354752 freq: 6
rob stalling non-critical load ip: 354764 freq: 5
rob stalling non-critical load ip: 354776 freq: 10
rob stalling non-critical load ip: 356340 freq: 3
rob stalling non-critical load ip: 356360 freq: 1
rob stalling non-critical load ip: 366536 freq: 1
rob stalling non-critical load ip: 374788 freq: 3
rob stalling non-critical load ip: 375016 freq: 2
rob stalling non-critical load ip: 375752 freq: 1
rob stalling non-critical load ip: 385072 freq: 1
rob stalling non-critical load ip: 390504 freq: 1
rob stalling non-critical load ip: 391028 freq: 1
rob stalling non-critical load ip: 391152 freq: 1
rob stalling non-critical load ip: 392096 freq: 1
rob stalling non-critical load ip: 392132 freq: 1
rob stalling non-critical load ip: 392224 freq: 1
rob stalling non-critical load ip: 392360 freq: 2
rob stalling non-critical load ip: 394196 freq: 1
rob stalling non-critical load ip: 394372 freq: 1
rob stalling non-critical load ip: 394384 freq: 81
rob stalling non-critical load ip: 396936 freq: 1
rob stalling non-critical load ip: 398912 freq: 1
rob stalling non-critical load ip: 403588 freq: 1
rob stalling non-critical load ip: 406856 freq: 1
rob stalling non-critical load ip: 411512 freq: 1
rob stalling non-critical load ip: 411540 freq: 1
rob stalling non-critical load ip: 411668 freq: 1
rob stalling non-critical load ip: 412172 freq: 1
rob stalling non-critical load ip: 412296 freq: 1
rob stalling non-critical load ip: 413008 freq: 1
rob stalling non-critical load ip: 416288 freq: 1
rob stalling non-critical load ip: 516668 freq: 52
rob stalling non-critical load ip: 516676 freq: 7
rob stalling non-critical load ip: 516976 freq: 746
rob stalling non-critical load ip: 517352 freq: 19
rob stalling non-critical load ip: 517396 freq: 5
rob stalling non-critical load ip: 517404 freq: 6
rob stalling non-critical load ip: 529136 freq: 1
rob stalling non-critical load ip: 529284 freq: 2
rob stalling non-critical load ip: 553220 freq: 1
rob stalling non-critical load ip: 553860 freq: 1
rob stalling non-critical load ip: 557576 freq: 1
rob stalling non-critical load ip: 560076 freq: 1
rob stalling non-critical load ip: 578212 freq: 2
rob stalling non-critical load ip: 578260 freq: 1
rob stalling non-critical load ip: 579524 freq: 2
rob stalling non-critical load ip: 579896 freq: 1
rob stalling non-critical load ip: 580356 freq: 1
rob stalling non-critical load ip: 581524 freq: 1
rob stalling non-critical load ip: 589008 freq: 4
rob stalling non-critical load ip: 589012 freq: 1
rob stalling non-critical load ip: 589036 freq: 3
rob stalling non-critical load ip: 589052 freq: 1
rob stalling non-critical load ip: 589084 freq: 6
rob stalling non-critical load ip: 589120 freq: 6
rob stalling non-critical load ip: 589136 freq: 11
rob stalling non-critical load ip: 589144 freq: 44
rob stalling non-critical load ip: 589156 freq: 13
rob stalling non-critical load ip: 589180 freq: 10
rob stalling non-critical load ip: 589236 freq: 117
rob stalling non-critical load ip: 589240 freq: 73
rob stalling non-critical load ip: 589252 freq: 73
rob stalling non-critical load ip: 589256 freq: 16
rob stalling non-critical load ip: 589260 freq: 2
rob stalling non-critical load ip: 589284 freq: 42
rob stalling non-critical load ip: 589288 freq: 19
rob stalling non-critical load ip: 589392 freq: 5
rob stalling non-critical load ip: 589908 freq: 4
rob stalling non-critical load ip: 589912 freq: 5
rob stalling non-critical load ip: 589916 freq: 6
rob stalling non-critical load ip: 589932 freq: 15
rob stalling non-critical load ip: 589948 freq: 22
rob stalling non-critical load ip: 589960 freq: 20
rob stalling non-critical load ip: 589964 freq: 3
rob stalling non-critical load ip: 590000 freq: 38
rob stalling non-critical load ip: 590012 freq: 44
rob stalling non-critical load ip: 590036 freq: 33
rob stalling non-critical load ip: 590040 freq: 6
rob stalling non-critical load ip: 590064 freq: 20
rob stalling non-critical load ip: 590136 freq: 61
rob stalling non-critical load ip: 590148 freq: 12
rob stalling non-critical load ip: 590216 freq: 4
rob stalling non-critical load ip: 590352 freq: 5
rob stalling non-critical load ip: 590956 freq: 2
rob stalling non-critical load ip: 591084 freq: 1
rob stalling non-critical load ip: 597052 freq: 1
rob stalling non-critical load ip: 628980 freq: 1
rob stalling non-critical load ip: 722812 freq: 1
rob stalling non-critical load ip: 722816 freq: 1
rob stalling non-critical load ip: 722896 freq: 66
rob stalling non-critical load ip: 722900 freq: 1
rob stalling non-critical load ip: 722920 freq: 5
rob stalling non-critical load ip: 769160 freq: 1
rob stalling non-critical load ip: 784776 freq: 1
rob stalling non-critical load ip: 785028 freq: 1
rob stalling non-critical load ip: 785076 freq: 2
rob stalling non-critical load ip: 785312 freq: 1
rob stalling non-critical load ip: 837080 freq: 1
rob stalling non-critical load ip: 838100 freq: 1
rob stalling non-critical load ip: 842608 freq: 1
rob stalling non-critical load ip: 842824 freq: 2
rob stalling non-critical load ip: 843036 freq: 2
rob stalling non-critical load ip: 843084 freq: 1
rob stalling non-critical load ip: 843140 freq: 2
rob stalling non-critical load ip: 843292 freq: 2
rob stalling non-critical load ip: 843344 freq: 2
rob stalling non-critical load ip: 843400 freq: 2
rob stalling non-critical load ip: 843504 freq: 1
rob stalling non-critical load ip: 843612 freq: 2
rob stalling non-critical load ip: 843664 freq: 2
rob stalling non-critical load ip: 843716 freq: 2
rob stalling non-critical load ip: 844020 freq: 2
rob stalling non-critical load ip: 844168 freq: 2
rob stalling non-critical load ip: 844548 freq: 2
rob stalling non-critical load ip: 844640 freq: 2
rob stalling non-critical load ip: 844872 freq: 2
rob stalling non-critical load ip: 845148 freq: 2
rob stalling non-critical load ip: 845196 freq: 2
rob stalling non-critical load ip: 845512 freq: 2
rob stalling non-critical load ip: 845648 freq: 2
rob stalling non-critical load ip: 845744 freq: 2
rob stalling non-critical load ip: 845996 freq: 4
rob stalling non-critical load ip: 846088 freq: 5
rob stalling non-critical load ip: 846400 freq: 2
rob stalling non-critical load ip: 846404 freq: 9
rob stalling non-critical load ip: 849864 freq: 1
rob stalling non-critical load ip: 852864 freq: 4
rob stalling non-critical load ip: 852948 freq: 18
rob stalling non-critical load ip: 852988 freq: 3
rob stalling non-critical load ip: 854916 freq: 1
rob stalling non-critical load ip: 855308 freq: 4
rob stalling non-critical load ip: 856100 freq: 103
rob stalling non-critical load ip: 856148 freq: 12
rob stalling non-critical load ip: 856428 freq: 2
rob stalling non-critical load ip: 856660 freq: 1
rob stalling non-critical load ip: 857344 freq: 1614
rob stalling non-critical load ip: 857508 freq: 2105
rob stalling non-critical load ip: 857592 freq: 12
rob stalling non-critical load ip: 857616 freq: 368
rob stalling non-critical load ip: 857628 freq: 14
rob stalling non-critical load ip: 857640 freq: 3
rob stalling non-critical load ip: 857680 freq: 316
rob stalling non-critical load ip: 857820 freq: 35
rob stalling non-critical load ip: 857892 freq: 29
rob stalling non-critical load ip: 857928 freq: 19
rob stalling non-critical load ip: 857976 freq: 1
rob stalling non-critical load ip: 858072 freq: 1
rob stalling non-critical load ip: 858172 freq: 7
rob stalling non-critical load ip: 858176 freq: 6
rob stalling non-critical load ip: 858192 freq: 3
rob stalling non-critical load ip: 858372 freq: 1
rob stalling non-critical load ip: 858380 freq: 312
rob stalling non-critical load ip: 858396 freq: 9
rob stalling non-critical load ip: 858416 freq: 8
rob stalling non-critical load ip: 858432 freq: 26
rob stalling non-critical load ip: 858436 freq: 4
rob stalling non-critical load ip: 858464 freq: 43
rob stalling non-critical load ip: 858468 freq: 68
rob stalling non-critical load ip: 858552 freq: 20
rob stalling non-critical load ip: 858556 freq: 30
rob stalling non-critical load ip: 858620 freq: 2658
rob stalling non-critical load ip: 858696 freq: 2660
rob stalling non-critical load ip: 858880 freq: 75
rob stalling non-critical load ip: 858896 freq: 16
rob stalling non-critical load ip: 858900 freq: 121
rob stalling non-critical load ip: 858904 freq: 32
rob stalling non-critical load ip: 858912 freq: 24
rob stalling non-critical load ip: 858916 freq: 110
rob stalling non-critical load ip: 858940 freq: 3
rob stalling non-critical load ip: 858964 freq: 32
rob stalling non-critical load ip: 858984 freq: 58
rob stalling non-critical load ip: 859076 freq: 467
rob stalling non-critical load ip: 859088 freq: 321
rob stalling non-critical load ip: 859092 freq: 13
rob stalling non-critical load ip: 859100 freq: 8
rob stalling non-critical load ip: 859316 freq: 53
rob stalling non-critical load ip: 859328 freq: 15
rob stalling non-critical load ip: 859632 freq: 29
rob stalling non-critical load ip: 859940 freq: 397
rob stalling non-critical load ip: 859960 freq: 27
rob stalling non-critical load ip: 859976 freq: 24
rob stalling non-critical load ip: 860000 freq: 445
rob stalling non-critical load ip: 860132 freq: 1432
rob stalling non-critical load ip: 860144 freq: 11
rob stalling non-critical load ip: 860224 freq: 6
rob stalling non-critical load ip: 860504 freq: 3
rob stalling non-critical load ip: 860636 freq: 22
rob stalling non-critical load ip: 860640 freq: 2
rob stalling non-critical load ip: 860644 freq: 28
rob stalling non-critical load ip: 860708 freq: 32
rob stalling non-critical load ip: 861004 freq: 2
rob stalling non-critical load ip: 862156 freq: 1864
rob stalling non-critical load ip: 862192 freq: 501
rob stalling non-critical load ip: 862232 freq: 827
rob stalling non-critical load ip: 862360 freq: 471
rob stalling non-critical load ip: 862384 freq: 179
rob stalling non-critical load ip: 862492 freq: 76
rob stalling non-critical load ip: 862504 freq: 8
rob stalling non-critical load ip: 862880 freq: 87
rob stalling non-critical load ip: 862896 freq: 6
rob stalling non-critical load ip: 862904 freq: 17
rob stalling non-critical load ip: 862916 freq: 5
rob stalling non-critical load ip: 863072 freq: 11
rob stalling non-critical load ip: 863124 freq: 81
rob stalling non-critical load ip: 863136 freq: 160
rob stalling non-critical load ip: 863228 freq: 45
rob stalling non-critical load ip: 863260 freq: 36
rob stalling non-critical load ip: 863292 freq: 18
rob stalling non-critical load ip: 867796 freq: 12
rob stalling non-critical load ip: 870468 freq: 1
rob stalling non-critical load ip: 872452 freq: 3
rob stalling non-critical load ip: 872884 freq: 1
rob stalling non-critical load ip: 873504 freq: 12
rob stalling non-critical load ip: 873520 freq: 5
rob stalling non-critical load ip: 873552 freq: 21
rob stalling non-critical load ip: 873556 freq: 75
rob stalling non-critical load ip: 873708 freq: 4
rob stalling non-critical load ip: 873724 freq: 2
rob stalling non-critical load ip: 873756 freq: 8
rob stalling non-critical load ip: 873924 freq: 2
rob stalling non-critical load ip: 873984 freq: 1
rob stalling non-critical load ip: 874172 freq: 10
rob stalling non-critical load ip: 874188 freq: 7
rob stalling non-critical load ip: 874236 freq: 20
rob stalling non-critical load ip: 874260 freq: 1
rob stalling non-critical load ip: 874288 freq: 4
rob stalling non-critical load ip: 874304 freq: 11
rob stalling non-critical load ip: 874308 freq: 103
rob stalling non-critical load ip: 874336 freq: 4
rob stalling non-critical load ip: 874432 freq: 1
rob stalling non-critical load ip: 874448 freq: 1
rob stalling non-critical load ip: 874552 freq: 13
rob stalling non-critical load ip: 874600 freq: 5
rob stalling non-critical load ip: 876612 freq: 1
rob stalling non-critical load ip: 876992 freq: 1
rob stalling non-critical load ip: 877252 freq: 1
rob stalling non-critical load ip: 878164 freq: 6
rob stalling non-critical load ip: 878268 freq: 3
rob stalling non-critical load ip: 878396 freq: 3
rob stalling non-critical load ip: 878516 freq: 3
rob stalling non-critical load ip: 878824 freq: 5
rob stalling non-critical load ip: 881188 freq: 3
rob stalling non-critical load ip: 881224 freq: 1
rob stalling non-critical load ip: 881372 freq: 2
rob stalling non-critical load ip: 881476 freq: 2
rob stalling non-critical load ip: 881716 freq: 1
rob stalling non-critical load ip: 881736 freq: 9
rob stalling non-critical load ip: 882032 freq: 2
rob stalling non-critical load ip: 882228 freq: 1
rob stalling non-critical load ip: 888332 freq: 32
rob stalling non-critical load ip: 892808 freq: 1
rob stalling non-critical load ip: 893680 freq: 1
rob stalling non-critical load ip: 893700 freq: 1
rob stalling non-critical load ip: 894016 freq: 2
rob stalling non-critical load ip: 895208 freq: 5
rob stalling non-critical load ip: 897224 freq: 1
rob stalling non-critical load ip: 897480 freq: 1
rob stalling non-critical load ip: 906764 freq: 3
rob stalling non-critical load ip: 906780 freq: 2
rob stalling non-critical load ip: 906876 freq: 15
rob stalling non-critical load ip: 909836 freq: 1
rob stalling non-critical load ip: 910004 freq: 60
rob stalling non-critical load ip: 910088 freq: 2617
rob stalling non-critical load ip: 914940 freq: 16
rob stalling non-critical load ip: 914968 freq: 104
rob stalling non-critical load ip: 915504 freq: 41
rob stalling non-critical load ip: 915516 freq: 1243
rob stalling non-critical load ip: 915560 freq: 1041
rob stalling non-critical load ip: 919464 freq: 37
rob stalling non-critical load ip: 919532 freq: 21
rob stalling non-critical load ip: 919544 freq: 5
rob stalling non-critical load ip: 919560 freq: 33
rob stalling non-critical load ip: 919624 freq: 33
rob stalling non-critical load ip: 919640 freq: 7
rob stalling non-critical load ip: 919664 freq: 18
rob stalling non-critical load ip: 919668 freq: 65
rob stalling non-critical load ip: 919968 freq: 1176
rob stalling non-critical load ip: 919976 freq: 541
rob stalling non-critical load ip: 920024 freq: 271
rob stalling non-critical load ip: 920040 freq: 54
rob stalling non-critical load ip: 920076 freq: 146
rob stalling non-critical load ip: 920108 freq: 17
rob stalling non-critical load ip: 920112 freq: 70
rob stalling non-critical load ip: 920148 freq: 53
rob stalling non-critical load ip: 920204 freq: 25
rob stalling non-critical load ip: 920216 freq: 20
rob stalling non-critical load ip: 920248 freq: 29
rob stalling non-critical load ip: 920252 freq: 8
rob stalling non-critical load ip: 920320 freq: 9
rob stalling non-critical load ip: 920324 freq: 4
rob stalling non-critical load ip: 920344 freq: 5
rob stalling non-critical load ip: 920412 freq: 5
rob stalling non-critical load ip: 920440 freq: 27
rob stalling non-critical load ip: 920444 freq: 6
rob stalling non-critical load ip: 920512 freq: 26
rob stalling non-critical load ip: 920620 freq: 146
rob stalling non-critical load ip: 920632 freq: 1
rob stalling non-critical load ip: 920732 freq: 61
rob stalling non-critical load ip: 920764 freq: 19
rob stalling non-critical load ip: 920856 freq: 20
rob stalling non-critical load ip: 920888 freq: 1
rob stalling non-critical load ip: 921224 freq: 6
rob stalling non-critical load ip: 921276 freq: 109
rob stalling non-critical load ip: 921300 freq: 1236
rob stalling non-critical load ip: 921304 freq: 5
rob stalling non-critical load ip: 921336 freq: 13
rob stalling non-critical load ip: 921408 freq: 33
rob stalling non-critical load ip: 921456 freq: 196
rob stalling non-critical load ip: 921460 freq: 204
rob stalling non-critical load ip: 921480 freq: 9
rob stalling non-critical load ip: 921496 freq: 13
rob stalling non-critical load ip: 921520 freq: 250
rob stalling non-critical load ip: 921568 freq: 18
rob stalling non-critical load ip: 921764 freq: 25
rob stalling non-critical load ip: 921768 freq: 1260
rob stalling non-critical load ip: 921784 freq: 91
rob stalling non-critical load ip: 921804 freq: 14
rob stalling non-critical load ip: 921904 freq: 184
rob stalling non-critical load ip: 921920 freq: 13
rob stalling non-critical load ip: 921924 freq: 361
rob stalling non-critical load ip: 921948 freq: 36
rob stalling non-critical load ip: 921952 freq: 138
rob stalling non-critical load ip: 921968 freq: 13
rob stalling non-critical load ip: 922008 freq: 2159
rob stalling non-critical load ip: 922016 freq: 6
rob stalling non-critical load ip: 922500 freq: 10
rob stalling non-critical load ip: 922520 freq: 16
rob stalling non-critical load ip: 922544 freq: 20
rob stalling non-critical load ip: 922548 freq: 1618
rob stalling non-critical load ip: 922596 freq: 19
rob stalling non-critical load ip: 922612 freq: 8
rob stalling non-critical load ip: 922616 freq: 34
rob stalling non-critical load ip: 922624 freq: 5
rob stalling non-critical load ip: 922644 freq: 9
rob stalling non-critical load ip: 922648 freq: 195
rob stalling non-critical load ip: 922652 freq: 2
rob stalling non-critical load ip: 922656 freq: 10
rob stalling non-critical load ip: 922672 freq: 36
rob stalling non-critical load ip: 922812 freq: 295
rob stalling non-critical load ip: 922852 freq: 3
rob stalling non-critical load ip: 922868 freq: 11
rob stalling non-critical load ip: 922888 freq: 438
rob stalling non-critical load ip: 922924 freq: 23
rob stalling non-critical load ip: 923060 freq: 1159
rob stalling non-critical load ip: 923064 freq: 1151
rob stalling non-critical load ip: 923076 freq: 43
rob stalling non-critical load ip: 923080 freq: 1245
rob stalling non-critical load ip: 923088 freq: 15
rob stalling non-critical load ip: 923096 freq: 10
rob stalling non-critical load ip: 923116 freq: 7
rob stalling non-critical load ip: 923816 freq: 45
rob stalling non-critical load ip: 923824 freq: 8
rob stalling non-critical load ip: 923832 freq: 7
rob stalling non-critical load ip: 927304 freq: 2
rob stalling non-critical load ip: 929940 freq: 1
rob stalling non-critical load ip: 930780 freq: 1327
rob stalling non-critical load ip: 930828 freq: 13
rob stalling non-critical load ip: 930832 freq: 4
rob stalling non-critical load ip: 930860 freq: 29
rob stalling non-critical load ip: 930864 freq: 1
rob stalling non-critical load ip: 931136 freq: 3
rob stalling non-critical load ip: 931172 freq: 25
rob stalling non-critical load ip: 931192 freq: 16
rob stalling non-critical load ip: 931200 freq: 39
rob stalling non-critical load ip: 931224 freq: 31
rob stalling non-critical load ip: 931308 freq: 20
rob stalling non-critical load ip: 931320 freq: 158
rob stalling non-critical load ip: 931356 freq: 28
rob stalling non-critical load ip: 931372 freq: 6
rob stalling non-critical load ip: 931380 freq: 74
rob stalling non-critical load ip: 931412 freq: 27
rob stalling non-critical load ip: 931428 freq: 4
rob stalling non-critical load ip: 931436 freq: 34
rob stalling non-critical load ip: 931852 freq: 10
rob stalling non-critical load ip: 931896 freq: 15
rob stalling non-critical load ip: 931924 freq: 5
rob stalling non-critical load ip: 931940 freq: 20
rob stalling non-critical load ip: 931964 freq: 31
rob stalling non-critical load ip: 931968 freq: 90
rob stalling non-critical load ip: 932004 freq: 328
rob stalling non-critical load ip: 932012 freq: 2
rob stalling non-critical load ip: 932044 freq: 68
rob stalling non-critical load ip: 932056 freq: 24
rob stalling non-critical load ip: 932064 freq: 105
rob stalling non-critical load ip: 932072 freq: 306
rob stalling non-critical load ip: 932096 freq: 20
rob stalling non-critical load ip: 932124 freq: 20
rob stalling non-critical load ip: 933392 freq: 2
rob stalling non-critical load ip: 934588 freq: 2
rob stalling non-critical load ip: 938528 freq: 79
rob stalling non-critical load ip: 938540 freq: 38
rob stalling non-critical load ip: 938556 freq: 80
rob stalling non-critical load ip: 938612 freq: 135
rob stalling non-critical load ip: 938616 freq: 26
rob stalling non-critical load ip: 938644 freq: 11
rob stalling non-critical load ip: 938660 freq: 22
rob stalling non-critical load ip: 938668 freq: 39
rob stalling non-critical load ip: 938692 freq: 1
rob stalling non-critical load ip: 938724 freq: 8
rob stalling non-critical load ip: 938756 freq: 40
rob stalling non-critical load ip: 938772 freq: 1
rob stalling non-critical load ip: 938860 freq: 23
rob stalling non-critical load ip: 938912 freq: 31
rob stalling non-critical load ip: 938928 freq: 10
rob stalling non-critical load ip: 939012 freq: 3
rob stalling non-critical load ip: 939192 freq: 6
rob stalling non-critical load ip: 939204 freq: 34
rob stalling non-critical load ip: 944504 freq: 45
rob stalling non-critical load ip: 944536 freq: 49
rob stalling non-critical load ip: 944544 freq: 26
rob stalling non-critical load ip: 945012 freq: 13
rob stalling non-critical load ip: 945032 freq: 17
rob stalling non-critical load ip: 952748 freq: 252
rob stalling non-critical load ip: 952780 freq: 240
rob stalling non-critical load ip: 952796 freq: 79
rob stalling non-critical load ip: 952816 freq: 770
rob stalling non-critical load ip: 952856 freq: 11
rob stalling non-critical load ip: 952900 freq: 286
rob stalling non-critical load ip: 952916 freq: 310
rob stalling non-critical load ip: 952920 freq: 68
rob stalling non-critical load ip: 952932 freq: 3
rob stalling non-critical load ip: 952968 freq: 40
rob stalling non-critical load ip: 952984 freq: 18
rob stalling non-critical load ip: 953040 freq: 42
rob stalling non-critical load ip: 953092 freq: 58
rob stalling non-critical load ip: 953140 freq: 16
rob stalling non-critical load ip: 953144 freq: 26
rob stalling non-critical load ip: 953164 freq: 29
rob stalling non-critical load ip: 953196 freq: 10
rob stalling non-critical load ip: 953208 freq: 4
rob stalling non-critical load ip: 953228 freq: 74
rob stalling non-critical load ip: 953336 freq: 142
rob stalling non-critical load ip: 953472 freq: 33
rob stalling non-critical load ip: 956308 freq: 55
rob stalling non-critical load ip: 956332 freq: 19
rob stalling non-critical load ip: 956340 freq: 14
rob stalling non-critical load ip: 957104 freq: 1
rob stalling non-critical load ip: 957128 freq: 1
rob stalling non-critical load ip: 959332 freq: 1
rob stalling non-critical load ip: 959352 freq: 2
rob stalling non-critical load ip: 959708 freq: 58
rob stalling non-critical load ip: 959720 freq: 5
rob stalling non-critical load ip: 959724 freq: 5
rob stalling non-critical load ip: 959740 freq: 11
rob stalling non-critical load ip: 959744 freq: 12
rob stalling non-critical load ip: 959760 freq: 3
rob stalling non-critical load ip: 959768 freq: 1
rob stalling non-critical load ip: 959812 freq: 16
rob stalling non-critical load ip: 959832 freq: 1
rob stalling non-critical load ip: 959864 freq: 30
rob stalling non-critical load ip: 959888 freq: 32
rob stalling non-critical load ip: 959972 freq: 1
rob stalling non-critical load ip: 959976 freq: 64
rob stalling non-critical load ip: 964556 freq: 1
rob stalling non-critical load ip: 964560 freq: 3
rob stalling non-critical load ip: 1029576 freq: 1498
rob stalling non-critical load ip: 1029596 freq: 326
rob stalling non-critical load ip: 1029612 freq: 20
rob stalling non-critical load ip: 1029628 freq: 295
rob stalling non-critical load ip: 1029652 freq: 27
rob stalling non-critical load ip: 1029672 freq: 173
rob stalling non-critical load ip: 1029684 freq: 9
rob stalling non-critical load ip: 1029688 freq: 4
rob stalling non-critical load ip: 1029720 freq: 50
rob stalling non-critical load ip: 1029740 freq: 354
rob stalling non-critical load ip: 1029776 freq: 444
rob stalling non-critical load ip: 1029812 freq: 10
rob stalling non-critical load ip: 1029816 freq: 9
rob stalling non-critical load ip: 1029832 freq: 17
rob stalling non-critical load ip: 1029844 freq: 13
rob stalling non-critical load ip: 1029980 freq: 14
rob stalling non-critical load ip: 1029996 freq: 19
rob stalling non-critical load ip: 1030008 freq: 16
rob stalling non-critical load ip: 1030128 freq: 39
rob stalling non-critical load ip: 1030144 freq: 1636
rob stalling non-critical load ip: 1030160 freq: 49
rob stalling non-critical load ip: 1031328 freq: 15
rob stalling non-critical load ip: 1031356 freq: 20
rob stalling non-critical load ip: 1031360 freq: 271
rob stalling non-critical load ip: 1032164 freq: 11
rob stalling non-critical load ip: 1032188 freq: 20
rob stalling non-critical load ip: 1032208 freq: 33
rob stalling non-critical load ip: 1032212 freq: 17
rob stalling non-critical load ip: 1032224 freq: 16
rob stalling non-critical load ip: 1032240 freq: 42
rob stalling non-critical load ip: 16780456 freq: 552
rob stalling non-critical load ip: 16780584 freq: 640
rob stalling non-critical load ip: 16783496 freq: 1446
rob stalling non-critical load ip: 16783504 freq: 199
rob stalling non-critical load ip: 16783512 freq: 85
rob stalling non-critical load ip: 16783524 freq: 18
rob stalling non-critical load ip: 16783528 freq: 28
rob stalling non-critical load ip: 16783532 freq: 10681
rob stalling non-critical load ip: 16783536 freq: 29
rob stalling non-critical load ip: 16783544 freq: 56
rob stalling non-critical load ip: 16783548 freq: 1722
rob stalling non-critical load ip: 16783552 freq: 1657
rob stalling non-critical load ip: 16783556 freq: 1
rob stalling non-critical load ip: 16783564 freq: 4362
rob stalling non-critical load ip: 16783568 freq: 32
rob stalling non-critical load ip: 16783572 freq: 3452
rob stalling non-critical load ip: 16783576 freq: 7
rob stalling non-critical load ip: 16783752 freq: 303
rob stalling non-critical load ip: 16783760 freq: 40
rob stalling non-critical load ip: 16783768 freq: 25
rob stalling non-critical load ip: 16783784 freq: 3
rob stalling non-critical load ip: 16783788 freq: 1166
rob stalling non-critical load ip: 16783792 freq: 13
rob stalling non-critical load ip: 16783800 freq: 9
rob stalling non-critical load ip: 16783804 freq: 45
rob stalling non-critical load ip: 16783808 freq: 1511
rob stalling non-critical load ip: 16783820 freq: 113
rob stalling non-critical load ip: 16783824 freq: 3
rob stalling non-critical load ip: 16783828 freq: 99
rob stalling non-critical load ip: 16784128 freq: 4276
rob stalling non-critical load ip: 16784136 freq: 127
rob stalling non-critical load ip: 16784144 freq: 33
rob stalling non-critical load ip: 16784148 freq: 4
rob stalling non-critical load ip: 16784152 freq: 1819
rob stalling non-critical load ip: 16784156 freq: 20
rob stalling non-critical load ip: 16784160 freq: 1292
rob stalling non-critical load ip: 16784164 freq: 3
rob stalling non-critical load ip: 16784168 freq: 1789
rob stalling non-critical load ip: 16784176 freq: 186
rob stalling non-critical load ip: 16784180 freq: 1
rob stalling non-critical load ip: 16784184 freq: 65
rob stalling non-critical load ip: 16796968 freq: 4
rob stalling non-critical load ip: 16800184 freq: 1
rob stalling non-critical load ip: 16800520 freq: 23
rob stalling non-critical load ip: 16800536 freq: 44
rob stalling non-critical load ip: 16803568 freq: 5
rob stalling non-critical load ip: 16806692 freq: 5
rob stalling non-critical load ip: 16806728 freq: 2
rob stalling non-critical load ip: 16807120 freq: 1359
rob stalling non-critical load ip: 16807124 freq: 14
rob stalling non-critical load ip: 16807136 freq: 8
rob stalling non-critical load ip: 16807188 freq: 23
rob stalling non-critical load ip: 16807200 freq: 17
rob stalling non-critical load ip: 16807208 freq: 7
rob stalling non-critical load ip: 16807216 freq: 2
rob stalling non-critical load ip: 16807220 freq: 141
rob stalling non-critical load ip: 16807228 freq: 42
rob stalling non-critical load ip: 16807244 freq: 11
rob stalling non-critical load ip: 16807248 freq: 3
rob stalling non-critical load ip: 16807252 freq: 4
rob stalling non-critical load ip: 16807256 freq: 7
rob stalling non-critical load ip: 16807264 freq: 2
rob stalling non-critical load ip: 16807268 freq: 101
rob stalling non-critical load ip: 16807344 freq: 99
rob stalling non-critical load ip: 16807392 freq: 1609
rob stalling non-critical load ip: 16807812 freq: 30
rob stalling non-critical load ip: 16807816 freq: 10
rob stalling non-critical load ip: 16807864 freq: 38
rob stalling non-critical load ip: 16807908 freq: 15
rob stalling non-critical load ip: 16807956 freq: 34
rob stalling non-critical load ip: 16807964 freq: 22
rob stalling non-critical load ip: 16807984 freq: 23
rob stalling non-critical load ip: 16807996 freq: 3
rob stalling non-critical load ip: 16808020 freq: 35
rob stalling non-critical load ip: 16808024 freq: 10
rob stalling non-critical load ip: 16808028 freq: 63
rob stalling non-critical load ip: 16809376 freq: 2
rob stalling non-critical load ip: 16809664 freq: 2
rob stalling non-critical load ip: 16812528 freq: 20
rob stalling non-critical load ip: 16812716 freq: 993
rob stalling non-critical load ip: 16813444 freq: 21
rob stalling non-critical load ip: 16813448 freq: 33
rob stalling non-critical load ip: 16813580 freq: 3
rob stalling non-critical load ip: 16813680 freq: 27
rob stalling non-critical load ip: 16813696 freq: 8
rob stalling non-critical load ip: 16813704 freq: 23
rob stalling non-critical load ip: 16813732 freq: 2
rob stalling non-critical load ip: 16813760 freq: 17
rob stalling non-critical load ip: 16813800 freq: 4
rob stalling non-critical load ip: 16813820 freq: 2
rob stalling non-critical load ip: 16815252 freq: 30
rob stalling non-critical load ip: 16815264 freq: 3
rob stalling non-critical load ip: 16815284 freq: 4
rob stalling non-critical load ip: 16817700 freq: 35
rob stalling non-critical load ip: 16817756 freq: 22
rob stalling non-critical load ip: 16817764 freq: 10
rob stalling non-critical load ip: 16817820 freq: 215
rob stalling non-critical load ip: 16817836 freq: 106
rob stalling non-critical load ip: 16817844 freq: 278
rob stalling non-critical load ip: 16817884 freq: 11
rob stalling non-critical load ip: 16817900 freq: 289
rob stalling non-critical load ip: 16817940 freq: 5
rob stalling non-critical load ip: 16817960 freq: 22
rob stalling non-critical load ip: 16819204 freq: 1
rob stalling non-critical load ip: 16820524 freq: 4
rob stalling non-critical load ip: 16820672 freq: 3
rob stalling non-critical load ip: 16820676 freq: 6
rob stalling non-critical load ip: 16820852 freq: 6
rob stalling non-critical load ip: 16820956 freq: 4
rob stalling non-critical load ip: 16820996 freq: 5
rob stalling non-critical load ip: 16821296 freq: 8
rob stalling non-critical load ip: 16821308 freq: 27
rob stalling non-critical load ip: 16821340 freq: 22
rob stalling non-critical load ip: 16821452 freq: 30
rob stalling non-critical load ip: 16821464 freq: 4
rob stalling non-critical load ip: 16821628 freq: 2
rob stalling non-critical load ip: 16821664 freq: 2
rob stalling non-critical load ip: 16821732 freq: 11
rob stalling non-critical load ip: 16821792 freq: 2
rob stalling non-critical load ip: 16821840 freq: 2
rob stalling non-critical load ip: 16821852 freq: 7
rob stalling non-critical load ip: 16821912 freq: 17
rob stalling non-critical load ip: 16821924 freq: 3
rob stalling non-critical load ip: 16821956 freq: 6
rob stalling non-critical load ip: 16821980 freq: 3
rob stalling non-critical load ip: 16822004 freq: 37
rob stalling non-critical load ip: 16822020 freq: 7
rob stalling non-critical load ip: 16822116 freq: 2
rob stalling non-critical load ip: 16822276 freq: 17
rob stalling non-critical load ip: 16822500 freq: 33
rob stalling non-critical load ip: 16822788 freq: 8
rob stalling non-critical load ip: 16822888 freq: 4
rob stalling non-critical load ip: 16823128 freq: 7
rob stalling non-critical load ip: 16823180 freq: 10
rob stalling non-critical load ip: 16823220 freq: 4
rob stalling non-critical load ip: 16823692 freq: 13
rob stalling non-critical load ip: 16823844 freq: 1
rob stalling non-critical load ip: 16823852 freq: 16
rob stalling non-critical load ip: 16823932 freq: 1
rob stalling non-critical load ip: 16826292 freq: 16
rob stalling non-critical load ip: 16826296 freq: 20
rob stalling non-critical load ip: 16827980 freq: 1
rob stalling non-critical load ip: 16828860 freq: 4
rob stalling non-critical load ip: 16828932 freq: 5
rob stalling non-critical load ip: 16844832 freq: 28
rob stalling non-critical load ip: 16844852 freq: 13
rob stalling non-critical load ip: 16844864 freq: 8
rob stalling non-critical load ip: 16845056 freq: 8
rob stalling non-critical load ip: 16845064 freq: 7
rob stalling non-critical load ip: 16845068 freq: 8
rob stalling non-critical load ip: 16845328 freq: 12
rob stalling non-critical load ip: 16851080 freq: 1025
rob stalling non-critical load ip: 16851160 freq: 229
rob stalling non-critical load ip: 16851208 freq: 58
rob stalling non-critical load ip: 16851340 freq: 347
rob stalling non-critical load ip: 16851388 freq: 2482
rob stalling non-critical load ip: 16851436 freq: 1339
rob stalling non-critical load ip: 16851472 freq: 66
rob stalling non-critical load ip: 16851552 freq: 22997
rob stalling non-critical load ip: 16851564 freq: 129
rob stalling non-critical load ip: 16851576 freq: 566
rob stalling non-critical load ip: 16851588 freq: 20878
rob stalling non-critical load ip: 16851600 freq: 212
rob stalling non-critical load ip: 16851612 freq: 1542
rob stalling non-critical load ip: 16851624 freq: 112
rob stalling non-critical load ip: 16851632 freq: 436
rob stalling non-critical load ip: 16851652 freq: 21234
rob stalling non-critical load ip: 16851728 freq: 409
rob stalling non-critical load ip: 16851776 freq: 6
rob stalling non-critical load ip: 16851796 freq: 10
rob stalling non-critical load ip: 16891612 freq: 13
rob stalling non-critical load ip: 16891628 freq: 11
rob stalling non-critical load ip: 16899252 freq: 1
rob stalling non-critical load ip: 16902228 freq: 1
rob stalling non-critical load ip: 16902244 freq: 1
rob stalling non-critical load ip: 16902260 freq: 1
rob stalling non-critical load ip: 16902320 freq: 3
rob stalling non-critical load ip: 16902396 freq: 36
rob stalling non-critical load ip: 16903028 freq: 46
rob stalling non-critical load ip: 16917068 freq: 629
rob stalling non-critical load ip: 16917076 freq: 9
rob stalling non-critical load ip: 16917116 freq: 102
rob stalling non-critical load ip: 16917124 freq: 85
rob stalling non-critical load ip: 16917760 freq: 15
rob stalling non-critical load ip: 16917772 freq: 22
rob stalling non-critical load ip: 16977308 freq: 17
rob stalling non-critical load ip: 16977404 freq: 57
rob stalling non-critical load ip: 16977420 freq: 1
rob stalling non-critical load ip: 16977424 freq: 3
rob stalling non-critical load ip: 16977480 freq: 11
rob stalling non-critical load ip: 17022708 freq: 30
rob stalling non-critical load ip: 17022764 freq: 6
rob stalling non-critical load ip: 17077560 freq: 8
rob stalling non-critical load ip: 17077572 freq: 43
rob stalling non-critical load ip: 17077620 freq: 4
rob stalling non-critical load ip: 17077688 freq: 8
rob stalling non-critical load ip: 17077812 freq: 2
rob stalling non-critical load ip: 17077816 freq: 1
rob stalling non-critical load ip: 17078012 freq: 3
rob stalling non-critical load ip: 17078020 freq: 2
rob stalling non-critical load ip: 17078088 freq: 4
rob stalling non-critical load ip: 17078100 freq: 6
rob stalling non-critical load ip: 17078104 freq: 5
rob stalling non-critical load ip: 17079552 freq: 18
rob stalling non-critical load ip: 17079616 freq: 9
rob stalling non-critical load ip: 17079680 freq: 9
rob stalling non-critical load ip: 17079744 freq: 11
rob stalling non-critical load ip: 17080064 freq: 17
rob stalling non-critical load ip: 17080100 freq: 10
rob stalling non-critical load ip: 17080388 freq: 1
rob stalling non-critical load ip: 17084036 freq: 14
rob stalling non-critical load ip: 17084128 freq: 79
rob stalling non-critical load ip: 17084160 freq: 3
rob stalling non-critical load ip: 17084300 freq: 28
rob stalling non-critical load ip: 17084332 freq: 889
rob stalling non-critical load ip: 17084388 freq: 1145
rob stalling non-critical load ip: 17084424 freq: 24
rob stalling non-critical load ip: 17084460 freq: 1
rob stalling non-critical load ip: 17084544 freq: 3209
rob stalling non-critical load ip: 17084576 freq: 2
rob stalling non-critical load ip: 17084592 freq: 29
rob stalling non-critical load ip: 17084596 freq: 6
rob stalling non-critical load ip: 17084652 freq: 69
rob stalling non-critical load ip: 17084656 freq: 142
rob stalling non-critical load ip: 17084752 freq: 19
rob stalling non-critical load ip: 17084772 freq: 10
rob stalling non-critical load ip: 17084780 freq: 100
rob stalling non-critical load ip: 17084836 freq: 4
rob stalling non-critical load ip: 17087300 freq: 21
rob stalling non-critical load ip: 17087348 freq: 4
rob stalling non-critical load ip: 17089924 freq: 6
rob stalling non-critical load ip: 17089932 freq: 6
rob stalling non-critical load ip: 17089968 freq: 7
rob stalling non-critical load ip: 17089988 freq: 1334
rob stalling non-critical load ip: 17090008 freq: 20
rob stalling non-critical load ip: 17090036 freq: 16
rob stalling non-critical load ip: 17090052 freq: 7
rob stalling non-critical load ip: 17090060 freq: 32
rob stalling non-critical load ip: 17090160 freq: 4
rob stalling non-critical load ip: 17090192 freq: 38
rob stalling non-critical load ip: 17090196 freq: 84
rob stalling non-critical load ip: 17105460 freq: 239
rob stalling non-critical load ip: 17105536 freq: 16
rob stalling non-critical load ip: 17105552 freq: 87
rob stalling non-critical load ip: 17147696 freq: 6
rob stalling non-critical load ip: 17148832 freq: 676
rob stalling non-critical load ip: 17148844 freq: 4
rob stalling non-critical load ip: 17148868 freq: 15
rob stalling non-critical load ip: 17148904 freq: 15
rob stalling non-critical load ip: 17148972 freq: 950
rob stalling non-critical load ip: 17148988 freq: 9
rob stalling non-critical load ip: 17149012 freq: 10
rob stalling non-critical load ip: 17149168 freq: 6
rob stalling non-critical load ip: 17149172 freq: 17
rob stalling non-critical load ip: 17149204 freq: 22
rob stalling non-critical load ip: 17149340 freq: 36
rob stalling non-critical load ip: 17149344 freq: 349
rob stalling non-critical load ip: 17149400 freq: 64
rob stalling non-critical load ip: 17149516 freq: 12
rob stalling non-critical load ip: 17149600 freq: 101
rob stalling non-critical load ip: 17149604 freq: 24
rob stalling non-critical load ip: 17183048 freq: 4
rob stalling non-critical load ip: 17183060 freq: 30
rob stalling non-critical load ip: 17183076 freq: 25
rob stalling non-critical load ip: 17183108 freq: 4
rob stalling non-critical load ip: 17183160 freq: 1
rob stalling non-critical load ip: 17183188 freq: 28
rob stalling non-critical load ip: 17183244 freq: 4
rob stalling non-critical load ip: 17183284 freq: 6
rob stalling non-critical load ip: 17183380 freq: 3
rob stalling non-critical load ip: 17183392 freq: 6
rob stalling non-critical load ip: 17183436 freq: 3
rob stalling non-critical load ip: 17183476 freq: 10
rob stalling non-critical load ip: 17183520 freq: 3
rob stalling non-critical load ip: 17183812 freq: 16
rob stalling non-critical load ip: 17183952 freq: 8
rob stalling non-critical load ip: 17183960 freq: 41
rob stalling non-critical load ip: 17184072 freq: 17
rob stalling non-critical load ip: 17184084 freq: 12
rob stalling non-critical load ip: 17184100 freq: 19
rob stalling non-critical load ip: 17184500 freq: 11
rob stalling non-critical load ip: 17184740 freq: 7
rob stalling non-critical load ip: 17184768 freq: 2
rob stalling non-critical load ip: 17184896 freq: 5
rob stalling non-critical load ip: 17184924 freq: 5
rob stalling non-critical load ip: 17184968 freq: 2
rob stalling non-critical load ip: 17185020 freq: 1
rob stalling non-critical load ip: 17185072 freq: 10
rob stalling non-critical load ip: 17185076 freq: 19
rob stalling non-critical load ip: 17185180 freq: 7
rob stalling non-critical load ip: 17185196 freq: 1
rob stalling non-critical load ip: 17185632 freq: 11
rob stalling non-critical load ip: 17185704 freq: 1
rob stalling non-critical load ip: 17185796 freq: 5
rob stalling non-critical load ip: 17186780 freq: 3
rob stalling non-critical load ip: 17186844 freq: 9
rob stalling non-critical load ip: 17186872 freq: 3
rob stalling non-critical load ip: 17186964 freq: 6
rob stalling non-critical load ip: 17186996 freq: 4
rob stalling non-critical load ip: 17187060 freq: 5
rob stalling non-critical load ip: 17187176 freq: 4
rob stalling non-critical load ip: 17187208 freq: 2
rob stalling non-critical load ip: 17187284 freq: 4
rob stalling non-critical load ip: 17187304 freq: 5
rob stalling non-critical load ip: 17187388 freq: 3
rob stalling non-critical load ip: 17187440 freq: 5
rob stalling non-critical load ip: 17187456 freq: 3
rob stalling non-critical load ip: 17188224 freq: 8
rob stalling non-critical load ip: 17188244 freq: 1
rob stalling non-critical load ip: 17188264 freq: 8
rob stalling non-critical load ip: 17188292 freq: 25
rob stalling non-critical load ip: 17189432 freq: 5
rob stalling non-critical load ip: 17189488 freq: 11
rob stalling non-critical load ip: 17189504 freq: 5
rob stalling non-critical load ip: 17189536 freq: 7
rob stalling non-critical load ip: 17189616 freq: 3
rob stalling non-critical load ip: 17189632 freq: 3
rob stalling non-critical load ip: 17189652 freq: 3
rob stalling non-critical load ip: 17190288 freq: 7
rob stalling non-critical load ip: 17190300 freq: 5
rob stalling non-critical load ip: 17190384 freq: 4
rob stalling non-critical load ip: 17190504 freq: 5
rob stalling non-critical load ip: 17190516 freq: 16
rob stalling non-critical load ip: 17224964 freq: 1
rob stalling non-critical load ip: 17224980 freq: 24
rob stalling non-critical load ip: 17224996 freq: 3
rob stalling non-critical load ip: 17225096 freq: 5
rob stalling non-critical load ip: 17225180 freq: 6
rob stalling non-critical load ip: 17225204 freq: 48
rob stalling non-critical load ip: 17225220 freq: 294
rob stalling non-critical load ip: 17225292 freq: 1
rob stalling non-critical load ip: 17225500 freq: 38
rob stalling non-critical load ip: 17225528 freq: 2
rob stalling non-critical load ip: 17225540 freq: 3
rob stalling non-critical load ip: 17225644 freq: 1
rob stalling non-critical load ip: 17225876 freq: 37
rob stalling non-critical load ip: 17225984 freq: 15
rob stalling non-critical load ip: 17226112 freq: 4
rob stalling non-critical load ip: 17226208 freq: 12
rob stalling non-critical load ip: 17226320 freq: 1
rob stalling non-critical load ip: 17226332 freq: 3
rob stalling non-critical load ip: 17226796 freq: 5
rob stalling non-critical load ip: 17226812 freq: 11
rob stalling non-critical load ip: 17226872 freq: 1
rob stalling non-critical load ip: 17226948 freq: 96
rob stalling non-critical load ip: 17227996 freq: 1
rob stalling non-critical load ip: 17245100 freq: 66
rob stalling non-critical load ip: 17245104 freq: 6
rob stalling non-critical load ip: 17245188 freq: 5
rob stalling non-critical load ip: 17247576 freq: 43
rob stalling non-critical load ip: 17247664 freq: 11
rob stalling non-critical load ip: 17247668 freq: 28
rob stalling non-critical load ip: 17247672 freq: 4
rob stalling non-critical load ip: 17247676 freq: 3
rob stalling non-critical load ip: 17247840 freq: 19
rob stalling non-critical load ip: 17247864 freq: 3
rob stalling non-critical load ip: 17247988 freq: 53
rob stalling non-critical load ip: 17248008 freq: 25
rob stalling non-critical load ip: 17248120 freq: 76
rob stalling non-critical load ip: 17248652 freq: 14
rob stalling non-critical load ip: 17254328 freq: 3
rob stalling non-critical load ip: 17410680 freq: 1
rob stalling non-critical load ip: 17410740 freq: 6
rob stalling non-critical load ip: 17410756 freq: 10
rob stalling non-critical load ip: 17506076 freq: 8
rob stalling non-critical load ip: 17506584 freq: 7
rob stalling non-critical load ip: 17506884 freq: 8
rob stalling non-critical load ip: 17507036 freq: 1
rob stalling non-critical load ip: 17507044 freq: 9
rob stalling non-critical load ip: 17507160 freq: 4
rob stalling non-critical load ip: 17507196 freq: 1
rob stalling non-critical load ip: 17507380 freq: 1
rob stalling non-critical load ip: 17507428 freq: 5
rob stalling non-critical load ip: 17507476 freq: 5
rob stalling non-critical load ip: 17507492 freq: 1
rob stalling non-critical load ip: 17545664 freq: 35
rob stalling non-critical load ip: 17545868 freq: 12
rob stalling non-critical load ip: 17545908 freq: 8
rob stalling non-critical load ip: 17546088 freq: 100
rob stalling non-critical load ip: 17546104 freq: 12
rob stalling non-critical load ip: 17546120 freq: 22
rob stalling non-critical load ip: 17546160 freq: 1
rob stalling non-critical load ip: 17546172 freq: 4
rob stalling non-critical load ip: 17546260 freq: 24
rob stalling non-critical load ip: 17546300 freq: 8
rob stalling non-critical load ip: 17546368 freq: 5
rob stalling non-critical load ip: 17546416 freq: 9
rob stalling non-critical load ip: 17546908 freq: 15
rob stalling non-critical load ip: 17546920 freq: 2
rob stalling non-critical load ip: 17546944 freq: 4
rob stalling non-critical load ip: 17547052 freq: 2
rob stalling non-critical load ip: 17547352 freq: 48
rob stalling non-critical load ip: 17547356 freq: 7
rob stalling non-critical load ip: 17547720 freq: 6
rob stalling non-critical load ip: 17547776 freq: 13
rob stalling non-critical load ip: 17547848 freq: 6
rob stalling non-critical load ip: 17547868 freq: 13
rob stalling non-critical load ip: 17548040 freq: 60
rob stalling non-critical load ip: 17555508 freq: 70
rob stalling non-critical load ip: 17555564 freq: 3
rob stalling non-critical load ip: 17560976 freq: 16
rob stalling non-critical load ip: 17612508 freq: 1
rob stalling non-critical load ip: 17613904 freq: 2
rob stalling non-critical load ip: 17613912 freq: 3
rob stalling non-critical load ip: 17614016 freq: 3
rob stalling non-critical load ip: 17614160 freq: 2
rob stalling non-critical load ip: 17614184 freq: 5
rob stalling non-critical load ip: 17614240 freq: 11
rob stalling non-critical load ip: 17614248 freq: 6
rob stalling non-critical load ip: 17614256 freq: 9
rob stalling non-critical load ip: 17614300 freq: 2
rob stalling non-critical load ip: 17614316 freq: 1
rob stalling non-critical load ip: 17614372 freq: 1
rob stalling non-critical load ip: 17614460 freq: 7
rob stalling non-critical load ip: 17614468 freq: 5
rob stalling non-critical load ip: 17616024 freq: 1
rob stalling non-critical load ip: 17616180 freq: 1
rob stalling non-critical load ip: 17616192 freq: 1
rob stalling non-critical load ip: 17616996 freq: 2
rob stalling non-critical load ip: 17617868 freq: 2
rob stalling non-critical load ip: 17617944 freq: 1
rob stalling non-critical load ip: 17641524 freq: 6
rob stalling non-critical load ip: 17641540 freq: 5
rob stalling non-critical load ip: 17643644 freq: 2
rob stalling non-critical load ip: 17643696 freq: 3
rob stalling non-critical load ip: 17644128 freq: 15
rob stalling non-critical load ip: 17644276 freq: 177
rob stalling non-critical load ip: 17682628 freq: 3
rob stalling non-critical load ip: 17682804 freq: 6
rob stalling non-critical load ip: 17682824 freq: 1
rob stalling non-critical load ip: 17682900 freq: 2
rob stalling non-critical load ip: 17683040 freq: 5
rob stalling non-critical load ip: 17683164 freq: 3
rob stalling non-critical load ip: 17683252 freq: 2
rob stalling non-critical load ip: 17683380 freq: 3
rob stalling non-critical load ip: 17683456 freq: 5
rob stalling non-critical load ip: 17683576 freq: 2
rob stalling non-critical load ip: 17686100 freq: 3
rob stalling non-critical load ip: 17691328 freq: 1
rob stalling non-critical load ip: 17782316 freq: 47
rob stalling non-critical load ip: 17782380 freq: 323
rob stalling non-critical load ip: 17782384 freq: 3
rob stalling non-critical load ip: 17782400 freq: 19
rob stalling non-critical load ip: 17782428 freq: 6
rob stalling non-critical load ip: 17782476 freq: 35
rob stalling non-critical load ip: 17782536 freq: 35
rob stalling non-critical load ip: 17782600 freq: 10
rob stalling non-critical load ip: 17782928 freq: 29
rob stalling non-critical load ip: 17782984 freq: 11
rob stalling non-critical load ip: 17783272 freq: 9
rob stalling non-critical load ip: 17785020 freq: 2
rob stalling non-critical load ip: 17785056 freq: 5
rob stalling non-critical load ip: 17795408 freq: 2
rob stalling non-critical load ip: 17795512 freq: 12
rob stalling non-critical load ip: 17795524 freq: 3
rob stalling non-critical load ip: 17795544 freq: 1
rob stalling non-critical load ip: 17795608 freq: 2
rob stalling non-critical load ip: 17825288 freq: 21
rob stalling non-critical load ip: 17825316 freq: 2
rob stalling non-critical load ip: 17825320 freq: 2
rob stalling non-critical load ip: 17905356 freq: 2
rob stalling non-critical load ip: 17905412 freq: 9
rob stalling non-critical load ip: 17905520 freq: 4
rob stalling non-critical load ip: 17905544 freq: 2
rob stalling non-critical load ip: 17906336 freq: 161
rob stalling non-critical load ip: 17906384 freq: 827
rob stalling non-critical load ip: 17906400 freq: 319
rob stalling non-critical load ip: 17906620 freq: 40
rob stalling non-critical load ip: 17906636 freq: 10
rob stalling non-critical load ip: 17906644 freq: 191
rob stalling non-critical load ip: 17906844 freq: 1535
rob stalling non-critical load ip: 17906852 freq: 15
rob stalling non-critical load ip: 17906888 freq: 217
rob stalling non-critical load ip: 17906912 freq: 31
rob stalling non-critical load ip: 17906968 freq: 60
rob stalling non-critical load ip: 17906980 freq: 44
rob stalling non-critical load ip: 17907064 freq: 1443
rob stalling non-critical load ip: 17908272 freq: 116
rob stalling non-critical load ip: 17908296 freq: 639
rob stalling non-critical load ip: 17908312 freq: 28
rob stalling non-critical load ip: 17908368 freq: 54
rob stalling non-critical load ip: 17909384 freq: 1
rob stalling non-critical load ip: 17912876 freq: 20
rob stalling non-critical load ip: 17912932 freq: 16
rob stalling non-critical load ip: 17912964 freq: 2
rob stalling non-critical load ip: 17913044 freq: 14
rob stalling non-critical load ip: 17913056 freq: 7
rob stalling non-critical load ip: 17913068 freq: 73
rob stalling non-critical load ip: 17913108 freq: 16
rob stalling non-critical load ip: 18020256 freq: 2
rob stalling non-critical load ip: 18022900 freq: 32
rob stalling non-critical load ip: 18022940 freq: 3
rob stalling non-critical load ip: 18022944 freq: 44
rob stalling non-critical load ip: 18022976 freq: 2
rob stalling non-critical load ip: 18023020 freq: 1
rob stalling non-critical load ip: 18023308 freq: 9
rob stalling non-critical load ip: 18025240 freq: 40
rob stalling non-critical load ip: 18025248 freq: 16
rob stalling non-critical load ip: 18025276 freq: 40
rob stalling non-critical load ip: 18025296 freq: 78
rob stalling non-critical load ip: 18025304 freq: 43
rob stalling non-critical load ip: 18025320 freq: 11
rob stalling non-critical load ip: 18025340 freq: 95
rob stalling non-critical load ip: 18025560 freq: 4
rob stalling non-critical load ip: 18025576 freq: 9
rob stalling non-critical load ip: 18025596 freq: 6
rob stalling non-critical load ip: 18025768 freq: 1
rob stalling non-critical load ip: 18025832 freq: 6
rob stalling non-critical load ip: 18025888 freq: 1
rob stalling non-critical load ip: 18026640 freq: 6
rob stalling non-critical load ip: 18026656 freq: 11
rob stalling non-critical load ip: 18026668 freq: 24
rob stalling non-critical load ip: 18026908 freq: 24
rob stalling non-critical load ip: 18026928 freq: 49
rob stalling non-critical load ip: 18026960 freq: 1
rob stalling non-critical load ip: 18026992 freq: 4
rob stalling non-critical load ip: 18027120 freq: 51
rob stalling non-critical load ip: 18027128 freq: 18
rob stalling non-critical load ip: 18027156 freq: 571
rob stalling non-critical load ip: 18027212 freq: 4
rob stalling non-critical load ip: 18027236 freq: 81
rob stalling non-critical load ip: 18027552 freq: 3
rob stalling non-critical load ip: 18027924 freq: 69
rob stalling non-critical load ip: 18027932 freq: 10
rob stalling non-critical load ip: 18049648 freq: 18
rob stalling non-critical load ip: 18049664 freq: 106
rob stalling non-critical load ip: 18049728 freq: 9
rob stalling non-critical load ip: 18049736 freq: 22
rob stalling non-critical load ip: 18049744 freq: 14
rob stalling non-critical load ip: 18049920 freq: 90
rob stalling non-critical load ip: 18049936 freq: 13
rob stalling non-critical load ip: 18049972 freq: 2
rob stalling non-critical load ip: 18049996 freq: 43
rob stalling non-critical load ip: 18050004 freq: 11
rob stalling non-critical load ip: 18050036 freq: 14
rob stalling non-critical load ip: 18050048 freq: 1097
rob stalling non-critical load ip: 18064772 freq: 1
rob stalling non-critical load ip: 18067296 freq: 1
rob stalling non-critical load ip: 18067804 freq: 1
rob stalling non-critical load ip: 18073720 freq: 3
rob stalling non-critical load ip: 18074084 freq: 3
rob stalling non-critical load ip: 18074636 freq: 5
rob stalling non-critical load ip: 18074640 freq: 6
rob stalling non-critical load ip: 18085540 freq: 2
rob stalling non-critical load ip: 18110220 freq: 5
rob stalling non-critical load ip: 18128468 freq: 51
rob stalling non-critical load ip: 18128484 freq: 10
rob stalling non-critical load ip: 18128488 freq: 8
rob stalling non-critical load ip: 18128540 freq: 68
rob stalling non-critical load ip: 18128592 freq: 50
rob stalling non-critical load ip: 18128612 freq: 26
rob stalling non-critical load ip: 18128640 freq: 246
rob stalling non-critical load ip: 18128648 freq: 9
rob stalling non-critical load ip: 18128744 freq: 215
rob stalling non-critical load ip: 18132720 freq: 1362
rob stalling non-critical load ip: 18132760 freq: 296
rob stalling non-critical load ip: 18132804 freq: 21
rob stalling non-critical load ip: 18132832 freq: 89
rob stalling non-critical load ip: 18132844 freq: 23
rob stalling non-critical load ip: 18132856 freq: 4
rob stalling non-critical load ip: 18132872 freq: 17
rob stalling non-critical load ip: 18132896 freq: 117
rob stalling non-critical load ip: 18132908 freq: 135
rob stalling non-critical load ip: 18132916 freq: 19
rob stalling non-critical load ip: 18132980 freq: 16
rob stalling non-critical load ip: 18132996 freq: 1123
rob stalling non-critical load ip: 18133012 freq: 9
rob stalling non-critical load ip: 18133020 freq: 2
rob stalling non-critical load ip: 18133080 freq: 1680
rob stalling non-critical load ip: 18133112 freq: 155
rob stalling non-critical load ip: 18133280 freq: 3
rob stalling non-critical load ip: 18133368 freq: 54
rob stalling non-critical load ip: 18133388 freq: 6
rob stalling non-critical load ip: 18133392 freq: 16
rob stalling non-critical load ip: 18133404 freq: 11
rob stalling non-critical load ip: 18133408 freq: 32
rob stalling non-critical load ip: 18133528 freq: 4
rob stalling non-critical load ip: 18133592 freq: 23
rob stalling non-critical load ip: 18133608 freq: 3
rob stalling non-critical load ip: 18133828 freq: 1
rob stalling non-critical load ip: 18133840 freq: 2
rob stalling non-critical load ip: 18133936 freq: 10
rob stalling non-critical load ip: 18133964 freq: 6
rob stalling non-critical load ip: 18134084 freq: 13
rob stalling non-critical load ip: 18134192 freq: 7
rob stalling non-critical load ip: 18134316 freq: 22
rob stalling non-critical load ip: 18134344 freq: 17
rob stalling non-critical load ip: 18134356 freq: 5
rob stalling non-critical load ip: 18134420 freq: 3
rob stalling non-critical load ip: 18134436 freq: 5
rob stalling non-critical load ip: 18181104 freq: 28
rob stalling non-critical load ip: 18217584 freq: 1
rob stalling non-critical load ip: 18218052 freq: 1
rob stalling non-critical load ip: 18219680 freq: 1
rob stalling non-critical load ip: 18219844 freq: 96
rob stalling non-critical load ip: 18219900 freq: 29
rob stalling non-critical load ip: 18219948 freq: 340
rob stalling non-critical load ip: 18219952 freq: 1412
rob stalling non-critical load ip: 18219956 freq: 408
rob stalling non-critical load ip: 18219960 freq: 661
rob stalling non-critical load ip: 18219976 freq: 14
rob stalling non-critical load ip: 18220024 freq: 15
rob stalling non-critical load ip: 18220136 freq: 725
rob stalling non-critical load ip: 18220228 freq: 176
rob stalling non-critical load ip: 18220236 freq: 52
rob stalling non-critical load ip: 18220252 freq: 109
rob stalling non-critical load ip: 18220268 freq: 98
rob stalling non-critical load ip: 18220280 freq: 115
rob stalling non-critical load ip: 18221308 freq: 241
rob stalling non-critical load ip: 18221328 freq: 493
rob stalling non-critical load ip: 18221352 freq: 15
rob stalling non-critical load ip: 18221376 freq: 18
rob stalling non-critical load ip: 18221444 freq: 513
rob stalling non-critical load ip: 18221460 freq: 17
rob stalling non-critical load ip: 18221496 freq: 17
rob stalling non-critical load ip: 18221516 freq: 15
rob stalling non-critical load ip: 18221520 freq: 148
rob stalling non-critical load ip: 18221540 freq: 42
rob stalling non-critical load ip: 18221548 freq: 36
rob stalling non-critical load ip: 18221568 freq: 49
rob stalling non-critical load ip: 18221580 freq: 392
rob stalling non-critical load ip: 18221616 freq: 28
rob stalling non-critical load ip: 18221640 freq: 1
rob stalling non-critical load ip: 18221664 freq: 27
rob stalling non-critical load ip: 18221700 freq: 28
rob stalling non-critical load ip: 18221712 freq: 7
rob stalling non-critical load ip: 18221716 freq: 36
rob stalling non-critical load ip: 18221728 freq: 11
rob stalling non-critical load ip: 18221792 freq: 3
rob stalling non-critical load ip: 18221808 freq: 14
rob stalling non-critical load ip: 18221856 freq: 72
rob stalling non-critical load ip: 18221868 freq: 591
rob stalling non-critical load ip: 18221884 freq: 162
rob stalling non-critical load ip: 18221920 freq: 71
rob stalling non-critical load ip: 18221956 freq: 96
rob stalling non-critical load ip: 18221996 freq: 26
rob stalling non-critical load ip: 18222012 freq: 1
rob stalling non-critical load ip: 18222152 freq: 12
rob stalling non-critical load ip: 18222216 freq: 19
rob stalling non-critical load ip: 18222592 freq: 54
rob stalling non-critical load ip: 18222628 freq: 5
rob stalling non-critical load ip: 18222684 freq: 22
rob stalling non-critical load ip: 18222700 freq: 2
rob stalling non-critical load ip: 18222724 freq: 36
rob stalling non-critical load ip: 18222968 freq: 216
rob stalling non-critical load ip: 18222984 freq: 35
rob stalling non-critical load ip: 18223664 freq: 232
rob stalling non-critical load ip: 18223672 freq: 48
rob stalling non-critical load ip: 18223688 freq: 1915
rob stalling non-critical load ip: 18223720 freq: 1134
rob stalling non-critical load ip: 18223728 freq: 30
rob stalling non-critical load ip: 18223736 freq: 236
rob stalling non-critical load ip: 18223752 freq: 21
rob stalling non-critical load ip: 18223756 freq: 58
rob stalling non-critical load ip: 18224052 freq: 90
rob stalling non-critical load ip: 18224072 freq: 354
rob stalling non-critical load ip: 18224096 freq: 9
rob stalling non-critical load ip: 18224128 freq: 5
rob stalling non-critical load ip: 18224140 freq: 13
rob stalling non-critical load ip: 18224240 freq: 49
rob stalling non-critical load ip: 18224368 freq: 30
rob stalling non-critical load ip: 18224372 freq: 32
rob stalling non-critical load ip: 18224388 freq: 8
rob stalling non-critical load ip: 18224404 freq: 17
rob stalling non-critical load ip: 18224420 freq: 332
rob stalling non-critical load ip: 18224436 freq: 13
rob stalling non-critical load ip: 18224448 freq: 21
rob stalling non-critical load ip: 18224596 freq: 41
rob stalling non-critical load ip: 18302576 freq: 2
rob stalling non-critical load ip: 18302756 freq: 17
rob stalling non-critical load ip: 18303116 freq: 13
rob stalling non-critical load ip: 18303200 freq: 2
rob stalling non-critical load ip: 18303300 freq: 1
rob stalling non-critical load ip: 18303328 freq: 2
rob stalling non-critical load ip: 18310964 freq: 2
rob stalling non-critical load ip: 18318260 freq: 2
rob stalling non-critical load ip: 18457504 freq: 5
rob stalling non-critical load ip: 18457572 freq: 6
rob stalling non-critical load ip: 18457588 freq: 1
rob stalling non-critical load ip: 18457592 freq: 6
rob stalling non-critical load ip: 18466760 freq: 6
rob stalling non-critical load ip: 18466824 freq: 3
rob stalling non-critical load ip: 18466940 freq: 2
rob stalling non-critical load ip: 18466952 freq: 1
rob stalling non-critical load ip: 18467084 freq: 4
rob stalling non-critical load ip: 18467160 freq: 5
rob stalling non-critical load ip: 18467180 freq: 3
rob stalling non-critical load ip: 18467244 freq: 2
rob stalling non-critical load ip: 18481788 freq: 185
rob stalling non-critical load ip: 18481820 freq: 20
rob stalling non-critical load ip: 18482232 freq: 3
rob stalling non-critical load ip: 18482424 freq: 1
rob stalling non-critical load ip: 18482856 freq: 3
rob stalling non-critical load ip: 18489768 freq: 1
rob stalling non-critical load ip: 18491992 freq: 5
rob stalling non-critical load ip: 18514400 freq: 1
rob stalling non-critical load ip: 18550640 freq: 2
rob stalling non-critical load ip: 18550808 freq: 1
rob stalling non-critical load ip: 18550920 freq: 1
rob stalling non-critical load ip: 18552516 freq: 1
rob stalling non-critical load ip: 18556720 freq: 55
rob stalling non-critical load ip: 18557252 freq: 631
rob stalling non-critical load ip: 18557256 freq: 623
rob stalling non-critical load ip: 18557288 freq: 2211
rob stalling non-critical load ip: 18557484 freq: 94
rob stalling non-critical load ip: 18557604 freq: 432
rob stalling non-critical load ip: 18563740 freq: 2
rob stalling non-critical load ip: 18574920 freq: 2
rob stalling non-critical load ip: 18581768 freq: 1
rob stalling non-critical load ip: 18582808 freq: 1
rob stalling non-critical load ip: 18583108 freq: 1
rob stalling non-critical load ip: 18584132 freq: 1
rob stalling non-critical load ip: 18585824 freq: 2
rob stalling non-critical load ip: 18585948 freq: 1
rob stalling non-critical load ip: 18586108 freq: 1
rob stalling non-critical load ip: 18593488 freq: 2
rob stalling non-critical load ip: 18597536 freq: 1
rob stalling non-critical load ip: 18597784 freq: 1
rob stalling non-critical load ip: 18601120 freq: 1
rob stalling non-critical load ip: 18604280 freq: 60
rob stalling non-critical load ip: 18604288 freq: 5
rob stalling non-critical load ip: 18604344 freq: 817
rob stalling non-critical load ip: 18604364 freq: 11
rob stalling non-critical load ip: 18604368 freq: 35
rob stalling non-critical load ip: 18604372 freq: 4
rob stalling non-critical load ip: 18604396 freq: 10
rob stalling non-critical load ip: 18604480 freq: 20
rob stalling non-critical load ip: 18625668 freq: 55
rob stalling non-critical load ip: 18627428 freq: 149
rob stalling non-critical load ip: 18630436 freq: 6
rob stalling non-critical load ip: 18631072 freq: 15
rob stalling non-critical load ip: 18631092 freq: 13
rob stalling non-critical load ip: 18631116 freq: 5
rob stalling non-critical load ip: 18634180 freq: 32
rob stalling non-critical load ip: 18634208 freq: 36
rob stalling non-critical load ip: 18634276 freq: 23
rob stalling non-critical load ip: 18634364 freq: 35
rob stalling non-critical load ip: 18634432 freq: 15
rob stalling non-critical load ip: 18634892 freq: 58
rob stalling non-critical load ip: 18642072 freq: 8
rob stalling non-critical load ip: 18757300 freq: 3
rob stalling non-critical load ip: 18757396 freq: 10
rob stalling non-critical load ip: 18757460 freq: 1
rob stalling non-critical load ip: 18757520 freq: 5
rob stalling non-critical load ip: 18757776 freq: 1
rob stalling non-critical load ip: 18757968 freq: 4
rob stalling non-critical load ip: 18757996 freq: 3
rob stalling non-critical load ip: 18760628 freq: 37
rob stalling non-critical load ip: 18760764 freq: 5
rob stalling non-critical load ip: 18760808 freq: 1
rob stalling non-critical load ip: 18777480 freq: 2
rob stalling non-critical load ip: 18783856 freq: 20
rob stalling non-critical load ip: 18783872 freq: 5
rob stalling non-critical load ip: 18783892 freq: 1
rob stalling non-critical load ip: 18783924 freq: 6
rob stalling non-critical load ip: 18783940 freq: 5
rob stalling non-critical load ip: 18790068 freq: 11
rob stalling non-critical load ip: 18790812 freq: 4
rob stalling non-critical load ip: 18790940 freq: 3
rob stalling non-critical load ip: 18790984 freq: 3
rob stalling non-critical load ip: 18791368 freq: 5
rob stalling non-critical load ip: 18791472 freq: 9
rob stalling non-critical load ip: 18791520 freq: 3
rob stalling non-critical load ip: 18791612 freq: 1
rob stalling non-critical load ip: 18791632 freq: 3
rob stalling non-critical load ip: 18791756 freq: 1
rob stalling non-critical load ip: 18791880 freq: 6
rob stalling non-critical load ip: 18792108 freq: 12
rob stalling non-critical load ip: 18792112 freq: 12
rob stalling non-critical load ip: 18792888 freq: 3
rob stalling non-critical load ip: 18793196 freq: 3
rob stalling non-critical load ip: 18793236 freq: 1
rob stalling non-critical load ip: 18847852 freq: 8
rob stalling non-critical load ip: 18847880 freq: 8
rob stalling non-critical load ip: 18847888 freq: 21
rob stalling non-critical load ip: 18847924 freq: 2
rob stalling non-critical load ip: 18847948 freq: 48
rob stalling non-critical load ip: 18847960 freq: 3
rob stalling non-critical load ip: 18847964 freq: 5
rob stalling non-critical load ip: 18847984 freq: 71
rob stalling non-critical load ip: 18848012 freq: 3
rob stalling non-critical load ip: 18848020 freq: 2
rob stalling non-critical load ip: 18848036 freq: 4
rob stalling non-critical load ip: 18848072 freq: 85
rob stalling non-critical load ip: 18848108 freq: 11
rob stalling non-critical load ip: 18848112 freq: 10
rob stalling non-critical load ip: 18848116 freq: 6
rob stalling non-critical load ip: 18848124 freq: 2
rob stalling non-critical load ip: 18848136 freq: 4
rob stalling non-critical load ip: 18848172 freq: 13
rob stalling non-critical load ip: 18848228 freq: 4
rob stalling non-critical load ip: 18848276 freq: 9
rob stalling non-critical load ip: 18848280 freq: 6
rob stalling non-critical load ip: 18848296 freq: 34
rob stalling non-critical load ip: 18848424 freq: 1
rob stalling non-critical load ip: 18848448 freq: 9
rob stalling non-critical load ip: 18848564 freq: 14
rob stalling non-critical load ip: 18848600 freq: 2
rob stalling non-critical load ip: 18848928 freq: 55
rob stalling non-critical load ip: 18848936 freq: 23
rob stalling non-critical load ip: 18848996 freq: 9
rob stalling non-critical load ip: 18850924 freq: 17
rob stalling non-critical load ip: 18850932 freq: 3
rob stalling non-critical load ip: 18851012 freq: 2
rob stalling non-critical load ip: 18851052 freq: 2
rob stalling non-critical load ip: 18851080 freq: 4
rob stalling non-critical load ip: 18851244 freq: 1
rob stalling non-critical load ip: 18851292 freq: 1
rob stalling non-critical load ip: 18851384 freq: 8
rob stalling non-critical load ip: 18851444 freq: 3
rob stalling non-critical load ip: 18851492 freq: 2
rob stalling non-critical load ip: 18851500 freq: 1
rob stalling non-critical load ip: 18851664 freq: 2
rob stalling non-critical load ip: 18851676 freq: 11
rob stalling non-critical load ip: 18851764 freq: 2
rob stalling non-critical load ip: 18851816 freq: 4
rob stalling non-critical load ip: 18851888 freq: 2
rob stalling non-critical load ip: 18852776 freq: 5
rob stalling non-critical load ip: 18853212 freq: 72
rob stalling non-critical load ip: 18853232 freq: 9
rob stalling non-critical load ip: 18853260 freq: 3
rob stalling non-critical load ip: 18853284 freq: 7
rob stalling non-critical load ip: 18853308 freq: 1
rob stalling non-critical load ip: 18853336 freq: 4
rob stalling non-critical load ip: 18854616 freq: 1
rob stalling non-critical load ip: 18854632 freq: 2
rob stalling non-critical load ip: 18854636 freq: 16
rob stalling non-critical load ip: 18945652 freq: 3
rob stalling non-critical load ip: 18946188 freq: 1
rob stalling non-critical load ip: 18951880 freq: 1
rob stalling non-critical load ip: 18951952 freq: 3
rob stalling non-critical load ip: 18952028 freq: 1
rob stalling non-critical load ip: 18956724 freq: 24
rob stalling non-critical load ip: 18956748 freq: 2
rob stalling non-critical load ip: 18956808 freq: 2
rob stalling non-critical load ip: 18956848 freq: 3
rob stalling non-critical load ip: 18956864 freq: 3
rob stalling non-critical load ip: 18956884 freq: 4
rob stalling non-critical load ip: 18958052 freq: 4
rob stalling non-critical load ip: 18958220 freq: 2
rob stalling non-critical load ip: 18960336 freq: 1
rob stalling non-critical load ip: 18960512 freq: 14
rob stalling non-critical load ip: 18960552 freq: 4
rob stalling non-critical load ip: 18960584 freq: 16
rob stalling non-critical load ip: 18960616 freq: 9
rob stalling non-critical load ip: 18960676 freq: 10
rob stalling non-critical load ip: 18960688 freq: 19
rob stalling non-critical load ip: 18960700 freq: 3
rob stalling non-critical load ip: 18960732 freq: 2
rob stalling non-critical load ip: 18960780 freq: 4
rob stalling non-critical load ip: 18960812 freq: 3
rob stalling non-critical load ip: 18960836 freq: 13
rob stalling non-critical load ip: 18960848 freq: 2
rob stalling non-critical load ip: 18960860 freq: 7
rob stalling non-critical load ip: 18960892 freq: 5
rob stalling non-critical load ip: 18960908 freq: 3
[...]
Critical_ROB_Stalls_Percent_1_Bucket_6: 39
Non-critical_ROB_Stalls_Percent_1_Bucket_6: 10345
Critical_ROB_Stalls_Percent_2_Bucket_0: 716586
Non-critical_ROB_Stalls_Percent_2_Bucket_0: 336800
Critical_ROB_Stalls_Percent_2_Bucket_1: 2073
Non-critical_ROB_Stalls_Percent_2_Bucket_1: 21065
Critical_ROB_Stalls_Percent_2_Bucket_2: 496
Non-critical_ROB_Stalls_Percent_2_Bucket_2: 8091
Critical_ROB_Stalls_Percent_2_Bucket_3: 1093
Non-critical_ROB_Stalls_Percent_2_Bucket_3: 7382
Critical_ROB_Stalls_Percent_2_Bucket_4: 118
Non-critical_ROB_Stalls_Percent_2_Bucket_4: 7701
Critical_ROB_Stalls_Percent_2_Bucket_5: 78
Non-critical_ROB_Stalls_Percent_2_Bucket_5: 7692
Critical_ROB_Stalls_Percent_2_Bucket_6: 39
Non-critical_ROB_Stalls_Percent_2_Bucket_6: 10345
Critical_ROB_Stalls_Percent_3_Bucket_0: 739579
Non-critical_ROB_Stalls_Percent_3_Bucket_0: 313807
Critical_ROB_Stalls_Percent_3_Bucket_1: 2077
Non-critical_ROB_Stalls_Percent_3_Bucket_1: 21061
Critical_ROB_Stalls_Percent_3_Bucket_2: 496
Non-critical_ROB_Stalls_Percent_3_Bucket_2: 8091
Critical_ROB_Stalls_Percent_3_Bucket_3: 1093
Non-critical_ROB_Stalls_Percent_3_Bucket_3: 7382
Critical_ROB_Stalls_Percent_3_Bucket_4: 118
Non-critical_ROB_Stalls_Percent_3_Bucket_4: 7701
Critical_ROB_Stalls_Percent_3_Bucket_5: 78
Non-critical_ROB_Stalls_Percent_3_Bucket_5: 7692
Critical_ROB_Stalls_Percent_3_Bucket_6: 39
Non-critical_ROB_Stalls_Percent_3_Bucket_6: 10345
Critical_ROB_Stalls_Percent_4_Bucket_0: 781677
Non-critical_ROB_Stalls_Percent_4_Bucket_0: 271709
Critical_ROB_Stalls_Percent_4_Bucket_1: 2085
Non-critical_ROB_Stalls_Percent_4_Bucket_1: 21053
Critical_ROB_Stalls_Percent_4_Bucket_2: 502
Non-critical_ROB_Stalls_Percent_4_Bucket_2: 8085
Critical_ROB_Stalls_Percent_4_Bucket_3: 1093
Non-critical_ROB_Stalls_Percent_4_Bucket_3: 7382
Critical_ROB_Stalls_Percent_4_Bucket_4: 118
Non-critical_ROB_Stalls_Percent_4_Bucket_4: 7701
Critical_ROB_Stalls_Percent_4_Bucket_5: 78
Non-critical_ROB_Stalls_Percent_4_Bucket_5: 7692
Critical_ROB_Stalls_Percent_4_Bucket_6: 39
Non-critical_ROB_Stalls_Percent_4_Bucket_6: 10345
Critical_ROB_Stalls_Percent_5_Bucket_0: 817649
Non-critical_ROB_Stalls_Percent_5_Bucket_0: 235737
Critical_ROB_Stalls_Percent_5_Bucket_1: 5344
Non-critical_ROB_Stalls_Percent_5_Bucket_1: 17794
Critical_ROB_Stalls_Percent_5_Bucket_2: 3601
Non-critical_ROB_Stalls_Percent_5_Bucket_2: 4986
Critical_ROB_Stalls_Percent_5_Bucket_3: 4271
Non-critical_ROB_Stalls_Percent_5_Bucket_3: 4204
Critical_ROB_Stalls_Percent_5_Bucket_4: 3759
Non-critical_ROB_Stalls_Percent_5_Bucket_4: 4060
Critical_ROB_Stalls_Percent_5_Bucket_5: 3058
Non-critical_ROB_Stalls_Percent_5_Bucket_5: 4712
Critical_ROB_Stalls_Percent_5_Bucket_6: 2208
Non-critical_ROB_Stalls_Percent_5_Bucket_6: 8176
Critical_ROB_Stalls_Percent_6_Bucket_0: 868031
Non-critical_ROB_Stalls_Percent_6_Bucket_0: 185355
Critical_ROB_Stalls_Percent_6_Bucket_1: 5643
Non-critical_ROB_Stalls_Percent_6_Bucket_1: 17495
Critical_ROB_Stalls_Percent_6_Bucket_2: 3727
Non-critical_ROB_Stalls_Percent_6_Bucket_2: 4860
Critical_ROB_Stalls_Percent_6_Bucket_3: 4432
Non-critical_ROB_Stalls_Percent_6_Bucket_3: 4043
Critical_ROB_Stalls_Percent_6_Bucket_4: 3870
Non-critical_ROB_Stalls_Percent_6_Bucket_4: 3949
Critical_ROB_Stalls_Percent_6_Bucket_5: 3195
Non-critical_ROB_Stalls_Percent_6_Bucket_5: 4575
Critical_ROB_Stalls_Percent_6_Bucket_6: 2286
Non-critical_ROB_Stalls_Percent_6_Bucket_6: 8098
Critical_ROB_Stalls_Percent_7_Bucket_0: 916979
Non-critical_ROB_Stalls_Percent_7_Bucket_0: 136407
Critical_ROB_Stalls_Percent_7_Bucket_1: 6629
Non-critical_ROB_Stalls_Percent_7_Bucket_1: 16509
Critical_ROB_Stalls_Percent_7_Bucket_2: 4109
Non-critical_ROB_Stalls_Percent_7_Bucket_2: 4478
Critical_ROB_Stalls_Percent_7_Bucket_3: 5147
Non-critical_ROB_Stalls_Percent_7_Bucket_3: 3328
Critical_ROB_Stalls_Percent_7_Bucket_4: 4649
Non-critical_ROB_Stalls_Percent_7_Bucket_4: 3170
Critical_ROB_Stalls_Percent_7_Bucket_5: 3924
Non-critical_ROB_Stalls_Percent_7_Bucket_5: 3846
Critical_ROB_Stalls_Percent_7_Bucket_6: 3298
Non-critical_ROB_Stalls_Percent_7_Bucket_6: 7086
Critical_ROB_Stalls_Percent_8_Bucket_0: 964558
Non-critical_ROB_Stalls_Percent_8_Bucket_0: 88828
Critical_ROB_Stalls_Percent_8_Bucket_1: 10114
Non-critical_ROB_Stalls_Percent_8_Bucket_1: 13024
Critical_ROB_Stalls_Percent_8_Bucket_2: 4748
Non-critical_ROB_Stalls_Percent_8_Bucket_2: 3839
Critical_ROB_Stalls_Percent_8_Bucket_3: 5545
Non-critical_ROB_Stalls_Percent_8_Bucket_3: 2930
Critical_ROB_Stalls_Percent_8_Bucket_4: 5136
Non-critical_ROB_Stalls_Percent_8_Bucket_4: 2683
Critical_ROB_Stalls_Percent_8_Bucket_5: 4617
Non-critical_ROB_Stalls_Percent_8_Bucket_5: 3153
Critical_ROB_Stalls_Percent_8_Bucket_6: 5653
Non-critical_ROB_Stalls_Percent_8_Bucket_6: 4731
Average ROB occupancy Load Stall Begin: 19.111
Average ROB occupancy Load Stall End: 22.9672
Min ROB occupancy Load Stall Begin: 1
Max ROB occupancy Load Stall Begin: 351
Min ROB occupancy Load Stall End: 1
Max ROB occupancy Load Stall End: 352
Average ROB occupancy Critical Load Stall Begin: -nan
Average ROB occupancy Critical Load Stall End: -nan
Min ROB occupancy Critical Load Stall Begin: 400
Max ROB occupancy Critical Load Stall Begin: 0
Min ROB occupancy Critical Load Stall End: 400
Max ROB occupancy Critical Load Stall End: 0
 ROB Load Stall Begin Bucket Count 0: 1060104
 ROB Load Stall End Bucket Count 0: 1053386
 ROB Critical Load Stall Begin Bucket Count 0: 0
 ROB Critical Load Stall End Bucket Count 0: 0
 ROB Load Stall Begin Bucket Count 1: 20721
 ROB Load Stall End Bucket Count 1: 23138
 ROB Critical Load Stall Begin Bucket Count 1: 0
 ROB Critical Load Stall End Bucket Count 1: 0
 ROB Load Stall Begin Bucket Count 2: 8312
 ROB Load Stall End Bucket Count 2: 8587
 ROB Critical Load Stall Begin Bucket Count 2: 0
 ROB Critical Load Stall End Bucket Count 2: 0
 ROB Load Stall Begin Bucket Count 3: 7207
 ROB Load Stall End Bucket Count 3: 8475
 ROB Critical Load Stall Begin Bucket Count 3: 0
 ROB Critical Load Stall End Bucket Count 3: 0
 ROB Load Stall Begin Bucket Count 4: 7860
 ROB Load Stall End Bucket Count 4: 7819
 ROB Critical Load Stall Begin Bucket Count 4: 0
 ROB Critical Load Stall End Bucket Count 4: 0
 ROB Load Stall Begin Bucket Count 5: 7453
 ROB Load Stall End Bucket Count 5: 7770
 ROB Critical Load Stall Begin Bucket Count 5: 0
 ROB Critical Load Stall End Bucket Count 5: 0
 ROB Load Stall Begin Bucket Count 6: 7902
 ROB Load Stall End Bucket Count 6: 10384
 ROB Critical Load Stall Begin Bucket Count 6: 0
 ROB Critical Load Stall End Bucket Count 6: 0
PIST Tag Read Accesses: 48984
PIST Read Accesses: 24492
PIST Tag Write Accesses: 48984
PIST Write Accesses: 24492
Criticality detector called times: 225014
Max global_stall_cycles_count: 340915
Threshold Modified: 1 times, factor: -1
Sturdy critical IP cache stats: 
 Unused entries: 0
CIC Tag Read Accesses: 0
CIC Read Accesses: 0
CIC Tag Write Accesses: 0
CIC Write Accesses: 0
Wobbly critical IP cache stats: 
 Unused entries: 111
CIC Tag Read Accesses: 45463312
CIC Read Accesses: 0
CIC Tag Write Accesses: 15997
CIC Write Accesses: 0
ITLB TOTAL     ACCESS:    8752233  HIT:    7827480  MISS:     924753  HIT %:    89.4341  MISS %:    10.5659   MPKI: 18.4951
ITLB LOAD TRANSLATION ACCESS:    8752233  HIT:    7827480  MISS:     924753  HIT %:    89.4341  MISS %:    10.5659   MPKI: 18.4951
ITLB PREFETCH  REQUESTED:          0  ISSUED:          0  USEFUL:          0  USELESS:          0
ITLB USEFUL LOAD PREFETCHES:          0 PREFETCH ISSUED TO LOWER LEVEL:          0  ACCURACY: -nan
ITLB TIMELY PREFETCHES:          0 LATE PREFETCHES: 0 DROPPED PREFETCHES: 0
ITLB PREFETCHES SAME FILL-ORIGIN LEVEL: 0 DIFFERENT FILL-ORIGIN LEVEL: 0
ITLB AVERAGE MISS LATENCY: 31.2517 cycles
ITLB RQ	ACCESS:   10201658	FORWARD:          0	MERGED:    1045305	TO_CACHE:    9156353

DTLB TOTAL     ACCESS:    5603806  HIT:    4224090  MISS:    1379716  HIT %:    75.3789  MISS %:    24.6211   MPKI: 27.5943
DTLB LOAD TRANSLATION ACCESS:    5603806  HIT:    4224090  MISS:    1379716  HIT %:    75.3789  MISS %:    24.6211   MPKI: 27.5943
DTLB PREFETCH  REQUESTED:          0  ISSUED:          0  USEFUL:          0  USELESS:          0
DTLB USEFUL LOAD PREFETCHES:          0 PREFETCH ISSUED TO LOWER LEVEL:          0  ACCURACY: -nan
DTLB TIMELY PREFETCHES:          0 LATE PREFETCHES: 0 DROPPED PREFETCHES: 0
DTLB PREFETCHES SAME FILL-ORIGIN LEVEL: 0 DIFFERENT FILL-ORIGIN LEVEL: 0
DTLB AVERAGE MISS LATENCY: 32.954 cycles
DTLB RQ	ACCESS:    7518301	FORWARD:          0	MERGED:    1679476	TO_CACHE:    5838825

STLB TOTAL     ACCESS:    2304469  HIT:     573696  MISS:    1730773  HIT %:    24.8949  MISS %:    75.1051   MPKI: 34.6155
STLB LOAD TRANSLATION ACCESS:    2304469  HIT:     573696  MISS:    1730773  HIT %:    24.8949  MISS %:    75.1051   MPKI: 34.6155
STLB PREFETCH  REQUESTED:          0  ISSUED:          0  USEFUL:          0  USELESS:          0
STLB USEFUL LOAD PREFETCHES:          0 PREFETCH ISSUED TO LOWER LEVEL:          0  ACCURACY: -nan
STLB TIMELY PREFETCHES:          0 LATE PREFETCHES: 0 DROPPED PREFETCHES: 0
STLB PREFETCHES SAME FILL-ORIGIN LEVEL: 0 DIFFERENT FILL-ORIGIN LEVEL: 0
STLB AVERAGE MISS LATENCY: 30.8656 cycles
STLB RQ	ACCESS:    2304467	FORWARD:          0	MERGED:          0	TO_CACHE:    2304467

STLB Hit, L1D data hit: 0
STLB Hit, L2C data hit: 0
STLB Hit, LLC data hit: 0
STLB Hit, LLC data miss: 0
STLB STLB hints to L2: 0
L1D TOTAL     ACCESS:    7165783  HIT:    6614460  MISS:     551323  HIT %:    92.3062  MISS %:    7.69383   MPKI: 11.0265
L1D LOAD      ACCESS:    4743901  HIT:    4280072  MISS:     463829  HIT %:    90.2226  MISS %:    9.77738   MPKI: 9.27658
L1D RFO       ACCESS:    2421882  HIT:    2334388  MISS:      87494  HIT %:    96.3874  MISS %:    3.61265   MPKI: 1.74988
L1D PREFETCH  REQUESTED:          0  ISSUED:          0  USEFUL:          0  USELESS:          0
L1D USEFUL LOAD PREFETCHES:          0 PREFETCH ISSUED TO LOWER LEVEL:          0  ACCURACY: -nan
L1D TIMELY PREFETCHES:          0 LATE PREFETCHES: 0 DROPPED PREFETCHES: 0
L1D PREFETCHES SAME FILL-ORIGIN LEVEL: 0 DIFFERENT FILL-ORIGIN LEVEL: 0
L1D AVERAGE MISS LATENCY: 51.0693 cycles
L1D RQ	ACCESS:    7943866	FORWARD:          0	MERGED:    3133573	TO_CACHE:    4783991
L1D WQ	ACCESS:    2790213	FORWARD:      26302	MERGED:      55903	TO_CACHE:    2734310

L1D UNIQUE REGIONS ACCESSED: 0
L1D REGIONS CONFLICTS: 0
L1D Cross Page Prefetch Requests: 0
L1D Same Page Prefetch Requests: 0
L1D ROI Sum of L1D PQ occupancy: 0
L1D PREFETCHES PUSHED FROM L2C: 0
L1I TOTAL     ACCESS:    9856750  HIT:    8773106  MISS:    1083644  HIT %:    89.0061  MISS %:    10.9939   MPKI: 21.6729
L1I LOAD      ACCESS:    9856750  HIT:    8773106  MISS:    1083644  HIT %:    89.0061  MISS %:    10.9939   MPKI: 21.6729
L1I PREFETCH  REQUESTED:          0  ISSUED:          0  USEFUL:          0  USELESS:          0
L1I USEFUL LOAD PREFETCHES:          0 PREFETCH ISSUED TO LOWER LEVEL:          0  ACCURACY: -nan
L1I TIMELY PREFETCHES:          0 LATE PREFETCHES: 0 DROPPED PREFETCHES: 0
L1I PREFETCHES SAME FILL-ORIGIN LEVEL: 0 DIFFERENT FILL-ORIGIN LEVEL: 0
L1I AVERAGE MISS LATENCY: 16.2164 cycles
L1I RQ	ACCESS:   17610499	FORWARD:          0	MERGED:    7408841	TO_CACHE:   10201658

BTB BRANCH_DIRECT_JUMP	ACCESS:          0  HIT:          0  MISS:          0
BTB BRANCH_INDIRECT	ACCESS:          0  HIT:          0  MISS:          0
BTB BRANCH_CONDITIONAL	ACCESS:          0  HIT:          0  MISS:          0
BTB BRANCH_DIRECT_CALL	ACCESS:          0  HIT:          0  MISS:          0
BTB BRANCH_INDIRECT_CALL	ACCESS:          0  HIT:          0  MISS:          0
BTB BRANCH_RETURN	ACCESS:          0  HIT:          0  MISS:          0
BTB BRANCH_OTHER ACCESS:          0  HIT:          0  MISS:          0

L2C TOTAL     ACCESS:    4083629  HIT:    3536197  MISS:     547432  HIT %:    86.5945  MISS %:    13.4055   MPKI: 10.9486
L2C LOAD      ACCESS:    1547468  HIT:    1433370  MISS:     114098  HIT %:    92.6268  MISS %:    7.37321   MPKI: 2.28196
L2C DATA LOAD MPKI: 1.64264
L2C INSTRUCTION LOAD MPKI: 0.63932
L2C RFO       ACCESS:      87486  HIT:      22239  MISS:      65247  HIT %:    25.4201  MISS %:    74.5799   MPKI: 1.30494
L2C PREFETCH  ACCESS:     407179  HIT:      58744  MISS:     348435  HIT %:    14.4271  MISS %:    85.5729   MPKI: 6.9687
L2C DATA PREFETCH MPKI: 6.9687
L2C INSTRUCTION PREFETCH MPKI: 0
L2C WRITEBACK ACCESS:     162245  HIT:     157550  MISS:       4695  HIT %:    97.1062  MISS %:    2.89377   MPKI: 0.0939
L2C LOAD TRANSLATION ACCESS:    1879251  HIT:    1864294  MISS:      14957  HIT %:    99.2041  MISS %:   0.795902   MPKI: 0.29914
L2C PREFETCH  REQUESTED:     425340  ISSUED:     425340  USEFUL:     285995  USELESS:      62838
L2C USEFUL LOAD PREFETCHES:     285995 PREFETCH ISSUED TO LOWER LEVEL:     354487  ACCURACY: 80.6786
L2C TIMELY PREFETCHES:     285995 LATE PREFETCHES: 6052 DROPPED PREFETCHES: 0
L2C PREFETCHES SAME FILL-ORIGIN LEVEL: 354487 DIFFERENT FILL-ORIGIN LEVEL: 0
L2C AVERAGE MISS LATENCY: 149.438 cycles
L2C RQ	ACCESS:    3514218	FORWARD:          0	MERGED:          0	TO_CACHE:    3514210
L2C WQ	ACCESS:     162245	FORWARD:          8	MERGED:          0	TO_CACHE:     162245
L2C PQ	ACCESS:     425340	FORWARD:          0	MERGED:          0	TO_CACHE:     425340

L2C Instructions Evicting Data 27279
L2C Translations Evicting Data 13402
L2C Data Evicting Data 454028
L2C Instructions Evicting Instructions 3604
L2C Translations Evicting Instructions 1121
L2C Data Evicting Instructions 28071
L2C Instructions Evicting Translations 1083
L2C Translations Evicting Translations 434
L2C Data Evicting Translations 13715
L2C Dense regions hint from L2: 0
PSCL5 TOTAL     ACCESS:    1730772  HIT:    1730772  MISS:          0  HIT %:        100  MISS %:          0   MPKI: 0
PSCL5 LOAD TRANSLATION ACCESS:    1730772  HIT:    1730772  MISS:          0  HIT %:        100  MISS %:          0   MPKI: 0
PSCL5 PREFETCH  REQUESTED:          0  ISSUED:          0  USEFUL:          0  USELESS:          0
PSCL5 USEFUL LOAD PREFETCHES:          0 PREFETCH ISSUED TO LOWER LEVEL:          0  ACCURACY: -nan
PSCL5 TIMELY PREFETCHES:          0 LATE PREFETCHES: 0 DROPPED PREFETCHES: 0
PSCL5 PREFETCHES SAME FILL-ORIGIN LEVEL: 0 DIFFERENT FILL-ORIGIN LEVEL: 0

PSCL4 TOTAL     ACCESS:    1730772  HIT:    1730772  MISS:          0  HIT %:        100  MISS %:          0   MPKI: 0
PSCL4 LOAD TRANSLATION ACCESS:    1730772  HIT:    1730772  MISS:          0  HIT %:        100  MISS %:          0   MPKI: 0
PSCL4 PREFETCH  REQUESTED:          0  ISSUED:          0  USEFUL:          0  USELESS:          0
PSCL4 USEFUL LOAD PREFETCHES:          0 PREFETCH ISSUED TO LOWER LEVEL:          0  ACCURACY: -nan
PSCL4 TIMELY PREFETCHES:          0 LATE PREFETCHES: 0 DROPPED PREFETCHES: 0
PSCL4 PREFETCHES SAME FILL-ORIGIN LEVEL: 0 DIFFERENT FILL-ORIGIN LEVEL: 0

PSCL3 TOTAL     ACCESS:    1730068  HIT:    1729862  MISS:        206  HIT %:    99.9881  MISS %:   0.011907   MPKI: 0.00412
PSCL3 LOAD TRANSLATION ACCESS:    1730068  HIT:    1729862  MISS:        206  HIT %:    99.9881  MISS %:   0.011907   MPKI: 0.00412
PSCL3 PREFETCH  REQUESTED:          0  ISSUED:          0  USEFUL:          0  USELESS:          0
PSCL3 USEFUL LOAD PREFETCHES:          0 PREFETCH ISSUED TO LOWER LEVEL:          0  ACCURACY: -nan
PSCL3 TIMELY PREFETCHES:          0 LATE PREFETCHES: 0 DROPPED PREFETCHES: 0
PSCL3 PREFETCHES SAME FILL-ORIGIN LEVEL: 0 DIFFERENT FILL-ORIGIN LEVEL: 0

PSCL2 TOTAL     ACCESS:    1730772  HIT:    1582325  MISS:     148447  HIT %:    91.4231  MISS %:    8.57692   MPKI: 2.96894
PSCL2 LOAD TRANSLATION ACCESS:    1730772  HIT:    1582325  MISS:     148447  HIT %:    91.4231  MISS %:    8.57692   MPKI: 2.96894
PSCL2 PREFETCH  REQUESTED:          0  ISSUED:          0  USEFUL:          0  USELESS:          0
PSCL2 USEFUL LOAD PREFETCHES:          0 PREFETCH ISSUED TO LOWER LEVEL:          0  ACCURACY: -nan
PSCL2 TIMELY PREFETCHES:          0 LATE PREFETCHES: 0 DROPPED PREFETCHES: 0
PSCL2 PREFETCHES SAME FILL-ORIGIN LEVEL: 0 DIFFERENT FILL-ORIGIN LEVEL: 0

LLC TOTAL     ACCESS:     661358  HIT:     234973  MISS:     426385  HIT %:    35.5289  MISS %:    64.4711   MPKI: 8.5277
LLC LOAD      ACCESS:     108080  HIT:      48061  MISS:      60019  HIT %:     44.468  MISS %:     55.532   MPKI: 1.20038
LLC RFO       ACCESS:      65213  HIT:      15606  MISS:      49607  HIT %:    23.9308  MISS %:    76.0692   MPKI: 0.99214
LLC PREFETCH  ACCESS:     354486  HIT:      48196  MISS:     306290  HIT %:     13.596  MISS %:     86.404   MPKI: 6.1258
LLC WRITEBACK ACCESS:     118622  HIT:     115241  MISS:       3381  HIT %:    97.1498  MISS %:    2.85023   MPKI: 0.06762
LLC LOAD TRANSLATION ACCESS:      14957  HIT:       7869  MISS:       7088  HIT %:    52.6108  MISS %:    47.3892   MPKI: 0.14176
LLC PREFETCH  REQUESTED:          0  ISSUED:          0  USEFUL:       3077  USELESS:     293547
LLC USEFUL LOAD PREFETCHES:       3077 PREFETCH ISSUED TO LOWER LEVEL:     306290  ACCURACY: 1.0046
LLC TIMELY PREFETCHES:       3077 LATE PREFETCHES: 0 DROPPED PREFETCHES: 0
LLC PREFETCHES SAME FILL-ORIGIN LEVEL: 0 DIFFERENT FILL-ORIGIN LEVEL: 0
LLC AVERAGE MISS LATENCY: 153.771 cycles
LLC RQ	ACCESS:     188250	FORWARD:          0	MERGED:          0	TO_CACHE:     188250
LLC WQ	ACCESS:     118622	FORWARD:          1	MERGED:          0	TO_CACHE:     118622
LLC PQ	ACCESS:     354487	FORWARD:          0	MERGED:          0	TO_CACHE:     354486

LLC Dense regions hint to LLC: 0

RAW hits: 195666
Loads Generated: 8139533
Loads sent to L1D: 7943866
Stores Generated: 2790211
Stores sent to L1D: 2790213
Major fault: 0 Minor fault: 16774
Allocated PAGES: 16774
[Bingo] PHT Access: 67462
[Bingo] PHT Hit PC+Addr: 22941
[Bingo] PHT Hit PC+Offs: 31214
[Bingo] PHT Miss: 13307
[Bingo] Prefetch PC+Addr: 0
[Bingo] Prefetch PC+Offs: 0
[Bingo] Useful PC+Addr: 0
[Bingo] Useful PC+Offs: 0
[Bingo] Useless PC+Addr: 0
[Bingo] Useless PC+Offs: 0
[Bingo] L1 Prefetch per Region: 0
[Bingo] L2 Prefetch per Region: 8.89504
[Bingo] L3 Prefetch per Region: 0
[Bingo] No Prefetch per Region: 23.105
[Bingo] Number of Voters Mean: 10.1694
[Bingo] Number of Voters SD: 9.07003
PHT read accesses: 707415
PHT write accesses: 37509
AT read accesses: 406080
AT write accesses: 427647
FT read accesses: 130171
FT write accesses: 67462
PS read accesses: 127418
PS write accesses: 54155
PHT tag read accesses: 1787284
PHT tag write accesses: 60450
AT tag read accesses: 17858776
AT tag write accesses: 443587
FT tag read accesses: 12889504
FT tag write accesses: 153901
PS tag read accesses: 9604533
PS tag write accesses: 181345

DRAM Statistics
 CHANNEL 0
 RQ ROW_BUFFER_HIT:     274560  ROW_BUFFER_MISS:     148443
 DBUS_CONGESTED:        179
 WQ ROW_BUFFER_HIT:       7826  ROW_BUFFER_MISS:      77220  FULL:          0

 AVG_CONGESTED_CYCLE: 4
 All warmup complete: 2
Channel 0 Bank busy for read cycles: 0
Channel 0 Bank busy for write cycles: 0
Channel 0
Rank 0
0banks busy for read cycles: 70149671
0banks busy for write cycles: 17635
1banks busy for read cycles: 4095085
1banks busy for write cycles: 1889406
2banks busy for read cycles: 1936930
2banks busy for write cycles: 920365
3banks busy for read cycles: 1049439
3banks busy for write cycles: 572151
4banks busy for read cycles: 776311
4banks busy for write cycles: 422505
5banks busy for read cycles: 506224
5banks busy for write cycles: 322068
6banks busy for read cycles: 448928
6banks busy for write cycles: 265014
7banks busy for read cycles: 696114
7banks busy for write cycles: 231617
8banks busy for read cycles: 1462745
8banks busy for write cycles: 266394

CPU 0 Branch Prediction Accuracy: 99.3651% MPKI: 1.08338 Average ROB Occupancy at Mispredict: 34.8592
Branch types
NOT_BRANCH: 0 0%
BRANCH_DIRECT_JUMP: 0 0%
BRANCH_INDIRECT: 0 0%
BRANCH_CONDITIONAL: 0 0%
BRANCH_DIRECT_CALL: 0 0%
BRANCH_INDIRECT_CALL: 0 0%
BRANCH_RETURN: 0 0%
BRANCH_OTHER: 0 0%

DRAM PAGES: 1048576
Allocated PAGES: 16774
