Initialize SIGNATURE TABLE
ST_SET: 1
ST_WAY: 256
ST_TAG_BIT: 16
ST_TAG_MASK: ffff

Initialize PATTERN TABLE
PT_SET: 512
PT_WAY: 4
SIG_DELTA_BIT: 7
C_SIG_BIT: 4
C_DELTA_BIT: 4

Initialize PREFETCH FILTER
FILTER_SET: 1024

*** ChampSim Multicore Out-of-Order Simulator ***

Warmup Instructions: 50000000
Simulation Instructions: 50000000
Number of CPUs: 1
LLC sets: 2048
LLC ways: 16
Off-chip DRAM Size: 4096 MB Channels: 1 Width: 64-bit Data Rate: 6400 MT/s
CPU 0 runs ../cloudsuite_traces//streaming_phase0_core2.trace.gz
.gz
BTB has LRU replacement policy
ITLB has LRU replacement policy
DTLB has LRU replacement policy
STLB has LRU replacement policy
L1I has LRU replacement policy
L1D has LRU replacement policy
Initialize SRRIP state for L2C
Initialize DRRIP state for LLC
UNIQUE_ASID[0] = €
UNIQUE_ASID[1] = 
Heartbeat CPU 0 instructions: 10000003 cycles: 3330307 heartbeat IPC: 3.00273 cumulative IPC: 3.00273 (Simulation time: 0 hr 1 min 27 sec) 
Heartbeat CPU 0 instructions: 20000001 cycles: 6657001 heartbeat IPC: 3.00599 cumulative IPC: 3.00436 (Simulation time: 0 hr 2 min 57 sec) 
Heartbeat CPU 0 instructions: 30000001 cycles: 10069736 heartbeat IPC: 2.9302 cumulative IPC: 2.97922 (Simulation time: 0 hr 4 min 59 sec) 
Heartbeat CPU 0 instructions: 40000000 cycles: 13447786 heartbeat IPC: 2.96029 cumulative IPC: 2.97447 (Simulation time: 0 hr 6 min 48 sec) 
Heartbeat CPU 0 instructions: 50000000 cycles: 16846033 heartbeat IPC: 2.94269 cumulative IPC: 2.96806 (Simulation time: 0 hr 8 min 25 sec) 

Warmup complete CPU 0 instructions: 50000004 cycles: 16846034 (Simulation time: 0 hr 8 min 25 sec) 

Heartbeat CPU 0 instructions: 60000000 cycles: 35394916 heartbeat IPC: 0.539116 cumulative IPC: 0.539116 (Simulation time: 0 hr 11 min 58 sec) 
Heartbeat CPU 0 instructions: 70000003 cycles: 53090142 heartbeat IPC: 0.565124 cumulative IPC: 0.551814 (Simulation time: 0 hr 15 min 14 sec) 
Heartbeat CPU 0 instructions: 80000001 cycles: 69092430 heartbeat IPC: 0.624911 cumulative IPC: 0.574202 (Simulation time: 0 hr 17 min 56 sec) 
Heartbeat CPU 0 instructions: 90000002 cycles: 84874976 heartbeat IPC: 0.633611 cumulative IPC: 0.587985 (Simulation time: 0 hr 20 min 26 sec) 
Heartbeat CPU 0 instructions: 100000000 cycles: 102492017 heartbeat IPC: 0.567632 cumulative IPC: 0.583798 (Simulation time: 0 hr 23 min 7 sec) 
Finished CPU 0 instructions: 50000000 cycles: 85645984 cumulative IPC: 0.583799 (Simulation time: 0 hr 23 min 7 sec) 

ChampSim completed all CPUs

Region of Interest Statistics

CPU 0 cumulative IPC: 0.583799 instructions: 50000000 cycles: 85645984

CPU 0 Average Load ROB stall cycles: 1.94949e+07
CPU 0 Fraction of times ROB stalled by Loads: 31.1871
CPU 0 Percentage of Load stall cycles in Total stall cycles: 1.4812e+08
Issued all: 34525754
Issued LT all: 27130155
rob_not_full_when_issued_lt_all: 24041360
Issued LT one: 25218976
rob_not_full_when_issued_lt_one: 22333631
 Total stall cycles: 71888043
 Total load stall cycles: 106480618457308
Unique Load IPs: 7205
CPU 0 NUM of IPS identified critical: 116
CPU 0 Num of Load IPs stalling ROB: 0
Threshold modification factor: 0
Trouble in retire width: -nan
MaC = Marked as critical.
lt_50_percent_before_Mac: 52
gt_90_percent_before_Mac: 4
gt_75_percent_before_Mac: 24
gt_50_percent_before_Mac: 28
stall_proportion_bin_same_before_after: 0
stall_proportion_bin_lower_before_after: 0
stall_proportion_bin_upper_before_after: 0
average_stall_proportion_before: 0.0329835
average_stall_proportion_after: 0.033565
Critical_IP_Detector_Accuracy_70: 0
Critical_IP_Detector_Accuracy_80: 0
Critical_IP_Detector_Accuracy_90: 0
Critical_IP_Detector_Coverage_70: 0
Critical_IP_Detector_Coverage_80: 0
Critical_IP_Detector_Coverage_90: 0
stat_90_percent_critical_ip_stalls_freq: 749914
stat_90_percent_non_critical_ip_stalls_freq: 18446744073708801702
AVERAGE_ROB_Occupancy_90_Percent_Critical_IP_Stalls: 52.8187
AVERAGE_ROB_Occupancy_90_Percent_Non_Critical_IP_Stalls: 3.68082e-12
Critical_IP_ROB_Stalls_Bucket_0: 103855
Non-critical_IP_ROB_Stalls_Bucket_0: 893012
Critical_IP_ROB_Stalls_Bucket_1: 37871
Non-critical_IP_ROB_Stalls_Bucket_1: 425602
Critical_IP_ROB_Stalls_Bucket_2: 5913
Non-critical_IP_ROB_Stalls_Bucket_2: 71761
Critical_IP_ROB_Stalls_Bucket_3: 3732
Non-critical_IP_ROB_Stalls_Bucket_3: 47408
Critical_IP_ROB_Stalls_Bucket_4: 2400
Non-critical_IP_ROB_Stalls_Bucket_4: 22059
Critical_IP_ROB_Stalls_Bucket_5: 2789
Non-critical_IP_ROB_Stalls_Bucket_5: 21934
Critical_IP_ROB_Stalls_Bucket_6: 7341
Non-critical_IP_ROB_Stalls_Bucket_6: 57749
0 => IPs accounting for >50 percent of stalls, 1 => 55, 2 => 60, 3 => 65 and so on till 90.
percent50: inf num IPs:  1
percent55: inf num IPs: 1
percent60: inf num IPs: 1
percent65: inf num IPs: 1
percent70: inf num IPs: 1
percent75: inf num IPs: 1
percent80: inf num IPs: 1
percent85: inf num IPs: 1
percent90: inf num IPs: 1
Critical_ROB_Stalls_Percent_0_Bucket_0: 433223
Non-critical_ROB_Stalls_Percent_0_Bucket_0: 563644
Critical_ROB_Stalls_Percent_0_Bucket_1: 225456
Non-critical_ROB_Stalls_Percent_0_Bucket_1: 238017
Critical_ROB_Stalls_Percent_0_Bucket_2: 41267
Non-critical_ROB_Stalls_Percent_0_Bucket_2: 36407
Critical_ROB_Stalls_Percent_0_Bucket_3: 30045
Non-critical_ROB_Stalls_Percent_0_Bucket_3: 21095
Critical_ROB_Stalls_Percent_0_Bucket_4: 8899
Non-critical_ROB_Stalls_Percent_0_Bucket_4: 15560
Critical_ROB_Stalls_Percent_0_Bucket_5: 4876
Non-critical_ROB_Stalls_Percent_0_Bucket_5: 19847
Critical_ROB_Stalls_Percent_0_Bucket_6: 6148
Non-critical_ROB_Stalls_Percent_0_Bucket_6: 58942
Critical_ROB_Stalls_Percent_1_Bucket_0: 433223
Non-critical_ROB_Stalls_Percent_1_Bucket_0: 563644
Critical_ROB_Stalls_Percent_1_Bucket_1: 225456
Non-critical_ROB_Stalls_Percent_1_Bucket_1: 238017
Critical_ROB_Stalls_Percent_1_Bucket_2: 41267
Non-critical_ROB_Stalls_Percent_1_Bucket_2: 36407
Critical_ROB_Stalls_Percent_1_Bucket_3: 30045
Non-critical_ROB_Stalls_Percent_1_Bucket_3: 21095
Critical_ROB_Stalls_Percent_1_Bucket_4: 8899
Non-critical_ROB_Stalls_Percent_1_Bucket_4: 15560
Critical_ROB_Stalls_Percent_1_Bucket_5: 4876
Non-critical_ROB_Stalls_Percent_1_Bucket_5: 19847
Critical_ROB_Stalls_Percent_1_Bucket_6: 6148
Non-critical_ROB_Stalls_Percent_1_Bucket_6: 58942
Critical_ROB_Stalls_Percent_2_Bucket_0: 433223
Non-critical_ROB_Stalls_Percent_2_Bucket_0: 563644
Critical_ROB_Stalls_Percent_2_Bucket_1: 225456
Non-critical_ROB_Stalls_Percent_2_Bucket_1: 238017
Critical_ROB_Stalls_Percent_2_Bucket_2: 41267
Non-critical_ROB_Stalls_Percent_2_Bucket_2: 36407
Critical_ROB_Stalls_Percent_2_Bucket_3: 30045
Non-critical_ROB_Stalls_Percent_2_Bucket_3: 21095
Critical_ROB_Stalls_Percent_2_Bucket_4: 8899
Non-critical_ROB_Stalls_Percent_2_Bucket_4: 15560
Critical_ROB_Stalls_Percent_2_Bucket_5: 4876
Non-critical_ROB_Stalls_Percent_2_Bucket_5: 19847
Critical_ROB_Stalls_Percent_2_Bucket_6: 6148
Non-critical_ROB_Stalls_Percent_2_Bucket_6: 58942
Critical_ROB_Stalls_Percent_3_Bucket_0: 433223
Non-critical_ROB_Stalls_Percent_3_Bucket_0: 563644
Critical_ROB_Stalls_Percent_3_Bucket_1: 225456
Non-critical_ROB_Stalls_Percent_3_Bucket_1: 238017
Critical_ROB_Stalls_Percent_3_Bucket_2: 41267
Non-critical_ROB_Stalls_Percent_3_Bucket_2: 36407
Critical_ROB_Stalls_Percent_3_Bucket_3: 30045
Non-critical_ROB_Stalls_Percent_3_Bucket_3: 21095
Critical_ROB_Stalls_Percent_3_Bucket_4: 8899
Non-critical_ROB_Stalls_Percent_3_Bucket_4: 15560
Critical_ROB_Stalls_Percent_3_Bucket_5: 4876
Non-critical_ROB_Stalls_Percent_3_Bucket_5: 19847
Critical_ROB_Stalls_Percent_3_Bucket_6: 6148
Non-critical_ROB_Stalls_Percent_3_Bucket_6: 58942
Critical_ROB_Stalls_Percent_4_Bucket_0: 433223
Non-critical_ROB_Stalls_Percent_4_Bucket_0: 563644
Critical_ROB_Stalls_Percent_4_Bucket_1: 225456
Non-critical_ROB_Stalls_Percent_4_Bucket_1: 238017
Critical_ROB_Stalls_Percent_4_Bucket_2: 41267
Non-critical_ROB_Stalls_Percent_4_Bucket_2: 36407
Critical_ROB_Stalls_Percent_4_Bucket_3: 30045
Non-critical_ROB_Stalls_Percent_4_Bucket_3: 21095
Critical_ROB_Stalls_Percent_4_Bucket_4: 8899
Non-critical_ROB_Stalls_Percent_4_Bucket_4: 15560
Critical_ROB_Stalls_Percent_4_Bucket_5: 4876
Non-critical_ROB_Stalls_Percent_4_Bucket_5: 19847
Critical_ROB_Stalls_Percent_4_Bucket_6: 6148
Non-critical_ROB_Stalls_Percent_4_Bucket_6: 58942
Critical_ROB_Stalls_Percent_5_Bucket_0: 433223
Non-critical_ROB_Stalls_Percent_5_Bucket_0: 563644
Critical_ROB_Stalls_Percent_5_Bucket_1: 225456
Non-critical_ROB_Stalls_Percent_5_Bucket_1: 238017
Critical_ROB_Stalls_Percent_5_Bucket_2: 41267
Non-critical_ROB_Stalls_Percent_5_Bucket_2: 36407
Critical_ROB_Stalls_Percent_5_Bucket_3: 30045
Non-critical_ROB_Stalls_Percent_5_Bucket_3: 21095
Critical_ROB_Stalls_Percent_5_Bucket_4: 8899
Non-critical_ROB_Stalls_Percent_5_Bucket_4: 15560
Critical_ROB_Stalls_Percent_5_Bucket_5: 4876
Non-critical_ROB_Stalls_Percent_5_Bucket_5: 19847
Critical_ROB_Stalls_Percent_5_Bucket_6: 6148
Non-critical_ROB_Stalls_Percent_5_Bucket_6: 58942
Critical_ROB_Stalls_Percent_6_Bucket_0: 433223
Non-critical_ROB_Stalls_Percent_6_Bucket_0: 563644
Critical_ROB_Stalls_Percent_6_Bucket_1: 225456
Non-critical_ROB_Stalls_Percent_6_Bucket_1: 238017
Critical_ROB_Stalls_Percent_6_Bucket_2: 41267
Non-critical_ROB_Stalls_Percent_6_Bucket_2: 36407
Critical_ROB_Stalls_Percent_6_Bucket_3: 30045
Non-critical_ROB_Stalls_Percent_6_Bucket_3: 21095
Critical_ROB_Stalls_Percent_6_Bucket_4: 8899
Non-critical_ROB_Stalls_Percent_6_Bucket_4: 15560
Critical_ROB_Stalls_Percent_6_Bucket_5: 4876
Non-critical_ROB_Stalls_Percent_6_Bucket_5: 19847
Critical_ROB_Stalls_Percent_6_Bucket_6: 6148
Non-critical_ROB_Stalls_Percent_6_Bucket_6: 58942
Critical_ROB_Stalls_Percent_7_Bucket_0: 433223
Non-critical_ROB_Stalls_Percent_7_Bucket_0: 563644
Critical_ROB_Stalls_Percent_7_Bucket_1: 225456
Non-critical_ROB_Stalls_Percent_7_Bucket_1: 238017
Critical_ROB_Stalls_Percent_7_Bucket_2: 41267
Non-critical_ROB_Stalls_Percent_7_Bucket_2: 36407
Critical_ROB_Stalls_Percent_7_Bucket_3: 30045
Non-critical_ROB_Stalls_Percent_7_Bucket_3: 21095
Critical_ROB_Stalls_Percent_7_Bucket_4: 8899
Non-critical_ROB_Stalls_Percent_7_Bucket_4: 15560
Critical_ROB_Stalls_Percent_7_Bucket_5: 4876
Non-critical_ROB_Stalls_Percent_7_Bucket_5: 19847
Critical_ROB_Stalls_Percent_7_Bucket_6: 6148
Non-critical_ROB_Stalls_Percent_7_Bucket_6: 58942
Critical_ROB_Stalls_Percent_8_Bucket_0: 433223
Non-critical_ROB_Stalls_Percent_8_Bucket_0: 563644
Critical_ROB_Stalls_Percent_8_Bucket_1: 225456
Non-critical_ROB_Stalls_Percent_8_Bucket_1: 238017
Critical_ROB_Stalls_Percent_8_Bucket_2: 41267
Non-critical_ROB_Stalls_Percent_8_Bucket_2: 36407
Critical_ROB_Stalls_Percent_8_Bucket_3: 30045
Non-critical_ROB_Stalls_Percent_8_Bucket_3: 21095
Critical_ROB_Stalls_Percent_8_Bucket_4: 8899
Non-critical_ROB_Stalls_Percent_8_Bucket_4: 15560
Critical_ROB_Stalls_Percent_8_Bucket_5: 4876
Non-critical_ROB_Stalls_Percent_8_Bucket_5: 19847
Critical_ROB_Stalls_Percent_8_Bucket_6: 6148
Non-critical_ROB_Stalls_Percent_8_Bucket_6: 58942
Average ROB occupancy Load Stall Begin: 42.9775
Average ROB occupancy Load Stall End: 63.1132
Min ROB occupancy Load Stall Begin: 1
Max ROB occupancy Load Stall Begin: 352
Min ROB occupancy Load Stall End: 1
Max ROB occupancy Load Stall End: 352
Average ROB occupancy Critical Load Stall Begin: 45.2506
Average ROB occupancy Critical Load Stall End: 56.4281
Min ROB occupancy Critical Load Stall Begin: 1
Max ROB occupancy Critical Load Stall Begin: 352
Min ROB occupancy Critical Load Stall End: 2
Max ROB occupancy Critical Load Stall End: 352
 ROB Load Stall Begin Bucket Count 0: 1319924
 ROB Load Stall End Bucket Count 0: 996867
 ROB Critical Load Stall Begin Bucket Count 0: 56581
 ROB Critical Load Stall End Bucket Count 0: 48876
 ROB Load Stall Begin Bucket Count 1: 212702
 ROB Load Stall End Bucket Count 1: 463473
 ROB Critical Load Stall Begin Bucket Count 1: 11203
 ROB Critical Load Stall End Bucket Count 1: 17786
 ROB Load Stall Begin Bucket Count 2: 47464
 ROB Load Stall End Bucket Count 2: 77674
 ROB Critical Load Stall Begin Bucket Count 2: 1814
 ROB Critical Load Stall End Bucket Count 2: 2349
 ROB Load Stall Begin Bucket Count 3: 26734
 ROB Load Stall End Bucket Count 3: 51140
 ROB Critical Load Stall Begin Bucket Count 3: 1057
 ROB Critical Load Stall End Bucket Count 3: 1304
 ROB Load Stall Begin Bucket Count 4: 22346
 ROB Load Stall End Bucket Count 4: 24459
 ROB Critical Load Stall Begin Bucket Count 4: 1019
 ROB Critical Load Stall End Bucket Count 4: 1044
 ROB Load Stall Begin Bucket Count 5: 27493
 ROB Load Stall End Bucket Count 5: 24723
 ROB Critical Load Stall Begin Bucket Count 5: 825
 ROB Critical Load Stall End Bucket Count 5: 831
 ROB Load Stall Begin Bucket Count 6: 46763
 ROB Load Stall End Bucket Count 6: 65090
 ROB Critical Load Stall Begin Bucket Count 6: 1619
 ROB Critical Load Stall End Bucket Count 6: 1942
PIST Tag Read Accesses: 0
PIST Read Accesses: 0
PIST Tag Write Accesses: 0
PIST Write Accesses: 0
Criticality detector called times: 0
Max global_stall_cycles_count: 0
Threshold Modified: 0 times, factor: 0
Sturdy critical IP cache stats: 
 Unused entries: 0
CIC Tag Read Accesses: 0
CIC Read Accesses: 0
CIC Tag Write Accesses: 0
CIC Write Accesses: 0
Wobbly critical IP cache stats: 
 Unused entries: 0
CIC Tag Read Accesses: 72343878
CIC Read Accesses: 0
CIC Tag Write Accesses: 1037834
CIC Write Accesses: 0
ITLB TOTAL     ACCESS:    8533033  HIT:    8006077  MISS:     526956  HIT %:    93.8245  MISS %:    6.17548   MPKI: 10.5391
ITLB LOAD TRANSLATION ACCESS:    8533033  HIT:    8006077  MISS:     526956  HIT %:    93.8245  MISS %:    6.17548   MPKI: 10.5391
ITLB PREFETCH  REQUESTED:          0  ISSUED:          0  USEFUL:          0  USELESS:          0
ITLB USEFUL LOAD PREFETCHES:          0 PREFETCH ISSUED TO LOWER LEVEL:          0  ACCURACY: -nan
ITLB TIMELY PREFETCHES:          0 LATE PREFETCHES: 0 DROPPED PREFETCHES: 0
ITLB PREFETCHES SAME FILL-ORIGIN LEVEL: 0 DIFFERENT FILL-ORIGIN LEVEL: 0
ITLB AVERAGE MISS LATENCY: 32.8854 cycles
ITLB RQ	ACCESS:    9323788	FORWARD:          0	MERGED:     590823	TO_CACHE:    8732965

DTLB TOTAL     ACCESS:    4719639  HIT:    3787470  MISS:     932169  HIT %:    80.2491  MISS %:    19.7509   MPKI: 18.6434
DTLB LOAD TRANSLATION ACCESS:    4719639  HIT:    3787470  MISS:     932169  HIT %:    80.2491  MISS %:    19.7509   MPKI: 18.6434
DTLB PREFETCH  REQUESTED:          0  ISSUED:          0  USEFUL:          0  USELESS:          0
DTLB USEFUL LOAD PREFETCHES:          0 PREFETCH ISSUED TO LOWER LEVEL:          0  ACCURACY: -nan
DTLB TIMELY PREFETCHES:          0 LATE PREFETCHES: 0 DROPPED PREFETCHES: 0
DTLB PREFETCHES SAME FILL-ORIGIN LEVEL: 0 DIFFERENT FILL-ORIGIN LEVEL: 0
DTLB AVERAGE MISS LATENCY: 35.4754 cycles
DTLB RQ	ACCESS:    5802983	FORWARD:          0	MERGED:     940092	TO_CACHE:    4862891

STLB TOTAL     ACCESS:    1459125  HIT:     308936  MISS:    1150189  HIT %:    21.1727  MISS %:    78.8273   MPKI: 23.0038
STLB LOAD TRANSLATION ACCESS:    1459125  HIT:     308936  MISS:    1150189  HIT %:    21.1727  MISS %:    78.8273   MPKI: 23.0038
STLB PREFETCH  REQUESTED:          0  ISSUED:          0  USEFUL:          0  USELESS:          0
STLB USEFUL LOAD PREFETCHES:          0 PREFETCH ISSUED TO LOWER LEVEL:          0  ACCURACY: -nan
STLB TIMELY PREFETCHES:          0 LATE PREFETCHES: 0 DROPPED PREFETCHES: 0
STLB PREFETCHES SAME FILL-ORIGIN LEVEL: 0 DIFFERENT FILL-ORIGIN LEVEL: 0
STLB AVERAGE MISS LATENCY: 32.2876 cycles
STLB RQ	ACCESS:    1459125	FORWARD:          0	MERGED:          0	TO_CACHE:    1459125

STLB Hit, L1D data hit: 0
STLB Hit, L2C data hit: 0
STLB Hit, LLC data hit: 0
STLB Hit, LLC data miss: 0
STLB STLB hints to L2: 0
L1D TOTAL     ACCESS:    4464735  HIT:    3980992  MISS:     483743  HIT %:    89.1652  MISS %:    10.8348   MPKI: 9.67486
L1D LOAD      ACCESS:    3093755  HIT:    2649243  MISS:     444512  HIT %:     85.632  MISS %:     14.368   MPKI: 8.89024
L1D RFO       ACCESS:    1370980  HIT:    1331749  MISS:      39231  HIT %:    97.1385  MISS %:    2.86153   MPKI: 0.78462
L1D PREFETCH  REQUESTED:          0  ISSUED:          0  USEFUL:          0  USELESS:          0
L1D USEFUL LOAD PREFETCHES:          0 PREFETCH ISSUED TO LOWER LEVEL:          0  ACCURACY: -nan
L1D TIMELY PREFETCHES:          0 LATE PREFETCHES: 0 DROPPED PREFETCHES: 0
L1D PREFETCHES SAME FILL-ORIGIN LEVEL: 0 DIFFERENT FILL-ORIGIN LEVEL: 0
L1D AVERAGE MISS LATENCY: 109.326 cycles
L1D RQ	ACCESS:    7326437	FORWARD:          0	MERGED:    3001222	TO_CACHE:    4316957
L1D WQ	ACCESS:    1513454	FORWARD:       8258	MERGED:      27428	TO_CACHE:    1486026

L1D UNIQUE REGIONS ACCESSED: 0
L1D REGIONS CONFLICTS: 0
L1D Cross Page Prefetch Requests: 0
L1D Same Page Prefetch Requests: 0
L1D ROI Sum of L1D PQ occupancy: 0
L1D PREFETCHES PUSHED FROM L2C: 0
L1I TOTAL     ACCESS:    9189548  HIT:    8753775  MISS:     435773  HIT %:    95.2579  MISS %:    4.74205   MPKI: 8.71546
L1I LOAD      ACCESS:    9189548  HIT:    8753775  MISS:     435773  HIT %:    95.2579  MISS %:    4.74205   MPKI: 8.71546
L1I PREFETCH  REQUESTED:          0  ISSUED:          0  USEFUL:          0  USELESS:          0
L1I USEFUL LOAD PREFETCHES:          0 PREFETCH ISSUED TO LOWER LEVEL:          0  ACCURACY: -nan
L1I TIMELY PREFETCHES:          0 LATE PREFETCHES: 0 DROPPED PREFETCHES: 0
L1I PREFETCHES SAME FILL-ORIGIN LEVEL: 0 DIFFERENT FILL-ORIGIN LEVEL: 0
L1I AVERAGE MISS LATENCY: 19.5058 cycles
L1I RQ	ACCESS:   15778120	FORWARD:          0	MERGED:    6454332	TO_CACHE:    9323788

BTB BRANCH_DIRECT_JUMP	ACCESS:          0  HIT:          0  MISS:          0
BTB BRANCH_INDIRECT	ACCESS:          0  HIT:          0  MISS:          0
BTB BRANCH_CONDITIONAL	ACCESS:          0  HIT:          0  MISS:          0
BTB BRANCH_DIRECT_CALL	ACCESS:          0  HIT:          0  MISS:          0
BTB BRANCH_INDIRECT_CALL	ACCESS:          0  HIT:          0  MISS:          0
BTB BRANCH_RETURN	ACCESS:          0  HIT:          0  MISS:          0
BTB BRANCH_OTHER ACCESS:          0  HIT:          0  MISS:          0

L2C TOTAL     ACCESS:    2308776  HIT:    1895897  MISS:     412879  HIT %:     82.117  MISS %:     17.883   MPKI: 8.25758
L2C LOAD      ACCESS:     880275  HIT:     496611  MISS:     383664  HIT %:    56.4154  MISS %:    43.5846   MPKI: 7.67328
L2C DATA LOAD MPKI: 7.27116
L2C INSTRUCTION LOAD MPKI: 0.40212
L2C RFO       ACCESS:      39225  HIT:      19873  MISS:      19352  HIT %:    50.6641  MISS %:    49.3359   MPKI: 0.38704
L2C PREFETCH  ACCESS:       3611  HIT:       3504  MISS:        107  HIT %:    97.0368  MISS %:    2.96317   MPKI: 0.00214
L2C DATA PREFETCH MPKI: 0.00214
L2C INSTRUCTION PREFETCH MPKI: 0
L2C WRITEBACK ACCESS:     101175  HIT:     100026  MISS:       1149  HIT %:    98.8643  MISS %:    1.13566   MPKI: 0.02298
L2C LOAD TRANSLATION ACCESS:    1284490  HIT:    1275883  MISS:       8607  HIT %:    99.3299  MISS %:   0.670071   MPKI: 0.17214
L2C PREFETCH  REQUESTED:       5800  ISSUED:       5800  USEFUL:         92  USELESS:         18
L2C USEFUL LOAD PREFETCHES:         92 PREFETCH ISSUED TO LOWER LEVEL:       2191  ACCURACY: 4.199
L2C TIMELY PREFETCHES:         92 LATE PREFETCHES: 0 DROPPED PREFETCHES: 0
L2C PREFETCHES SAME FILL-ORIGIN LEVEL: 107 DIFFERENT FILL-ORIGIN LEVEL: 2084
L2C AVERAGE MISS LATENCY: 118.92 cycles
L2C RQ	ACCESS:    2204006	FORWARD:          0	MERGED:          0	TO_CACHE:    2203996
L2C WQ	ACCESS:     101175	FORWARD:         10	MERGED:          0	TO_CACHE:     101175
L2C PQ	ACCESS:       5800	FORWARD:          0	MERGED:         49	TO_CACHE:       5751

L2C Instructions Evicting Data 18648
L2C Translations Evicting Data 7921
L2C Data Evicting Data 357212
L2C Instructions Evicting Instructions 1050
L2C Translations Evicting Instructions 431
L2C Data Evicting Instructions 18080
L2C Instructions Evicting Translations 408
L2C Translations Evicting Translations 255
L2C Data Evicting Translations 7725
L2C Dense regions hint from L2: 0
PSCL5 TOTAL     ACCESS:    1150189  HIT:    1150189  MISS:          0  HIT %:        100  MISS %:          0   MPKI: 0
PSCL5 LOAD TRANSLATION ACCESS:    1150189  HIT:    1150189  MISS:          0  HIT %:        100  MISS %:          0   MPKI: 0
PSCL5 PREFETCH  REQUESTED:          0  ISSUED:          0  USEFUL:          0  USELESS:          0
PSCL5 USEFUL LOAD PREFETCHES:          0 PREFETCH ISSUED TO LOWER LEVEL:          0  ACCURACY: -nan
PSCL5 TIMELY PREFETCHES:          0 LATE PREFETCHES: 0 DROPPED PREFETCHES: 0
PSCL5 PREFETCHES SAME FILL-ORIGIN LEVEL: 0 DIFFERENT FILL-ORIGIN LEVEL: 0

PSCL4 TOTAL     ACCESS:    1150189  HIT:    1150189  MISS:          0  HIT %:        100  MISS %:          0   MPKI: 0
PSCL4 LOAD TRANSLATION ACCESS:    1150189  HIT:    1150189  MISS:          0  HIT %:        100  MISS %:          0   MPKI: 0
PSCL4 PREFETCH  REQUESTED:          0  ISSUED:          0  USEFUL:          0  USELESS:          0
PSCL4 USEFUL LOAD PREFETCHES:          0 PREFETCH ISSUED TO LOWER LEVEL:          0  ACCURACY: -nan
PSCL4 TIMELY PREFETCHES:          0 LATE PREFETCHES: 0 DROPPED PREFETCHES: 0
PSCL4 PREFETCHES SAME FILL-ORIGIN LEVEL: 0 DIFFERENT FILL-ORIGIN LEVEL: 0

PSCL3 TOTAL     ACCESS:    1149751  HIT:    1149558  MISS:        193  HIT %:    99.9832  MISS %:  0.0167862   MPKI: 0.00386
PSCL3 LOAD TRANSLATION ACCESS:    1149751  HIT:    1149558  MISS:        193  HIT %:    99.9832  MISS %:  0.0167862   MPKI: 0.00386
PSCL3 PREFETCH  REQUESTED:          0  ISSUED:          0  USEFUL:          0  USELESS:          0
PSCL3 USEFUL LOAD PREFETCHES:          0 PREFETCH ISSUED TO LOWER LEVEL:          0  ACCURACY: -nan
PSCL3 TIMELY PREFETCHES:          0 LATE PREFETCHES: 0 DROPPED PREFETCHES: 0
PSCL3 PREFETCHES SAME FILL-ORIGIN LEVEL: 0 DIFFERENT FILL-ORIGIN LEVEL: 0

PSCL2 TOTAL     ACCESS:    1150189  HIT:    1015912  MISS:     134277  HIT %:    88.3257  MISS %:    11.6743   MPKI: 2.68554
PSCL2 LOAD TRANSLATION ACCESS:    1150189  HIT:    1015912  MISS:     134277  HIT %:    88.3257  MISS %:    11.6743   MPKI: 2.68554
PSCL2 PREFETCH  REQUESTED:          0  ISSUED:          0  USEFUL:          0  USELESS:          0
PSCL2 USEFUL LOAD PREFETCHES:          0 PREFETCH ISSUED TO LOWER LEVEL:          0  ACCURACY: -nan
PSCL2 TIMELY PREFETCHES:          0 LATE PREFETCHES: 0 DROPPED PREFETCHES: 0
PSCL2 PREFETCHES SAME FILL-ORIGIN LEVEL: 0 DIFFERENT FILL-ORIGIN LEVEL: 0

LLC TOTAL     ACCESS:     465512  HIT:      99781  MISS:     365731  HIT %:    21.4347  MISS %:    78.5653   MPKI: 7.31462
LLC LOAD      ACCESS:     383664  HIT:      42716  MISS:     340948  HIT %:    11.1337  MISS %:    88.8663   MPKI: 6.81896
LLC RFO       ACCESS:      19352  HIT:       3775  MISS:      15577  HIT %:     19.507  MISS %:     80.493   MPKI: 0.31154
LLC PREFETCH  ACCESS:       2186  HIT:       1237  MISS:        949  HIT %:    56.5874  MISS %:    43.4126   MPKI: 0.01898
LLC WRITEBACK ACCESS:      51703  HIT:      49154  MISS:       2549  HIT %:    95.0699  MISS %:    4.93008   MPKI: 0.05098
LLC LOAD TRANSLATION ACCESS:       8607  HIT:       2899  MISS:       5708  HIT %:    33.6819  MISS %:    66.3181   MPKI: 0.11416
LLC PREFETCH  REQUESTED:          0  ISSUED:          0  USEFUL:        333  USELESS:      20479
LLC USEFUL LOAD PREFETCHES:        333 PREFETCH ISSUED TO LOWER LEVEL:        952  ACCURACY: 34.979
LLC TIMELY PREFETCHES:        333 LATE PREFETCHES: 3 DROPPED PREFETCHES: 0
LLC PREFETCHES SAME FILL-ORIGIN LEVEL: 936 DIFFERENT FILL-ORIGIN LEVEL: 0
LLC AVERAGE MISS LATENCY: 100.517 cycles
LLC RQ	ACCESS:     411623	FORWARD:          0	MERGED:          0	TO_CACHE:     411623
LLC WQ	ACCESS:      51703	FORWARD:          0	MERGED:          0	TO_CACHE:      51703
LLC PQ	ACCESS:       2191	FORWARD:          0	MERGED:          0	TO_CACHE:       2191

LLC Dense regions hint to LLC: 0

RAW hits: 81435
Loads Generated: 7407872
Loads sent to L1D: 7326437
Stores Generated: 1513454
Stores sent to L1D: 1513454
Major fault: 0 Minor fault: 17128
Allocated PAGES: 17128
 All Calls: 839266
 Critical Calls: 349179
------------------
Depth Distribution
------------------
depth 0: 0
depth 1: 272190
depth 2: 226065
depth 3: 214294
depth 4: 207273
depth 5: 201504
depth 6: 197059
depth 7: 192388
depth 8: 186403
depth 9: 159693
depth 10: 147588
depth 11: 120953
depth 12: 86312
depth 13: 50680
depth 14: 10884
depth 15: 10630
depth 16: 16
depth 17: 0
depth 18: 0
depth 19: 0
depth 20: 0
depth 21: 0
depth 22: 0
depth 23: 0
depth 24: 0
depth 25: 0
depth 26: 0
depth 27: 0
depth 28: 0
depth 29: 0
Total: 2283932
-----------------------------
-----------------------------
	Captured at Filter
-----------------------------
depth 0: 0
depth 1: 2390
depth 2: 2256
depth 3: 2217
depth 4: 1926
depth 5: 1822
depth 6: 1464
depth 7: 1386
depth 8: 1240
depth 9: 1032
depth 10: 949
depth 11: 795
depth 12: 618
depth 13: 338
depth 14: 62
depth 15: 71
depth 16: 0
depth 17: 0
depth 18: 0
depth 19: 0
depth 20: 0
depth 21: 0
depth 22: 0
depth 23: 0
depth 24: 0
depth 25: 0
depth 26: 0
depth 27: 0
depth 28: 0
depth 29: 0
-----------------------------
-----------------------------
		Lost at Page
-----------------------------
depth 0: 0
depth 1: 4981
depth 2: 7090
depth 3: 10384
depth 4: 13656
depth 5: 17027
depth 6: 20373
depth 7: 23684
depth 8: 26716
depth 9: 26256
depth 10: 27441
depth 11: 25137
depth 12: 20065
depth 13: 13103
depth 14: 3079
depth 15: 3286
depth 16: 2
depth 17: 0
depth 18: 0
depth 19: 0
depth 20: 0
depth 21: 0
depth 22: 0
depth 23: 0
depth 24: 0
depth 25: 0
depth 26: 0
depth 27: 0
depth 28: 0
depth 29: 0
-----------------------------
-----------------------------
	Lost due to PQ Size
-----------------------------
265
-----------------------------
ST read accesses: 6348
ST write accesses: 791
PT read accesses: 82962
PT write accesses: 6883
FILTER read accesses: 350151
FILTER write accesses: 338003
GHR read accesses: 7125
GHR write accesses: 162
GHR counter read accesses: 66618
GHR counter write accesses: 8052
ST tag read accesses: 3119901
ST tag write accesses: 391306

DRAM Statistics
 CHANNEL 0
 RQ ROW_BUFFER_HIT:     262162  ROW_BUFFER_MISS:     101020
 DBUS_CONGESTED:        170
 WQ ROW_BUFFER_HIT:      22581  ROW_BUFFER_MISS:      10565  FULL:          0

 AVG_CONGESTED_CYCLE: 4
 All warmup complete: 2
Channel 0 Bank busy for read cycles: 0
Channel 0 Bank busy for write cycles: 0
Channel 0
Rank 0
0banks busy for read cycles: 57313693
0banks busy for write cycles: 21438
1banks busy for read cycles: 19437980
1banks busy for write cycles: 4413083
2banks busy for read cycles: 1931038
2banks busy for write cycles: 814433
3banks busy for read cycles: 792275
3banks busy for write cycles: 229823
4banks busy for read cycles: 322090
4banks busy for write cycles: 76471
5banks busy for read cycles: 139195
5banks busy for write cycles: 27082
6banks busy for read cycles: 57454
6banks busy for write cycles: 15377
7banks busy for read cycles: 23070
7banks busy for write cycles: 7233
8banks busy for read cycles: 11838
8banks busy for write cycles: 12412

CPU 0 Branch Prediction Accuracy: 99.5713% MPKI: 0.6457 Average ROB Occupancy at Mispredict: 44.8261
Branch types
NOT_BRANCH: 0 0%
BRANCH_DIRECT_JUMP: 0 0%
BRANCH_INDIRECT: 0 0%
BRANCH_CONDITIONAL: 0 0%
BRANCH_DIRECT_CALL: 0 0%
BRANCH_INDIRECT_CALL: 0 0%
BRANCH_RETURN: 0 0%
BRANCH_OTHER: 0 0%

DRAM PAGES: 1048576
Allocated PAGES: 17128
