
*** ChampSim Multicore Out-of-Order Simulator ***

Warmup Instructions: 50000000
Simulation Instructions: 50000000
Number of CPUs: 1
LLC sets: 2048
LLC ways: 16
Off-chip DRAM Size: 4096 MB Channels: 1 Width: 64-bit Data Rate: 6400 MT/s
CPU 0 runs ../cloudsuite_traces//streaming_phase5_core2.trace.gz
.gz
NUM_OF_IPS_IN_CRITICAL_IP_TRAINING: 64
NUM_OF_CRITICAL_IP_TRAINING_TABLE_WAYS: 2
NUM_OF_CRITICAL_IP_TRAINING_TABLE_SETS: 32
WOBBLY_CRITICAL_IP_CACHE_SETS: 32
WOBBLY_CRITICAL_IP_CACHE_WAYS: 4
BTB has LRU replacement policy
ITLB has LRU replacement policy
DTLB has LRU replacement policy
STLB has LRU replacement policy
L1I has LRU replacement policy
L1D has LRU replacement policy
Bingo PHT WAYS: 16 and PHT_SIZE: 16384
Initialize SRRIP state for L2C
Initialize DRRIP state for LLC
UNIQUE_ASID[0] = €
UNIQUE_ASID[1] = 
Heartbeat CPU 0 instructions: 10000001 cycles: 3334723 heartbeat IPC: 2.99875 cumulative IPC: 2.99875 (Simulation time: 0 hr 2 min 38 sec) 
Heartbeat CPU 0 instructions: 20000003 cycles: 6688246 heartbeat IPC: 2.98194 cumulative IPC: 2.99032 (Simulation time: 0 hr 4 min 58 sec) 
Heartbeat CPU 0 instructions: 30000003 cycles: 10054494 heartbeat IPC: 2.97067 cumulative IPC: 2.98374 (Simulation time: 0 hr 7 min 39 sec) 
Heartbeat CPU 0 instructions: 40000001 cycles: 13504459 heartbeat IPC: 2.89858 cumulative IPC: 2.96198 (Simulation time: 0 hr 10 min 55 sec) 
Heartbeat CPU 0 instructions: 50000003 cycles: 16937393 heartbeat IPC: 2.91296 cumulative IPC: 2.95205 (Simulation time: 0 hr 14 min 8 sec) 

Warmup complete CPU 0 instructions: 50000003 cycles: 16937393 (Simulation time: 0 hr 14 min 8 sec) 

% increase in all ip prefetch 394.225
% increase in all ip prefetch 0.736881
Heartbeat CPU 0 instructions: 60000003 cycles: 35207054 heartbeat IPC: 0.547356 cumulative IPC: 0.547356 (Simulation time: 0 hr 18 min 48 sec) 
Heartbeat CPU 0 instructions: 70000001 cycles: 53188847 heartbeat IPC: 0.556118 cumulative IPC: 0.551702 (Simulation time: 0 hr 22 min 56 sec) 
Heartbeat CPU 0 instructions: 80000002 cycles: 71255470 heartbeat IPC: 0.553507 cumulative IPC: 0.552302 (Simulation time: 0 hr 27 min 7 sec) 
Heartbeat CPU 0 instructions: 90000002 cycles: 90817333 heartbeat IPC: 0.511199 cumulative IPC: 0.541419 (Simulation time: 0 hr 31 min 18 sec) 
Heartbeat CPU 0 instructions: 100000000 cycles: 107571840 heartbeat IPC: 0.596854 cumulative IPC: 0.551667 (Simulation time: 0 hr 34 min 8 sec) 
Finished CPU 0 instructions: 50000001 cycles: 90634448 cumulative IPC: 0.551667 (Simulation time: 0 hr 34 min 8 sec) 

ChampSim completed all CPUs

Region of Interest Statistics

CPU 0 cumulative IPC: 0.551667 instructions: 50000001 cycles: 90634448

CPU 0 Average Load ROB stall cycles: 8.53742e+06
CPU 0 Fraction of times ROB stalled by Loads: 12.0537
CPU 0 Percentage of Load stall cycles in Total stall cycles: 1.27186e+08
 Total stall cycles: 50039339
 Total load stall cycles: 63642905383734
CPU 0 NUM of IPS identified critical: 0
CPU 0 Num of Load IPs stalling ROB: 3311
Threshold modification factor: -1
Max PIST entries: 64
Min PIST entries: 0
Avg PIST entries: 31.21
Critical IP stalls, total frequency: 0
rob stalling non-critical load ip: 236068 freq: 43
rob stalling non-critical load ip: 236144 freq: 173
rob stalling non-critical load ip: 236148 freq: 32
rob stalling non-critical load ip: 237100 freq: 1
rob stalling non-critical load ip: 241552 freq: 318
rob stalling non-critical load ip: 241592 freq: 12
rob stalling non-critical load ip: 241736 freq: 179
rob stalling non-critical load ip: 241788 freq: 70
rob stalling non-critical load ip: 241796 freq: 1380
rob stalling non-critical load ip: 241972 freq: 98
rob stalling non-critical load ip: 241992 freq: 15
rob stalling non-critical load ip: 241996 freq: 32
rob stalling non-critical load ip: 242000 freq: 59
rob stalling non-critical load ip: 242020 freq: 34
rob stalling non-critical load ip: 242024 freq: 12
rob stalling non-critical load ip: 242044 freq: 5
rob stalling non-critical load ip: 242148 freq: 31
rob stalling non-critical load ip: 242156 freq: 103
rob stalling non-critical load ip: 242176 freq: 123
rob stalling non-critical load ip: 242180 freq: 1095
rob stalling non-critical load ip: 242184 freq: 170
rob stalling non-critical load ip: 242208 freq: 42
rob stalling non-critical load ip: 242224 freq: 35
rob stalling non-critical load ip: 242232 freq: 111
rob stalling non-critical load ip: 242236 freq: 1
rob stalling non-critical load ip: 242252 freq: 8
rob stalling non-critical load ip: 243344 freq: 14
rob stalling non-critical load ip: 243468 freq: 22
rob stalling non-critical load ip: 243608 freq: 13
rob stalling non-critical load ip: 243684 freq: 7
rob stalling non-critical load ip: 243860 freq: 8
rob stalling non-critical load ip: 243928 freq: 1
rob stalling non-critical load ip: 243984 freq: 4
rob stalling non-critical load ip: 244200 freq: 8
rob stalling non-critical load ip: 244944 freq: 4
rob stalling non-critical load ip: 245012 freq: 3
rob stalling non-critical load ip: 245016 freq: 8
rob stalling non-critical load ip: 245180 freq: 14
rob stalling non-critical load ip: 245668 freq: 396
rob stalling non-critical load ip: 245676 freq: 61
rob stalling non-critical load ip: 245716 freq: 7
rob stalling non-critical load ip: 245732 freq: 16
rob stalling non-critical load ip: 245792 freq: 22
rob stalling non-critical load ip: 245800 freq: 94
rob stalling non-critical load ip: 245804 freq: 1
rob stalling non-critical load ip: 245848 freq: 255
rob stalling non-critical load ip: 245860 freq: 14
rob stalling non-critical load ip: 245864 freq: 22
rob stalling non-critical load ip: 245876 freq: 15
rob stalling non-critical load ip: 245880 freq: 27
rob stalling non-critical load ip: 245888 freq: 24
rob stalling non-critical load ip: 245892 freq: 27
rob stalling non-critical load ip: 246008 freq: 38
rob stalling non-critical load ip: 246168 freq: 178
rob stalling non-critical load ip: 246204 freq: 277
rob stalling non-critical load ip: 246216 freq: 229
rob stalling non-critical load ip: 246244 freq: 1122
rob stalling non-critical load ip: 246256 freq: 12
rob stalling non-critical load ip: 246344 freq: 107
rob stalling non-critical load ip: 246356 freq: 3
rob stalling non-critical load ip: 246924 freq: 3
rob stalling non-critical load ip: 246964 freq: 3
rob stalling non-critical load ip: 250184 freq: 16
rob stalling non-critical load ip: 250260 freq: 7
rob stalling non-critical load ip: 258064 freq: 1
rob stalling non-critical load ip: 284416 freq: 2
rob stalling non-critical load ip: 284444 freq: 5
rob stalling non-critical load ip: 286548 freq: 7
rob stalling non-critical load ip: 287024 freq: 19
rob stalling non-critical load ip: 287060 freq: 30
rob stalling non-critical load ip: 287088 freq: 38
rob stalling non-critical load ip: 287108 freq: 22
rob stalling non-critical load ip: 287112 freq: 6
rob stalling non-critical load ip: 287220 freq: 31
rob stalling non-critical load ip: 287244 freq: 24
rob stalling non-critical load ip: 287248 freq: 302
rob stalling non-critical load ip: 287268 freq: 7
rob stalling non-critical load ip: 300124 freq: 7
rob stalling non-critical load ip: 300172 freq: 2
rob stalling non-critical load ip: 300836 freq: 110
rob stalling non-critical load ip: 300840 freq: 155
rob stalling non-critical load ip: 300848 freq: 158
rob stalling non-critical load ip: 300912 freq: 147
rob stalling non-critical load ip: 300936 freq: 8
rob stalling non-critical load ip: 300964 freq: 403
rob stalling non-critical load ip: 301524 freq: 7
rob stalling non-critical load ip: 301712 freq: 90
rob stalling non-critical load ip: 301716 freq: 398
rob stalling non-critical load ip: 301720 freq: 19
rob stalling non-critical load ip: 303592 freq: 4
rob stalling non-critical load ip: 316060 freq: 3
rob stalling non-critical load ip: 316092 freq: 3
rob stalling non-critical load ip: 316668 freq: 1
rob stalling non-critical load ip: 316848 freq: 1
rob stalling non-critical load ip: 318132 freq: 5
rob stalling non-critical load ip: 318636 freq: 4
rob stalling non-critical load ip: 318948 freq: 2
rob stalling non-critical load ip: 319000 freq: 1
rob stalling non-critical load ip: 323492 freq: 2
rob stalling non-critical load ip: 323496 freq: 2
rob stalling non-critical load ip: 329660 freq: 28
rob stalling non-critical load ip: 329676 freq: 11
rob stalling non-critical load ip: 337744 freq: 1
rob stalling non-critical load ip: 341152 freq: 3
rob stalling non-critical load ip: 341868 freq: 486
rob stalling non-critical load ip: 341884 freq: 6
rob stalling non-critical load ip: 341916 freq: 9
rob stalling non-critical load ip: 341940 freq: 8
rob stalling non-critical load ip: 341944 freq: 310
rob stalling non-critical load ip: 342004 freq: 214
rob stalling non-critical load ip: 342068 freq: 8
rob stalling non-critical load ip: 352920 freq: 6
rob stalling non-critical load ip: 352968 freq: 1
rob stalling non-critical load ip: 353000 freq: 40
rob stalling non-critical load ip: 353036 freq: 71
rob stalling non-critical load ip: 353040 freq: 3
rob stalling non-critical load ip: 353052 freq: 10
rob stalling non-critical load ip: 353076 freq: 9
rob stalling non-critical load ip: 353216 freq: 11
rob stalling non-critical load ip: 353220 freq: 560
rob stalling non-critical load ip: 353236 freq: 26
rob stalling non-critical load ip: 353260 freq: 6
rob stalling non-critical load ip: 353312 freq: 97
rob stalling non-critical load ip: 353316 freq: 4
rob stalling non-critical load ip: 353332 freq: 8
rob stalling non-critical load ip: 353356 freq: 18
rob stalling non-critical load ip: 353392 freq: 750
rob stalling non-critical load ip: 353492 freq: 48
rob stalling non-critical load ip: 353524 freq: 31
rob stalling non-critical load ip: 353540 freq: 47
rob stalling non-critical load ip: 353544 freq: 315
rob stalling non-critical load ip: 353548 freq: 51
rob stalling non-critical load ip: 353564 freq: 82
rob stalling non-critical load ip: 353604 freq: 22
rob stalling non-critical load ip: 353624 freq: 2
rob stalling non-critical load ip: 353636 freq: 27
rob stalling non-critical load ip: 353640 freq: 64
rob stalling non-critical load ip: 353652 freq: 9
rob stalling non-critical load ip: 353696 freq: 13
rob stalling non-critical load ip: 353720 freq: 2
rob stalling non-critical load ip: 353736 freq: 5
rob stalling non-critical load ip: 353744 freq: 4
rob stalling non-critical load ip: 353784 freq: 25
rob stalling non-critical load ip: 353788 freq: 88
rob stalling non-critical load ip: 353828 freq: 530
rob stalling non-critical load ip: 353832 freq: 12
rob stalling non-critical load ip: 353880 freq: 14
rob stalling non-critical load ip: 353904 freq: 4
rob stalling non-critical load ip: 353912 freq: 8
rob stalling non-critical load ip: 353948 freq: 21
rob stalling non-critical load ip: 353984 freq: 3
rob stalling non-critical load ip: 354164 freq: 114
rob stalling non-critical load ip: 354176 freq: 55
rob stalling non-critical load ip: 354200 freq: 2
rob stalling non-critical load ip: 354204 freq: 3
rob stalling non-critical load ip: 354712 freq: 9
rob stalling non-critical load ip: 354716 freq: 103
rob stalling non-critical load ip: 354728 freq: 6
rob stalling non-critical load ip: 354740 freq: 199
rob stalling non-critical load ip: 354744 freq: 16
rob stalling non-critical load ip: 354752 freq: 3
rob stalling non-critical load ip: 354764 freq: 88
rob stalling non-critical load ip: 354776 freq: 227
rob stalling non-critical load ip: 356340 freq: 26
rob stalling non-critical load ip: 356360 freq: 20
rob stalling non-critical load ip: 356488 freq: 12
rob stalling non-critical load ip: 356496 freq: 1
rob stalling non-critical load ip: 366168 freq: 2
rob stalling non-critical load ip: 366412 freq: 4
rob stalling non-critical load ip: 366500 freq: 6
rob stalling non-critical load ip: 366536 freq: 7
rob stalling non-critical load ip: 366608 freq: 1
rob stalling non-critical load ip: 366896 freq: 1
rob stalling non-critical load ip: 367420 freq: 3
rob stalling non-critical load ip: 369588 freq: 1
rob stalling non-critical load ip: 372680 freq: 1
rob stalling non-critical load ip: 372804 freq: 1
rob stalling non-critical load ip: 374788 freq: 25
rob stalling non-critical load ip: 374864 freq: 2
rob stalling non-critical load ip: 375016 freq: 6
rob stalling non-critical load ip: 375140 freq: 2
rob stalling non-critical load ip: 375752 freq: 4
rob stalling non-critical load ip: 376952 freq: 1
rob stalling non-critical load ip: 378568 freq: 6
rob stalling non-critical load ip: 385000 freq: 1
rob stalling non-critical load ip: 385072 freq: 2
rob stalling non-critical load ip: 385096 freq: 2
rob stalling non-critical load ip: 385128 freq: 1
rob stalling non-critical load ip: 385232 freq: 2
rob stalling non-critical load ip: 385248 freq: 1
rob stalling non-critical load ip: 385516 freq: 2
rob stalling non-critical load ip: 385948 freq: 1
rob stalling non-critical load ip: 386244 freq: 1
rob stalling non-critical load ip: 386248 freq: 1
rob stalling non-critical load ip: 386280 freq: 1
rob stalling non-critical load ip: 388012 freq: 1
rob stalling non-critical load ip: 390504 freq: 2
rob stalling non-critical load ip: 390588 freq: 10
rob stalling non-critical load ip: 391028 freq: 4
rob stalling non-critical load ip: 391224 freq: 1
rob stalling non-critical load ip: 391256 freq: 3
rob stalling non-critical load ip: 391320 freq: 4
rob stalling non-critical load ip: 391348 freq: 3
rob stalling non-critical load ip: 391692 freq: 4
rob stalling non-critical load ip: 391816 freq: 1
rob stalling non-critical load ip: 392096 freq: 5
rob stalling non-critical load ip: 392132 freq: 5
rob stalling non-critical load ip: 392224 freq: 2
rob stalling non-critical load ip: 393836 freq: 7
rob stalling non-critical load ip: 393920 freq: 7
rob stalling non-critical load ip: 393932 freq: 2
rob stalling non-critical load ip: 394156 freq: 2
rob stalling non-critical load ip: 394196 freq: 4
rob stalling non-critical load ip: 394328 freq: 7
rob stalling non-critical load ip: 394372 freq: 5
rob stalling non-critical load ip: 394384 freq: 726
rob stalling non-critical load ip: 394460 freq: 6
rob stalling non-critical load ip: 395592 freq: 4
rob stalling non-critical load ip: 396912 freq: 7
rob stalling non-critical load ip: 396936 freq: 6
rob stalling non-critical load ip: 397256 freq: 1
rob stalling non-critical load ip: 397284 freq: 7
rob stalling non-critical load ip: 398912 freq: 6
rob stalling non-critical load ip: 398992 freq: 6
rob stalling non-critical load ip: 399100 freq: 4
rob stalling non-critical load ip: 403384 freq: 4
rob stalling non-critical load ip: 403404 freq: 1
rob stalling non-critical load ip: 403588 freq: 3
rob stalling non-critical load ip: 403612 freq: 2
rob stalling non-critical load ip: 403760 freq: 5
rob stalling non-critical load ip: 404800 freq: 3
rob stalling non-critical load ip: 404836 freq: 3
rob stalling non-critical load ip: 406728 freq: 3
rob stalling non-critical load ip: 406856 freq: 2
rob stalling non-critical load ip: 409752 freq: 1
rob stalling non-critical load ip: 409788 freq: 1
rob stalling non-critical load ip: 409852 freq: 6
rob stalling non-critical load ip: 410232 freq: 7
rob stalling non-critical load ip: 411360 freq: 2
rob stalling non-critical load ip: 411484 freq: 5
rob stalling non-critical load ip: 411540 freq: 1
rob stalling non-critical load ip: 411668 freq: 8
rob stalling non-critical load ip: 411848 freq: 8
rob stalling non-critical load ip: 412172 freq: 1
rob stalling non-critical load ip: 412800 freq: 10
rob stalling non-critical load ip: 412932 freq: 7
rob stalling non-critical load ip: 413316 freq: 2
rob stalling non-critical load ip: 413748 freq: 4
rob stalling non-critical load ip: 413836 freq: 1
rob stalling non-critical load ip: 413860 freq: 2
rob stalling non-critical load ip: 414136 freq: 2
rob stalling non-critical load ip: 414216 freq: 5
rob stalling non-critical load ip: 414536 freq: 1
rob stalling non-critical load ip: 414896 freq: 7
rob stalling non-critical load ip: 415972 freq: 1
rob stalling non-critical load ip: 417376 freq: 1
rob stalling non-critical load ip: 422988 freq: 2
rob stalling non-critical load ip: 516668 freq: 46
rob stalling non-critical load ip: 516676 freq: 23
rob stalling non-critical load ip: 516968 freq: 10
rob stalling non-critical load ip: 516976 freq: 583
rob stalling non-critical load ip: 517352 freq: 32
rob stalling non-critical load ip: 517396 freq: 11
rob stalling non-critical load ip: 517404 freq: 22
rob stalling non-critical load ip: 518560 freq: 2
rob stalling non-critical load ip: 520084 freq: 7
rob stalling non-critical load ip: 520376 freq: 4
rob stalling non-critical load ip: 526992 freq: 1
rob stalling non-critical load ip: 527404 freq: 8
rob stalling non-critical load ip: 529284 freq: 11
rob stalling non-critical load ip: 553200 freq: 7
rob stalling non-critical load ip: 553220 freq: 5
rob stalling non-critical load ip: 553316 freq: 2
rob stalling non-critical load ip: 553860 freq: 2
rob stalling non-critical load ip: 553940 freq: 8
rob stalling non-critical load ip: 556680 freq: 5
rob stalling non-critical load ip: 557576 freq: 5
rob stalling non-critical load ip: 557704 freq: 3
rob stalling non-critical load ip: 557736 freq: 1
rob stalling non-critical load ip: 559756 freq: 5
rob stalling non-critical load ip: 569812 freq: 1
rob stalling non-critical load ip: 576252 freq: 1
rob stalling non-critical load ip: 576972 freq: 1
rob stalling non-critical load ip: 577340 freq: 1
rob stalling non-critical load ip: 578108 freq: 3
rob stalling non-critical load ip: 578212 freq: 5
rob stalling non-critical load ip: 578260 freq: 2
rob stalling non-critical load ip: 578844 freq: 1
rob stalling non-critical load ip: 579160 freq: 1
rob stalling non-critical load ip: 579164 freq: 1
rob stalling non-critical load ip: 579396 freq: 2
rob stalling non-critical load ip: 579404 freq: 1
rob stalling non-critical load ip: 579524 freq: 3
rob stalling non-critical load ip: 579572 freq: 5
rob stalling non-critical load ip: 579680 freq: 2
rob stalling non-critical load ip: 579896 freq: 3
rob stalling non-critical load ip: 579944 freq: 1
rob stalling non-critical load ip: 580300 freq: 1
rob stalling non-critical load ip: 580356 freq: 2
rob stalling non-critical load ip: 580424 freq: 4
rob stalling non-critical load ip: 580984 freq: 1
rob stalling non-critical load ip: 581796 freq: 2
rob stalling non-critical load ip: 589036 freq: 4
rob stalling non-critical load ip: 589084 freq: 2
rob stalling non-critical load ip: 589120 freq: 12
rob stalling non-critical load ip: 589136 freq: 7
rob stalling non-critical load ip: 589144 freq: 76
rob stalling non-critical load ip: 589156 freq: 12
rob stalling non-critical load ip: 589180 freq: 10
rob stalling non-critical load ip: 589212 freq: 34
rob stalling non-critical load ip: 589228 freq: 1
rob stalling non-critical load ip: 589236 freq: 240
rob stalling non-critical load ip: 589240 freq: 53
rob stalling non-critical load ip: 589252 freq: 111
rob stalling non-critical load ip: 589256 freq: 19
rob stalling non-critical load ip: 589284 freq: 78
rob stalling non-critical load ip: 589288 freq: 20
rob stalling non-critical load ip: 589364 freq: 2
rob stalling non-critical load ip: 589392 freq: 33
rob stalling non-critical load ip: 589908 freq: 8
rob stalling non-critical load ip: 589912 freq: 25
rob stalling non-critical load ip: 589916 freq: 7
rob stalling non-critical load ip: 589932 freq: 10
rob stalling non-critical load ip: 589948 freq: 32
rob stalling non-critical load ip: 589960 freq: 22
rob stalling non-critical load ip: 590000 freq: 33
rob stalling non-critical load ip: 590012 freq: 55
rob stalling non-critical load ip: 590036 freq: 21
rob stalling non-critical load ip: 590040 freq: 104
rob stalling non-critical load ip: 590064 freq: 24
rob stalling non-critical load ip: 590128 freq: 6
rob stalling non-critical load ip: 590148 freq: 8
rob stalling non-critical load ip: 590216 freq: 2
rob stalling non-critical load ip: 590224 freq: 1
rob stalling non-critical load ip: 590352 freq: 5
rob stalling non-critical load ip: 591084 freq: 3
rob stalling non-critical load ip: 603780 freq: 1
rob stalling non-critical load ip: 607504 freq: 2
rob stalling non-critical load ip: 607628 freq: 3
rob stalling non-critical load ip: 616372 freq: 2
rob stalling non-critical load ip: 617768 freq: 8
rob stalling non-critical load ip: 627168 freq: 6
rob stalling non-critical load ip: 627316 freq: 4
rob stalling non-critical load ip: 627892 freq: 3
rob stalling non-critical load ip: 628980 freq: 3
rob stalling non-critical load ip: 722812 freq: 13
rob stalling non-critical load ip: 722816 freq: 1
rob stalling non-critical load ip: 722832 freq: 8
rob stalling non-critical load ip: 722892 freq: 8
rob stalling non-critical load ip: 722896 freq: 61
rob stalling non-critical load ip: 722920 freq: 8
rob stalling non-critical load ip: 768692 freq: 2
rob stalling non-critical load ip: 769560 freq: 7
rob stalling non-critical load ip: 784776 freq: 6
rob stalling non-critical load ip: 785028 freq: 5
rob stalling non-critical load ip: 785076 freq: 5
rob stalling non-critical load ip: 785088 freq: 8
rob stalling non-critical load ip: 785100 freq: 1
rob stalling non-critical load ip: 785164 freq: 7
rob stalling non-critical load ip: 785312 freq: 8
rob stalling non-critical load ip: 787508 freq: 1
rob stalling non-critical load ip: 787516 freq: 2
rob stalling non-critical load ip: 801864 freq: 2
rob stalling non-critical load ip: 822996 freq: 7
rob stalling non-critical load ip: 823016 freq: 1
rob stalling non-critical load ip: 837980 freq: 1
rob stalling non-critical load ip: 838100 freq: 1
rob stalling non-critical load ip: 842608 freq: 39
rob stalling non-critical load ip: 842708 freq: 10
rob stalling non-critical load ip: 842748 freq: 5
rob stalling non-critical load ip: 842824 freq: 15
rob stalling non-critical load ip: 842880 freq: 4
rob stalling non-critical load ip: 842932 freq: 1
rob stalling non-critical load ip: 843036 freq: 16
rob stalling non-critical load ip: 843084 freq: 8
rob stalling non-critical load ip: 843140 freq: 14
rob stalling non-critical load ip: 843188 freq: 14
rob stalling non-critical load ip: 843240 freq: 14
rob stalling non-critical load ip: 843292 freq: 16
rob stalling non-critical load ip: 843344 freq: 15
rob stalling non-critical load ip: 843400 freq: 16
rob stalling non-critical load ip: 843448 freq: 15
rob stalling non-critical load ip: 843504 freq: 8
rob stalling non-critical load ip: 843612 freq: 15
rob stalling non-critical load ip: 843664 freq: 16
rob stalling non-critical load ip: 843716 freq: 16
rob stalling non-critical load ip: 843772 freq: 9
rob stalling non-critical load ip: 844020 freq: 16
rob stalling non-critical load ip: 844168 freq: 15
rob stalling non-critical load ip: 844268 freq: 15
rob stalling non-critical load ip: 844320 freq: 14
rob stalling non-critical load ip: 844548 freq: 16
rob stalling non-critical load ip: 844640 freq: 16
rob stalling non-critical load ip: 844688 freq: 11
rob stalling non-critical load ip: 844872 freq: 16
rob stalling non-critical load ip: 844920 freq: 16
rob stalling non-critical load ip: 845148 freq: 15
rob stalling non-critical load ip: 845196 freq: 14
rob stalling non-critical load ip: 845512 freq: 16
rob stalling non-critical load ip: 845648 freq: 16
rob stalling non-critical load ip: 845696 freq: 1
rob stalling non-critical load ip: 845744 freq: 15
rob stalling non-critical load ip: 845840 freq: 15
rob stalling non-critical load ip: 845996 freq: 37
rob stalling non-critical load ip: 846088 freq: 38
rob stalling non-critical load ip: 846400 freq: 1
rob stalling non-critical load ip: 846404 freq: 6
rob stalling non-critical load ip: 846484 freq: 1
rob stalling non-critical load ip: 849864 freq: 4
rob stalling non-critical load ip: 852948 freq: 13
rob stalling non-critical load ip: 852968 freq: 3
rob stalling non-critical load ip: 852988 freq: 5
rob stalling non-critical load ip: 855308 freq: 32
rob stalling non-critical load ip: 855704 freq: 3
rob stalling non-critical load ip: 855724 freq: 5
rob stalling non-critical load ip: 856100 freq: 78
rob stalling non-critical load ip: 856148 freq: 13
rob stalling non-critical load ip: 856176 freq: 11
rob stalling non-critical load ip: 856428 freq: 4
rob stalling non-critical load ip: 856660 freq: 16
rob stalling non-critical load ip: 857344 freq: 1146
rob stalling non-critical load ip: 857364 freq: 1
rob stalling non-critical load ip: 857508 freq: 1595
rob stalling non-critical load ip: 857592 freq: 63
rob stalling non-critical load ip: 857616 freq: 275
rob stalling non-critical load ip: 857628 freq: 14
rob stalling non-critical load ip: 857640 freq: 7
rob stalling non-critical load ip: 857680 freq: 101
rob stalling non-critical load ip: 857820 freq: 47
rob stalling non-critical load ip: 857892 freq: 30
rob stalling non-critical load ip: 857928 freq: 23
rob stalling non-critical load ip: 857976 freq: 6
rob stalling non-critical load ip: 858172 freq: 5
rob stalling non-critical load ip: 858176 freq: 7
rob stalling non-critical load ip: 858192 freq: 4
rob stalling non-critical load ip: 858372 freq: 8
rob stalling non-critical load ip: 858380 freq: 478
rob stalling non-critical load ip: 858396 freq: 18
rob stalling non-critical load ip: 858416 freq: 9
rob stalling non-critical load ip: 858432 freq: 25
rob stalling non-critical load ip: 858436 freq: 4
rob stalling non-critical load ip: 858464 freq: 29
rob stalling non-critical load ip: 858468 freq: 62
rob stalling non-critical load ip: 858552 freq: 23
rob stalling non-critical load ip: 858620 freq: 1908
rob stalling non-critical load ip: 858624 freq: 8
rob stalling non-critical load ip: 858648 freq: 570
rob stalling non-critical load ip: 858696 freq: 1893
rob stalling non-critical load ip: 858868 freq: 7
rob stalling non-critical load ip: 858880 freq: 46
rob stalling non-critical load ip: 858896 freq: 18
rob stalling non-critical load ip: 858900 freq: 86
rob stalling non-critical load ip: 858904 freq: 37
rob stalling non-critical load ip: 858912 freq: 17
rob stalling non-critical load ip: 858916 freq: 77
rob stalling non-critical load ip: 858940 freq: 3
rob stalling non-critical load ip: 858964 freq: 21
rob stalling non-critical load ip: 858984 freq: 43
rob stalling non-critical load ip: 859076 freq: 764
rob stalling non-critical load ip: 859088 freq: 191
rob stalling non-critical load ip: 859092 freq: 4
rob stalling non-critical load ip: 859100 freq: 13
rob stalling non-critical load ip: 859316 freq: 50
rob stalling non-critical load ip: 859328 freq: 6
rob stalling non-critical load ip: 859632 freq: 22
rob stalling non-critical load ip: 859940 freq: 168
rob stalling non-critical load ip: 859960 freq: 17
rob stalling non-critical load ip: 859976 freq: 15
rob stalling non-critical load ip: 860000 freq: 1263
rob stalling non-critical load ip: 860132 freq: 1041
rob stalling non-critical load ip: 860144 freq: 9
rob stalling non-critical load ip: 860224 freq: 19
rob stalling non-critical load ip: 860636 freq: 6
rob stalling non-critical load ip: 860644 freq: 15
rob stalling non-critical load ip: 860708 freq: 15
rob stalling non-critical load ip: 861084 freq: 1
rob stalling non-critical load ip: 862156 freq: 1910
rob stalling non-critical load ip: 862192 freq: 380
rob stalling non-critical load ip: 862232 freq: 945
rob stalling non-critical load ip: 862360 freq: 630
rob stalling non-critical load ip: 862384 freq: 219
rob stalling non-critical load ip: 862492 freq: 72
rob stalling non-critical load ip: 862504 freq: 10
rob stalling non-critical load ip: 862880 freq: 125
rob stalling non-critical load ip: 862896 freq: 3
rob stalling non-critical load ip: 862904 freq: 8
rob stalling non-critical load ip: 862916 freq: 6
rob stalling non-critical load ip: 863072 freq: 20
rob stalling non-critical load ip: 863124 freq: 56
rob stalling non-critical load ip: 863136 freq: 34
rob stalling non-critical load ip: 863228 freq: 75
rob stalling non-critical load ip: 863260 freq: 29
rob stalling non-critical load ip: 863292 freq: 28
rob stalling non-critical load ip: 863852 freq: 4
rob stalling non-critical load ip: 864452 freq: 3
rob stalling non-critical load ip: 864456 freq: 4
rob stalling non-critical load ip: 864464 freq: 1
rob stalling non-critical load ip: 864484 freq: 21
rob stalling non-critical load ip: 864520 freq: 14
rob stalling non-critical load ip: 864660 freq: 7
rob stalling non-critical load ip: 864892 freq: 1
rob stalling non-critical load ip: 867796 freq: 1
rob stalling non-critical load ip: 869964 freq: 1
rob stalling non-critical load ip: 870468 freq: 6
rob stalling non-critical load ip: 870500 freq: 3
rob stalling non-critical load ip: 872452 freq: 6
rob stalling non-critical load ip: 872456 freq: 6
rob stalling non-critical load ip: 872840 freq: 11
rob stalling non-critical load ip: 872884 freq: 4
rob stalling non-critical load ip: 873504 freq: 153
rob stalling non-critical load ip: 873520 freq: 57
rob stalling non-critical load ip: 873552 freq: 164
rob stalling non-critical load ip: 873556 freq: 883
rob stalling non-critical load ip: 873620 freq: 19
rob stalling non-critical load ip: 873708 freq: 32
rob stalling non-critical load ip: 873724 freq: 10
rob stalling non-critical load ip: 873756 freq: 57
rob stalling non-critical load ip: 873776 freq: 3
rob stalling non-critical load ip: 873908 freq: 2
rob stalling non-critical load ip: 873924 freq: 18
rob stalling non-critical load ip: 873984 freq: 7
rob stalling non-critical load ip: 874000 freq: 13
rob stalling non-critical load ip: 874032 freq: 12
rob stalling non-critical load ip: 874060 freq: 4
rob stalling non-critical load ip: 874172 freq: 86
rob stalling non-critical load ip: 874188 freq: 18
rob stalling non-critical load ip: 874236 freq: 141
rob stalling non-critical load ip: 874256 freq: 4
rob stalling non-critical load ip: 874288 freq: 50
rob stalling non-critical load ip: 874304 freq: 110
rob stalling non-critical load ip: 874308 freq: 746
rob stalling non-critical load ip: 874336 freq: 17
rob stalling non-critical load ip: 874432 freq: 8
rob stalling non-critical load ip: 874448 freq: 10
rob stalling non-critical load ip: 874496 freq: 17
rob stalling non-critical load ip: 874500 freq: 2
rob stalling non-critical load ip: 874520 freq: 10
rob stalling non-critical load ip: 874548 freq: 3
rob stalling non-critical load ip: 874552 freq: 157
rob stalling non-critical load ip: 874568 freq: 14
rob stalling non-critical load ip: 874600 freq: 32
rob stalling non-critical load ip: 874712 freq: 10
rob stalling non-critical load ip: 874760 freq: 11
rob stalling non-critical load ip: 875000 freq: 7
rob stalling non-critical load ip: 875136 freq: 1
rob stalling non-critical load ip: 875152 freq: 2
rob stalling non-critical load ip: 876364 freq: 2
rob stalling non-critical load ip: 876412 freq: 11
rob stalling non-critical load ip: 876432 freq: 1
rob stalling non-critical load ip: 876596 freq: 4
rob stalling non-critical load ip: 876612 freq: 9
rob stalling non-critical load ip: 876992 freq: 19
rob stalling non-critical load ip: 877252 freq: 8
rob stalling non-critical load ip: 878164 freq: 56
rob stalling non-critical load ip: 878224 freq: 5
rob stalling non-critical load ip: 878256 freq: 4
rob stalling non-critical load ip: 878268 freq: 32
rob stalling non-critical load ip: 878272 freq: 3
rob stalling non-critical load ip: 878300 freq: 5
rob stalling non-critical load ip: 878396 freq: 12
rob stalling non-critical load ip: 878432 freq: 18
rob stalling non-critical load ip: 878516 freq: 8
rob stalling non-critical load ip: 878624 freq: 18
rob stalling non-critical load ip: 878652 freq: 11
rob stalling non-critical load ip: 878696 freq: 15
rob stalling non-critical load ip: 878740 freq: 8
rob stalling non-critical load ip: 878756 freq: 10
rob stalling non-critical load ip: 878824 freq: 26
rob stalling non-critical load ip: 878860 freq: 11
rob stalling non-critical load ip: 878984 freq: 1
rob stalling non-critical load ip: 879148 freq: 4
rob stalling non-critical load ip: 879164 freq: 6
rob stalling non-critical load ip: 879208 freq: 3
rob stalling non-critical load ip: 879280 freq: 1
rob stalling non-critical load ip: 879868 freq: 1
rob stalling non-critical load ip: 879912 freq: 2
rob stalling non-critical load ip: 881188 freq: 4
rob stalling non-critical load ip: 881224 freq: 2
rob stalling non-critical load ip: 881372 freq: 5
rob stalling non-critical load ip: 881476 freq: 4
rob stalling non-critical load ip: 881736 freq: 6
rob stalling non-critical load ip: 881908 freq: 4
rob stalling non-critical load ip: 882228 freq: 1
rob stalling non-critical load ip: 887372 freq: 1
rob stalling non-critical load ip: 887456 freq: 1
rob stalling non-critical load ip: 888072 freq: 1
rob stalling non-critical load ip: 888332 freq: 94
rob stalling non-critical load ip: 891104 freq: 1
rob stalling non-critical load ip: 891656 freq: 1
rob stalling non-critical load ip: 891664 freq: 1
rob stalling non-critical load ip: 891668 freq: 2
rob stalling non-critical load ip: 892244 freq: 1
rob stalling non-critical load ip: 892300 freq: 2
rob stalling non-critical load ip: 895208 freq: 7
rob stalling non-critical load ip: 895248 freq: 95
rob stalling non-critical load ip: 897224 freq: 6
rob stalling non-critical load ip: 897480 freq: 7
rob stalling non-critical load ip: 906552 freq: 1
rob stalling non-critical load ip: 906644 freq: 1
rob stalling non-critical load ip: 906876 freq: 7
rob stalling non-critical load ip: 908524 freq: 2
rob stalling non-critical load ip: 909592 freq: 1
rob stalling non-critical load ip: 909648 freq: 2
rob stalling non-critical load ip: 909836 freq: 2
rob stalling non-critical load ip: 910004 freq: 101
rob stalling non-critical load ip: 910088 freq: 1967
rob stalling non-critical load ip: 914940 freq: 32
rob stalling non-critical load ip: 914968 freq: 233
rob stalling non-critical load ip: 915504 freq: 369
rob stalling non-critical load ip: 915516 freq: 653
rob stalling non-critical load ip: 915560 freq: 623
rob stalling non-critical load ip: 919464 freq: 43
rob stalling non-critical load ip: 919532 freq: 7
rob stalling non-critical load ip: 919544 freq: 5
rob stalling non-critical load ip: 919548 freq: 3
rob stalling non-critical load ip: 919560 freq: 28
rob stalling non-critical load ip: 919624 freq: 20
rob stalling non-critical load ip: 919664 freq: 13
rob stalling non-critical load ip: 919668 freq: 17
rob stalling non-critical load ip: 919968 freq: 745
rob stalling non-critical load ip: 919976 freq: 404
rob stalling non-critical load ip: 919980 freq: 16
rob stalling non-critical load ip: 920024 freq: 240
rob stalling non-critical load ip: 920040 freq: 67
rob stalling non-critical load ip: 920076 freq: 157
rob stalling non-critical load ip: 920108 freq: 18
rob stalling non-critical load ip: 920112 freq: 228
rob stalling non-critical load ip: 920148 freq: 53
rob stalling non-critical load ip: 920204 freq: 20
rob stalling non-critical load ip: 920216 freq: 34
rob stalling non-critical load ip: 920252 freq: 11
rob stalling non-critical load ip: 920320 freq: 9
rob stalling non-critical load ip: 920324 freq: 41
rob stalling non-critical load ip: 920344 freq: 2
rob stalling non-critical load ip: 920412 freq: 11
rob stalling non-critical load ip: 920440 freq: 35
rob stalling non-critical load ip: 920444 freq: 8
rob stalling non-critical load ip: 920508 freq: 39
rob stalling non-critical load ip: 920512 freq: 3
rob stalling non-critical load ip: 920620 freq: 75
rob stalling non-critical load ip: 920732 freq: 51
rob stalling non-critical load ip: 920764 freq: 22
rob stalling non-critical load ip: 920856 freq: 10
rob stalling non-critical load ip: 921276 freq: 80
rob stalling non-critical load ip: 921300 freq: 938
rob stalling non-critical load ip: 921304 freq: 8
rob stalling non-critical load ip: 921336 freq: 12
rob stalling non-critical load ip: 921400 freq: 143
rob stalling non-critical load ip: 921408 freq: 33
rob stalling non-critical load ip: 921456 freq: 153
rob stalling non-critical load ip: 921460 freq: 210
rob stalling non-critical load ip: 921480 freq: 4
rob stalling non-critical load ip: 921496 freq: 12
rob stalling non-critical load ip: 921500 freq: 6
rob stalling non-critical load ip: 921504 freq: 3
rob stalling non-critical load ip: 921520 freq: 197
rob stalling non-critical load ip: 921544 freq: 199
rob stalling non-critical load ip: 921568 freq: 24
rob stalling non-critical load ip: 921760 freq: 1
rob stalling non-critical load ip: 921764 freq: 37
rob stalling non-critical load ip: 921768 freq: 834
rob stalling non-critical load ip: 921784 freq: 125
rob stalling non-critical load ip: 921804 freq: 19
rob stalling non-critical load ip: 921904 freq: 79
rob stalling non-critical load ip: 921920 freq: 12
rob stalling non-critical load ip: 921924 freq: 240
rob stalling non-critical load ip: 921948 freq: 35
rob stalling non-critical load ip: 921952 freq: 148
rob stalling non-critical load ip: 921968 freq: 15
rob stalling non-critical load ip: 922008 freq: 1632
rob stalling non-critical load ip: 922016 freq: 14
rob stalling non-critical load ip: 922484 freq: 3
rob stalling non-critical load ip: 922500 freq: 8
rob stalling non-critical load ip: 922504 freq: 5
rob stalling non-critical load ip: 922520 freq: 12
rob stalling non-critical load ip: 922544 freq: 18
rob stalling non-critical load ip: 922548 freq: 1289
rob stalling non-critical load ip: 922596 freq: 14
rob stalling non-critical load ip: 922612 freq: 7
rob stalling non-critical load ip: 922616 freq: 31
rob stalling non-critical load ip: 922624 freq: 4
rob stalling non-critical load ip: 922644 freq: 11
rob stalling non-critical load ip: 922648 freq: 81
rob stalling non-critical load ip: 922652 freq: 1
rob stalling non-critical load ip: 922656 freq: 5
rob stalling non-critical load ip: 922672 freq: 20
rob stalling non-critical load ip: 922812 freq: 207
rob stalling non-critical load ip: 922868 freq: 5
rob stalling non-critical load ip: 922888 freq: 377
rob stalling non-critical load ip: 922924 freq: 25
rob stalling non-critical load ip: 923060 freq: 747
rob stalling non-critical load ip: 923064 freq: 668
rob stalling non-critical load ip: 923076 freq: 78
rob stalling non-critical load ip: 923080 freq: 845
rob stalling non-critical load ip: 923088 freq: 36
rob stalling non-critical load ip: 923096 freq: 10
rob stalling non-critical load ip: 923116 freq: 10
rob stalling non-critical load ip: 923816 freq: 84
rob stalling non-critical load ip: 923824 freq: 2
rob stalling non-critical load ip: 923832 freq: 6
rob stalling non-critical load ip: 927304 freq: 5
rob stalling non-critical load ip: 927392 freq: 3
rob stalling non-critical load ip: 927644 freq: 5
rob stalling non-critical load ip: 928468 freq: 2
rob stalling non-critical load ip: 928524 freq: 1
rob stalling non-critical load ip: 929320 freq: 1
rob stalling non-critical load ip: 930640 freq: 4
rob stalling non-critical load ip: 930780 freq: 291
rob stalling non-critical load ip: 930796 freq: 15
rob stalling non-critical load ip: 930828 freq: 9
rob stalling non-critical load ip: 930832 freq: 9
rob stalling non-critical load ip: 930840 freq: 4
rob stalling non-critical load ip: 930860 freq: 29
rob stalling non-critical load ip: 930864 freq: 1
rob stalling non-critical load ip: 931104 freq: 21
rob stalling non-critical load ip: 931136 freq: 2
rob stalling non-critical load ip: 931172 freq: 41
rob stalling non-critical load ip: 931192 freq: 9
rob stalling non-critical load ip: 931196 freq: 3
rob stalling non-critical load ip: 931200 freq: 24
rob stalling non-critical load ip: 931204 freq: 3
rob stalling non-critical load ip: 931224 freq: 30
rob stalling non-critical load ip: 931228 freq: 2
rob stalling non-critical load ip: 931308 freq: 21
rob stalling non-critical load ip: 931320 freq: 195
rob stalling non-critical load ip: 931328 freq: 5
rob stalling non-critical load ip: 931352 freq: 127
rob stalling non-critical load ip: 931356 freq: 48
rob stalling non-critical load ip: 931372 freq: 2
rob stalling non-critical load ip: 931380 freq: 116
rob stalling non-critical load ip: 931412 freq: 40
rob stalling non-critical load ip: 931428 freq: 8
rob stalling non-critical load ip: 931436 freq: 45
rob stalling non-critical load ip: 931848 freq: 2
rob stalling non-critical load ip: 931852 freq: 48
rob stalling non-critical load ip: 931896 freq: 13
rob stalling non-critical load ip: 931924 freq: 10
rob stalling non-critical load ip: 931940 freq: 20
rob stalling non-critical load ip: 931964 freq: 30
rob stalling non-critical load ip: 931968 freq: 67
rob stalling non-critical load ip: 932004 freq: 404
rob stalling non-critical load ip: 932012 freq: 6
rob stalling non-critical load ip: 932044 freq: 47
rob stalling non-critical load ip: 932048 freq: 1
rob stalling non-critical load ip: 932056 freq: 15
rob stalling non-critical load ip: 932064 freq: 87
rob stalling non-critical load ip: 932072 freq: 209
rob stalling non-critical load ip: 932096 freq: 16
rob stalling non-critical load ip: 932124 freq: 8
rob stalling non-critical load ip: 933364 freq: 3
rob stalling non-critical load ip: 933392 freq: 4
rob stalling non-critical load ip: 933712 freq: 1
rob stalling non-critical load ip: 934000 freq: 10
rob stalling non-critical load ip: 934052 freq: 1
rob stalling non-critical load ip: 934332 freq: 8
rob stalling non-critical load ip: 934588 freq: 7
rob stalling non-critical load ip: 938528 freq: 144
rob stalling non-critical load ip: 938540 freq: 24
rob stalling non-critical load ip: 938556 freq: 46
rob stalling non-critical load ip: 938612 freq: 81
rob stalling non-critical load ip: 938616 freq: 42
rob stalling non-critical load ip: 938644 freq: 4
rob stalling non-critical load ip: 938660 freq: 8
rob stalling non-critical load ip: 938668 freq: 35
rob stalling non-critical load ip: 938724 freq: 6
rob stalling non-critical load ip: 938756 freq: 39
rob stalling non-critical load ip: 938772 freq: 1
rob stalling non-critical load ip: 938800 freq: 1
rob stalling non-critical load ip: 938860 freq: 19
rob stalling non-critical load ip: 938912 freq: 37
rob stalling non-critical load ip: 938928 freq: 8
rob stalling non-critical load ip: 939012 freq: 4
rob stalling non-critical load ip: 939192 freq: 8
rob stalling non-critical load ip: 939204 freq: 27
rob stalling non-critical load ip: 944504 freq: 51
rob stalling non-critical load ip: 944536 freq: 36
rob stalling non-critical load ip: 944544 freq: 78
rob stalling non-critical load ip: 945012 freq: 11
rob stalling non-critical load ip: 945032 freq: 8
rob stalling non-critical load ip: 952748 freq: 164
rob stalling non-critical load ip: 952780 freq: 138
rob stalling non-critical load ip: 952796 freq: 45
rob stalling non-critical load ip: 952816 freq: 467
rob stalling non-critical load ip: 952856 freq: 14
rob stalling non-critical load ip: 952900 freq: 214
rob stalling non-critical load ip: 952916 freq: 148
rob stalling non-critical load ip: 952920 freq: 84
rob stalling non-critical load ip: 952932 freq: 7
rob stalling non-critical load ip: 952968 freq: 15
rob stalling non-critical load ip: 952984 freq: 38
rob stalling non-critical load ip: 953040 freq: 34
rob stalling non-critical load ip: 953056 freq: 1
rob stalling non-critical load ip: 953064 freq: 1
rob stalling non-critical load ip: 953092 freq: 59
rob stalling non-critical load ip: 953116 freq: 4
rob stalling non-critical load ip: 953124 freq: 2
rob stalling non-critical load ip: 953128 freq: 4
rob stalling non-critical load ip: 953140 freq: 17
rob stalling non-critical load ip: 953144 freq: 20
rob stalling non-critical load ip: 953164 freq: 21
rob stalling non-critical load ip: 953196 freq: 10
rob stalling non-critical load ip: 953228 freq: 54
rob stalling non-critical load ip: 953336 freq: 67
rob stalling non-critical load ip: 953360 freq: 4
rob stalling non-critical load ip: 953472 freq: 24
rob stalling non-critical load ip: 956308 freq: 190
rob stalling non-critical load ip: 956332 freq: 15
rob stalling non-critical load ip: 956340 freq: 76
rob stalling non-critical load ip: 957104 freq: 1
rob stalling non-critical load ip: 957128 freq: 13
rob stalling non-critical load ip: 959276 freq: 4
rob stalling non-critical load ip: 959332 freq: 2
rob stalling non-critical load ip: 959352 freq: 2
rob stalling non-critical load ip: 959532 freq: 11
rob stalling non-critical load ip: 959708 freq: 102
rob stalling non-critical load ip: 959720 freq: 12
rob stalling non-critical load ip: 959724 freq: 2
rob stalling non-critical load ip: 959740 freq: 6
rob stalling non-critical load ip: 959744 freq: 5
rob stalling non-critical load ip: 959768 freq: 5
rob stalling non-critical load ip: 959812 freq: 9
rob stalling non-critical load ip: 959864 freq: 15
rob stalling non-critical load ip: 959888 freq: 16
rob stalling non-critical load ip: 959976 freq: 24
rob stalling non-critical load ip: 964556 freq: 1
rob stalling non-critical load ip: 964560 freq: 3
rob stalling non-critical load ip: 1029576 freq: 1160
rob stalling non-critical load ip: 1029596 freq: 361
rob stalling non-critical load ip: 1029612 freq: 14
rob stalling non-critical load ip: 1029628 freq: 211
rob stalling non-critical load ip: 1029652 freq: 34
rob stalling non-critical load ip: 1029672 freq: 199
rob stalling non-critical load ip: 1029684 freq: 9
rob stalling non-critical load ip: 1029688 freq: 3
rob stalling non-critical load ip: 1029720 freq: 43
rob stalling non-critical load ip: 1029740 freq: 221
rob stalling non-critical load ip: 1029776 freq: 310
rob stalling non-critical load ip: 1029812 freq: 19
rob stalling non-critical load ip: 1029816 freq: 106
rob stalling non-critical load ip: 1029832 freq: 33
rob stalling non-critical load ip: 1029844 freq: 10
rob stalling non-critical load ip: 1029980 freq: 18
rob stalling non-critical load ip: 1029996 freq: 18
rob stalling non-critical load ip: 1030008 freq: 20
rob stalling non-critical load ip: 1030128 freq: 29
rob stalling non-critical load ip: 1030144 freq: 1074
rob stalling non-critical load ip: 1030160 freq: 45
rob stalling non-critical load ip: 1031328 freq: 15
rob stalling non-critical load ip: 1031356 freq: 15
rob stalling non-critical load ip: 1031360 freq: 6
rob stalling non-critical load ip: 1032164 freq: 12
rob stalling non-critical load ip: 1032188 freq: 23
rob stalling non-critical load ip: 1032208 freq: 32
rob stalling non-critical load ip: 1032212 freq: 29
rob stalling non-critical load ip: 1032224 freq: 14
rob stalling non-critical load ip: 1032240 freq: 35
rob stalling non-critical load ip: 1032316 freq: 10
rob stalling non-critical load ip: 16780456 freq: 1156
rob stalling non-critical load ip: 16780584 freq: 1266
rob stalling non-critical load ip: 16783496 freq: 580
rob stalling non-critical load ip: 16783504 freq: 162
rob stalling non-critical load ip: 16783512 freq: 50
rob stalling non-critical load ip: 16783524 freq: 8
rob stalling non-critical load ip: 16783528 freq: 27
rob stalling non-critical load ip: 16783532 freq: 5275
rob stalling non-critical load ip: 16783536 freq: 15
rob stalling non-critical load ip: 16783544 freq: 116
rob stalling non-critical load ip: 16783548 freq: 823
rob stalling non-critical load ip: 16783552 freq: 914
rob stalling non-critical load ip: 16783564 freq: 1569
rob stalling non-critical load ip: 16783568 freq: 21
rob stalling non-critical load ip: 16783572 freq: 1802
rob stalling non-critical load ip: 16783576 freq: 2
rob stalling non-critical load ip: 16783752 freq: 671
rob stalling non-critical load ip: 16783760 freq: 221
rob stalling non-critical load ip: 16783768 freq: 74
rob stalling non-critical load ip: 16783780 freq: 20
rob stalling non-critical load ip: 16783784 freq: 33
rob stalling non-critical load ip: 16783788 freq: 3596
rob stalling non-critical load ip: 16783792 freq: 11
rob stalling non-critical load ip: 16783800 freq: 86
rob stalling non-critical load ip: 16783804 freq: 614
rob stalling non-critical load ip: 16783808 freq: 2409
rob stalling non-critical load ip: 16783820 freq: 1542
rob stalling non-critical load ip: 16783824 freq: 33
rob stalling non-critical load ip: 16783828 freq: 1586
rob stalling non-critical load ip: 16784128 freq: 6389
rob stalling non-critical load ip: 16784132 freq: 4
rob stalling non-critical load ip: 16784136 freq: 1487
rob stalling non-critical load ip: 16784140 freq: 4
rob stalling non-critical load ip: 16784144 freq: 190
rob stalling non-critical load ip: 16784148 freq: 599
rob stalling non-critical load ip: 16784152 freq: 5417
rob stalling non-critical load ip: 16784160 freq: 346
rob stalling non-critical load ip: 16784164 freq: 89
rob stalling non-critical load ip: 16784168 freq: 4078
rob stalling non-critical load ip: 16784172 freq: 5
rob stalling non-critical load ip: 16784176 freq: 170
rob stalling non-critical load ip: 16784184 freq: 186
rob stalling non-critical load ip: 16796968 freq: 1
rob stalling non-critical load ip: 16800136 freq: 15
rob stalling non-critical load ip: 16800512 freq: 104
rob stalling non-critical load ip: 16800520 freq: 8
rob stalling non-critical load ip: 16800536 freq: 157
rob stalling non-critical load ip: 16800552 freq: 7
rob stalling non-critical load ip: 16803568 freq: 20
rob stalling non-critical load ip: 16806692 freq: 11
rob stalling non-critical load ip: 16806724 freq: 12
rob stalling non-critical load ip: 16806728 freq: 35
rob stalling non-critical load ip: 16807120 freq: 1631
rob stalling non-critical load ip: 16807124 freq: 150
rob stalling non-critical load ip: 16807128 freq: 7
rob stalling non-critical load ip: 16807136 freq: 12
rob stalling non-critical load ip: 16807188 freq: 27
rob stalling non-critical load ip: 16807200 freq: 30
rob stalling non-critical load ip: 16807208 freq: 14
rob stalling non-critical load ip: 16807216 freq: 3
rob stalling non-critical load ip: 16807228 freq: 69
rob stalling non-critical load ip: 16807244 freq: 25
rob stalling non-critical load ip: 16807256 freq: 22
rob stalling non-critical load ip: 16807264 freq: 2
rob stalling non-critical load ip: 16807268 freq: 203
rob stalling non-critical load ip: 16807344 freq: 754
rob stalling non-critical load ip: 16807348 freq: 5
rob stalling non-critical load ip: 16807352 freq: 150
rob stalling non-critical load ip: 16807392 freq: 1361
rob stalling non-critical load ip: 16807812 freq: 1085
rob stalling non-critical load ip: 16807816 freq: 125
rob stalling non-critical load ip: 16807828 freq: 8
rob stalling non-critical load ip: 16807864 freq: 2694
rob stalling non-critical load ip: 16807908 freq: 52
rob stalling non-critical load ip: 16807956 freq: 187
rob stalling non-critical load ip: 16807964 freq: 850
rob stalling non-critical load ip: 16807968 freq: 6
rob stalling non-critical load ip: 16807976 freq: 86
rob stalling non-critical load ip: 16807980 freq: 99
rob stalling non-critical load ip: 16807984 freq: 21
rob stalling non-critical load ip: 16807996 freq: 66
rob stalling non-critical load ip: 16808000 freq: 253
rob stalling non-critical load ip: 16808004 freq: 25
rob stalling non-critical load ip: 16808008 freq: 15
rob stalling non-critical load ip: 16808012 freq: 1055
rob stalling non-critical load ip: 16808020 freq: 392
rob stalling non-critical load ip: 16808024 freq: 1115
rob stalling non-critical load ip: 16808028 freq: 2846
rob stalling non-critical load ip: 16808032 freq: 248
rob stalling non-critical load ip: 16808052 freq: 79
rob stalling non-critical load ip: 16808060 freq: 55
rob stalling non-critical load ip: 16809376 freq: 7
rob stalling non-critical load ip: 16809664 freq: 790
rob stalling non-critical load ip: 16812528 freq: 360
rob stalling non-critical load ip: 16812716 freq: 803
rob stalling non-critical load ip: 16812788 freq: 1
rob stalling non-critical load ip: 16813444 freq: 22
rob stalling non-critical load ip: 16813448 freq: 53
rob stalling non-critical load ip: 16813580 freq: 9
rob stalling non-critical load ip: 16813680 freq: 33
rob stalling non-critical load ip: 16813704 freq: 35
rob stalling non-critical load ip: 16813744 freq: 1
rob stalling non-critical load ip: 16813760 freq: 26
rob stalling non-critical load ip: 16813800 freq: 4
rob stalling non-critical load ip: 16815252 freq: 29
rob stalling non-critical load ip: 16815284 freq: 8
rob stalling non-critical load ip: 16817700 freq: 438
rob stalling non-critical load ip: 16817756 freq: 25
rob stalling non-critical load ip: 16817764 freq: 10
rob stalling non-critical load ip: 16817820 freq: 247
rob stalling non-critical load ip: 16817836 freq: 42
rob stalling non-critical load ip: 16817844 freq: 246
rob stalling non-critical load ip: 16817884 freq: 17
rob stalling non-critical load ip: 16817900 freq: 390
rob stalling non-critical load ip: 16817940 freq: 5
rob stalling non-critical load ip: 16817960 freq: 24
rob stalling non-critical load ip: 16819192 freq: 4
rob stalling non-critical load ip: 16819204 freq: 2
rob stalling non-critical load ip: 16820524 freq: 386
rob stalling non-critical load ip: 16820672 freq: 174
rob stalling non-critical load ip: 16820676 freq: 47
rob stalling non-critical load ip: 16820772 freq: 1
rob stalling non-critical load ip: 16820852 freq: 15
rob stalling non-critical load ip: 16820864 freq: 5
rob stalling non-critical load ip: 16820916 freq: 7
rob stalling non-critical load ip: 16820956 freq: 35
rob stalling non-critical load ip: 16820996 freq: 65
rob stalling non-critical load ip: 16821244 freq: 50
rob stalling non-critical load ip: 16821260 freq: 14
rob stalling non-critical load ip: 16821280 freq: 112
rob stalling non-critical load ip: 16821296 freq: 4
rob stalling non-critical load ip: 16821308 freq: 10
rob stalling non-critical load ip: 16821340 freq: 112
rob stalling non-critical load ip: 16821452 freq: 1727
rob stalling non-critical load ip: 16821464 freq: 334
rob stalling non-critical load ip: 16821512 freq: 3
rob stalling non-critical load ip: 16821572 freq: 1
rob stalling non-critical load ip: 16821596 freq: 17
rob stalling non-critical load ip: 16821600 freq: 24
rob stalling non-critical load ip: 16821628 freq: 64
rob stalling non-critical load ip: 16821664 freq: 181
rob stalling non-critical load ip: 16821676 freq: 11
rob stalling non-critical load ip: 16821732 freq: 52
rob stalling non-critical load ip: 16821792 freq: 79
rob stalling non-critical load ip: 16821800 freq: 1203
rob stalling non-critical load ip: 16821808 freq: 11
rob stalling non-critical load ip: 16821840 freq: 3020
rob stalling non-critical load ip: 16821912 freq: 8466
rob stalling non-critical load ip: 16821924 freq: 64
rob stalling non-critical load ip: 16821956 freq: 549
rob stalling non-critical load ip: 16821980 freq: 53
rob stalling non-critical load ip: 16822004 freq: 8209
rob stalling non-critical load ip: 16822020 freq: 55
rob stalling non-critical load ip: 16822032 freq: 50
rob stalling non-critical load ip: 16822040 freq: 29
rob stalling non-critical load ip: 16822116 freq: 65
rob stalling non-critical load ip: 16822120 freq: 19
rob stalling non-critical load ip: 16822152 freq: 80
rob stalling non-critical load ip: 16822212 freq: 119
rob stalling non-critical load ip: 16822264 freq: 80
rob stalling non-critical load ip: 16822276 freq: 72
rob stalling non-critical load ip: 16822308 freq: 54
rob stalling non-critical load ip: 16822320 freq: 44
rob stalling non-critical load ip: 16822360 freq: 3
rob stalling non-critical load ip: 16822400 freq: 141
rob stalling non-critical load ip: 16822428 freq: 224
rob stalling non-critical load ip: 16822500 freq: 9
rob stalling non-critical load ip: 16822788 freq: 3
rob stalling non-critical load ip: 16822888 freq: 2
rob stalling non-critical load ip: 16823180 freq: 5
rob stalling non-critical load ip: 16823692 freq: 2
rob stalling non-critical load ip: 16823808 freq: 85
rob stalling non-critical load ip: 16823844 freq: 63
rob stalling non-critical load ip: 16823852 freq: 2035
rob stalling non-critical load ip: 16823864 freq: 72
rob stalling non-critical load ip: 16823932 freq: 135
rob stalling non-critical load ip: 16824084 freq: 546
rob stalling non-critical load ip: 16824088 freq: 151
rob stalling non-critical load ip: 16824132 freq: 7
rob stalling non-critical load ip: 16824200 freq: 1869
rob stalling non-critical load ip: 16824228 freq: 1863
rob stalling non-critical load ip: 16824260 freq: 70
rob stalling non-critical load ip: 16824268 freq: 9
rob stalling non-critical load ip: 16824340 freq: 72
rob stalling non-critical load ip: 16826292 freq: 70
rob stalling non-critical load ip: 16826296 freq: 92
rob stalling non-critical load ip: 16827788 freq: 1
rob stalling non-critical load ip: 16828860 freq: 18
rob stalling non-critical load ip: 16828932 freq: 75
rob stalling non-critical load ip: 16844832 freq: 15
rob stalling non-critical load ip: 16844852 freq: 12
rob stalling non-critical load ip: 16844864 freq: 1
rob stalling non-critical load ip: 16844968 freq: 6
rob stalling non-critical load ip: 16844988 freq: 61
rob stalling non-critical load ip: 16844992 freq: 1
rob stalling non-critical load ip: 16845036 freq: 16
rob stalling non-critical load ip: 16845056 freq: 14
rob stalling non-critical load ip: 16845064 freq: 10
rob stalling non-critical load ip: 16845068 freq: 10
rob stalling non-critical load ip: 16845328 freq: 6
rob stalling non-critical load ip: 16851080 freq: 1049
rob stalling non-critical load ip: 16851160 freq: 260
rob stalling non-critical load ip: 16851208 freq: 71
rob stalling non-critical load ip: 16851340 freq: 220
rob stalling non-critical load ip: 16851388 freq: 2191
rob stalling non-critical load ip: 16851436 freq: 1103
rob stalling non-critical load ip: 16851472 freq: 36
rob stalling non-critical load ip: 16851552 freq: 18462
rob stalling non-critical load ip: 16851564 freq: 106
rob stalling non-critical load ip: 16851576 freq: 463
rob stalling non-critical load ip: 16851588 freq: 15962
rob stalling non-critical load ip: 16851600 freq: 177
rob stalling non-critical load ip: 16851612 freq: 1261
rob stalling non-critical load ip: 16851624 freq: 122
rob stalling non-critical load ip: 16851632 freq: 1059
rob stalling non-critical load ip: 16851652 freq: 16930
rob stalling non-critical load ip: 16851728 freq: 438
rob stalling non-critical load ip: 16851776 freq: 4
rob stalling non-critical load ip: 16851796 freq: 8
rob stalling non-critical load ip: 16858176 freq: 613
rob stalling non-critical load ip: 16858192 freq: 2
rob stalling non-critical load ip: 16858244 freq: 23
rob stalling non-critical load ip: 16858252 freq: 3
rob stalling non-critical load ip: 16858308 freq: 9
rob stalling non-critical load ip: 16865736 freq: 13
rob stalling non-critical load ip: 16865740 freq: 10
rob stalling non-critical load ip: 16865776 freq: 2
rob stalling non-critical load ip: 16891612 freq: 445
rob stalling non-critical load ip: 16891620 freq: 1398
rob stalling non-critical load ip: 16891628 freq: 976
rob stalling non-critical load ip: 16891636 freq: 983
rob stalling non-critical load ip: 16891648 freq: 15
rob stalling non-critical load ip: 16892324 freq: 2
rob stalling non-critical load ip: 16899252 freq: 1
rob stalling non-critical load ip: 16899372 freq: 2
rob stalling non-critical load ip: 16902180 freq: 2
rob stalling non-critical load ip: 16902228 freq: 7
rob stalling non-critical load ip: 16902244 freq: 10
rob stalling non-critical load ip: 16902260 freq: 9
rob stalling non-critical load ip: 16902264 freq: 6
rob stalling non-critical load ip: 16902268 freq: 6
rob stalling non-critical load ip: 16902320 freq: 22
rob stalling non-critical load ip: 16902336 freq: 40
rob stalling non-critical load ip: 16902380 freq: 10
rob stalling non-critical load ip: 16902392 freq: 6
rob stalling non-critical load ip: 16902396 freq: 792
rob stalling non-critical load ip: 16903028 freq: 47
rob stalling non-critical load ip: 16908452 freq: 77
rob stalling non-critical load ip: 16908548 freq: 15
rob stalling non-critical load ip: 16908560 freq: 7
rob stalling non-critical load ip: 16908636 freq: 8
rob stalling non-critical load ip: 16917068 freq: 129
rob stalling non-critical load ip: 16917076 freq: 7
rob stalling non-critical load ip: 16917116 freq: 76
rob stalling non-critical load ip: 16917124 freq: 70
rob stalling non-critical load ip: 16917760 freq: 52
rob stalling non-critical load ip: 16917772 freq: 492
rob stalling non-critical load ip: 16977308 freq: 9
rob stalling non-critical load ip: 16977328 freq: 8
rob stalling non-critical load ip: 16977404 freq: 32
rob stalling non-critical load ip: 16977424 freq: 7
rob stalling non-critical load ip: 16977480 freq: 4
rob stalling non-critical load ip: 17022708 freq: 24
rob stalling non-critical load ip: 17077560 freq: 157
rob stalling non-critical load ip: 17077572 freq: 2323
rob stalling non-critical load ip: 17077620 freq: 3
rob stalling non-critical load ip: 17077640 freq: 17
rob stalling non-critical load ip: 17077644 freq: 55
rob stalling non-critical load ip: 17077668 freq: 9
rob stalling non-critical load ip: 17077680 freq: 34
rob stalling non-critical load ip: 17077684 freq: 634
rob stalling non-critical load ip: 17077688 freq: 142
rob stalling non-critical load ip: 17077812 freq: 4
rob stalling non-critical load ip: 17077816 freq: 3
rob stalling non-critical load ip: 17077916 freq: 36
rob stalling non-critical load ip: 17077968 freq: 20
rob stalling non-critical load ip: 17078012 freq: 42
rob stalling non-critical load ip: 17078020 freq: 14
rob stalling non-critical load ip: 17078024 freq: 6
rob stalling non-critical load ip: 17078036 freq: 32
rob stalling non-critical load ip: 17078040 freq: 18
rob stalling non-critical load ip: 17078080 freq: 18
rob stalling non-critical load ip: 17078088 freq: 1
rob stalling non-critical load ip: 17078100 freq: 19
rob stalling non-critical load ip: 17078104 freq: 45
rob stalling non-critical load ip: 17078120 freq: 10
rob stalling non-critical load ip: 17078144 freq: 21
rob stalling non-critical load ip: 17078168 freq: 21
rob stalling non-critical load ip: 17078184 freq: 10
rob stalling non-critical load ip: 17078228 freq: 28
rob stalling non-critical load ip: 17078240 freq: 13
rob stalling non-critical load ip: 17078252 freq: 120
rob stalling non-critical load ip: 17078288 freq: 33
rob stalling non-critical load ip: 17078304 freq: 8
rob stalling non-critical load ip: 17078420 freq: 1600
rob stalling non-critical load ip: 17078504 freq: 12
rob stalling non-critical load ip: 17078516 freq: 1852
rob stalling non-critical load ip: 17079552 freq: 4
rob stalling non-critical load ip: 17079616 freq: 922
rob stalling non-critical load ip: 17079636 freq: 266
rob stalling non-critical load ip: 17079680 freq: 7
rob stalling non-critical load ip: 17079744 freq: 36
rob stalling non-critical load ip: 17080064 freq: 5
rob stalling non-critical load ip: 17080100 freq: 6
rob stalling non-critical load ip: 17084036 freq: 5
rob stalling non-critical load ip: 17084128 freq: 1228
rob stalling non-critical load ip: 17084160 freq: 393
rob stalling non-critical load ip: 17084192 freq: 1882
rob stalling non-critical load ip: 17084300 freq: 77
rob stalling non-critical load ip: 17084332 freq: 759
rob stalling non-critical load ip: 17084340 freq: 119
rob stalling non-critical load ip: 17084388 freq: 995
rob stalling non-critical load ip: 17084424 freq: 4
rob stalling non-critical load ip: 17084460 freq: 2
rob stalling non-critical load ip: 17084544 freq: 2309
rob stalling non-critical load ip: 17084576 freq: 9
rob stalling non-critical load ip: 17084592 freq: 198
rob stalling non-critical load ip: 17084596 freq: 11
rob stalling non-critical load ip: 17084652 freq: 99
rob stalling non-critical load ip: 17084656 freq: 168
rob stalling non-critical load ip: 17084752 freq: 43
rob stalling non-critical load ip: 17084772 freq: 17
rob stalling non-critical load ip: 17084780 freq: 155
rob stalling non-critical load ip: 17084836 freq: 5
rob stalling non-critical load ip: 17087300 freq: 124
rob stalling non-critical load ip: 17087348 freq: 10
rob stalling non-critical load ip: 17089932 freq: 38
rob stalling non-critical load ip: 17089968 freq: 4
rob stalling non-critical load ip: 17089988 freq: 275
rob stalling non-critical load ip: 17090008 freq: 23
rob stalling non-critical load ip: 17090036 freq: 29
rob stalling non-critical load ip: 17090052 freq: 5
rob stalling non-critical load ip: 17090056 freq: 3
rob stalling non-critical load ip: 17090060 freq: 34
rob stalling non-critical load ip: 17090160 freq: 7
rob stalling non-critical load ip: 17090192 freq: 17
rob stalling non-critical load ip: 17090196 freq: 69
rob stalling non-critical load ip: 17105460 freq: 91
rob stalling non-critical load ip: 17105536 freq: 3
rob stalling non-critical load ip: 17105552 freq: 15
rob stalling non-critical load ip: 17109616 freq: 266
rob stalling non-critical load ip: 17109620 freq: 237
rob stalling non-critical load ip: 17147696 freq: 5
rob stalling non-critical load ip: 17147700 freq: 3
rob stalling non-critical load ip: 17148832 freq: 838
rob stalling non-critical load ip: 17148844 freq: 7
rob stalling non-critical load ip: 17148868 freq: 3
rob stalling non-critical load ip: 17148904 freq: 10
rob stalling non-critical load ip: 17148972 freq: 839
rob stalling non-critical load ip: 17149012 freq: 4
rob stalling non-critical load ip: 17149168 freq: 15
rob stalling non-critical load ip: 17149172 freq: 13
rob stalling non-critical load ip: 17149204 freq: 28
rob stalling non-critical load ip: 17149208 freq: 658
rob stalling non-critical load ip: 17149340 freq: 55
rob stalling non-critical load ip: 17149344 freq: 28
rob stalling non-critical load ip: 17149400 freq: 213
rob stalling non-critical load ip: 17149504 freq: 38
rob stalling non-critical load ip: 17149516 freq: 53
rob stalling non-critical load ip: 17149600 freq: 198
rob stalling non-critical load ip: 17149604 freq: 67
rob stalling non-critical load ip: 17183032 freq: 59
rob stalling non-critical load ip: 17183048 freq: 32
rob stalling non-critical load ip: 17183060 freq: 567
rob stalling non-critical load ip: 17183076 freq: 538
rob stalling non-critical load ip: 17183080 freq: 107
rob stalling non-critical load ip: 17183084 freq: 7
rob stalling non-critical load ip: 17183108 freq: 107
rob stalling non-critical load ip: 17183120 freq: 9
rob stalling non-critical load ip: 17183140 freq: 24
rob stalling non-critical load ip: 17183160 freq: 18
rob stalling non-critical load ip: 17183188 freq: 27
rob stalling non-critical load ip: 17183232 freq: 19
rob stalling non-critical load ip: 17183244 freq: 138
rob stalling non-critical load ip: 17183248 freq: 128
rob stalling non-critical load ip: 17183252 freq: 84
rob stalling non-critical load ip: 17183268 freq: 11
rob stalling non-critical load ip: 17183284 freq: 14
rob stalling non-critical load ip: 17183360 freq: 4
rob stalling non-critical load ip: 17183380 freq: 28
rob stalling non-critical load ip: 17183412 freq: 12
rob stalling non-critical load ip: 17183424 freq: 19
rob stalling non-critical load ip: 17183436 freq: 3
rob stalling non-critical load ip: 17183452 freq: 4
rob stalling non-critical load ip: 17183492 freq: 15
rob stalling non-critical load ip: 17183532 freq: 29
rob stalling non-critical load ip: 17183560 freq: 9
rob stalling non-critical load ip: 17183568 freq: 6
rob stalling non-critical load ip: 17183812 freq: 2014
rob stalling non-critical load ip: 17183836 freq: 31
rob stalling non-critical load ip: 17183860 freq: 1100
rob stalling non-critical load ip: 17183892 freq: 64
rob stalling non-critical load ip: 17183920 freq: 9
rob stalling non-critical load ip: 17183952 freq: 24
rob stalling non-critical load ip: 17183960 freq: 606
rob stalling non-critical load ip: 17184024 freq: 20
rob stalling non-critical load ip: 17184072 freq: 58
rob stalling non-critical load ip: 17184084 freq: 688
rob stalling non-critical load ip: 17184100 freq: 398
rob stalling non-critical load ip: 17184500 freq: 92
rob stalling non-critical load ip: 17184536 freq: 24
rob stalling non-critical load ip: 17184552 freq: 3
rob stalling non-critical load ip: 17184568 freq: 5
rob stalling non-critical load ip: 17184588 freq: 37
rob stalling non-critical load ip: 17184628 freq: 16
rob stalling non-critical load ip: 17184644 freq: 7
rob stalling non-critical load ip: 17184664 freq: 18
rob stalling non-critical load ip: 17184712 freq: 36
rob stalling non-critical load ip: 17184740 freq: 26
rob stalling non-critical load ip: 17184768 freq: 23
rob stalling non-critical load ip: 17184792 freq: 116
rob stalling non-critical load ip: 17184896 freq: 17
rob stalling non-critical load ip: 17184900 freq: 7
rob stalling non-critical load ip: 17184924 freq: 14
rob stalling non-critical load ip: 17185072 freq: 3
rob stalling non-critical load ip: 17185296 freq: 1
rob stalling non-critical load ip: 17185456 freq: 23
rob stalling non-critical load ip: 17185528 freq: 31
rob stalling non-critical load ip: 17185608 freq: 32
rob stalling non-critical load ip: 17185632 freq: 13
rob stalling non-critical load ip: 17185696 freq: 45
rob stalling non-critical load ip: 17185704 freq: 320
rob stalling non-critical load ip: 17185716 freq: 9
rob stalling non-critical load ip: 17185856 freq: 26
rob stalling non-critical load ip: 17185872 freq: 9
rob stalling non-critical load ip: 17185984 freq: 18
rob stalling non-critical load ip: 17186016 freq: 33
rob stalling non-critical load ip: 17186488 freq: 2
rob stalling non-critical load ip: 17186760 freq: 26
rob stalling non-critical load ip: 17186768 freq: 5
rob stalling non-critical load ip: 17186780 freq: 62
rob stalling non-critical load ip: 17186844 freq: 1170
rob stalling non-critical load ip: 17186864 freq: 32
rob stalling non-critical load ip: 17186872 freq: 17
rob stalling non-critical load ip: 17186900 freq: 20
rob stalling non-critical load ip: 17186908 freq: 1
rob stalling non-critical load ip: 17186924 freq: 2
rob stalling non-critical load ip: 17186940 freq: 5
rob stalling non-critical load ip: 17186964 freq: 14
rob stalling non-critical load ip: 17186976 freq: 20
rob stalling non-critical load ip: 17186996 freq: 803
rob stalling non-critical load ip: 17187012 freq: 10
rob stalling non-critical load ip: 17187028 freq: 10
rob stalling non-critical load ip: 17187052 freq: 22
rob stalling non-critical load ip: 17187056 freq: 23
rob stalling non-critical load ip: 17187060 freq: 154
rob stalling non-critical load ip: 17187072 freq: 16
rob stalling non-critical load ip: 17187084 freq: 12
rob stalling non-critical load ip: 17187104 freq: 11
rob stalling non-critical load ip: 17187108 freq: 5
rob stalling non-critical load ip: 17187176 freq: 58
rob stalling non-critical load ip: 17187180 freq: 61
rob stalling non-critical load ip: 17187196 freq: 30
rob stalling non-critical load ip: 17187208 freq: 14
rob stalling non-critical load ip: 17187260 freq: 9
rob stalling non-critical load ip: 17187276 freq: 14
rob stalling non-critical load ip: 17187284 freq: 274
rob stalling non-critical load ip: 17187388 freq: 86
rob stalling non-critical load ip: 17187408 freq: 8
rob stalling non-critical load ip: 17187440 freq: 18
rob stalling non-critical load ip: 17187472 freq: 3
rob stalling non-critical load ip: 17187504 freq: 1
rob stalling non-critical load ip: 17188224 freq: 73
rob stalling non-critical load ip: 17188228 freq: 251
rob stalling non-critical load ip: 17188244 freq: 13
rob stalling non-critical load ip: 17188264 freq: 37
rob stalling non-critical load ip: 17188292 freq: 82
rob stalling non-critical load ip: 17188308 freq: 1277
rob stalling non-critical load ip: 17188316 freq: 84
rob stalling non-critical load ip: 17188320 freq: 19
rob stalling non-critical load ip: 17188652 freq: 1
rob stalling non-critical load ip: 17188784 freq: 1
rob stalling non-critical load ip: 17188792 freq: 1
rob stalling non-critical load ip: 17189416 freq: 304
rob stalling non-critical load ip: 17189432 freq: 38
rob stalling non-critical load ip: 17189488 freq: 698
rob stalling non-critical load ip: 17189504 freq: 4
rob stalling non-critical load ip: 17189520 freq: 2
rob stalling non-critical load ip: 17189536 freq: 233
rob stalling non-critical load ip: 17189616 freq: 21
rob stalling non-critical load ip: 17189632 freq: 42
rob stalling non-critical load ip: 17189652 freq: 10
rob stalling non-critical load ip: 17189660 freq: 24
rob stalling non-critical load ip: 17190268 freq: 84
rob stalling non-critical load ip: 17190288 freq: 30
rob stalling non-critical load ip: 17190300 freq: 59
rob stalling non-critical load ip: 17190304 freq: 2
rob stalling non-critical load ip: 17190324 freq: 19
rob stalling non-critical load ip: 17190384 freq: 50
rob stalling non-critical load ip: 17190412 freq: 412
rob stalling non-critical load ip: 17190420 freq: 122
rob stalling non-critical load ip: 17190436 freq: 65
rob stalling non-critical load ip: 17190504 freq: 240
rob stalling non-critical load ip: 17190516 freq: 654
rob stalling non-critical load ip: 17190600 freq: 61
rob stalling non-critical load ip: 17224964 freq: 17
rob stalling non-critical load ip: 17224980 freq: 1118
rob stalling non-critical load ip: 17224996 freq: 56
rob stalling non-critical load ip: 17225004 freq: 3
rob stalling non-critical load ip: 17225096 freq: 65
rob stalling non-critical load ip: 17225180 freq: 53
rob stalling non-critical load ip: 17225204 freq: 511
rob stalling non-critical load ip: 17225220 freq: 2658
rob stalling non-critical load ip: 17225292 freq: 177
rob stalling non-critical load ip: 17225312 freq: 10
rob stalling non-critical load ip: 17225488 freq: 33
rob stalling non-critical load ip: 17225500 freq: 717
rob stalling non-critical load ip: 17225528 freq: 106
rob stalling non-critical load ip: 17225540 freq: 21
rob stalling non-critical load ip: 17225580 freq: 21
rob stalling non-critical load ip: 17225876 freq: 61
rob stalling non-critical load ip: 17225984 freq: 112
rob stalling non-critical load ip: 17226112 freq: 143
rob stalling non-critical load ip: 17226208 freq: 166
rob stalling non-critical load ip: 17226228 freq: 13
rob stalling non-critical load ip: 17226296 freq: 84
rob stalling non-critical load ip: 17226320 freq: 43
rob stalling non-critical load ip: 17226332 freq: 40
rob stalling non-critical load ip: 17226532 freq: 106
rob stalling non-critical load ip: 17226796 freq: 5
rob stalling non-critical load ip: 17226812 freq: 7
rob stalling non-critical load ip: 17226856 freq: 8
rob stalling non-critical load ip: 17226872 freq: 34
rob stalling non-critical load ip: 17226948 freq: 108
rob stalling non-critical load ip: 17227476 freq: 5
rob stalling non-critical load ip: 17227512 freq: 3
rob stalling non-critical load ip: 17227628 freq: 1
rob stalling non-critical load ip: 17227896 freq: 5
rob stalling non-critical load ip: 17227996 freq: 97
rob stalling non-critical load ip: 17228012 freq: 3
rob stalling non-critical load ip: 17228024 freq: 79
rob stalling non-critical load ip: 17228052 freq: 1
rob stalling non-critical load ip: 17228064 freq: 10
rob stalling non-critical load ip: 17228160 freq: 16
rob stalling non-critical load ip: 17228276 freq: 2
rob stalling non-critical load ip: 17245100 freq: 3142
rob stalling non-critical load ip: 17245104 freq: 5
rob stalling non-critical load ip: 17245188 freq: 2
rob stalling non-critical load ip: 17247576 freq: 204
rob stalling non-critical load ip: 17247588 freq: 6
rob stalling non-critical load ip: 17247664 freq: 12
rob stalling non-critical load ip: 17247668 freq: 53
rob stalling non-critical load ip: 17247672 freq: 16
rob stalling non-critical load ip: 17247676 freq: 8
rob stalling non-critical load ip: 17247840 freq: 19
rob stalling non-critical load ip: 17247864 freq: 19
rob stalling non-critical load ip: 17247888 freq: 36
rob stalling non-critical load ip: 17247952 freq: 9
rob stalling non-critical load ip: 17247988 freq: 33
rob stalling non-critical load ip: 17248120 freq: 128
rob stalling non-critical load ip: 17248624 freq: 5
rob stalling non-critical load ip: 17248652 freq: 11
rob stalling non-critical load ip: 17252624 freq: 1
rob stalling non-critical load ip: 17254328 freq: 7
rob stalling non-critical load ip: 17295236 freq: 1
rob stalling non-critical load ip: 17296216 freq: 9
rob stalling non-critical load ip: 17296220 freq: 1
rob stalling non-critical load ip: 17296256 freq: 4
rob stalling non-critical load ip: 17296408 freq: 7
rob stalling non-critical load ip: 17296440 freq: 9
rob stalling non-critical load ip: 17296444 freq: 1
rob stalling non-critical load ip: 17297044 freq: 6
rob stalling non-critical load ip: 17298304 freq: 5
rob stalling non-critical load ip: 17301940 freq: 1
rob stalling non-critical load ip: 17302256 freq: 7
rob stalling non-critical load ip: 17302260 freq: 7
rob stalling non-critical load ip: 17302304 freq: 1
rob stalling non-critical load ip: 17302524 freq: 1
rob stalling non-critical load ip: 17302692 freq: 1
rob stalling non-critical load ip: 17302712 freq: 2
rob stalling non-critical load ip: 17307088 freq: 1
rob stalling non-critical load ip: 17310832 freq: 1
rob stalling non-critical load ip: 17310964 freq: 1
rob stalling non-critical load ip: 17311304 freq: 1
rob stalling non-critical load ip: 17311444 freq: 1
rob stalling non-critical load ip: 17410680 freq: 2
rob stalling non-critical load ip: 17410740 freq: 19
rob stalling non-critical load ip: 17410756 freq: 6
rob stalling non-critical load ip: 17506076 freq: 34
rob stalling non-critical load ip: 17506088 freq: 8
rob stalling non-critical load ip: 17506096 freq: 6
rob stalling non-critical load ip: 17506100 freq: 1
rob stalling non-critical load ip: 17506112 freq: 6
rob stalling non-critical load ip: 17506176 freq: 10
rob stalling non-critical load ip: 17506192 freq: 18
rob stalling non-critical load ip: 17506308 freq: 425
rob stalling non-critical load ip: 17506356 freq: 6
rob stalling non-critical load ip: 17506380 freq: 174
rob stalling non-critical load ip: 17506412 freq: 204
rob stalling non-critical load ip: 17506584 freq: 918
rob stalling non-critical load ip: 17506760 freq: 266
rob stalling non-critical load ip: 17506824 freq: 31
rob stalling non-critical load ip: 17506844 freq: 39
rob stalling non-critical load ip: 17506872 freq: 200
rob stalling non-critical load ip: 17506884 freq: 53
rob stalling non-critical load ip: 17506964 freq: 190
rob stalling non-critical load ip: 17506996 freq: 12
rob stalling non-critical load ip: 17507036 freq: 13
rob stalling non-critical load ip: 17507044 freq: 1036
rob stalling non-critical load ip: 17507048 freq: 7
rob stalling non-critical load ip: 17507056 freq: 10
rob stalling non-critical load ip: 17507064 freq: 8
rob stalling non-critical load ip: 17507072 freq: 75
rob stalling non-critical load ip: 17507160 freq: 41
rob stalling non-critical load ip: 17507196 freq: 9
rob stalling non-critical load ip: 17507228 freq: 14
rob stalling non-critical load ip: 17507324 freq: 4
rob stalling non-critical load ip: 17507336 freq: 5
rob stalling non-critical load ip: 17507380 freq: 8
rob stalling non-critical load ip: 17507396 freq: 2
rob stalling non-critical load ip: 17507428 freq: 82
rob stalling non-critical load ip: 17507476 freq: 19
rob stalling non-critical load ip: 17507492 freq: 7
rob stalling non-critical load ip: 17545664 freq: 10
rob stalling non-critical load ip: 17545696 freq: 2
rob stalling non-critical load ip: 17545732 freq: 5
rob stalling non-critical load ip: 17545908 freq: 11
rob stalling non-critical load ip: 17546088 freq: 61
rob stalling non-critical load ip: 17546104 freq: 13
rob stalling non-critical load ip: 17546120 freq: 21
rob stalling non-critical load ip: 17546260 freq: 16
rob stalling non-critical load ip: 17546280 freq: 4
rob stalling non-critical load ip: 17546300 freq: 6
rob stalling non-critical load ip: 17546416 freq: 10
rob stalling non-critical load ip: 17546692 freq: 8
rob stalling non-critical load ip: 17546908 freq: 5
rob stalling non-critical load ip: 17546944 freq: 7
rob stalling non-critical load ip: 17547028 freq: 5
rob stalling non-critical load ip: 17547352 freq: 41
[...]
Critical_ROB_Stalls_Percent_1_Bucket_6: 3431
Non-critical_ROB_Stalls_Percent_1_Bucket_6: 1624
Critical_ROB_Stalls_Percent_2_Bucket_0: 493014
Non-critical_ROB_Stalls_Percent_2_Bucket_0: 318684
Critical_ROB_Stalls_Percent_2_Bucket_1: 28740
Non-critical_ROB_Stalls_Percent_2_Bucket_1: 30834
Critical_ROB_Stalls_Percent_2_Bucket_2: 3215
Non-critical_ROB_Stalls_Percent_2_Bucket_2: 4071
Critical_ROB_Stalls_Percent_2_Bucket_3: 3244
Non-critical_ROB_Stalls_Percent_2_Bucket_3: 2057
Critical_ROB_Stalls_Percent_2_Bucket_4: 3817
Non-critical_ROB_Stalls_Percent_2_Bucket_4: 1052
Critical_ROB_Stalls_Percent_2_Bucket_5: 3811
Non-critical_ROB_Stalls_Percent_2_Bucket_5: 959
Critical_ROB_Stalls_Percent_2_Bucket_6: 3436
Non-critical_ROB_Stalls_Percent_2_Bucket_6: 1619
Critical_ROB_Stalls_Percent_3_Bucket_0: 532417
Non-critical_ROB_Stalls_Percent_3_Bucket_0: 279281
Critical_ROB_Stalls_Percent_3_Bucket_1: 32072
Non-critical_ROB_Stalls_Percent_3_Bucket_1: 27502
Critical_ROB_Stalls_Percent_3_Bucket_2: 3324
Non-critical_ROB_Stalls_Percent_3_Bucket_2: 3962
Critical_ROB_Stalls_Percent_3_Bucket_3: 3397
Non-critical_ROB_Stalls_Percent_3_Bucket_3: 1904
Critical_ROB_Stalls_Percent_3_Bucket_4: 3861
Non-critical_ROB_Stalls_Percent_3_Bucket_4: 1008
Critical_ROB_Stalls_Percent_3_Bucket_5: 3842
Non-critical_ROB_Stalls_Percent_3_Bucket_5: 928
Critical_ROB_Stalls_Percent_3_Bucket_6: 3472
Non-critical_ROB_Stalls_Percent_3_Bucket_6: 1583
Critical_ROB_Stalls_Percent_4_Bucket_0: 575212
Non-critical_ROB_Stalls_Percent_4_Bucket_0: 236486
Critical_ROB_Stalls_Percent_4_Bucket_1: 33080
Non-critical_ROB_Stalls_Percent_4_Bucket_1: 26494
Critical_ROB_Stalls_Percent_4_Bucket_2: 3399
Non-critical_ROB_Stalls_Percent_4_Bucket_2: 3887
Critical_ROB_Stalls_Percent_4_Bucket_3: 3436
Non-critical_ROB_Stalls_Percent_4_Bucket_3: 1865
Critical_ROB_Stalls_Percent_4_Bucket_4: 3892
Non-critical_ROB_Stalls_Percent_4_Bucket_4: 977
Critical_ROB_Stalls_Percent_4_Bucket_5: 3851
Non-critical_ROB_Stalls_Percent_4_Bucket_5: 919
Critical_ROB_Stalls_Percent_4_Bucket_6: 3478
Non-critical_ROB_Stalls_Percent_4_Bucket_6: 1577
Critical_ROB_Stalls_Percent_5_Bucket_0: 616090
Non-critical_ROB_Stalls_Percent_5_Bucket_0: 195608
Critical_ROB_Stalls_Percent_5_Bucket_1: 35661
Non-critical_ROB_Stalls_Percent_5_Bucket_1: 23913
Critical_ROB_Stalls_Percent_5_Bucket_2: 3544
Non-critical_ROB_Stalls_Percent_5_Bucket_2: 3742
Critical_ROB_Stalls_Percent_5_Bucket_3: 3448
Non-critical_ROB_Stalls_Percent_5_Bucket_3: 1853
Critical_ROB_Stalls_Percent_5_Bucket_4: 3895
Non-critical_ROB_Stalls_Percent_5_Bucket_4: 974
Critical_ROB_Stalls_Percent_5_Bucket_5: 3853
Non-critical_ROB_Stalls_Percent_5_Bucket_5: 917
Critical_ROB_Stalls_Percent_5_Bucket_6: 3479
Non-critical_ROB_Stalls_Percent_5_Bucket_6: 1576
Critical_ROB_Stalls_Percent_6_Bucket_0: 657397
Non-critical_ROB_Stalls_Percent_6_Bucket_0: 154301
Critical_ROB_Stalls_Percent_6_Bucket_1: 38295
Non-critical_ROB_Stalls_Percent_6_Bucket_1: 21279
Critical_ROB_Stalls_Percent_6_Bucket_2: 3737
Non-critical_ROB_Stalls_Percent_6_Bucket_2: 3549
Critical_ROB_Stalls_Percent_6_Bucket_3: 3586
Non-critical_ROB_Stalls_Percent_6_Bucket_3: 1715
Critical_ROB_Stalls_Percent_6_Bucket_4: 3954
Non-critical_ROB_Stalls_Percent_6_Bucket_4: 915
Critical_ROB_Stalls_Percent_6_Bucket_5: 3874
Non-critical_ROB_Stalls_Percent_6_Bucket_5: 896
Critical_ROB_Stalls_Percent_6_Bucket_6: 3502
Non-critical_ROB_Stalls_Percent_6_Bucket_6: 1553
Critical_ROB_Stalls_Percent_7_Bucket_0: 697315
Non-critical_ROB_Stalls_Percent_7_Bucket_0: 114383
Critical_ROB_Stalls_Percent_7_Bucket_1: 41917
Non-critical_ROB_Stalls_Percent_7_Bucket_1: 17657
Critical_ROB_Stalls_Percent_7_Bucket_2: 4326
Non-critical_ROB_Stalls_Percent_7_Bucket_2: 2960
Critical_ROB_Stalls_Percent_7_Bucket_3: 3760
Non-critical_ROB_Stalls_Percent_7_Bucket_3: 1541
Critical_ROB_Stalls_Percent_7_Bucket_4: 4033
Non-critical_ROB_Stalls_Percent_7_Bucket_4: 836
Critical_ROB_Stalls_Percent_7_Bucket_5: 3946
Non-critical_ROB_Stalls_Percent_7_Bucket_5: 824
Critical_ROB_Stalls_Percent_7_Bucket_6: 3654
Non-critical_ROB_Stalls_Percent_7_Bucket_6: 1401
Critical_ROB_Stalls_Percent_8_Bucket_0: 737777
Non-critical_ROB_Stalls_Percent_8_Bucket_0: 73921
Critical_ROB_Stalls_Percent_8_Bucket_1: 44524
Non-critical_ROB_Stalls_Percent_8_Bucket_1: 15050
Critical_ROB_Stalls_Percent_8_Bucket_2: 4864
Non-critical_ROB_Stalls_Percent_8_Bucket_2: 2422
Critical_ROB_Stalls_Percent_8_Bucket_3: 4102
Non-critical_ROB_Stalls_Percent_8_Bucket_3: 1199
Critical_ROB_Stalls_Percent_8_Bucket_4: 4196
Non-critical_ROB_Stalls_Percent_8_Bucket_4: 673
Critical_ROB_Stalls_Percent_8_Bucket_5: 4103
Non-critical_ROB_Stalls_Percent_8_Bucket_5: 667
Critical_ROB_Stalls_Percent_8_Bucket_6: 4041
Non-critical_ROB_Stalls_Percent_8_Bucket_6: 1014
Average ROB occupancy Load Stall Begin: 20.2944
Average ROB occupancy Load Stall End: 24.7602
Min ROB occupancy Load Stall Begin: 1
Max ROB occupancy Load Stall Begin: 351
Min ROB occupancy Load Stall End: 1
Max ROB occupancy Load Stall End: 352
Average ROB occupancy Critical Load Stall Begin: -nan
Average ROB occupancy Critical Load Stall End: -nan
Min ROB occupancy Critical Load Stall Begin: 400
Max ROB occupancy Critical Load Stall Begin: 0
Min ROB occupancy Critical Load Stall End: 400
Max ROB occupancy Critical Load Stall End: 0
 ROB Load Stall Begin Bucket Count 0: 828161
 ROB Load Stall End Bucket Count 0: 811698
 ROB Critical Load Stall Begin Bucket Count 0: 0
 ROB Critical Load Stall End Bucket Count 0: 0
 ROB Load Stall Begin Bucket Count 1: 46289
 ROB Load Stall End Bucket Count 1: 59574
 ROB Critical Load Stall Begin Bucket Count 1: 0
 ROB Critical Load Stall End Bucket Count 1: 0
 ROB Load Stall Begin Bucket Count 2: 6354
 ROB Load Stall End Bucket Count 2: 7286
 ROB Critical Load Stall Begin Bucket Count 2: 0
 ROB Critical Load Stall End Bucket Count 2: 0
 ROB Load Stall Begin Bucket Count 3: 4550
 ROB Load Stall End Bucket Count 3: 5301
 ROB Critical Load Stall Begin Bucket Count 3: 0
 ROB Critical Load Stall End Bucket Count 3: 0
 ROB Load Stall Begin Bucket Count 4: 5008
 ROB Load Stall End Bucket Count 4: 4869
 ROB Critical Load Stall Begin Bucket Count 4: 0
 ROB Critical Load Stall End Bucket Count 4: 0
 ROB Load Stall Begin Bucket Count 5: 4415
 ROB Load Stall End Bucket Count 5: 4770
 ROB Critical Load Stall Begin Bucket Count 5: 0
 ROB Critical Load Stall End Bucket Count 5: 0
 ROB Load Stall Begin Bucket Count 6: 3776
 ROB Load Stall End Bucket Count 6: 5055
 ROB Critical Load Stall Begin Bucket Count 6: 0
 ROB Critical Load Stall End Bucket Count 6: 0
PIST Tag Read Accesses: 95798
PIST Read Accesses: 47899
PIST Tag Write Accesses: 95798
PIST Write Accesses: 47899
Criticality detector called times: 290674
Max global_stall_cycles_count: 137057
Threshold Modified: 1 times, factor: -1
Sturdy critical IP cache stats: 
 Unused entries: 0
CIC Tag Read Accesses: 0
CIC Read Accesses: 0
CIC Tag Write Accesses: 0
CIC Write Accesses: 0
Wobbly critical IP cache stats: 
 Unused entries: 122
CIC Tag Read Accesses: 51551345
CIC Read Accesses: 0
CIC Tag Write Accesses: 8
CIC Write Accesses: 0
ITLB TOTAL     ACCESS:    8897914  HIT:    7709068  MISS:    1188846  HIT %:     86.639  MISS %:     13.361   MPKI: 23.7769
ITLB LOAD TRANSLATION ACCESS:    8897914  HIT:    7709068  MISS:    1188846  HIT %:     86.639  MISS %:     13.361   MPKI: 23.7769
ITLB PREFETCH  REQUESTED:          0  ISSUED:          0  USEFUL:          0  USELESS:          0
ITLB USEFUL LOAD PREFETCHES:          0 PREFETCH ISSUED TO LOWER LEVEL:          0  ACCURACY: -nan
ITLB TIMELY PREFETCHES:          0 LATE PREFETCHES: 0 DROPPED PREFETCHES: 0
ITLB PREFETCHES SAME FILL-ORIGIN LEVEL: 0 DIFFERENT FILL-ORIGIN LEVEL: 0
ITLB AVERAGE MISS LATENCY: 31.6583 cycles
ITLB RQ	ACCESS:   10726603	FORWARD:          0	MERGED:    1390052	TO_CACHE:    9336551

DTLB TOTAL     ACCESS:    6385338  HIT:    4518434  MISS:    1866904  HIT %:    70.7626  MISS %:    29.2374   MPKI: 37.3381
DTLB LOAD TRANSLATION ACCESS:    6385338  HIT:    4518434  MISS:    1866904  HIT %:    70.7626  MISS %:    29.2374   MPKI: 37.3381
DTLB PREFETCH  REQUESTED:          0  ISSUED:          0  USEFUL:          0  USELESS:          0
DTLB USEFUL LOAD PREFETCHES:          0 PREFETCH ISSUED TO LOWER LEVEL:          0  ACCURACY: -nan
DTLB TIMELY PREFETCHES:          0 LATE PREFETCHES: 0 DROPPED PREFETCHES: 0
DTLB PREFETCHES SAME FILL-ORIGIN LEVEL: 0 DIFFERENT FILL-ORIGIN LEVEL: 0
DTLB AVERAGE MISS LATENCY: 32.3914 cycles
DTLB RQ	ACCESS:    9141419	FORWARD:          0	MERGED:    2407758	TO_CACHE:    6733661

STLB TOTAL     ACCESS:    3055751  HIT:     688305  MISS:    2367446  HIT %:    22.5249  MISS %:    77.4751   MPKI: 47.3489
STLB LOAD TRANSLATION ACCESS:    3055751  HIT:     688305  MISS:    2367446  HIT %:    22.5249  MISS %:    77.4751   MPKI: 47.3489
STLB PREFETCH  REQUESTED:          0  ISSUED:          0  USEFUL:          0  USELESS:          0
STLB USEFUL LOAD PREFETCHES:          0 PREFETCH ISSUED TO LOWER LEVEL:          0  ACCURACY: -nan
STLB TIMELY PREFETCHES:          0 LATE PREFETCHES: 0 DROPPED PREFETCHES: 0
STLB PREFETCHES SAME FILL-ORIGIN LEVEL: 0 DIFFERENT FILL-ORIGIN LEVEL: 0
STLB AVERAGE MISS LATENCY: 29.7372 cycles
STLB RQ	ACCESS:    3055751	FORWARD:          0	MERGED:          0	TO_CACHE:    3055751

STLB Hit, L1D data hit: 0
STLB Hit, L2C data hit: 0
STLB Hit, LLC data hit: 0
STLB Hit, LLC data miss: 0
STLB STLB hints to L2: 0
L1D TOTAL     ACCESS:    8720590  HIT:    8166467  MISS:     554123  HIT %:    93.6458  MISS %:    6.35419   MPKI: 11.0825
L1D LOAD      ACCESS:    5277825  HIT:    4846284  MISS:     431541  HIT %:    91.8235  MISS %:    8.17649   MPKI: 8.63082
L1D RFO       ACCESS:    3442765  HIT:    3320183  MISS:     122582  HIT %:    96.4394  MISS %:    3.56057   MPKI: 2.45164
L1D PREFETCH  REQUESTED:          0  ISSUED:          0  USEFUL:          0  USELESS:          0
L1D USEFUL LOAD PREFETCHES:          0 PREFETCH ISSUED TO LOWER LEVEL:          0  ACCURACY: -nan
L1D TIMELY PREFETCHES:          0 LATE PREFETCHES: 0 DROPPED PREFETCHES: 0
L1D PREFETCHES SAME FILL-ORIGIN LEVEL: 0 DIFFERENT FILL-ORIGIN LEVEL: 0
L1D AVERAGE MISS LATENCY: 45.1771 cycles
L1D RQ	ACCESS:    8889980	FORWARD:          0	MERGED:    3564648	TO_CACHE:    5304552
L1D WQ	ACCESS:    3869637	FORWARD:      20780	MERGED:      32770	TO_CACHE:    3836867

L1D UNIQUE REGIONS ACCESSED: 0
L1D REGIONS CONFLICTS: 0
L1D Cross Page Prefetch Requests: 0
L1D Same Page Prefetch Requests: 0
L1D ROI Sum of L1D PQ occupancy: 0
L1D PREFETCHES PUSHED FROM L2C: 0
L1I TOTAL     ACCESS:   10227376  HIT:    8601582  MISS:    1625794  HIT %:    84.1035  MISS %:    15.8965   MPKI: 32.5159
L1I LOAD      ACCESS:   10227376  HIT:    8601582  MISS:    1625794  HIT %:    84.1035  MISS %:    15.8965   MPKI: 32.5159
L1I PREFETCH  REQUESTED:          0  ISSUED:          0  USEFUL:          0  USELESS:          0
L1I USEFUL LOAD PREFETCHES:          0 PREFETCH ISSUED TO LOWER LEVEL:          0  ACCURACY: -nan
L1I TIMELY PREFETCHES:          0 LATE PREFETCHES: 0 DROPPED PREFETCHES: 0
L1I PREFETCHES SAME FILL-ORIGIN LEVEL: 0 DIFFERENT FILL-ORIGIN LEVEL: 0
L1I AVERAGE MISS LATENCY: 15.5009 cycles
L1I RQ	ACCESS:   19051778	FORWARD:          0	MERGED:    8325175	TO_CACHE:   10726603

BTB BRANCH_DIRECT_JUMP	ACCESS:          0  HIT:          0  MISS:          0
BTB BRANCH_INDIRECT	ACCESS:          0  HIT:          0  MISS:          0
BTB BRANCH_CONDITIONAL	ACCESS:          0  HIT:          0  MISS:          0
BTB BRANCH_DIRECT_CALL	ACCESS:          0  HIT:          0  MISS:          0
BTB BRANCH_INDIRECT_CALL	ACCESS:          0  HIT:          0  MISS:          0
BTB BRANCH_RETURN	ACCESS:          0  HIT:          0  MISS:          0
BTB BRANCH_OTHER ACCESS:          0  HIT:          0  MISS:          0

L2C TOTAL     ACCESS:    5380749  HIT:    5038468  MISS:     342281  HIT %:    93.6388  MISS %:    6.36121   MPKI: 6.84562
L2C LOAD      ACCESS:    2057323  HIT:    1952002  MISS:     105321  HIT %:    94.8807  MISS %:    5.11932   MPKI: 2.10642
L2C DATA LOAD MPKI: 1.40028
L2C INSTRUCTION LOAD MPKI: 0.70614
L2C RFO       ACCESS:     122569  HIT:      62088  MISS:      60481  HIT %:    50.6555  MISS %:    49.3445   MPKI: 1.20962
L2C PREFETCH  ACCESS:     279188  HIT:     121713  MISS:     157475  HIT %:    43.5954  MISS %:    56.4046   MPKI: 3.1495
L2C DATA PREFETCH MPKI: 3.1495
L2C INSTRUCTION PREFETCH MPKI: 0
L2C WRITEBACK ACCESS:     227407  HIT:     222030  MISS:       5377  HIT %:    97.6355  MISS %:    2.36448   MPKI: 0.10754
L2C LOAD TRANSLATION ACCESS:    2694262  HIT:    2680635  MISS:      13627  HIT %:    99.4942  MISS %:   0.505779   MPKI: 0.27254
L2C PREFETCH  REQUESTED:     295776  ISSUED:     295776  USEFUL:     118676  USELESS:      38726
L2C USEFUL LOAD PREFETCHES:     118676 PREFETCH ISSUED TO LOWER LEVEL:     164010  ACCURACY: 72.359
L2C TIMELY PREFETCHES:     118676 LATE PREFETCHES: 6535 DROPPED PREFETCHES: 0
L2C PREFETCHES SAME FILL-ORIGIN LEVEL: 164010 DIFFERENT FILL-ORIGIN LEVEL: 0
L2C AVERAGE MISS LATENCY: 135.635 cycles
L2C RQ	ACCESS:    4874179	FORWARD:          0	MERGED:          0	TO_CACHE:    4874156
L2C WQ	ACCESS:     227407	FORWARD:         23	MERGED:          0	TO_CACHE:     227407
L2C PQ	ACCESS:     295776	FORWARD:          0	MERGED:          0	TO_CACHE:     295776

L2C Instructions Evicting Data 27421
L2C Translations Evicting Data 11497
L2C Data Evicting Data 248496
L2C Instructions Evicting Instructions 6454
L2C Translations Evicting Instructions 1526
L2C Data Evicting Instructions 27859
L2C Instructions Evicting Translations 1432
L2C Translations Evicting Translations 604
L2C Data Evicting Translations 11615
L2C Dense regions hint from L2: 0
PSCL5 TOTAL     ACCESS:    2367446  HIT:    2367446  MISS:          0  HIT %:        100  MISS %:          0   MPKI: 0
PSCL5 LOAD TRANSLATION ACCESS:    2367446  HIT:    2367446  MISS:          0  HIT %:        100  MISS %:          0   MPKI: 0
PSCL5 PREFETCH  REQUESTED:          0  ISSUED:          0  USEFUL:          0  USELESS:          0
PSCL5 USEFUL LOAD PREFETCHES:          0 PREFETCH ISSUED TO LOWER LEVEL:          0  ACCURACY: -nan
PSCL5 TIMELY PREFETCHES:          0 LATE PREFETCHES: 0 DROPPED PREFETCHES: 0
PSCL5 PREFETCHES SAME FILL-ORIGIN LEVEL: 0 DIFFERENT FILL-ORIGIN LEVEL: 0

PSCL4 TOTAL     ACCESS:    2366632  HIT:    2366627  MISS:          5  HIT %:    99.9998  MISS %: 0.000211271   MPKI: 0.0001
PSCL4 LOAD TRANSLATION ACCESS:    2366632  HIT:    2366627  MISS:          5  HIT %:    99.9998  MISS %: 0.000211271   MPKI: 0.0001
PSCL4 PREFETCH  REQUESTED:          0  ISSUED:          0  USEFUL:          0  USELESS:          0
PSCL4 USEFUL LOAD PREFETCHES:          0 PREFETCH ISSUED TO LOWER LEVEL:          0  ACCURACY: -nan
PSCL4 TIMELY PREFETCHES:          0 LATE PREFETCHES: 0 DROPPED PREFETCHES: 0
PSCL4 PREFETCHES SAME FILL-ORIGIN LEVEL: 0 DIFFERENT FILL-ORIGIN LEVEL: 0

PSCL3 TOTAL     ACCESS:    2366883  HIT:    2366693  MISS:        190  HIT %:     99.992  MISS %: 0.00802744   MPKI: 0.0038
PSCL3 LOAD TRANSLATION ACCESS:    2366883  HIT:    2366693  MISS:        190  HIT %:     99.992  MISS %: 0.00802744   MPKI: 0.0038
PSCL3 PREFETCH  REQUESTED:          0  ISSUED:          0  USEFUL:          0  USELESS:          0
PSCL3 USEFUL LOAD PREFETCHES:          0 PREFETCH ISSUED TO LOWER LEVEL:          0  ACCURACY: -nan
PSCL3 TIMELY PREFETCHES:          0 LATE PREFETCHES: 0 DROPPED PREFETCHES: 0
PSCL3 PREFETCHES SAME FILL-ORIGIN LEVEL: 0 DIFFERENT FILL-ORIGIN LEVEL: 0

PSCL2 TOTAL     ACCESS:    2367446  HIT:    2040683  MISS:     326763  HIT %:    86.1977  MISS %:    13.8023   MPKI: 6.53526
PSCL2 LOAD TRANSLATION ACCESS:    2367446  HIT:    2040683  MISS:     326763  HIT %:    86.1977  MISS %:    13.8023   MPKI: 6.53526
PSCL2 PREFETCH  REQUESTED:          0  ISSUED:          0  USEFUL:          0  USELESS:          0
PSCL2 USEFUL LOAD PREFETCHES:          0 PREFETCH ISSUED TO LOWER LEVEL:          0  ACCURACY: -nan
PSCL2 TIMELY PREFETCHES:          0 LATE PREFETCHES: 0 DROPPED PREFETCHES: 0
PSCL2 PREFETCHES SAME FILL-ORIGIN LEVEL: 0 DIFFERENT FILL-ORIGIN LEVEL: 0

LLC TOTAL     ACCESS:     428243  HIT:     213309  MISS:     214934  HIT %:    49.8103  MISS %:    50.1897   MPKI: 4.29868
LLC LOAD      ACCESS:      98793  HIT:      65613  MISS:      33180  HIT %:    66.4146  MISS %:    33.5854   MPKI: 0.6636
LLC RFO       ACCESS:      60473  HIT:      17984  MISS:      42489  HIT %:    29.7389  MISS %:    70.2611   MPKI: 0.84978
LLC PREFETCH  ACCESS:     164009  HIT:      30773  MISS:     133236  HIT %:     18.763  MISS %:     81.237   MPKI: 2.66472
LLC WRITEBACK ACCESS:      91341  HIT:      90009  MISS:       1332  HIT %:    98.5417  MISS %:    1.45827   MPKI: 0.02664
LLC LOAD TRANSLATION ACCESS:      13627  HIT:       8930  MISS:       4697  HIT %:    65.5317  MISS %:    34.4683   MPKI: 0.09394
LLC PREFETCH  REQUESTED:          0  ISSUED:          0  USEFUL:       1598  USELESS:     120654
LLC USEFUL LOAD PREFETCHES:       1598 PREFETCH ISSUED TO LOWER LEVEL:     133236  ACCURACY: 1.19938
LLC TIMELY PREFETCHES:       1598 LATE PREFETCHES: 0 DROPPED PREFETCHES: 0
LLC PREFETCHES SAME FILL-ORIGIN LEVEL: 0 DIFFERENT FILL-ORIGIN LEVEL: 0
LLC AVERAGE MISS LATENCY: 170.037 cycles
LLC RQ	ACCESS:     172894	FORWARD:          0	MERGED:          0	TO_CACHE:     172893
LLC WQ	ACCESS:      91341	FORWARD:          2	MERGED:          0	TO_CACHE:      91341
LLC PQ	ACCESS:     164010	FORWARD:          0	MERGED:          0	TO_CACHE:     164009

LLC Dense regions hint to LLC: 0

RAW hits: 162780
Loads Generated: 9052760
Loads sent to L1D: 8889980
Stores Generated: 3869637
Stores sent to L1D: 3869637
Major fault: 0 Minor fault: 14712
Allocated PAGES: 14712
[Bingo] PHT Access: 118117
[Bingo] PHT Hit PC+Addr: 56672
[Bingo] PHT Hit PC+Offs: 26643
[Bingo] PHT Miss: 34802
[Bingo] Prefetch PC+Addr: 0
[Bingo] Prefetch PC+Offs: 0
[Bingo] Useful PC+Addr: 0
[Bingo] Useful PC+Offs: 0
[Bingo] Useless PC+Addr: 0
[Bingo] Useless PC+Offs: 0
[Bingo] L1 Prefetch per Region: 0
[Bingo] L2 Prefetch per Region: 4.57633
[Bingo] L3 Prefetch per Region: 0
[Bingo] No Prefetch per Region: 27.4237
[Bingo] Number of Voters Mean: 8.2204
[Bingo] Number of Voters SD: 11.155
PHT read accesses: 977672
PHT write accesses: 40035
AT read accesses: 309053
AT write accesses: 337056
FT read accesses: 157687
FT write accesses: 118117
PS read accesses: 178000
PS write accesses: 83315
PHT tag read accesses: 2133444
PHT tag write accesses: 96707
AT tag read accesses: 14211388
AT tag write accesses: 349087
FT tag read accesses: 12347632
FT tag write accesses: 219378
PS tag read accesses: 10283800
PS tag write accesses: 260907

DRAM Statistics
 CHANNEL 0
 RQ ROW_BUFFER_HIT:     130488  ROW_BUFFER_MISS:      83113
 DBUS_CONGESTED:         99
 WQ ROW_BUFFER_HIT:       7894  ROW_BUFFER_MISS:      51291  FULL:          0

 AVG_CONGESTED_CYCLE: 4
 All warmup complete: 2
Channel 0 Bank busy for read cycles: 0
Channel 0 Bank busy for write cycles: 0
Channel 0
Rank 0
0banks busy for read cycles: 81027820
0banks busy for write cycles: 10230
1banks busy for read cycles: 2769389
1banks busy for write cycles: 1206319
2banks busy for read cycles: 1217357
2banks busy for write cycles: 561250
3banks busy for read cycles: 512272
3banks busy for write cycles: 345127
4banks busy for read cycles: 306261
4banks busy for write cycles: 239678
5banks busy for read cycles: 211737
5banks busy for write cycles: 186889
6banks busy for read cycles: 165499
6banks busy for write cycles: 153345
7banks busy for read cycles: 289168
7banks busy for write cycles: 157662
8banks busy for read cycles: 880023
8banks busy for write cycles: 394423

CPU 0 Branch Prediction Accuracy: 99.0416% MPKI: 1.75814 Average ROB Occupancy at Mispredict: 27.1709
Branch types
NOT_BRANCH: 0 0%
BRANCH_DIRECT_JUMP: 0 0%
BRANCH_INDIRECT: 0 0%
BRANCH_CONDITIONAL: 0 0%
BRANCH_DIRECT_CALL: 0 0%
BRANCH_INDIRECT_CALL: 0 0%
BRANCH_RETURN: 0 0%
BRANCH_OTHER: 0 0%

DRAM PAGES: 1048576
Allocated PAGES: 14712
