
*** ChampSim Multicore Out-of-Order Simulator ***

Warmup Instructions: 50000000
Simulation Instructions: 50000000
Number of CPUs: 1
LLC sets: 2048
LLC ways: 16
Off-chip DRAM Size: 4096 MB Channels: 1 Width: 64-bit Data Rate: 6400 MT/s
CPU 0 runs ../cloudsuite_traces//streaming_phase2_core1.trace.gz
.gz
NUM_OF_IPS_IN_CRITICAL_IP_TRAINING: 64
NUM_OF_CRITICAL_IP_TRAINING_TABLE_WAYS: 2
NUM_OF_CRITICAL_IP_TRAINING_TABLE_SETS: 32
WOBBLY_CRITICAL_IP_CACHE_SETS: 32
WOBBLY_CRITICAL_IP_CACHE_WAYS: 4
BTB has LRU replacement policy
ITLB has LRU replacement policy
DTLB has LRU replacement policy
STLB has LRU replacement policy
L1I has LRU replacement policy
L1D has LRU replacement policy
Bingo PHT WAYS: 16 and PHT_SIZE: 16384
Initialize SRRIP state for L2C
Initialize DRRIP state for LLC
UNIQUE_ASID[0] = €
UNIQUE_ASID[1] = 
Heartbeat CPU 0 instructions: 10000000 cycles: 3381615 heartbeat IPC: 2.95717 cumulative IPC: 2.95717 (Simulation time: 0 hr 3 min 26 sec) 
Heartbeat CPU 0 instructions: 20000001 cycles: 6775526 heartbeat IPC: 2.94645 cumulative IPC: 2.9518 (Simulation time: 0 hr 6 min 37 sec) 
Heartbeat CPU 0 instructions: 30000001 cycles: 10167212 heartbeat IPC: 2.94839 cumulative IPC: 2.95066 (Simulation time: 0 hr 9 min 40 sec) 
Heartbeat CPU 0 instructions: 40000000 cycles: 13549732 heartbeat IPC: 2.95638 cumulative IPC: 2.95209 (Simulation time: 0 hr 12 min 47 sec) 
Heartbeat CPU 0 instructions: 50000000 cycles: 16944497 heartbeat IPC: 2.94571 cumulative IPC: 2.95081 (Simulation time: 0 hr 15 min 37 sec) 

Warmup complete CPU 0 instructions: 50000004 cycles: 16944498 (Simulation time: 0 hr 15 min 37 sec) 

% increase in all ip prefetch 391.905
% increase in all ip prefetch -4.41939
Heartbeat CPU 0 instructions: 60000000 cycles: 34908808 heartbeat IPC: 0.556659 cumulative IPC: 0.556659 (Simulation time: 0 hr 19 min 57 sec) 
Heartbeat CPU 0 instructions: 70000000 cycles: 51826444 heartbeat IPC: 0.591099 cumulative IPC: 0.573362 (Simulation time: 0 hr 23 min 16 sec) 
Heartbeat CPU 0 instructions: 80000001 cycles: 67312117 heartbeat IPC: 0.645758 cumulative IPC: 0.595621 (Simulation time: 0 hr 25 min 57 sec) 
Heartbeat CPU 0 instructions: 90000002 cycles: 83563103 heartbeat IPC: 0.615347 cumulative IPC: 0.600433 (Simulation time: 0 hr 28 min 56 sec) 
Heartbeat CPU 0 instructions: 100000000 cycles: 101202322 heartbeat IPC: 0.566918 cumulative IPC: 0.593417 (Simulation time: 0 hr 32 min 48 sec) 
Finished CPU 0 instructions: 50000000 cycles: 84257852 cumulative IPC: 0.593416 (Simulation time: 0 hr 32 min 48 sec) 

ChampSim completed all CPUs

Region of Interest Statistics

CPU 0 cumulative IPC: 0.593416 instructions: 50000000 cycles: 84257852

CPU 0 Average Load ROB stall cycles: 8.56793e+06
CPU 0 Fraction of times ROB stalled by Loads: 14.1948
CPU 0 Percentage of Load stall cycles in Total stall cycles: 1.42221e+08
 Total stall cycles: 55633630
 Total load stall cycles: 79122975108507
CPU 0 NUM of IPS identified critical: 0
CPU 0 Num of Load IPs stalling ROB: 2229
Threshold modification factor: -1
Max PIST entries: 64
Min PIST entries: 0
Avg PIST entries: 25.69
Critical IP stalls, total frequency: 0
rob stalling non-critical load ip: 236068 freq: 46
rob stalling non-critical load ip: 236144 freq: 51
rob stalling non-critical load ip: 236148 freq: 15
rob stalling non-critical load ip: 241788 freq: 37
rob stalling non-critical load ip: 241796 freq: 2066
rob stalling non-critical load ip: 241836 freq: 22
rob stalling non-critical load ip: 241972 freq: 61
rob stalling non-critical load ip: 241992 freq: 30
rob stalling non-critical load ip: 241996 freq: 44
rob stalling non-critical load ip: 242000 freq: 29
rob stalling non-critical load ip: 242020 freq: 32
rob stalling non-critical load ip: 242112 freq: 1
rob stalling non-critical load ip: 242148 freq: 52
rob stalling non-critical load ip: 242156 freq: 93
rob stalling non-critical load ip: 242176 freq: 719
rob stalling non-critical load ip: 242180 freq: 1633
rob stalling non-critical load ip: 242184 freq: 140
rob stalling non-critical load ip: 242208 freq: 55
rob stalling non-critical load ip: 242224 freq: 30
rob stalling non-critical load ip: 242232 freq: 23
rob stalling non-critical load ip: 242236 freq: 1
rob stalling non-critical load ip: 245668 freq: 702
rob stalling non-critical load ip: 245676 freq: 68
rob stalling non-critical load ip: 245716 freq: 6
rob stalling non-critical load ip: 245732 freq: 15
rob stalling non-critical load ip: 245792 freq: 8
rob stalling non-critical load ip: 245800 freq: 140
rob stalling non-critical load ip: 245804 freq: 2
rob stalling non-critical load ip: 245816 freq: 4
rob stalling non-critical load ip: 245848 freq: 162
rob stalling non-critical load ip: 245860 freq: 16
rob stalling non-critical load ip: 245864 freq: 31
rob stalling non-critical load ip: 245876 freq: 24
rob stalling non-critical load ip: 245880 freq: 31
rob stalling non-critical load ip: 245892 freq: 10
rob stalling non-critical load ip: 246008 freq: 24
rob stalling non-critical load ip: 246168 freq: 39
rob stalling non-critical load ip: 246204 freq: 325
rob stalling non-critical load ip: 246216 freq: 281
rob stalling non-critical load ip: 246244 freq: 1433
rob stalling non-critical load ip: 246256 freq: 6
rob stalling non-critical load ip: 246344 freq: 229
rob stalling non-critical load ip: 246356 freq: 2
rob stalling non-critical load ip: 287024 freq: 15
rob stalling non-critical load ip: 287060 freq: 27
rob stalling non-critical load ip: 287088 freq: 13
rob stalling non-critical load ip: 287108 freq: 26
rob stalling non-critical load ip: 287112 freq: 9
rob stalling non-critical load ip: 287220 freq: 28
rob stalling non-critical load ip: 287244 freq: 25
rob stalling non-critical load ip: 287248 freq: 155
rob stalling non-critical load ip: 287268 freq: 20
rob stalling non-critical load ip: 300124 freq: 35
rob stalling non-critical load ip: 300132 freq: 2
rob stalling non-critical load ip: 300172 freq: 3
rob stalling non-critical load ip: 300192 freq: 2
rob stalling non-critical load ip: 300224 freq: 4
rob stalling non-critical load ip: 300836 freq: 39
rob stalling non-critical load ip: 300840 freq: 289
rob stalling non-critical load ip: 300848 freq: 162
rob stalling non-critical load ip: 300912 freq: 214
rob stalling non-critical load ip: 300936 freq: 14
rob stalling non-critical load ip: 300964 freq: 675
rob stalling non-critical load ip: 301000 freq: 1
rob stalling non-critical load ip: 301048 freq: 1
rob stalling non-critical load ip: 301056 freq: 2
rob stalling non-critical load ip: 301188 freq: 31
rob stalling non-critical load ip: 301524 freq: 12
rob stalling non-critical load ip: 301712 freq: 29
rob stalling non-critical load ip: 301716 freq: 120
rob stalling non-critical load ip: 301720 freq: 18
rob stalling non-critical load ip: 318120 freq: 2
rob stalling non-critical load ip: 318132 freq: 4
rob stalling non-critical load ip: 318636 freq: 22
rob stalling non-critical load ip: 318948 freq: 3
rob stalling non-critical load ip: 319000 freq: 1
rob stalling non-critical load ip: 319080 freq: 1
rob stalling non-critical load ip: 319208 freq: 15
rob stalling non-critical load ip: 329660 freq: 15
rob stalling non-critical load ip: 329676 freq: 6
rob stalling non-critical load ip: 341868 freq: 632
rob stalling non-critical load ip: 341884 freq: 8
rob stalling non-critical load ip: 341888 freq: 2
rob stalling non-critical load ip: 341916 freq: 11
rob stalling non-critical load ip: 341940 freq: 5
rob stalling non-critical load ip: 341944 freq: 597
rob stalling non-critical load ip: 342004 freq: 359
rob stalling non-critical load ip: 342068 freq: 13
rob stalling non-critical load ip: 352028 freq: 4
rob stalling non-critical load ip: 352060 freq: 1
rob stalling non-critical load ip: 352136 freq: 2
rob stalling non-critical load ip: 352312 freq: 3
rob stalling non-critical load ip: 352920 freq: 9
rob stalling non-critical load ip: 353000 freq: 54
rob stalling non-critical load ip: 353036 freq: 11
rob stalling non-critical load ip: 353040 freq: 3
rob stalling non-critical load ip: 353052 freq: 9
rob stalling non-critical load ip: 353076 freq: 18
rob stalling non-critical load ip: 353092 freq: 5
rob stalling non-critical load ip: 353216 freq: 8
rob stalling non-critical load ip: 353220 freq: 877
rob stalling non-critical load ip: 353236 freq: 79
rob stalling non-critical load ip: 353260 freq: 11
rob stalling non-critical load ip: 353312 freq: 167
rob stalling non-critical load ip: 353316 freq: 55
rob stalling non-critical load ip: 353332 freq: 10
rob stalling non-critical load ip: 353356 freq: 12
rob stalling non-critical load ip: 353392 freq: 1081
rob stalling non-critical load ip: 353492 freq: 41
rob stalling non-critical load ip: 353524 freq: 9
rob stalling non-critical load ip: 353540 freq: 6
rob stalling non-critical load ip: 353544 freq: 116
rob stalling non-critical load ip: 353548 freq: 5
rob stalling non-critical load ip: 353564 freq: 62
rob stalling non-critical load ip: 353604 freq: 30
rob stalling non-critical load ip: 353636 freq: 49
rob stalling non-critical load ip: 353640 freq: 89
rob stalling non-critical load ip: 353652 freq: 10
rob stalling non-critical load ip: 353696 freq: 11
rob stalling non-critical load ip: 353744 freq: 5
rob stalling non-critical load ip: 353784 freq: 48
rob stalling non-critical load ip: 353788 freq: 111
rob stalling non-critical load ip: 353828 freq: 167
rob stalling non-critical load ip: 353880 freq: 11
rob stalling non-critical load ip: 353904 freq: 7
rob stalling non-critical load ip: 353912 freq: 7
rob stalling non-critical load ip: 353948 freq: 37
rob stalling non-critical load ip: 353960 freq: 4
rob stalling non-critical load ip: 353984 freq: 4
rob stalling non-critical load ip: 354164 freq: 118
rob stalling non-critical load ip: 354200 freq: 3
rob stalling non-critical load ip: 354212 freq: 6
rob stalling non-critical load ip: 354712 freq: 22
rob stalling non-critical load ip: 354716 freq: 101
rob stalling non-critical load ip: 354728 freq: 8
rob stalling non-critical load ip: 354740 freq: 81
rob stalling non-critical load ip: 354744 freq: 8
rob stalling non-critical load ip: 354764 freq: 69
rob stalling non-critical load ip: 354776 freq: 38
rob stalling non-critical load ip: 516668 freq: 63
rob stalling non-critical load ip: 516676 freq: 7
rob stalling non-critical load ip: 516976 freq: 735
rob stalling non-critical load ip: 517352 freq: 41
rob stalling non-critical load ip: 517396 freq: 15
rob stalling non-critical load ip: 517404 freq: 2
rob stalling non-critical load ip: 589008 freq: 6
rob stalling non-critical load ip: 589012 freq: 1
rob stalling non-critical load ip: 589036 freq: 1
rob stalling non-critical load ip: 589084 freq: 3
rob stalling non-critical load ip: 589120 freq: 9
rob stalling non-critical load ip: 589136 freq: 11
rob stalling non-critical load ip: 589144 freq: 68
rob stalling non-critical load ip: 589156 freq: 7
rob stalling non-critical load ip: 589180 freq: 10
rob stalling non-critical load ip: 589212 freq: 16
rob stalling non-critical load ip: 589228 freq: 1
rob stalling non-critical load ip: 589236 freq: 96
rob stalling non-critical load ip: 589240 freq: 101
rob stalling non-critical load ip: 589252 freq: 67
rob stalling non-critical load ip: 589284 freq: 77
rob stalling non-critical load ip: 589288 freq: 15
rob stalling non-critical load ip: 589388 freq: 1
rob stalling non-critical load ip: 589392 freq: 12
rob stalling non-critical load ip: 589908 freq: 7
rob stalling non-critical load ip: 589916 freq: 13
rob stalling non-critical load ip: 589932 freq: 9
rob stalling non-critical load ip: 589948 freq: 42
rob stalling non-critical load ip: 589960 freq: 23
rob stalling non-critical load ip: 589964 freq: 6
rob stalling non-critical load ip: 590000 freq: 27
rob stalling non-critical load ip: 590012 freq: 39
rob stalling non-critical load ip: 590036 freq: 42
rob stalling non-critical load ip: 590040 freq: 53
rob stalling non-critical load ip: 590064 freq: 23
rob stalling non-critical load ip: 590128 freq: 9
rob stalling non-critical load ip: 590132 freq: 4
rob stalling non-critical load ip: 590136 freq: 36
rob stalling non-critical load ip: 590148 freq: 11
rob stalling non-critical load ip: 590200 freq: 7
rob stalling non-critical load ip: 590216 freq: 2
rob stalling non-critical load ip: 590340 freq: 1
rob stalling non-critical load ip: 590352 freq: 5
rob stalling non-critical load ip: 590956 freq: 2
rob stalling non-critical load ip: 590980 freq: 1
rob stalling non-critical load ip: 722812 freq: 7
rob stalling non-critical load ip: 722816 freq: 7
rob stalling non-critical load ip: 722832 freq: 16
rob stalling non-critical load ip: 722892 freq: 9
rob stalling non-critical load ip: 722896 freq: 85
rob stalling non-critical load ip: 722900 freq: 51
rob stalling non-critical load ip: 722920 freq: 7
rob stalling non-critical load ip: 846400 freq: 3
rob stalling non-critical load ip: 846404 freq: 10
rob stalling non-critical load ip: 846484 freq: 1
rob stalling non-critical load ip: 852864 freq: 2
rob stalling non-critical load ip: 852948 freq: 10
rob stalling non-critical load ip: 852968 freq: 2
rob stalling non-critical load ip: 852988 freq: 6
rob stalling non-critical load ip: 854916 freq: 2
rob stalling non-critical load ip: 855016 freq: 1
rob stalling non-critical load ip: 856100 freq: 83
rob stalling non-critical load ip: 856148 freq: 15
rob stalling non-critical load ip: 856428 freq: 2
rob stalling non-critical load ip: 857344 freq: 1679
rob stalling non-critical load ip: 857508 freq: 2160
rob stalling non-critical load ip: 857592 freq: 46
rob stalling non-critical load ip: 857616 freq: 446
rob stalling non-critical load ip: 857628 freq: 24
rob stalling non-critical load ip: 857640 freq: 2
rob stalling non-critical load ip: 857644 freq: 4
rob stalling non-critical load ip: 857680 freq: 469
rob stalling non-critical load ip: 857820 freq: 24
rob stalling non-critical load ip: 857892 freq: 21
rob stalling non-critical load ip: 857928 freq: 11
rob stalling non-critical load ip: 857976 freq: 1
rob stalling non-critical load ip: 858176 freq: 2
rob stalling non-critical load ip: 858192 freq: 2
rob stalling non-critical load ip: 858380 freq: 460
rob stalling non-critical load ip: 858396 freq: 20
rob stalling non-critical load ip: 858416 freq: 15
rob stalling non-critical load ip: 858432 freq: 17
rob stalling non-critical load ip: 858436 freq: 7
rob stalling non-critical load ip: 858440 freq: 18
rob stalling non-critical load ip: 858464 freq: 39
rob stalling non-critical load ip: 858468 freq: 73
rob stalling non-critical load ip: 858552 freq: 30
rob stalling non-critical load ip: 858556 freq: 38
rob stalling non-critical load ip: 858620 freq: 2947
rob stalling non-critical load ip: 858624 freq: 13
rob stalling non-critical load ip: 858696 freq: 2936
rob stalling non-critical load ip: 858868 freq: 8
rob stalling non-critical load ip: 858880 freq: 70
rob stalling non-critical load ip: 858896 freq: 18
rob stalling non-critical load ip: 858900 freq: 125
rob stalling non-critical load ip: 858904 freq: 48
rob stalling non-critical load ip: 858912 freq: 16
rob stalling non-critical load ip: 858916 freq: 106
rob stalling non-critical load ip: 858940 freq: 2
rob stalling non-critical load ip: 858964 freq: 34
rob stalling non-critical load ip: 858984 freq: 65
rob stalling non-critical load ip: 859076 freq: 463
rob stalling non-critical load ip: 859088 freq: 328
rob stalling non-critical load ip: 859092 freq: 6
rob stalling non-critical load ip: 859100 freq: 17
rob stalling non-critical load ip: 859316 freq: 49
rob stalling non-critical load ip: 859328 freq: 14
rob stalling non-critical load ip: 859632 freq: 19
rob stalling non-critical load ip: 859940 freq: 328
rob stalling non-critical load ip: 859960 freq: 24
rob stalling non-critical load ip: 859976 freq: 27
rob stalling non-critical load ip: 860000 freq: 581
rob stalling non-critical load ip: 860132 freq: 1508
rob stalling non-critical load ip: 860144 freq: 20
rob stalling non-critical load ip: 860636 freq: 24
rob stalling non-critical load ip: 860640 freq: 10
rob stalling non-critical load ip: 860644 freq: 62
rob stalling non-critical load ip: 860668 freq: 1
rob stalling non-critical load ip: 860704 freq: 2
rob stalling non-critical load ip: 860708 freq: 64
rob stalling non-critical load ip: 860756 freq: 1
rob stalling non-critical load ip: 860788 freq: 4
rob stalling non-critical load ip: 860976 freq: 5
rob stalling non-critical load ip: 861004 freq: 4
rob stalling non-critical load ip: 861020 freq: 5
rob stalling non-critical load ip: 861080 freq: 1
rob stalling non-critical load ip: 861084 freq: 2
rob stalling non-critical load ip: 861088 freq: 1
rob stalling non-critical load ip: 862156 freq: 1948
rob stalling non-critical load ip: 862192 freq: 494
rob stalling non-critical load ip: 862232 freq: 942
rob stalling non-critical load ip: 862360 freq: 561
rob stalling non-critical load ip: 862384 freq: 180
rob stalling non-critical load ip: 862492 freq: 83
rob stalling non-critical load ip: 862504 freq: 12
rob stalling non-critical load ip: 862880 freq: 134
rob stalling non-critical load ip: 862896 freq: 6
rob stalling non-critical load ip: 862904 freq: 13
rob stalling non-critical load ip: 862916 freq: 7
rob stalling non-critical load ip: 863072 freq: 15
rob stalling non-critical load ip: 863124 freq: 98
rob stalling non-critical load ip: 863132 freq: 19
rob stalling non-critical load ip: 863136 freq: 129
rob stalling non-critical load ip: 863228 freq: 26
rob stalling non-critical load ip: 863260 freq: 26
rob stalling non-critical load ip: 863292 freq: 19
rob stalling non-critical load ip: 867796 freq: 6
rob stalling non-critical load ip: 881188 freq: 3
rob stalling non-critical load ip: 881736 freq: 19
rob stalling non-critical load ip: 882032 freq: 3
rob stalling non-critical load ip: 888332 freq: 21
rob stalling non-critical load ip: 906552 freq: 2
rob stalling non-critical load ip: 906644 freq: 5
rob stalling non-critical load ip: 906764 freq: 2
rob stalling non-critical load ip: 906808 freq: 1
rob stalling non-critical load ip: 906876 freq: 9
rob stalling non-critical load ip: 910004 freq: 36
rob stalling non-critical load ip: 910088 freq: 2870
rob stalling non-critical load ip: 914940 freq: 42
rob stalling non-critical load ip: 914968 freq: 96
rob stalling non-critical load ip: 915504 freq: 83
rob stalling non-critical load ip: 915516 freq: 1194
rob stalling non-critical load ip: 915560 freq: 1189
rob stalling non-critical load ip: 919464 freq: 44
rob stalling non-critical load ip: 919532 freq: 12
rob stalling non-critical load ip: 919544 freq: 1
rob stalling non-critical load ip: 919548 freq: 2
rob stalling non-critical load ip: 919560 freq: 23
rob stalling non-critical load ip: 919624 freq: 30
rob stalling non-critical load ip: 919664 freq: 15
rob stalling non-critical load ip: 919668 freq: 19
rob stalling non-critical load ip: 919968 freq: 1152
rob stalling non-critical load ip: 919976 freq: 634
rob stalling non-critical load ip: 919980 freq: 9
rob stalling non-critical load ip: 920024 freq: 324
rob stalling non-critical load ip: 920040 freq: 119
rob stalling non-critical load ip: 920076 freq: 181
rob stalling non-critical load ip: 920108 freq: 34
rob stalling non-critical load ip: 920112 freq: 89
rob stalling non-critical load ip: 920148 freq: 57
rob stalling non-critical load ip: 920204 freq: 22
rob stalling non-critical load ip: 920216 freq: 37
rob stalling non-critical load ip: 920248 freq: 13
rob stalling non-critical load ip: 920252 freq: 11
rob stalling non-critical load ip: 920320 freq: 14
rob stalling non-critical load ip: 920324 freq: 28
rob stalling non-critical load ip: 920344 freq: 2
rob stalling non-critical load ip: 920412 freq: 9
rob stalling non-critical load ip: 920440 freq: 20
rob stalling non-critical load ip: 920444 freq: 6
rob stalling non-critical load ip: 920508 freq: 106
rob stalling non-critical load ip: 920512 freq: 6
rob stalling non-critical load ip: 920620 freq: 165
rob stalling non-critical load ip: 920732 freq: 39
rob stalling non-critical load ip: 920764 freq: 24
rob stalling non-critical load ip: 920856 freq: 16
rob stalling non-critical load ip: 920896 freq: 1
rob stalling non-critical load ip: 921224 freq: 5
rob stalling non-critical load ip: 921276 freq: 113
rob stalling non-critical load ip: 921300 freq: 1199
rob stalling non-critical load ip: 921304 freq: 26
rob stalling non-critical load ip: 921336 freq: 12
rob stalling non-critical load ip: 921408 freq: 49
rob stalling non-critical load ip: 921456 freq: 261
rob stalling non-critical load ip: 921460 freq: 281
rob stalling non-critical load ip: 921480 freq: 1
rob stalling non-critical load ip: 921496 freq: 12
rob stalling non-critical load ip: 921500 freq: 1
rob stalling non-critical load ip: 921504 freq: 4
rob stalling non-critical load ip: 921520 freq: 233
rob stalling non-critical load ip: 921544 freq: 365
rob stalling non-critical load ip: 921568 freq: 29
rob stalling non-critical load ip: 921764 freq: 17
rob stalling non-critical load ip: 921768 freq: 1251
rob stalling non-critical load ip: 921784 freq: 109
rob stalling non-critical load ip: 921804 freq: 14
rob stalling non-critical load ip: 921904 freq: 157
rob stalling non-critical load ip: 921920 freq: 17
rob stalling non-critical load ip: 921924 freq: 377
rob stalling non-critical load ip: 921948 freq: 42
rob stalling non-critical load ip: 921952 freq: 192
rob stalling non-critical load ip: 921968 freq: 22
rob stalling non-critical load ip: 922008 freq: 2324
rob stalling non-critical load ip: 922016 freq: 9
rob stalling non-critical load ip: 922484 freq: 2
rob stalling non-critical load ip: 922500 freq: 13
rob stalling non-critical load ip: 922548 freq: 1696
rob stalling non-critical load ip: 922596 freq: 18
rob stalling non-critical load ip: 922612 freq: 9
rob stalling non-critical load ip: 922616 freq: 24
rob stalling non-critical load ip: 922624 freq: 3
rob stalling non-critical load ip: 922644 freq: 11
rob stalling non-critical load ip: 922648 freq: 245
rob stalling non-critical load ip: 922652 freq: 8
rob stalling non-critical load ip: 922672 freq: 36
rob stalling non-critical load ip: 922812 freq: 291
rob stalling non-critical load ip: 922868 freq: 8
rob stalling non-critical load ip: 922888 freq: 434
rob stalling non-critical load ip: 922924 freq: 26
rob stalling non-critical load ip: 923060 freq: 1098
rob stalling non-critical load ip: 923064 freq: 1092
rob stalling non-critical load ip: 923076 freq: 49
rob stalling non-critical load ip: 923080 freq: 1203
rob stalling non-critical load ip: 923088 freq: 28
rob stalling non-critical load ip: 923096 freq: 12
rob stalling non-critical load ip: 923116 freq: 8
rob stalling non-critical load ip: 923816 freq: 51
rob stalling non-critical load ip: 923824 freq: 6
rob stalling non-critical load ip: 923832 freq: 4
rob stalling non-critical load ip: 930780 freq: 1314
rob stalling non-critical load ip: 930796 freq: 12
rob stalling non-critical load ip: 930828 freq: 12
rob stalling non-critical load ip: 930832 freq: 9
rob stalling non-critical load ip: 930860 freq: 59
rob stalling non-critical load ip: 930864 freq: 2
rob stalling non-critical load ip: 931104 freq: 28
rob stalling non-critical load ip: 931120 freq: 3
rob stalling non-critical load ip: 931136 freq: 3
rob stalling non-critical load ip: 931172 freq: 41
rob stalling non-critical load ip: 931192 freq: 23
rob stalling non-critical load ip: 931200 freq: 48
rob stalling non-critical load ip: 931204 freq: 1
rob stalling non-critical load ip: 931224 freq: 39
rob stalling non-critical load ip: 931308 freq: 31
rob stalling non-critical load ip: 931320 freq: 165
rob stalling non-critical load ip: 931372 freq: 3
rob stalling non-critical load ip: 931380 freq: 162
rob stalling non-critical load ip: 931412 freq: 45
rob stalling non-critical load ip: 931428 freq: 1
rob stalling non-critical load ip: 931436 freq: 50
rob stalling non-critical load ip: 931896 freq: 9
rob stalling non-critical load ip: 931924 freq: 19
rob stalling non-critical load ip: 931940 freq: 10
rob stalling non-critical load ip: 931964 freq: 24
rob stalling non-critical load ip: 931968 freq: 72
rob stalling non-critical load ip: 932004 freq: 471
rob stalling non-critical load ip: 932012 freq: 6
rob stalling non-critical load ip: 932044 freq: 69
rob stalling non-critical load ip: 932064 freq: 95
rob stalling non-critical load ip: 932072 freq: 268
rob stalling non-critical load ip: 932096 freq: 11
rob stalling non-critical load ip: 932124 freq: 8
rob stalling non-critical load ip: 938528 freq: 116
rob stalling non-critical load ip: 938540 freq: 16
rob stalling non-critical load ip: 938556 freq: 73
rob stalling non-critical load ip: 938612 freq: 148
rob stalling non-critical load ip: 938616 freq: 30
rob stalling non-critical load ip: 938644 freq: 7
rob stalling non-critical load ip: 938660 freq: 10
rob stalling non-critical load ip: 938668 freq: 38
rob stalling non-critical load ip: 938692 freq: 4
rob stalling non-critical load ip: 938708 freq: 4
rob stalling non-critical load ip: 938724 freq: 8
rob stalling non-critical load ip: 938756 freq: 48
rob stalling non-critical load ip: 938860 freq: 17
rob stalling non-critical load ip: 938912 freq: 28
rob stalling non-critical load ip: 938928 freq: 5
rob stalling non-critical load ip: 939012 freq: 4
rob stalling non-critical load ip: 939192 freq: 4
rob stalling non-critical load ip: 939204 freq: 44
rob stalling non-critical load ip: 944504 freq: 50
rob stalling non-critical load ip: 944536 freq: 39
rob stalling non-critical load ip: 944544 freq: 50
rob stalling non-critical load ip: 945012 freq: 15
rob stalling non-critical load ip: 945032 freq: 8
rob stalling non-critical load ip: 952748 freq: 239
rob stalling non-critical load ip: 952780 freq: 327
rob stalling non-critical load ip: 952796 freq: 126
rob stalling non-critical load ip: 952816 freq: 754
rob stalling non-critical load ip: 952856 freq: 15
rob stalling non-critical load ip: 952900 freq: 277
rob stalling non-critical load ip: 952916 freq: 282
rob stalling non-critical load ip: 952920 freq: 114
rob stalling non-critical load ip: 952932 freq: 4
rob stalling non-critical load ip: 952968 freq: 36
rob stalling non-critical load ip: 952984 freq: 34
rob stalling non-critical load ip: 953012 freq: 1
rob stalling non-critical load ip: 953040 freq: 53
rob stalling non-critical load ip: 953056 freq: 4
rob stalling non-critical load ip: 953064 freq: 1
rob stalling non-critical load ip: 953092 freq: 85
rob stalling non-critical load ip: 953116 freq: 2
rob stalling non-critical load ip: 953124 freq: 3
rob stalling non-critical load ip: 953128 freq: 11
rob stalling non-critical load ip: 953140 freq: 30
rob stalling non-critical load ip: 953144 freq: 24
rob stalling non-critical load ip: 953164 freq: 28
rob stalling non-critical load ip: 953196 freq: 11
rob stalling non-critical load ip: 953228 freq: 72
rob stalling non-critical load ip: 953336 freq: 132
rob stalling non-critical load ip: 953472 freq: 36
rob stalling non-critical load ip: 956308 freq: 79
rob stalling non-critical load ip: 956332 freq: 15
rob stalling non-critical load ip: 956340 freq: 5
rob stalling non-critical load ip: 959708 freq: 119
rob stalling non-critical load ip: 959720 freq: 43
rob stalling non-critical load ip: 959724 freq: 3
rob stalling non-critical load ip: 959744 freq: 2
rob stalling non-critical load ip: 959760 freq: 2
rob stalling non-critical load ip: 959768 freq: 3
rob stalling non-critical load ip: 959796 freq: 1
rob stalling non-critical load ip: 959812 freq: 7
rob stalling non-critical load ip: 959832 freq: 1
rob stalling non-critical load ip: 959864 freq: 10
rob stalling non-critical load ip: 959888 freq: 11
rob stalling non-critical load ip: 959972 freq: 1
rob stalling non-critical load ip: 959976 freq: 39
rob stalling non-critical load ip: 964556 freq: 3
rob stalling non-critical load ip: 964560 freq: 2
rob stalling non-critical load ip: 1029576 freq: 1531
rob stalling non-critical load ip: 1029596 freq: 465
rob stalling non-critical load ip: 1029612 freq: 12
rob stalling non-critical load ip: 1029628 freq: 312
rob stalling non-critical load ip: 1029652 freq: 27
rob stalling non-critical load ip: 1029672 freq: 184
rob stalling non-critical load ip: 1029676 freq: 1
rob stalling non-critical load ip: 1029684 freq: 12
rob stalling non-critical load ip: 1029720 freq: 44
rob stalling non-critical load ip: 1029740 freq: 273
rob stalling non-critical load ip: 1029776 freq: 583
rob stalling non-critical load ip: 1029812 freq: 17
rob stalling non-critical load ip: 1029816 freq: 43
rob stalling non-critical load ip: 1029832 freq: 23
rob stalling non-critical load ip: 1029844 freq: 11
rob stalling non-critical load ip: 1029964 freq: 1
rob stalling non-critical load ip: 1029980 freq: 14
rob stalling non-critical load ip: 1029996 freq: 27
rob stalling non-critical load ip: 1030008 freq: 27
rob stalling non-critical load ip: 1030128 freq: 41
rob stalling non-critical load ip: 1030144 freq: 1632
rob stalling non-critical load ip: 1030160 freq: 53
rob stalling non-critical load ip: 1031328 freq: 22
rob stalling non-critical load ip: 1031356 freq: 26
rob stalling non-critical load ip: 1032164 freq: 15
rob stalling non-critical load ip: 1032188 freq: 32
rob stalling non-critical load ip: 1032208 freq: 19
rob stalling non-critical load ip: 1032212 freq: 28
rob stalling non-critical load ip: 1032224 freq: 17
rob stalling non-critical load ip: 1032240 freq: 39
rob stalling non-critical load ip: 16780456 freq: 636
rob stalling non-critical load ip: 16780584 freq: 979
rob stalling non-critical load ip: 16783496 freq: 1601
rob stalling non-critical load ip: 16783504 freq: 201
rob stalling non-critical load ip: 16783512 freq: 108
rob stalling non-critical load ip: 16783524 freq: 23
rob stalling non-critical load ip: 16783528 freq: 26
rob stalling non-critical load ip: 16783532 freq: 11996
rob stalling non-critical load ip: 16783536 freq: 39
rob stalling non-critical load ip: 16783544 freq: 69
rob stalling non-critical load ip: 16783548 freq: 1931
rob stalling non-critical load ip: 16783552 freq: 1735
rob stalling non-critical load ip: 16783556 freq: 3
rob stalling non-critical load ip: 16783564 freq: 4697
rob stalling non-critical load ip: 16783568 freq: 30
rob stalling non-critical load ip: 16783572 freq: 4069
rob stalling non-critical load ip: 16783576 freq: 2
rob stalling non-critical load ip: 16783752 freq: 160
rob stalling non-critical load ip: 16783760 freq: 35
rob stalling non-critical load ip: 16783768 freq: 34
rob stalling non-critical load ip: 16783780 freq: 3
rob stalling non-critical load ip: 16783784 freq: 14
rob stalling non-critical load ip: 16783788 freq: 450
rob stalling non-critical load ip: 16783792 freq: 3
rob stalling non-critical load ip: 16783804 freq: 28
rob stalling non-critical load ip: 16783808 freq: 1465
rob stalling non-critical load ip: 16783812 freq: 1
rob stalling non-critical load ip: 16783820 freq: 96
rob stalling non-critical load ip: 16783828 freq: 55
rob stalling non-critical load ip: 16783832 freq: 2
rob stalling non-critical load ip: 16784128 freq: 4405
rob stalling non-critical load ip: 16784132 freq: 1
rob stalling non-critical load ip: 16784136 freq: 192
rob stalling non-critical load ip: 16784140 freq: 1
rob stalling non-critical load ip: 16784144 freq: 36
rob stalling non-critical load ip: 16784148 freq: 3
rob stalling non-critical load ip: 16784152 freq: 1901
rob stalling non-critical load ip: 16784156 freq: 6
rob stalling non-critical load ip: 16784160 freq: 1315
rob stalling non-critical load ip: 16784168 freq: 1907
rob stalling non-critical load ip: 16784176 freq: 195
rob stalling non-critical load ip: 16784184 freq: 56
rob stalling non-critical load ip: 16800136 freq: 8
rob stalling non-critical load ip: 16800184 freq: 2
rob stalling non-critical load ip: 16800512 freq: 6
rob stalling non-critical load ip: 16800520 freq: 28
rob stalling non-critical load ip: 16800536 freq: 45
rob stalling non-critical load ip: 16803568 freq: 4
rob stalling non-critical load ip: 16806692 freq: 3
rob stalling non-critical load ip: 16807120 freq: 1291
rob stalling non-critical load ip: 16807124 freq: 15
rob stalling non-critical load ip: 16807128 freq: 8
rob stalling non-critical load ip: 16807136 freq: 8
rob stalling non-critical load ip: 16807188 freq: 30
rob stalling non-critical load ip: 16807200 freq: 10
rob stalling non-critical load ip: 16807208 freq: 10
rob stalling non-critical load ip: 16807216 freq: 1
rob stalling non-critical load ip: 16807220 freq: 363
rob stalling non-critical load ip: 16807228 freq: 69
rob stalling non-critical load ip: 16807244 freq: 4
rob stalling non-critical load ip: 16807252 freq: 1
rob stalling non-critical load ip: 16807256 freq: 6
rob stalling non-critical load ip: 16807268 freq: 97
rob stalling non-critical load ip: 16807344 freq: 117
rob stalling non-critical load ip: 16807348 freq: 1
rob stalling non-critical load ip: 16807352 freq: 40
rob stalling non-critical load ip: 16807392 freq: 1649
rob stalling non-critical load ip: 16807812 freq: 15
rob stalling non-critical load ip: 16807816 freq: 22
rob stalling non-critical load ip: 16807864 freq: 50
rob stalling non-critical load ip: 16807908 freq: 6
rob stalling non-critical load ip: 16807956 freq: 32
rob stalling non-critical load ip: 16807964 freq: 36
rob stalling non-critical load ip: 16807984 freq: 31
rob stalling non-critical load ip: 16807996 freq: 1
rob stalling non-critical load ip: 16808000 freq: 7
rob stalling non-critical load ip: 16808020 freq: 31
rob stalling non-critical load ip: 16808024 freq: 4
rob stalling non-critical load ip: 16808028 freq: 44
rob stalling non-critical load ip: 16808052 freq: 2
rob stalling non-critical load ip: 16809368 freq: 1
rob stalling non-critical load ip: 16809376 freq: 8
rob stalling non-critical load ip: 16809664 freq: 2
rob stalling non-critical load ip: 16812528 freq: 38
rob stalling non-critical load ip: 16812716 freq: 707
rob stalling non-critical load ip: 16813444 freq: 18
rob stalling non-critical load ip: 16813448 freq: 43
rob stalling non-critical load ip: 16813472 freq: 1
rob stalling non-critical load ip: 16813580 freq: 4
rob stalling non-critical load ip: 16813612 freq: 3
rob stalling non-critical load ip: 16813680 freq: 43
rob stalling non-critical load ip: 16813696 freq: 4
rob stalling non-critical load ip: 16813704 freq: 35
rob stalling non-critical load ip: 16813760 freq: 22
rob stalling non-critical load ip: 16813800 freq: 3
rob stalling non-critical load ip: 16813820 freq: 1
rob stalling non-critical load ip: 16815252 freq: 38
rob stalling non-critical load ip: 16815264 freq: 2
rob stalling non-critical load ip: 16815284 freq: 4
rob stalling non-critical load ip: 16815308 freq: 1
rob stalling non-critical load ip: 16815860 freq: 3
rob stalling non-critical load ip: 16817700 freq: 23
rob stalling non-critical load ip: 16817756 freq: 29
rob stalling non-critical load ip: 16817764 freq: 14
rob stalling non-critical load ip: 16817820 freq: 224
rob stalling non-critical load ip: 16817836 freq: 52
rob stalling non-critical load ip: 16817844 freq: 252
rob stalling non-critical load ip: 16817884 freq: 15
rob stalling non-critical load ip: 16817900 freq: 227
rob stalling non-critical load ip: 16817940 freq: 3
rob stalling non-critical load ip: 16817960 freq: 16
rob stalling non-critical load ip: 16819192 freq: 4
rob stalling non-critical load ip: 16819204 freq: 1
rob stalling non-critical load ip: 16820524 freq: 4
rob stalling non-critical load ip: 16820672 freq: 8
rob stalling non-critical load ip: 16820676 freq: 11
rob stalling non-critical load ip: 16820852 freq: 3
rob stalling non-critical load ip: 16820864 freq: 1
rob stalling non-critical load ip: 16820956 freq: 2
rob stalling non-critical load ip: 16820996 freq: 4
rob stalling non-critical load ip: 16821244 freq: 1
rob stalling non-critical load ip: 16821280 freq: 7
rob stalling non-critical load ip: 16821296 freq: 6
rob stalling non-critical load ip: 16821308 freq: 50
rob stalling non-critical load ip: 16821340 freq: 11
rob stalling non-critical load ip: 16821452 freq: 20
rob stalling non-critical load ip: 16821464 freq: 3
rob stalling non-critical load ip: 16821676 freq: 1
rob stalling non-critical load ip: 16821732 freq: 3
rob stalling non-critical load ip: 16821840 freq: 2
rob stalling non-critical load ip: 16821852 freq: 6
rob stalling non-critical load ip: 16821912 freq: 6
rob stalling non-critical load ip: 16821924 freq: 3
rob stalling non-critical load ip: 16821980 freq: 2
rob stalling non-critical load ip: 16822004 freq: 12
rob stalling non-critical load ip: 16822020 freq: 5
rob stalling non-critical load ip: 16822276 freq: 10
rob stalling non-critical load ip: 16822320 freq: 2
rob stalling non-critical load ip: 16822500 freq: 51
rob stalling non-critical load ip: 16822788 freq: 9
rob stalling non-critical load ip: 16822888 freq: 6
rob stalling non-critical load ip: 16822900 freq: 1
rob stalling non-critical load ip: 16823192 freq: 9
rob stalling non-critical load ip: 16823692 freq: 31
rob stalling non-critical load ip: 16823808 freq: 1
rob stalling non-critical load ip: 16823852 freq: 20
rob stalling non-critical load ip: 16827588 freq: 4
rob stalling non-critical load ip: 16844832 freq: 48
rob stalling non-critical load ip: 16844852 freq: 10
rob stalling non-critical load ip: 16844864 freq: 6
rob stalling non-critical load ip: 16845036 freq: 14
rob stalling non-critical load ip: 16845056 freq: 13
rob stalling non-critical load ip: 16845064 freq: 12
rob stalling non-critical load ip: 16845068 freq: 10
rob stalling non-critical load ip: 16845328 freq: 13
rob stalling non-critical load ip: 16851080 freq: 1046
rob stalling non-critical load ip: 16851160 freq: 139
rob stalling non-critical load ip: 16851208 freq: 32
rob stalling non-critical load ip: 16851340 freq: 398
rob stalling non-critical load ip: 16851388 freq: 2610
rob stalling non-critical load ip: 16851436 freq: 1426
rob stalling non-critical load ip: 16851456 freq: 4
rob stalling non-critical load ip: 16851472 freq: 61
rob stalling non-critical load ip: 16851552 freq: 22859
rob stalling non-critical load ip: 16851564 freq: 163
rob stalling non-critical load ip: 16851576 freq: 539
rob stalling non-critical load ip: 16851588 freq: 20746
rob stalling non-critical load ip: 16851600 freq: 247
rob stalling non-critical load ip: 16851612 freq: 1519
rob stalling non-critical load ip: 16851624 freq: 161
rob stalling non-critical load ip: 16851632 freq: 448
rob stalling non-critical load ip: 16851652 freq: 21040
rob stalling non-critical load ip: 16851728 freq: 422
rob stalling non-critical load ip: 16851776 freq: 5
rob stalling non-critical load ip: 16851796 freq: 19
rob stalling non-critical load ip: 16891612 freq: 84
rob stalling non-critical load ip: 16891620 freq: 65
rob stalling non-critical load ip: 16891628 freq: 49
rob stalling non-critical load ip: 16891636 freq: 46
rob stalling non-critical load ip: 16891648 freq: 1
rob stalling non-critical load ip: 16902228 freq: 4
rob stalling non-critical load ip: 16902268 freq: 2
rob stalling non-critical load ip: 16902320 freq: 6
rob stalling non-critical load ip: 16902336 freq: 1
rob stalling non-critical load ip: 16902396 freq: 56
rob stalling non-critical load ip: 16903028 freq: 31
rob stalling non-critical load ip: 16917068 freq: 699
rob stalling non-critical load ip: 16917076 freq: 6
rob stalling non-critical load ip: 16917116 freq: 54
rob stalling non-critical load ip: 16917124 freq: 81
rob stalling non-critical load ip: 16917760 freq: 29
rob stalling non-critical load ip: 16917772 freq: 62
rob stalling non-critical load ip: 16977308 freq: 9
rob stalling non-critical load ip: 16977328 freq: 5
rob stalling non-critical load ip: 16977348 freq: 1
rob stalling non-critical load ip: 16977404 freq: 23
rob stalling non-critical load ip: 16977420 freq: 1
rob stalling non-critical load ip: 16977480 freq: 2
rob stalling non-critical load ip: 17022708 freq: 10
rob stalling non-critical load ip: 17022764 freq: 6
rob stalling non-critical load ip: 17077560 freq: 37
rob stalling non-critical load ip: 17077572 freq: 125
rob stalling non-critical load ip: 17077620 freq: 21
rob stalling non-critical load ip: 17077640 freq: 6
rob stalling non-critical load ip: 17077644 freq: 14
rob stalling non-critical load ip: 17077680 freq: 1
rob stalling non-critical load ip: 17077684 freq: 5
rob stalling non-critical load ip: 17077688 freq: 18
rob stalling non-critical load ip: 17077720 freq: 2
rob stalling non-critical load ip: 17077812 freq: 13
rob stalling non-critical load ip: 17077916 freq: 8
rob stalling non-critical load ip: 17078024 freq: 2
rob stalling non-critical load ip: 17078036 freq: 4
rob stalling non-critical load ip: 17078080 freq: 8
rob stalling non-critical load ip: 17078088 freq: 10
rob stalling non-critical load ip: 17078100 freq: 21
rob stalling non-critical load ip: 17078104 freq: 11
rob stalling non-critical load ip: 17078144 freq: 3
rob stalling non-critical load ip: 17078228 freq: 12
rob stalling non-critical load ip: 17078252 freq: 5
rob stalling non-critical load ip: 17079552 freq: 4
rob stalling non-critical load ip: 17079616 freq: 9
rob stalling non-critical load ip: 17079680 freq: 10
rob stalling non-critical load ip: 17079744 freq: 18
rob stalling non-critical load ip: 17080064 freq: 15
rob stalling non-critical load ip: 17080100 freq: 5
rob stalling non-critical load ip: 17084036 freq: 8
rob stalling non-critical load ip: 17084128 freq: 113
rob stalling non-critical load ip: 17084160 freq: 16
rob stalling non-critical load ip: 17084192 freq: 6
rob stalling non-critical load ip: 17084300 freq: 52
rob stalling non-critical load ip: 17084332 freq: 838
rob stalling non-critical load ip: 17084340 freq: 58
rob stalling non-critical load ip: 17084388 freq: 541
rob stalling non-critical load ip: 17084424 freq: 3
rob stalling non-critical load ip: 17084460 freq: 1
rob stalling non-critical load ip: 17084544 freq: 2879
rob stalling non-critical load ip: 17084576 freq: 1
rob stalling non-critical load ip: 17084592 freq: 49
rob stalling non-critical load ip: 17084596 freq: 12
rob stalling non-critical load ip: 17084652 freq: 39
rob stalling non-critical load ip: 17084656 freq: 81
rob stalling non-critical load ip: 17084752 freq: 17
rob stalling non-critical load ip: 17084772 freq: 7
rob stalling non-critical load ip: 17084780 freq: 121
rob stalling non-critical load ip: 17084836 freq: 1
rob stalling non-critical load ip: 17087300 freq: 21
rob stalling non-critical load ip: 17087348 freq: 6
rob stalling non-critical load ip: 17089932 freq: 5
rob stalling non-critical load ip: 17089956 freq: 1
rob stalling non-critical load ip: 17089968 freq: 3
rob stalling non-critical load ip: 17089988 freq: 1216
rob stalling non-critical load ip: 17090008 freq: 24
rob stalling non-critical load ip: 17090060 freq: 31
rob stalling non-critical load ip: 17090136 freq: 34
rob stalling non-critical load ip: 17090160 freq: 3
rob stalling non-critical load ip: 17090192 freq: 27
rob stalling non-critical load ip: 17090196 freq: 72
rob stalling non-critical load ip: 17105460 freq: 222
rob stalling non-critical load ip: 17105536 freq: 12
rob stalling non-critical load ip: 17105552 freq: 56
rob stalling non-critical load ip: 17109616 freq: 4
rob stalling non-critical load ip: 17109620 freq: 1
rob stalling non-critical load ip: 17147696 freq: 3
rob stalling non-critical load ip: 17148832 freq: 774
rob stalling non-critical load ip: 17148844 freq: 1
rob stalling non-critical load ip: 17148868 freq: 6
rob stalling non-critical load ip: 17148904 freq: 9
rob stalling non-critical load ip: 17148972 freq: 900
rob stalling non-critical load ip: 17148988 freq: 6
rob stalling non-critical load ip: 17149012 freq: 7
rob stalling non-critical load ip: 17149168 freq: 13
rob stalling non-critical load ip: 17149172 freq: 20
rob stalling non-critical load ip: 17149204 freq: 11
rob stalling non-critical load ip: 17149208 freq: 772
rob stalling non-critical load ip: 17149340 freq: 41
rob stalling non-critical load ip: 17149344 freq: 221
rob stalling non-critical load ip: 17149400 freq: 62
rob stalling non-critical load ip: 17149504 freq: 35
rob stalling non-critical load ip: 17149516 freq: 9
rob stalling non-critical load ip: 17149568 freq: 17
rob stalling non-critical load ip: 17149600 freq: 95
rob stalling non-critical load ip: 17149604 freq: 21
rob stalling non-critical load ip: 17183060 freq: 48
rob stalling non-critical load ip: 17183076 freq: 46
rob stalling non-critical load ip: 17183108 freq: 4
rob stalling non-critical load ip: 17183188 freq: 45
rob stalling non-critical load ip: 17183232 freq: 3
rob stalling non-critical load ip: 17183244 freq: 5
rob stalling non-critical load ip: 17183248 freq: 35
rob stalling non-critical load ip: 17183268 freq: 4
rob stalling non-critical load ip: 17183380 freq: 5
rob stalling non-critical load ip: 17183392 freq: 7
rob stalling non-critical load ip: 17183476 freq: 7
rob stalling non-critical load ip: 17183520 freq: 5
rob stalling non-critical load ip: 17183812 freq: 57
rob stalling non-critical load ip: 17183836 freq: 1
rob stalling non-critical load ip: 17183952 freq: 5
rob stalling non-critical load ip: 17183960 freq: 113
rob stalling non-critical load ip: 17184072 freq: 61
rob stalling non-critical load ip: 17184084 freq: 34
rob stalling non-critical load ip: 17184100 freq: 41
rob stalling non-critical load ip: 17184500 freq: 8
rob stalling non-critical load ip: 17184644 freq: 1
rob stalling non-critical load ip: 17184740 freq: 11
rob stalling non-critical load ip: 17184768 freq: 4
rob stalling non-critical load ip: 17184924 freq: 6
rob stalling non-critical load ip: 17184968 freq: 5
rob stalling non-critical load ip: 17185032 freq: 2
rob stalling non-critical load ip: 17185072 freq: 8
rob stalling non-critical load ip: 17185076 freq: 16
rob stalling non-critical load ip: 17185180 freq: 7
rob stalling non-critical load ip: 17185608 freq: 1
rob stalling non-critical load ip: 17185696 freq: 2
rob stalling non-critical load ip: 17185704 freq: 2
rob stalling non-critical load ip: 17185796 freq: 17
rob stalling non-critical load ip: 17186780 freq: 1
rob stalling non-critical load ip: 17186964 freq: 5
rob stalling non-critical load ip: 17187060 freq: 2
rob stalling non-critical load ip: 17187176 freq: 3
rob stalling non-critical load ip: 17187196 freq: 9
rob stalling non-critical load ip: 17187208 freq: 4
rob stalling non-critical load ip: 17187260 freq: 5
rob stalling non-critical load ip: 17187276 freq: 4
rob stalling non-critical load ip: 17187284 freq: 22
rob stalling non-critical load ip: 17187304 freq: 17
rob stalling non-critical load ip: 17187388 freq: 6
rob stalling non-critical load ip: 17187408 freq: 2
rob stalling non-critical load ip: 17187456 freq: 8
rob stalling non-critical load ip: 17187472 freq: 1
rob stalling non-critical load ip: 17187948 freq: 1
rob stalling non-critical load ip: 17188224 freq: 30
rob stalling non-critical load ip: 17188228 freq: 3
rob stalling non-critical load ip: 17188264 freq: 6
rob stalling non-critical load ip: 17188292 freq: 48
rob stalling non-critical load ip: 17188308 freq: 69
rob stalling non-critical load ip: 17188316 freq: 6
rob stalling non-critical load ip: 17188320 freq: 4
rob stalling non-critical load ip: 17189416 freq: 2
rob stalling non-critical load ip: 17189432 freq: 6
rob stalling non-critical load ip: 17189488 freq: 13
rob stalling non-critical load ip: 17189504 freq: 10
rob stalling non-critical load ip: 17189520 freq: 23
rob stalling non-critical load ip: 17189536 freq: 49
rob stalling non-critical load ip: 17189616 freq: 4
rob stalling non-critical load ip: 17189632 freq: 6
rob stalling non-critical load ip: 17189652 freq: 2
rob stalling non-critical load ip: 17190288 freq: 3
rob stalling non-critical load ip: 17190300 freq: 4
rob stalling non-critical load ip: 17190504 freq: 5
rob stalling non-critical load ip: 17190516 freq: 12
rob stalling non-critical load ip: 17224964 freq: 10
rob stalling non-critical load ip: 17224980 freq: 109
rob stalling non-critical load ip: 17224996 freq: 3
rob stalling non-critical load ip: 17225096 freq: 15
rob stalling non-critical load ip: 17225180 freq: 14
rob stalling non-critical load ip: 17225204 freq: 65
rob stalling non-critical load ip: 17225220 freq: 462
rob stalling non-critical load ip: 17225292 freq: 1
rob stalling non-critical load ip: 17225500 freq: 43
rob stalling non-critical load ip: 17225528 freq: 1
rob stalling non-critical load ip: 17225540 freq: 4
rob stalling non-critical load ip: 17225580 freq: 2
rob stalling non-critical load ip: 17225876 freq: 27
rob stalling non-critical load ip: 17225984 freq: 28
rob stalling non-critical load ip: 17226208 freq: 36
rob stalling non-critical load ip: 17226228 freq: 3
rob stalling non-critical load ip: 17226296 freq: 11
rob stalling non-critical load ip: 17226332 freq: 8
rob stalling non-critical load ip: 17226772 freq: 2
rob stalling non-critical load ip: 17226812 freq: 8
rob stalling non-critical load ip: 17226856 freq: 10
rob stalling non-critical load ip: 17226948 freq: 64
rob stalling non-critical load ip: 17227476 freq: 2
rob stalling non-critical load ip: 17227996 freq: 15
rob stalling non-critical load ip: 17228024 freq: 13
rob stalling non-critical load ip: 17228064 freq: 3
rob stalling non-critical load ip: 17228160 freq: 1
rob stalling non-critical load ip: 17245100 freq: 200
rob stalling non-critical load ip: 17245104 freq: 2
rob stalling non-critical load ip: 17245188 freq: 3
rob stalling non-critical load ip: 17247576 freq: 56
rob stalling non-critical load ip: 17247588 freq: 6
rob stalling non-critical load ip: 17247664 freq: 13
rob stalling non-critical load ip: 17247668 freq: 30
rob stalling non-critical load ip: 17247676 freq: 1
rob stalling non-critical load ip: 17247840 freq: 31
rob stalling non-critical load ip: 17247864 freq: 17
rob stalling non-critical load ip: 17247896 freq: 4
rob stalling non-critical load ip: 17247952 freq: 9
rob stalling non-critical load ip: 17247988 freq: 42
rob stalling non-critical load ip: 17248008 freq: 45
rob stalling non-critical load ip: 17248120 freq: 79
rob stalling non-critical load ip: 17248624 freq: 15
rob stalling non-critical load ip: 17248652 freq: 9
rob stalling non-critical load ip: 17253688 freq: 2
rob stalling non-critical load ip: 17254328 freq: 4
rob stalling non-critical load ip: 17410740 freq: 9
rob stalling non-critical load ip: 17410756 freq: 16
rob stalling non-critical load ip: 17506076 freq: 24
rob stalling non-critical load ip: 17506112 freq: 1
rob stalling non-critical load ip: 17506380 freq: 6
rob stalling non-critical load ip: 17506584 freq: 22
rob stalling non-critical load ip: 17506760 freq: 15
rob stalling non-critical load ip: 17506884 freq: 5
rob stalling non-critical load ip: 17506996 freq: 2
rob stalling non-critical load ip: 17507044 freq: 33
rob stalling non-critical load ip: 17507160 freq: 4
rob stalling non-critical load ip: 17507324 freq: 2
rob stalling non-critical load ip: 17507336 freq: 3
rob stalling non-critical load ip: 17507428 freq: 4
rob stalling non-critical load ip: 17507476 freq: 3
rob stalling non-critical load ip: 17507492 freq: 1
rob stalling non-critical load ip: 17545664 freq: 12
rob stalling non-critical load ip: 17545732 freq: 4
rob stalling non-critical load ip: 17545868 freq: 6
rob stalling non-critical load ip: 17546088 freq: 73
rob stalling non-critical load ip: 17546104 freq: 16
rob stalling non-critical load ip: 17546120 freq: 20
rob stalling non-critical load ip: 17546260 freq: 27
rob stalling non-critical load ip: 17546280 freq: 8
rob stalling non-critical load ip: 17546300 freq: 12
rob stalling non-critical load ip: 17546368 freq: 10
rob stalling non-critical load ip: 17546416 freq: 8
rob stalling non-critical load ip: 17546692 freq: 5
rob stalling non-critical load ip: 17546908 freq: 3
rob stalling non-critical load ip: 17547352 freq: 32
rob stalling non-critical load ip: 17547356 freq: 9
rob stalling non-critical load ip: 17547376 freq: 3
rob stalling non-critical load ip: 17547484 freq: 1
rob stalling non-critical load ip: 17547720 freq: 6
rob stalling non-critical load ip: 17547776 freq: 15
rob stalling non-critical load ip: 17547848 freq: 12
rob stalling non-critical load ip: 17548040 freq: 57
rob stalling non-critical load ip: 17555508 freq: 47
rob stalling non-critical load ip: 17612428 freq: 1
rob stalling non-critical load ip: 17612508 freq: 1
rob stalling non-critical load ip: 17613924 freq: 2
rob stalling non-critical load ip: 17613980 freq: 8
rob stalling non-critical load ip: 17613996 freq: 4
rob stalling non-critical load ip: 17614016 freq: 2
rob stalling non-critical load ip: 17614184 freq: 2
rob stalling non-critical load ip: 17614240 freq: 3
rob stalling non-critical load ip: 17614256 freq: 4
rob stalling non-critical load ip: 17614376 freq: 2
rob stalling non-critical load ip: 17614436 freq: 1
rob stalling non-critical load ip: 17614460 freq: 3
rob stalling non-critical load ip: 17616192 freq: 1
rob stalling non-critical load ip: 17618704 freq: 2
rob stalling non-critical load ip: 17618720 freq: 2
rob stalling non-critical load ip: 17618904 freq: 1
rob stalling non-critical load ip: 17641524 freq: 3
rob stalling non-critical load ip: 17641540 freq: 3
rob stalling non-critical load ip: 17642980 freq: 2
rob stalling non-critical load ip: 17643356 freq: 2
rob stalling non-critical load ip: 17643608 freq: 1
rob stalling non-critical load ip: 17644128 freq: 16
rob stalling non-critical load ip: 17644276 freq: 74
rob stalling non-critical load ip: 17682552 freq: 4
rob stalling non-critical load ip: 17682900 freq: 4
rob stalling non-critical load ip: 17683092 freq: 1
rob stalling non-critical load ip: 17683132 freq: 2
rob stalling non-critical load ip: 17683256 freq: 2
rob stalling non-critical load ip: 17683268 freq: 1
rob stalling non-critical load ip: 17683456 freq: 4
rob stalling non-critical load ip: 17683688 freq: 1
rob stalling non-critical load ip: 17686100 freq: 5
rob stalling non-critical load ip: 17686204 freq: 2
rob stalling non-critical load ip: 17782316 freq: 186
rob stalling non-critical load ip: 17782380 freq: 373
rob stalling non-critical load ip: 17782384 freq: 2
rob stalling non-critical load ip: 17782400 freq: 20
rob stalling non-critical load ip: 17782428 freq: 7
rob stalling non-critical load ip: 17782476 freq: 69
rob stalling non-critical load ip: 17782496 freq: 2
rob stalling non-critical load ip: 17782536 freq: 22
rob stalling non-critical load ip: 17782548 freq: 7
rob stalling non-critical load ip: 17782576 freq: 2
rob stalling non-critical load ip: 17782600 freq: 10
rob stalling non-critical load ip: 17782928 freq: 140
rob stalling non-critical load ip: 17782984 freq: 44
rob stalling non-critical load ip: 17783272 freq: 14
rob stalling non-critical load ip: 17795408 freq: 1
rob stalling non-critical load ip: 17795512 freq: 12
rob stalling non-critical load ip: 17795524 freq: 1
rob stalling non-critical load ip: 17825288 freq: 13
rob stalling non-critical load ip: 17825320 freq: 2
rob stalling non-critical load ip: 17906156 freq: 16
rob stalling non-critical load ip: 17906336 freq: 84
rob stalling non-critical load ip: 17906384 freq: 578
rob stalling non-critical load ip: 17906400 freq: 305
rob stalling non-critical load ip: 17906620 freq: 18
rob stalling non-critical load ip: 17906636 freq: 3
rob stalling non-critical load ip: 17906644 freq: 2
rob stalling non-critical load ip: 17906844 freq: 1258
rob stalling non-critical load ip: 17906888 freq: 205
rob stalling non-critical load ip: 17906912 freq: 9
rob stalling non-critical load ip: 17906968 freq: 4
rob stalling non-critical load ip: 17906980 freq: 9
rob stalling non-critical load ip: 17907064 freq: 887
rob stalling non-critical load ip: 17908272 freq: 21
rob stalling non-critical load ip: 17908296 freq: 40
rob stalling non-critical load ip: 17908312 freq: 16
rob stalling non-critical load ip: 17908368 freq: 12
rob stalling non-critical load ip: 18022900 freq: 29
rob stalling non-critical load ip: 18022940 freq: 3
rob stalling non-critical load ip: 18022944 freq: 54
rob stalling non-critical load ip: 18022948 freq: 1
rob stalling non-critical load ip: 18022976 freq: 2
rob stalling non-critical load ip: 18023028 freq: 1
rob stalling non-critical load ip: 18023308 freq: 4
rob stalling non-critical load ip: 18025240 freq: 43
rob stalling non-critical load ip: 18025248 freq: 6
rob stalling non-critical load ip: 18025276 freq: 21
rob stalling non-critical load ip: 18025296 freq: 61
rob stalling non-critical load ip: 18025304 freq: 31
rob stalling non-critical load ip: 18025320 freq: 7
rob stalling non-critical load ip: 18025340 freq: 45
rob stalling non-critical load ip: 18025560 freq: 3
rob stalling non-critical load ip: 18025576 freq: 9
rob stalling non-critical load ip: 18025832 freq: 3
rob stalling non-critical load ip: 18026080 freq: 5
rob stalling non-critical load ip: 18026640 freq: 6
rob stalling non-critical load ip: 18026656 freq: 4
rob stalling non-critical load ip: 18026668 freq: 12
rob stalling non-critical load ip: 18026908 freq: 18
rob stalling non-critical load ip: 18026928 freq: 42
rob stalling non-critical load ip: 18026992 freq: 3
rob stalling non-critical load ip: 18027120 freq: 24
rob stalling non-critical load ip: 18027128 freq: 7
rob stalling non-critical load ip: 18027156 freq: 435
rob stalling non-critical load ip: 18027488 freq: 3
rob stalling non-critical load ip: 18027924 freq: 29
rob stalling non-critical load ip: 18027932 freq: 13
rob stalling non-critical load ip: 18049648 freq: 19
rob stalling non-critical load ip: 18049664 freq: 77
rob stalling non-critical load ip: 18049728 freq: 8
rob stalling non-critical load ip: 18049736 freq: 13
rob stalling non-critical load ip: 18049744 freq: 33
rob stalling non-critical load ip: 18049756 freq: 2
rob stalling non-critical load ip: 18049920 freq: 91
rob stalling non-critical load ip: 18049936 freq: 6
rob stalling non-critical load ip: 18049956 freq: 1
rob stalling non-critical load ip: 18049996 freq: 11
rob stalling non-critical load ip: 18050004 freq: 12
rob stalling non-critical load ip: 18050036 freq: 4
rob stalling non-critical load ip: 18050048 freq: 288
rob stalling non-critical load ip: 18073720 freq: 1
rob stalling non-critical load ip: 18074636 freq: 6
rob stalling non-critical load ip: 18074640 freq: 2
rob stalling non-critical load ip: 18085540 freq: 9
rob stalling non-critical load ip: 18110020 freq: 4
rob stalling non-critical load ip: 18110220 freq: 3
rob stalling non-critical load ip: 18128468 freq: 30
rob stalling non-critical load ip: 18128484 freq: 3
rob stalling non-critical load ip: 18128540 freq: 40
rob stalling non-critical load ip: 18128612 freq: 20
rob stalling non-critical load ip: 18128640 freq: 237
rob stalling non-critical load ip: 18128648 freq: 4
rob stalling non-critical load ip: 18128744 freq: 256
rob stalling non-critical load ip: 18132480 freq: 2
rob stalling non-critical load ip: 18132720 freq: 1049
rob stalling non-critical load ip: 18132760 freq: 267
rob stalling non-critical load ip: 18132804 freq: 29
rob stalling non-critical load ip: 18132832 freq: 84
rob stalling non-critical load ip: 18132844 freq: 15
rob stalling non-critical load ip: 18132856 freq: 8
rob stalling non-critical load ip: 18132872 freq: 25
rob stalling non-critical load ip: 18132896 freq: 102
rob stalling non-critical load ip: 18132908 freq: 171
rob stalling non-critical load ip: 18132916 freq: 38
rob stalling non-critical load ip: 18132980 freq: 15
rob stalling non-critical load ip: 18132996 freq: 1000
rob stalling non-critical load ip: 18133012 freq: 10
rob stalling non-critical load ip: 18133020 freq: 2
rob stalling non-critical load ip: 18133080 freq: 1723
rob stalling non-critical load ip: 18133112 freq: 136
rob stalling non-critical load ip: 18133116 freq: 2
rob stalling non-critical load ip: 18133280 freq: 22
rob stalling non-critical load ip: 18133368 freq: 144
rob stalling non-critical load ip: 18133388 freq: 35
rob stalling non-critical load ip: 18133392 freq: 50
rob stalling non-critical load ip: 18133404 freq: 11
rob stalling non-critical load ip: 18133408 freq: 94
rob stalling non-critical load ip: 18133592 freq: 17
rob stalling non-critical load ip: 18133608 freq: 7
rob stalling non-critical load ip: 18133656 freq: 3
rob stalling non-critical load ip: 18133736 freq: 2
rob stalling non-critical load ip: 18133828 freq: 1
rob stalling non-critical load ip: 18133864 freq: 2
rob stalling non-critical load ip: 18133936 freq: 6
rob stalling non-critical load ip: 18133940 freq: 13
rob stalling non-critical load ip: 18133964 freq: 12
rob stalling non-critical load ip: 18133996 freq: 4
rob stalling non-critical load ip: 18134084 freq: 43
rob stalling non-critical load ip: 18134132 freq: 2
rob stalling non-critical load ip: 18134192 freq: 41
rob stalling non-critical load ip: 18134276 freq: 5
rob stalling non-critical load ip: 18134316 freq: 22
rob stalling non-critical load ip: 18134344 freq: 9
rob stalling non-critical load ip: 18134356 freq: 21
rob stalling non-critical load ip: 18134420 freq: 5
rob stalling non-critical load ip: 18134436 freq: 4
rob stalling non-critical load ip: 18303200 freq: 4
rob stalling non-critical load ip: 18303276 freq: 1
rob stalling non-critical load ip: 18303304 freq: 3
rob stalling non-critical load ip: 18317984 freq: 3
rob stalling non-critical load ip: 18457504 freq: 2
rob stalling non-critical load ip: 18457564 freq: 2
rob stalling non-critical load ip: 18457572 freq: 9
rob stalling non-critical load ip: 18466760 freq: 1
rob stalling non-critical load ip: 18466824 freq: 3
rob stalling non-critical load ip: 18466832 freq: 1
rob stalling non-critical load ip: 18466888 freq: 7
rob stalling non-critical load ip: 18466904 freq: 3
rob stalling non-critical load ip: 18466940 freq: 4
rob stalling non-critical load ip: 18466952 freq: 7
rob stalling non-critical load ip: 18467084 freq: 5
rob stalling non-critical load ip: 18467160 freq: 3
rob stalling non-critical load ip: 18467240 freq: 1
rob stalling non-critical load ip: 18467372 freq: 1
rob stalling non-critical load ip: 18481788 freq: 166
rob stalling non-critical load ip: 18481820 freq: 28
rob stalling non-critical load ip: 18481948 freq: 2
rob stalling non-critical load ip: 18493424 freq: 3
rob stalling non-critical load ip: 18604280 freq: 77
rob stalling non-critical load ip: 18604288 freq: 4
rob stalling non-critical load ip: 18604344 freq: 801
rob stalling non-critical load ip: 18604368 freq: 47
rob stalling non-critical load ip: 18604396 freq: 9
rob stalling non-critical load ip: 18604480 freq: 14
rob stalling non-critical load ip: 18625668 freq: 69
rob stalling non-critical load ip: 18627428 freq: 22
rob stalling non-critical load ip: 18631072 freq: 11
rob stalling non-critical load ip: 18631092 freq: 9
rob stalling non-critical load ip: 18631116 freq: 1
rob stalling non-critical load ip: 18634180 freq: 20
rob stalling non-critical load ip: 18634208 freq: 23
rob stalling non-critical load ip: 18634364 freq: 23
rob stalling non-critical load ip: 18634892 freq: 37
rob stalling non-critical load ip: 18642072 freq: 4
rob stalling non-critical load ip: 18757300 freq: 4
rob stalling non-critical load ip: 18757496 freq: 3
rob stalling non-critical load ip: 18757520 freq: 7
rob stalling non-critical load ip: 18757580 freq: 8
rob stalling non-critical load ip: 18757776 freq: 3
rob stalling non-critical load ip: 18757968 freq: 5
rob stalling non-critical load ip: 18760628 freq: 37
rob stalling non-critical load ip: 18760764 freq: 5
rob stalling non-critical load ip: 18760808 freq: 4
rob stalling non-critical load ip: 18760852 freq: 9
rob stalling non-critical load ip: 18776464 freq: 2
rob stalling non-critical load ip: 18776508 freq: 2
rob stalling non-critical load ip: 18783856 freq: 75
rob stalling non-critical load ip: 18783872 freq: 17
rob stalling non-critical load ip: 18783924 freq: 6
rob stalling non-critical load ip: 18783940 freq: 25
rob stalling non-critical load ip: 18783960 freq: 1
rob stalling non-critical load ip: 18786440 freq: 1
rob stalling non-critical load ip: 18790068 freq: 31
rob stalling non-critical load ip: 18790364 freq: 2
rob stalling non-critical load ip: 18790796 freq: 23
rob stalling non-critical load ip: 18790812 freq: 17
rob stalling non-critical load ip: 18790940 freq: 8
rob stalling non-critical load ip: 18790984 freq: 2
rob stalling non-critical load ip: 18791368 freq: 10
rob stalling non-critical load ip: 18791384 freq: 1
rob stalling non-critical load ip: 18791500 freq: 1
rob stalling non-critical load ip: 18791504 freq: 12
rob stalling non-critical load ip: 18791520 freq: 16
rob stalling non-critical load ip: 18791552 freq: 6
rob stalling non-critical load ip: 18791568 freq: 2
rob stalling non-critical load ip: 18791612 freq: 3
rob stalling non-critical load ip: 18791632 freq: 11
rob stalling non-critical load ip: 18791760 freq: 11
rob stalling non-critical load ip: 18791796 freq: 78
rob stalling non-critical load ip: 18791880 freq: 17
rob stalling non-critical load ip: 18792108 freq: 13
rob stalling non-critical load ip: 18792112 freq: 15
rob stalling non-critical load ip: 18792888 freq: 9
rob stalling non-critical load ip: 18793196 freq: 2
rob stalling non-critical load ip: 18793340 freq: 2
rob stalling non-critical load ip: 18847852 freq: 2
rob stalling non-critical load ip: 18847888 freq: 11
rob stalling non-critical load ip: 18847912 freq: 6
rob stalling non-critical load ip: 18847948 freq: 27
rob stalling non-critical load ip: 18847960 freq: 5
rob stalling non-critical load ip: 18847964 freq: 3
rob stalling non-critical load ip: 18847984 freq: 43
rob stalling non-critical load ip: 18848036 freq: 5
rob stalling non-critical load ip: 18848072 freq: 52
rob stalling non-critical load ip: 18848108 freq: 4
rob stalling non-critical load ip: 18848112 freq: 7
rob stalling non-critical load ip: 18848116 freq: 2
rob stalling non-critical load ip: 18848136 freq: 2
rob stalling non-critical load ip: 18848172 freq: 2
rob stalling non-critical load ip: 18848228 freq: 2
rob stalling non-critical load ip: 18848276 freq: 4
rob stalling non-critical load ip: 18848296 freq: 18
rob stalling non-critical load ip: 18848324 freq: 2
rob stalling non-critical load ip: 18848340 freq: 3
rob stalling non-critical load ip: 18848392 freq: 1
rob stalling non-critical load ip: 18848564 freq: 5
rob stalling non-critical load ip: 18848928 freq: 35
rob stalling non-critical load ip: 18848936 freq: 13
rob stalling non-critical load ip: 18848996 freq: 8
rob stalling non-critical load ip: 18851012 freq: 5
rob stalling non-critical load ip: 18851052 freq: 4
rob stalling non-critical load ip: 18851080 freq: 7
rob stalling non-critical load ip: 18851100 freq: 2
rob stalling non-critical load ip: 18851108 freq: 3
rob stalling non-critical load ip: 18851384 freq: 10
rob stalling non-critical load ip: 18851432 freq: 8
rob stalling non-critical load ip: 18851444 freq: 1
rob stalling non-critical load ip: 18851676 freq: 3
rob stalling non-critical load ip: 18853212 freq: 50
rob stalling non-critical load ip: 18853284 freq: 5
rob stalling non-critical load ip: 18956724 freq: 20
rob stalling non-critical load ip: 18956808 freq: 5
rob stalling non-critical load ip: 18956864 freq: 3
rob stalling non-critical load ip: 18956884 freq: 1
rob stalling non-critical load ip: 18956900 freq: 2
rob stalling non-critical load ip: 18960512 freq: 20
rob stalling non-critical load ip: 18960552 freq: 7
rob stalling non-critical load ip: 18960584 freq: 16
rob stalling non-critical load ip: 18960616 freq: 4
rob stalling non-critical load ip: 18960648 freq: 1
rob stalling non-critical load ip: 18960676 freq: 1
rob stalling non-critical load ip: 18960688 freq: 8
rob stalling non-critical load ip: 18960700 freq: 3
rob stalling non-critical load ip: 18960812 freq: 3
rob stalling non-critical load ip: 18960836 freq: 5
rob stalling non-critical load ip: 18960848 freq: 1
rob stalling non-critical load ip: 18960860 freq: 3
rob stalling non-critical load ip: 18960876 freq: 2
rob stalling non-critical load ip: 18960892 freq: 2
rob stalling non-critical load ip: 18960908 freq: 2
rob stalling non-critical load ip: 18960940 freq: 3
rob stalling non-critical load ip: 18960972 freq: 3
rob stalling non-critical load ip: 19454556 freq: 5
rob stalling non-critical load ip: 19454592 freq: 1
rob stalling non-critical load ip: 19471884 freq: 1
rob stalling non-critical load ip: 19489332 freq: 17
rob stalling non-critical load ip: 19489344 freq: 112
rob stalling non-critical load ip: 19489356 freq: 159
rob stalling non-critical load ip: 19489368 freq: 15
rob stalling non-critical load ip: 19489396 freq: 14
rob stalling non-critical load ip: 19489408 freq: 30
rob stalling non-critical load ip: 19489580 freq: 1
rob stalling non-critical load ip: 19493820 freq: 19
rob stalling non-critical load ip: 19493916 freq: 14
rob stalling non-critical load ip: 19493928 freq: 2
rob stalling non-critical load ip: 19493932 freq: 18
rob stalling non-critical load ip: 19493940 freq: 2
rob stalling non-critical load ip: 19493956 freq: 9
rob stalling non-critical load ip: 19493984 freq: 4
rob stalling non-critical load ip: 19494032 freq: 134
rob stalling non-critical load ip: 19494040 freq: 71
rob stalling non-critical load ip: 19494052 freq: 108
rob stalling non-critical load ip: 19494060 freq: 40
rob stalling non-critical load ip: 19494068 freq: 54
rob stalling non-critical load ip: 19494076 freq: 4227
rob stalling non-critical load ip: 19494084 freq: 57
rob stalling non-critical load ip: 19494096 freq: 105
rob stalling non-critical load ip: 19494104 freq: 11382
rob stalling non-critical load ip: 19494112 freq: 188
rob stalling non-critical load ip: 19494176 freq: 4
rob stalling non-critical load ip: 19494212 freq: 1
rob stalling non-critical load ip: 19494292 freq: 61
rob stalling non-critical load ip: 19494380 freq: 19
rob stalling non-critical load ip: 19494452 freq: 2
rob stalling non-critical load ip: 19495680 freq: 9
rob stalling non-critical load ip: 19495700 freq: 50
rob stalling non-critical load ip: 19495740 freq: 156
rob stalling non-critical load ip: 19495772 freq: 91
rob stalling non-critical load ip: 19495816 freq: 82
rob stalling non-critical load ip: 19496064 freq: 4
rob stalling non-critical load ip: 19496092 freq: 4
rob stalling non-critical load ip: 19496192 freq: 9513
rob stalling non-critical load ip: 19496208 freq: 1810
rob stalling non-critical load ip: 19496224 freq: 8362
rob stalling non-critical load ip: 19496236 freq: 9172
rob stalling non-critical load ip: 19496264 freq: 657
rob stalling non-critical load ip: 19496548 freq: 8
rob stalling non-critical load ip: 19496676 freq: 52
rob stalling non-critical load ip: 19496688 freq: 49
rob stalling non-critical load ip: 19496700 freq: 1113
rob stalling non-critical load ip: 19496712 freq: 28
rob stalling non-critical load ip: 19496768 freq: 152
rob stalling non-critical load ip: 19496772 freq: 143
rob stalling non-critical load ip: 19496776 freq: 123
rob stalling non-critical load ip: 19496780 freq: 100
rob stalling non-critical load ip: 19496788 freq: 849
rob stalling non-critical load ip: 19496792 freq: 88
rob stalling non-critical load ip: 19496796 freq: 753
rob stalling non-critical load ip: 19496804 freq: 22
rob stalling non-critical load ip: 19496812 freq: 15
rob stalling non-critical load ip: 19496816 freq: 854
rob stalling non-critical load ip: 19496824 freq: 5
rob stalling non-critical load ip: 19496832 freq: 267
rob stalling non-critical load ip: 19496840 freq: 13
rob stalling non-critical load ip: 19496848 freq: 2
rob stalling non-critical load ip: 19496880 freq: 1199
rob stalling non-critical load ip: 19496888 freq: 101
rob stalling non-critical load ip: 19496900 freq: 3276
rob stalling non-critical load ip: 19496908 freq: 239
rob stalling non-critical load ip: 19496916 freq: 1937
rob stalling non-critical load ip: 19496924 freq: 969
rob stalling non-critical load ip: 19496932 freq: 62
rob stalling non-critical load ip: 19496944 freq: 124
rob stalling non-critical load ip: 19496952 freq: 3321
rob stalling non-critical load ip: 19496960 freq: 147
rob stalling non-critical load ip: 19497140 freq: 2368
rob stalling non-critical load ip: 19497228 freq: 18
rob stalling non-critical load ip: 19497260 freq: 19
rob stalling non-critical load ip: 19497416 freq: 1
rob stalling non-critical load ip: 19497448 freq: 62
rob stalling non-critical load ip: 19497544 freq: 3
rob stalling non-critical load ip: 19497776 freq: 3
rob stalling non-critical load ip: 19497852 freq: 4
rob stalling non-critical load ip: 19499140 freq: 43
rob stalling non-critical load ip: 19499152 freq: 4
rob stalling non-critical load ip: 19499172 freq: 6
rob stalling non-critical load ip: 19499416 freq: 5
rob stalling non-critical load ip: 19499804 freq: 6
rob stalling non-critical load ip: 19499832 freq: 14
rob stalling non-critical load ip: 19500044 freq: 6
rob stalling non-critical load ip: 19500056 freq: 3
rob stalling non-critical load ip: 19500084 freq: 15
rob stalling non-critical load ip: 19500756 freq: 12
rob stalling non-critical load ip: 19500964 freq: 1
rob stalling non-critical load ip: 19500968 freq: 8
rob stalling non-critical load ip: 19501012 freq: 18
rob stalling non-critical load ip: 19501028 freq: 8
rob stalling non-critical load ip: 19501032 freq: 12
rob stalling non-critical load ip: 19501068 freq: 39
rob stalling non-critical load ip: 19501084 freq: 1
rob stalling non-critical load ip: 19695740 freq: 20
rob stalling non-critical load ip: 19695780 freq: 29
rob stalling non-critical load ip: 19695796 freq: 54
rob stalling non-critical load ip: 19695884 freq: 1
rob stalling non-critical load ip: 19695888 freq: 25
rob stalling non-critical load ip: 19695908 freq: 21
rob stalling non-critical load ip: 19695924 freq: 4
rob stalling non-critical load ip: 19695928 freq: 6
rob stalling non-critical load ip: 19695944 freq: 2
rob stalling non-critical load ip: 19695960 freq: 3
rob stalling non-critical load ip: 19695992 freq: 2
rob stalling non-critical load ip: 19696032 freq: 2
rob stalling non-critical load ip: 19697760 freq: 2
rob stalling non-critical load ip: 19698064 freq: 2
rob stalling non-critical load ip: 19698204 freq: 12
rob stalling non-critical load ip: 19698228 freq: 6
rob stalling non-critical load ip: 19698288 freq: 4
rob stalling non-critical load ip: 19698368 freq: 1
rob stalling non-critical load ip: 19698384 freq: 1
rob stalling non-critical load ip: 19698480 freq: 7
rob stalling non-critical load ip: 19698504 freq: 13
rob stalling non-critical load ip: 19698816 freq: 2
rob stalling non-critical load ip: 19698832 freq: 2
rob stalling non-critical load ip: 19698884 freq: 3
rob stalling non-critical load ip: 19698964 freq: 2
rob stalling non-critical load ip: 19699940 freq: 2
rob stalling non-critical load ip: 19699968 freq: 5
rob stalling non-critical load ip: 19699980 freq: 1
rob stalling non-critical load ip: 19700000 freq: 1
rob stalling non-critical load ip: 19700476 freq: 1
rob stalling non-critical load ip: 19701440 freq: 20
rob stalling non-critical load ip: 19701456 freq: 16
rob stalling non-critical load ip: 19701788 freq: 1
rob stalling non-critical load ip: 19701852 freq: 193
rob stalling non-critical load ip: 19701876 freq: 4
rob stalling non-critical load ip: 19701920 freq: 7
rob stalling non-critical load ip: 19701924 freq: 20
rob stalling non-critical load ip: 19701944 freq: 11
rob stalling non-critical load ip: 19702280 freq: 1
rob stalling non-critical load ip: 19702604 freq: 13
rob stalling non-critical load ip: 19702608 freq: 1
rob stalling non-critical load ip: 19702700 freq: 1
rob stalling non-critical load ip: 19705608 freq: 2
rob stalling non-critical load ip: 19706608 freq: 1
rob stalling non-critical load ip: 19706632 freq: 3
rob stalling non-critical load ip: 19706816 freq: 1
rob stalling non-critical load ip: 19706848 freq: 2
rob stalling non-critical load ip: 19706912 freq: 3
rob stalling non-critical load ip: 19707028 freq: 11
rob stalling non-critical load ip: 19707040 freq: 5
rob stalling non-critical load ip: 19707116 freq: 1
rob stalling non-critical load ip: 19707188 freq: 1
rob stalling non-critical load ip: 19707268 freq: 6
rob stalling non-critical load ip: 19707756 freq: 62
rob stalling non-critical load ip: 19707776 freq: 39
rob stalling non-critical load ip: 19707780 freq: 15
rob stalling non-critical load ip: 19707784 freq: 15
rob stalling non-critical load ip: 19707796 freq: 3
rob stalling non-critical load ip: 19707808 freq: 1
rob stalling non-critical load ip: 19707844 freq: 4
rob stalling non-critical load ip: 19708048 freq: 30
rob stalling non-critical load ip: 19708092 freq: 3
rob stalling non-critical load ip: 19708324 freq: 1
rob stalling non-critical load ip: 19708352 freq: 2
rob stalling non-critical load ip: 19708440 freq: 1
rob stalling non-critical load ip: 19708660 freq: 2
rob stalling non-critical load ip: 19708676 freq: 1
rob stalling non-critical load ip: 19708688 freq: 1
rob stalling non-critical load ip: 19708996 freq: 8
rob stalling non-critical load ip: 19711940 freq: 7
rob stalling non-critical load ip: 19711948 freq: 11
rob stalling non-critical load ip: 19723060 freq: 9
rob stalling non-critical load ip: 19723140 freq: 28
rob stalling non-critical load ip: 19723236 freq: 53
rob stalling non-critical load ip: 19723248 freq: 1
rob stalling non-critical load ip: 19723320 freq: 37
rob stalling non-critical load ip: 19723336 freq: 24
rob stalling non-critical load ip: 19723352 freq: 12
rob stalling non-critical load ip: 19723368 freq: 2
rob stalling non-critical load ip: 19723408 freq: 1
rob stalling non-critical load ip: 19723456 freq: 6
rob stalling non-critical load ip: 19723524 freq: 2
rob stalling non-critical load ip: 19724416 freq: 8
rob stalling non-critical load ip: 19724432 freq: 9
rob stalling non-critical load ip: 19724576 freq: 7
rob stalling non-critical load ip: 19724636 freq: 3
rob stalling non-critical load ip: 19725616 freq: 18
rob stalling non-critical load ip: 19725644 freq: 2
rob stalling non-critical load ip: 19725656 freq: 2
rob stalling non-critical load ip: 19725660 freq: 3
rob stalling non-critical load ip: 19725704 freq: 6
rob stalling non-critical load ip: 19725720 freq: 10
rob stalling non-critical load ip: 19725736 freq: 1
rob stalling non-critical load ip: 19726032 freq: 1
rob stalling non-critical load ip: 19730756 freq: 7
rob stalling non-critical load ip: 19730792 freq: 3
rob stalling non-critical load ip: 19730936 freq: 11
rob stalling non-critical load ip: 19730952 freq: 6
rob stalling non-critical load ip: 19731836 freq: 1
rob stalling non-critical load ip: 19731852 freq: 2
rob stalling non-critical load ip: 19731932 freq: 1
rob stalling non-critical load ip: 19731936 freq: 1
rob stalling non-critical load ip: 19732288 freq: 8
rob stalling non-critical load ip: 19732304 freq: 1
rob stalling non-critical load ip: 19732644 freq: 6
rob stalling non-critical load ip: 19732912 freq: 9
rob stalling non-critical load ip: 19732928 freq: 6
rob stalling non-critical load ip: 19732940 freq: 3
rob stalling non-critical load ip: 19732956 freq: 1
rob stalling non-critical load ip: 19732984 freq: 4
rob stalling non-critical load ip: 19733036 freq: 1
rob stalling non-critical load ip: 19733228 freq: 1
rob stalling non-critical load ip: 19733500 freq: 26
rob stalling non-critical load ip: 19745436 freq: 3
rob stalling non-critical load ip: 19745668 freq: 1
rob stalling non-critical load ip: 19745684 freq: 3
rob stalling non-critical load ip: 19745748 freq: 1
rob stalling non-critical load ip: 19746060 freq: 3
rob stalling non-critical load ip: 19746212 freq: 2
rob stalling non-critical load ip: 19746244 freq: 22
rob stalling non-critical load ip: 19746296 freq: 4
[...]
Non-critical_ROB_Stalls_Percent_1_Bucket_5: 3690
Critical_ROB_Stalls_Percent_1_Bucket_6: 68
Non-critical_ROB_Stalls_Percent_1_Bucket_6: 4914
Critical_ROB_Stalls_Percent_2_Bucket_0: 945992
Non-critical_ROB_Stalls_Percent_2_Bucket_0: 324035
Critical_ROB_Stalls_Percent_2_Bucket_1: 2746
Non-critical_ROB_Stalls_Percent_2_Bucket_1: 16452
Critical_ROB_Stalls_Percent_2_Bucket_2: 369
Non-critical_ROB_Stalls_Percent_2_Bucket_2: 4343
Critical_ROB_Stalls_Percent_2_Bucket_3: 625
Non-critical_ROB_Stalls_Percent_2_Bucket_3: 3576
Critical_ROB_Stalls_Percent_2_Bucket_4: 79
Non-critical_ROB_Stalls_Percent_2_Bucket_4: 3879
Critical_ROB_Stalls_Percent_2_Bucket_5: 90
Non-critical_ROB_Stalls_Percent_2_Bucket_5: 3690
Critical_ROB_Stalls_Percent_2_Bucket_6: 68
Non-critical_ROB_Stalls_Percent_2_Bucket_6: 4914
Critical_ROB_Stalls_Percent_3_Bucket_0: 945992
Non-critical_ROB_Stalls_Percent_3_Bucket_0: 324035
Critical_ROB_Stalls_Percent_3_Bucket_1: 2746
Non-critical_ROB_Stalls_Percent_3_Bucket_1: 16452
Critical_ROB_Stalls_Percent_3_Bucket_2: 369
Non-critical_ROB_Stalls_Percent_3_Bucket_2: 4343
Critical_ROB_Stalls_Percent_3_Bucket_3: 625
Non-critical_ROB_Stalls_Percent_3_Bucket_3: 3576
Critical_ROB_Stalls_Percent_3_Bucket_4: 79
Non-critical_ROB_Stalls_Percent_3_Bucket_4: 3879
Critical_ROB_Stalls_Percent_3_Bucket_5: 90
Non-critical_ROB_Stalls_Percent_3_Bucket_5: 3690
Critical_ROB_Stalls_Percent_3_Bucket_6: 68
Non-critical_ROB_Stalls_Percent_3_Bucket_6: 4914
Critical_ROB_Stalls_Percent_4_Bucket_0: 945992
Non-critical_ROB_Stalls_Percent_4_Bucket_0: 324035
Critical_ROB_Stalls_Percent_4_Bucket_1: 2746
Non-critical_ROB_Stalls_Percent_4_Bucket_1: 16452
Critical_ROB_Stalls_Percent_4_Bucket_2: 369
Non-critical_ROB_Stalls_Percent_4_Bucket_2: 4343
Critical_ROB_Stalls_Percent_4_Bucket_3: 625
Non-critical_ROB_Stalls_Percent_4_Bucket_3: 3576
Critical_ROB_Stalls_Percent_4_Bucket_4: 79
Non-critical_ROB_Stalls_Percent_4_Bucket_4: 3879
Critical_ROB_Stalls_Percent_4_Bucket_5: 90
Non-critical_ROB_Stalls_Percent_4_Bucket_5: 3690
Critical_ROB_Stalls_Percent_4_Bucket_6: 68
Non-critical_ROB_Stalls_Percent_4_Bucket_6: 4914
Critical_ROB_Stalls_Percent_5_Bucket_0: 989875
Non-critical_ROB_Stalls_Percent_5_Bucket_0: 280152
Critical_ROB_Stalls_Percent_5_Bucket_1: 2754
Non-critical_ROB_Stalls_Percent_5_Bucket_1: 16444
Critical_ROB_Stalls_Percent_5_Bucket_2: 373
Non-critical_ROB_Stalls_Percent_5_Bucket_2: 4339
Critical_ROB_Stalls_Percent_5_Bucket_3: 627
Non-critical_ROB_Stalls_Percent_5_Bucket_3: 3574
Critical_ROB_Stalls_Percent_5_Bucket_4: 80
Non-critical_ROB_Stalls_Percent_5_Bucket_4: 3878
Critical_ROB_Stalls_Percent_5_Bucket_5: 91
Non-critical_ROB_Stalls_Percent_5_Bucket_5: 3689
Critical_ROB_Stalls_Percent_5_Bucket_6: 68
Non-critical_ROB_Stalls_Percent_5_Bucket_6: 4914
Critical_ROB_Stalls_Percent_6_Bucket_0: 1034226
Non-critical_ROB_Stalls_Percent_6_Bucket_0: 235801
Critical_ROB_Stalls_Percent_6_Bucket_1: 3817
Non-critical_ROB_Stalls_Percent_6_Bucket_1: 15381
Critical_ROB_Stalls_Percent_6_Bucket_2: 1322
Non-critical_ROB_Stalls_Percent_6_Bucket_2: 3390
Critical_ROB_Stalls_Percent_6_Bucket_3: 1847
Non-critical_ROB_Stalls_Percent_6_Bucket_3: 2354
Critical_ROB_Stalls_Percent_6_Bucket_4: 1933
Non-critical_ROB_Stalls_Percent_6_Bucket_4: 2025
Critical_ROB_Stalls_Percent_6_Bucket_5: 2091
Non-critical_ROB_Stalls_Percent_6_Bucket_5: 1689
Critical_ROB_Stalls_Percent_6_Bucket_6: 2269
Non-critical_ROB_Stalls_Percent_6_Bucket_6: 2713
Critical_ROB_Stalls_Percent_7_Bucket_0: 1092383
Non-critical_ROB_Stalls_Percent_7_Bucket_0: 177644
Critical_ROB_Stalls_Percent_7_Bucket_1: 4418
Non-critical_ROB_Stalls_Percent_7_Bucket_1: 14780
Critical_ROB_Stalls_Percent_7_Bucket_2: 1806
Non-critical_ROB_Stalls_Percent_7_Bucket_2: 2906
Critical_ROB_Stalls_Percent_7_Bucket_3: 2490
Non-critical_ROB_Stalls_Percent_7_Bucket_3: 1711
Critical_ROB_Stalls_Percent_7_Bucket_4: 2672
Non-critical_ROB_Stalls_Percent_7_Bucket_4: 1286
Critical_ROB_Stalls_Percent_7_Bucket_5: 2791
Non-critical_ROB_Stalls_Percent_7_Bucket_5: 989
Critical_ROB_Stalls_Percent_7_Bucket_6: 3007
Non-critical_ROB_Stalls_Percent_7_Bucket_6: 1975
Critical_ROB_Stalls_Percent_8_Bucket_0: 1153998
Non-critical_ROB_Stalls_Percent_8_Bucket_0: 116029
Critical_ROB_Stalls_Percent_8_Bucket_1: 6631
Non-critical_ROB_Stalls_Percent_8_Bucket_1: 12567
Critical_ROB_Stalls_Percent_8_Bucket_2: 1950
Non-critical_ROB_Stalls_Percent_8_Bucket_2: 2762
Critical_ROB_Stalls_Percent_8_Bucket_3: 2547
Non-critical_ROB_Stalls_Percent_8_Bucket_3: 1654
Critical_ROB_Stalls_Percent_8_Bucket_4: 2734
Non-critical_ROB_Stalls_Percent_8_Bucket_4: 1224
Critical_ROB_Stalls_Percent_8_Bucket_5: 2816
Non-critical_ROB_Stalls_Percent_8_Bucket_5: 964
Critical_ROB_Stalls_Percent_8_Bucket_6: 3046
Non-critical_ROB_Stalls_Percent_8_Bucket_6: 1936
Average ROB occupancy Load Stall Begin: 13.8131
Average ROB occupancy Load Stall End: 17.0774
Min ROB occupancy Load Stall Begin: 1
Max ROB occupancy Load Stall Begin: 351
Min ROB occupancy Load Stall End: 1
Max ROB occupancy Load Stall End: 352
Average ROB occupancy Critical Load Stall Begin: -nan
Average ROB occupancy Critical Load Stall End: -nan
Min ROB occupancy Critical Load Stall Begin: 400
Max ROB occupancy Critical Load Stall Begin: 0
Min ROB occupancy Critical Load Stall End: 400
Max ROB occupancy Critical Load Stall End: 0
 ROB Load Stall Begin Bucket Count 0: 1276281
 ROB Load Stall End Bucket Count 0: 1270027
 ROB Critical Load Stall Begin Bucket Count 0: 0
 ROB Critical Load Stall End Bucket Count 0: 0
 ROB Load Stall Begin Bucket Count 1: 15641
 ROB Load Stall End Bucket Count 1: 19198
 ROB Critical Load Stall Begin Bucket Count 1: 0
 ROB Critical Load Stall End Bucket Count 1: 0
 ROB Load Stall Begin Bucket Count 2: 4206
 ROB Load Stall End Bucket Count 2: 4712
 ROB Critical Load Stall Begin Bucket Count 2: 0
 ROB Critical Load Stall End Bucket Count 2: 0
 ROB Load Stall Begin Bucket Count 3: 3374
 ROB Load Stall End Bucket Count 3: 4201
 ROB Critical Load Stall Begin Bucket Count 3: 0
 ROB Critical Load Stall End Bucket Count 3: 0
 ROB Load Stall Begin Bucket Count 4: 4017
 ROB Load Stall End Bucket Count 4: 3958
 ROB Critical Load Stall Begin Bucket Count 4: 0
 ROB Critical Load Stall End Bucket Count 4: 0
 ROB Load Stall Begin Bucket Count 5: 3457
 ROB Load Stall End Bucket Count 5: 3780
 ROB Critical Load Stall Begin Bucket Count 5: 0
 ROB Critical Load Stall End Bucket Count 5: 0
 ROB Load Stall Begin Bucket Count 6: 3882
 ROB Load Stall End Bucket Count 6: 4982
 ROB Critical Load Stall Begin Bucket Count 6: 0
 ROB Critical Load Stall End Bucket Count 6: 0
PIST Tag Read Accesses: 37752
PIST Read Accesses: 18876
PIST Tag Write Accesses: 37752
PIST Write Accesses: 18876
Criticality detector called times: 208027
Max global_stall_cycles_count: 116017
Threshold Modified: 1 times, factor: -1
Sturdy critical IP cache stats: 
 Unused entries: 0
CIC Tag Read Accesses: 0
CIC Read Accesses: 0
CIC Tag Write Accesses: 0
CIC Write Accesses: 0
Wobbly critical IP cache stats: 
 Unused entries: 123
CIC Tag Read Accesses: 43366496
CIC Read Accesses: 0
CIC Tag Write Accesses: 5
CIC Write Accesses: 0
ITLB TOTAL     ACCESS:    8722599  HIT:    7954959  MISS:     767640  HIT %:    91.1994  MISS %:    8.80059   MPKI: 15.3528
ITLB LOAD TRANSLATION ACCESS:    8722599  HIT:    7954959  MISS:     767640  HIT %:    91.1994  MISS %:    8.80059   MPKI: 15.3528
ITLB PREFETCH  REQUESTED:          0  ISSUED:          0  USEFUL:          0  USELESS:          0
ITLB USEFUL LOAD PREFETCHES:          0 PREFETCH ISSUED TO LOWER LEVEL:          0  ACCURACY: -nan
ITLB TIMELY PREFETCHES:          0 LATE PREFETCHES: 0 DROPPED PREFETCHES: 0
ITLB PREFETCHES SAME FILL-ORIGIN LEVEL: 0 DIFFERENT FILL-ORIGIN LEVEL: 0
ITLB AVERAGE MISS LATENCY: 29.8682 cycles
ITLB RQ	ACCESS:    9903970	FORWARD:          0	MERGED:     863551	TO_CACHE:    9040419

DTLB TOTAL     ACCESS:    5310032  HIT:    4346166  MISS:     963866  HIT %:    81.8482  MISS %:    18.1518   MPKI: 19.2773
DTLB LOAD TRANSLATION ACCESS:    5310032  HIT:    4346166  MISS:     963866  HIT %:    81.8482  MISS %:    18.1518   MPKI: 19.2773
DTLB PREFETCH  REQUESTED:          0  ISSUED:          0  USEFUL:          0  USELESS:          0
DTLB USEFUL LOAD PREFETCHES:          0 PREFETCH ISSUED TO LOWER LEVEL:          0  ACCURACY: -nan
DTLB TIMELY PREFETCHES:          0 LATE PREFETCHES: 0 DROPPED PREFETCHES: 0
DTLB PREFETCHES SAME FILL-ORIGIN LEVEL: 0 DIFFERENT FILL-ORIGIN LEVEL: 0
DTLB AVERAGE MISS LATENCY: 31.8603 cycles
DTLB RQ	ACCESS:    7054772	FORWARD:          0	MERGED:    1548241	TO_CACHE:    5506531

STLB TOTAL     ACCESS:    1731506  HIT:     459084  MISS:    1272422  HIT %:    26.5136  MISS %:    73.4864   MPKI: 25.4484
STLB LOAD TRANSLATION ACCESS:    1731506  HIT:     459084  MISS:    1272422  HIT %:    26.5136  MISS %:    73.4864   MPKI: 25.4484
STLB PREFETCH  REQUESTED:          0  ISSUED:          0  USEFUL:          0  USELESS:          0
STLB USEFUL LOAD PREFETCHES:          0 PREFETCH ISSUED TO LOWER LEVEL:          0  ACCURACY: -nan
STLB TIMELY PREFETCHES:          0 LATE PREFETCHES: 0 DROPPED PREFETCHES: 0
STLB PREFETCHES SAME FILL-ORIGIN LEVEL: 0 DIFFERENT FILL-ORIGIN LEVEL: 0
STLB AVERAGE MISS LATENCY: 29.8018 cycles
STLB RQ	ACCESS:    1731507	FORWARD:          0	MERGED:          0	TO_CACHE:    1731507

STLB Hit, L1D data hit: 0
STLB Hit, L2C data hit: 0
STLB Hit, LLC data hit: 0
STLB Hit, LLC data miss: 0
STLB STLB hints to L2: 0
L1D TOTAL     ACCESS:    6743533  HIT:    6315343  MISS:     428190  HIT %:    93.6504  MISS %:    6.34964   MPKI: 8.5638
L1D LOAD      ACCESS:    4559140  HIT:    4205522  MISS:     353618  HIT %:    92.2438  MISS %:    7.75624   MPKI: 7.07236
L1D RFO       ACCESS:    2184393  HIT:    2109821  MISS:      74572  HIT %:    96.5861  MISS %:    3.41385   MPKI: 1.49144
L1D PREFETCH  REQUESTED:          0  ISSUED:          0  USEFUL:          0  USELESS:          0
L1D USEFUL LOAD PREFETCHES:          0 PREFETCH ISSUED TO LOWER LEVEL:          0  ACCURACY: -nan
L1D TIMELY PREFETCHES:          0 LATE PREFETCHES: 0 DROPPED PREFETCHES: 0
L1D PREFETCHES SAME FILL-ORIGIN LEVEL: 0 DIFFERENT FILL-ORIGIN LEVEL: 0
L1D AVERAGE MISS LATENCY: 46.1979 cycles
L1D RQ	ACCESS:    7714275	FORWARD:          0	MERGED:    3092536	TO_CACHE:    4601851
L1D WQ	ACCESS:    2475969	FORWARD:      19888	MERGED:      23048	TO_CACHE:    2452921

L1D UNIQUE REGIONS ACCESSED: 0
L1D REGIONS CONFLICTS: 0
L1D Cross Page Prefetch Requests: 0
L1D Same Page Prefetch Requests: 0
L1D ROI Sum of L1D PQ occupancy: 0
L1D PREFETCHES PUSHED FROM L2C: 0
L1I TOTAL     ACCESS:    9551475  HIT:    8442947  MISS:    1108528  HIT %:    88.3942  MISS %:    11.6058   MPKI: 22.1706
L1I LOAD      ACCESS:    9551475  HIT:    8442947  MISS:    1108528  HIT %:    88.3942  MISS %:    11.6058   MPKI: 22.1706
L1I PREFETCH  REQUESTED:          0  ISSUED:          0  USEFUL:          0  USELESS:          0
L1I USEFUL LOAD PREFETCHES:          0 PREFETCH ISSUED TO LOWER LEVEL:          0  ACCURACY: -nan
L1I TIMELY PREFETCHES:          0 LATE PREFETCHES: 0 DROPPED PREFETCHES: 0
L1I PREFETCHES SAME FILL-ORIGIN LEVEL: 0 DIFFERENT FILL-ORIGIN LEVEL: 0
L1I AVERAGE MISS LATENCY: 15.5708 cycles
L1I RQ	ACCESS:   16713790	FORWARD:          0	MERGED:    6809820	TO_CACHE:    9903970

BTB BRANCH_DIRECT_JUMP	ACCESS:          0  HIT:          0  MISS:          0
BTB BRANCH_INDIRECT	ACCESS:          0  HIT:          0  MISS:          0
BTB BRANCH_CONDITIONAL	ACCESS:          0  HIT:          0  MISS:          0
BTB BRANCH_DIRECT_CALL	ACCESS:          0  HIT:          0  MISS:          0
BTB BRANCH_INDIRECT_CALL	ACCESS:          0  HIT:          0  MISS:          0
BTB BRANCH_RETURN	ACCESS:          0  HIT:          0  MISS:          0
BTB BRANCH_OTHER ACCESS:          0  HIT:          0  MISS:          0

L2C TOTAL     ACCESS:    3362978  HIT:    2965284  MISS:     397694  HIT %:    88.1744  MISS %:    11.8256   MPKI: 7.95388
L2C LOAD      ACCESS:    1462143  HIT:    1387434  MISS:      74709  HIT %:    94.8904  MISS %:    5.10955   MPKI: 1.49418
L2C DATA LOAD MPKI: 1.0489
L2C INSTRUCTION LOAD MPKI: 0.44528
L2C RFO       ACCESS:      74567  HIT:      25703  MISS:      48864  HIT %:    34.4697  MISS %:    65.5303   MPKI: 0.97728
L2C PREFETCH  ACCESS:     303257  HIT:      46002  MISS:     257255  HIT %:    15.1693  MISS %:    84.8307   MPKI: 5.1451
L2C DATA PREFETCH MPKI: 5.1451
L2C INSTRUCTION PREFETCH MPKI: 0
L2C WRITEBACK ACCESS:     115365  HIT:     111169  MISS:       4196  HIT %:    96.3628  MISS %:    3.63715   MPKI: 0.08392
L2C LOAD TRANSLATION ACCESS:    1407646  HIT:    1394976  MISS:      12670  HIT %:    99.0999  MISS %:   0.900084   MPKI: 0.2534
L2C PREFETCH  REQUESTED:     312559  ISSUED:     312559  USEFUL:     221837  USELESS:      35320
L2C USEFUL LOAD PREFETCHES:     221837 PREFETCH ISSUED TO LOWER LEVEL:     262623  ACCURACY: 84.4698
L2C TIMELY PREFETCHES:     221837 LATE PREFETCHES: 5368 DROPPED PREFETCHES: 0
L2C PREFETCHES SAME FILL-ORIGIN LEVEL: 262623 DIFFERENT FILL-ORIGIN LEVEL: 0
L2C AVERAGE MISS LATENCY: 140.114 cycles
L2C RQ	ACCESS:    2944363	FORWARD:          0	MERGED:          0	TO_CACHE:    2944357
L2C WQ	ACCESS:     115365	FORWARD:          6	MERGED:          0	TO_CACHE:     115365
L2C PQ	ACCESS:     312559	FORWARD:          0	MERGED:          0	TO_CACHE:     312559

L2C Instructions Evicting Data 19764
L2C Translations Evicting Data 11398
L2C Data Evicting Data 328063
L2C Instructions Evicting Instructions 1743
L2C Translations Evicting Instructions 686
L2C Data Evicting Instructions 19376
L2C Instructions Evicting Translations 757
L2C Translations Evicting Translations 586
L2C Data Evicting Translations 11125
L2C Dense regions hint from L2: 0
PSCL5 TOTAL     ACCESS:    1272423  HIT:    1272423  MISS:          0  HIT %:        100  MISS %:          0   MPKI: 0
PSCL5 LOAD TRANSLATION ACCESS:    1272423  HIT:    1272423  MISS:          0  HIT %:        100  MISS %:          0   MPKI: 0
PSCL5 PREFETCH  REQUESTED:          0  ISSUED:          0  USEFUL:          0  USELESS:          0
PSCL5 USEFUL LOAD PREFETCHES:          0 PREFETCH ISSUED TO LOWER LEVEL:          0  ACCURACY: -nan
PSCL5 TIMELY PREFETCHES:          0 LATE PREFETCHES: 0 DROPPED PREFETCHES: 0
PSCL5 PREFETCHES SAME FILL-ORIGIN LEVEL: 0 DIFFERENT FILL-ORIGIN LEVEL: 0

PSCL4 TOTAL     ACCESS:    1272423  HIT:    1272423  MISS:          0  HIT %:        100  MISS %:          0   MPKI: 0
PSCL4 LOAD TRANSLATION ACCESS:    1272423  HIT:    1272423  MISS:          0  HIT %:        100  MISS %:          0   MPKI: 0
PSCL4 PREFETCH  REQUESTED:          0  ISSUED:          0  USEFUL:          0  USELESS:          0
PSCL4 USEFUL LOAD PREFETCHES:          0 PREFETCH ISSUED TO LOWER LEVEL:          0  ACCURACY: -nan
PSCL4 TIMELY PREFETCHES:          0 LATE PREFETCHES: 0 DROPPED PREFETCHES: 0
PSCL4 PREFETCHES SAME FILL-ORIGIN LEVEL: 0 DIFFERENT FILL-ORIGIN LEVEL: 0

PSCL3 TOTAL     ACCESS:    1271494  HIT:    1271245  MISS:        249  HIT %:    99.9804  MISS %:  0.0195833   MPKI: 0.00498
PSCL3 LOAD TRANSLATION ACCESS:    1271494  HIT:    1271245  MISS:        249  HIT %:    99.9804  MISS %:  0.0195833   MPKI: 0.00498
PSCL3 PREFETCH  REQUESTED:          0  ISSUED:          0  USEFUL:          0  USELESS:          0
PSCL3 USEFUL LOAD PREFETCHES:          0 PREFETCH ISSUED TO LOWER LEVEL:          0  ACCURACY: -nan
PSCL3 TIMELY PREFETCHES:          0 LATE PREFETCHES: 0 DROPPED PREFETCHES: 0
PSCL3 PREFETCHES SAME FILL-ORIGIN LEVEL: 0 DIFFERENT FILL-ORIGIN LEVEL: 0

PSCL2 TOTAL     ACCESS:    1272423  HIT:    1137276  MISS:     135147  HIT %:    89.3788  MISS %:    10.6212   MPKI: 2.70294
PSCL2 LOAD TRANSLATION ACCESS:    1272423  HIT:    1137276  MISS:     135147  HIT %:    89.3788  MISS %:    10.6212   MPKI: 2.70294
PSCL2 PREFETCH  REQUESTED:          0  ISSUED:          0  USEFUL:          0  USELESS:          0
PSCL2 USEFUL LOAD PREFETCHES:          0 PREFETCH ISSUED TO LOWER LEVEL:          0  ACCURACY: -nan
PSCL2 TIMELY PREFETCHES:          0 LATE PREFETCHES: 0 DROPPED PREFETCHES: 0
PSCL2 PREFETCHES SAME FILL-ORIGIN LEVEL: 0 DIFFERENT FILL-ORIGIN LEVEL: 0

LLC TOTAL     ACCESS:     462295  HIT:     148251  MISS:     314044  HIT %:    32.0685  MISS %:    67.9315   MPKI: 6.28088
LLC LOAD      ACCESS:      69371  HIT:      32996  MISS:      36375  HIT %:    47.5645  MISS %:    52.4355   MPKI: 0.7275
LLC RFO       ACCESS:      48834  HIT:      21181  MISS:      27653  HIT %:    43.3735  MISS %:    56.6265   MPKI: 0.55306
LLC PREFETCH  ACCESS:     262623  HIT:      19474  MISS:     243149  HIT %:    7.41519  MISS %:    92.5848   MPKI: 4.86298
LLC WRITEBACK ACCESS:      68797  HIT:      67999  MISS:        798  HIT %:    98.8401  MISS %:    1.15993   MPKI: 0.01596
LLC LOAD TRANSLATION ACCESS:      12670  HIT:       6601  MISS:       6069  HIT %:    52.0994  MISS %:    47.9006   MPKI: 0.12138
LLC PREFETCH  REQUESTED:          0  ISSUED:          0  USEFUL:       1452  USELESS:     240338
LLC USEFUL LOAD PREFETCHES:       1452 PREFETCH ISSUED TO LOWER LEVEL:     243149  ACCURACY: 0.597165
LLC TIMELY PREFETCHES:       1452 LATE PREFETCHES: 0 DROPPED PREFETCHES: 0
LLC PREFETCHES SAME FILL-ORIGIN LEVEL: 0 DIFFERENT FILL-ORIGIN LEVEL: 0
LLC AVERAGE MISS LATENCY: 140.389 cycles
LLC RQ	ACCESS:     130875	FORWARD:          0	MERGED:          0	TO_CACHE:     130875
LLC WQ	ACCESS:      68797	FORWARD:          0	MERGED:          0	TO_CACHE:      68797
LLC PQ	ACCESS:     262623	FORWARD:          0	MERGED:          0	TO_CACHE:     262623

LLC Dense regions hint to LLC: 0

RAW hits: 141728
Loads Generated: 7856003
Loads sent to L1D: 7714275
Stores Generated: 2475968
Stores sent to L1D: 2475969
Major fault: 0 Minor fault: 17681
Allocated PAGES: 17681
[Bingo] PHT Access: 55482
[Bingo] PHT Hit PC+Addr: 19932
[Bingo] PHT Hit PC+Offs: 22883
[Bingo] PHT Miss: 12667
[Bingo] Prefetch PC+Addr: 0
[Bingo] Prefetch PC+Offs: 0
[Bingo] Useful PC+Addr: 0
[Bingo] Useful PC+Offs: 0
[Bingo] Useless PC+Addr: 0
[Bingo] Useless PC+Offs: 0
[Bingo] L1 Prefetch per Region: 0
[Bingo] L2 Prefetch per Region: 8.33346
[Bingo] L3 Prefetch per Region: 0
[Bingo] No Prefetch per Region: 23.6665
[Bingo] Number of Voters Mean: 8.82813
[Bingo] Number of Voters SD: 9.83433
PHT read accesses: 559879
PHT write accesses: 24372
AT read accesses: 300674
AT write accesses: 315561
FT read accesses: 91252
FT write accesses: 55482
PS read accesses: 97406
PS write accesses: 42815
PHT tag read accesses: 1263361
PHT tag write accesses: 44304
AT tag read accesses: 13119937
AT tag write accesses: 325046
FT tag read accesses: 9676335
FT tag write accesses: 115417
PS tag read accesses: 7377460
PS tag write accesses: 140002

DRAM Statistics
 CHANNEL 0
 RQ ROW_BUFFER_HIT:     227703  ROW_BUFFER_MISS:      85543
 DBUS_CONGESTED:         85
 WQ ROW_BUFFER_HIT:       4451  ROW_BUFFER_MISS:      36541  FULL:          0

 AVG_CONGESTED_CYCLE: 4
 All warmup complete: 2
Channel 0 Bank busy for read cycles: 0
Channel 0 Bank busy for write cycles: 0
Channel 0
Rank 0
0banks busy for read cycles: 74384892
0banks busy for write cycles: 9520
1banks busy for read cycles: 2805426
1banks busy for write cycles: 1104326
2banks busy for read cycles: 1299180
2banks busy for write cycles: 502679
3banks busy for read cycles: 586933
3banks busy for write cycles: 294997
4banks busy for read cycles: 355083
4banks busy for write cycles: 205943
5banks busy for read cycles: 247780
5banks busy for write cycles: 151785
6banks busy for read cycles: 193000
6banks busy for write cycles: 116618
7banks busy for read cycles: 500869
7banks busy for write cycles: 100782
8banks busy for read cycles: 1221983
8banks busy for write cycles: 176057

CPU 0 Branch Prediction Accuracy: 99.3974% MPKI: 0.9654 Average ROB Occupancy at Mispredict: 30.6484
Branch types
NOT_BRANCH: 0 0%
BRANCH_DIRECT_JUMP: 0 0%
BRANCH_INDIRECT: 0 0%
BRANCH_CONDITIONAL: 0 0%
BRANCH_DIRECT_CALL: 0 0%
BRANCH_INDIRECT_CALL: 0 0%
BRANCH_RETURN: 0 0%
BRANCH_OTHER: 0 0%

DRAM PAGES: 1048576
Allocated PAGES: 17681
