
*** ChampSim Multicore Out-of-Order Simulator ***

Warmup Instructions: 50000000
Simulation Instructions: 50000000
Number of CPUs: 1
LLC sets: 2048
LLC ways: 16
Off-chip DRAM Size: 4096 MB Channels: 1 Width: 64-bit Data Rate: 6400 MT/s
CPU 0 runs ../cloudsuite_traces//streaming_phase2_core3.trace.gz
.gz
NUM_OF_IPS_IN_CRITICAL_IP_TRAINING: 64
NUM_OF_CRITICAL_IP_TRAINING_TABLE_WAYS: 2
NUM_OF_CRITICAL_IP_TRAINING_TABLE_SETS: 32
WOBBLY_CRITICAL_IP_CACHE_SETS: 32
WOBBLY_CRITICAL_IP_CACHE_WAYS: 4
BTB has LRU replacement policy
ITLB has LRU replacement policy
DTLB has LRU replacement policy
STLB has LRU replacement policy
L1I has LRU replacement policy
L1D has LRU replacement policy
Bingo PHT WAYS: 16 and PHT_SIZE: 16384
Initialize SRRIP state for L2C
Initialize DRRIP state for LLC
UNIQUE_ASID[0] = €
UNIQUE_ASID[1] = 
Heartbeat CPU 0 instructions: 10000002 cycles: 3333189 heartbeat IPC: 3.00013 cumulative IPC: 3.00013 (Simulation time: 0 hr 1 min 50 sec) 
Heartbeat CPU 0 instructions: 20000000 cycles: 6721426 heartbeat IPC: 2.95139 cumulative IPC: 2.97556 (Simulation time: 0 hr 5 min 8 sec) 
Heartbeat CPU 0 instructions: 30000001 cycles: 10111031 heartbeat IPC: 2.9502 cumulative IPC: 2.96706 (Simulation time: 0 hr 8 min 20 sec) 
Heartbeat CPU 0 instructions: 40000000 cycles: 13412546 heartbeat IPC: 3.02891 cumulative IPC: 2.98228 (Simulation time: 0 hr 11 min 43 sec) 
Heartbeat CPU 0 instructions: 50000002 cycles: 16804137 heartbeat IPC: 2.94847 cumulative IPC: 2.97546 (Simulation time: 0 hr 14 min 47 sec) 

Warmup complete CPU 0 instructions: 50000002 cycles: 16804137 (Simulation time: 0 hr 14 min 47 sec) 

% increase in all ip prefetch 377.123
% increase in all ip prefetch 2.05819
Heartbeat CPU 0 instructions: 60000000 cycles: 34480714 heartbeat IPC: 0.56572 cumulative IPC: 0.56572 (Simulation time: 0 hr 19 min 11 sec) 
Heartbeat CPU 0 instructions: 70000003 cycles: 52156253 heartbeat IPC: 0.565754 cumulative IPC: 0.565737 (Simulation time: 0 hr 23 min 16 sec) 
Heartbeat CPU 0 instructions: 80000003 cycles: 69725267 heartbeat IPC: 0.569184 cumulative IPC: 0.566881 (Simulation time: 0 hr 27 min 18 sec) 
Heartbeat CPU 0 instructions: 90000001 cycles: 87185321 heartbeat IPC: 0.572736 cumulative IPC: 0.568334 (Simulation time: 0 hr 31 min 16 sec) 
Heartbeat CPU 0 instructions: 100000002 cycles: 104965904 heartbeat IPC: 0.562411 cumulative IPC: 0.567139 (Simulation time: 0 hr 34 min 20 sec) 
Finished CPU 0 instructions: 50000000 cycles: 88161767 cumulative IPC: 0.567139 (Simulation time: 0 hr 34 min 20 sec) 

ChampSim completed all CPUs

Region of Interest Statistics

CPU 0 cumulative IPC: 0.567139 instructions: 50000000 cycles: 88161767

CPU 0 Average Load ROB stall cycles: 6.96473e+06
CPU 0 Fraction of times ROB stalled by Loads: 11.3956
CPU 0 Percentage of Load stall cycles in Total stall cycles: 8.98816e+07
 Total stall cycles: 46357390
 Total load stall cycles: 41666754720044
CPU 0 NUM of IPS identified critical: 0
CPU 0 Num of Load IPs stalling ROB: 1972
Threshold modification factor: -1
Max PIST entries: 64
Min PIST entries: 0
Avg PIST entries: 31.88
Critical IP stalls, total frequency: 0
rob stalling non-critical load ip: 236068 freq: 85
rob stalling non-critical load ip: 236144 freq: 86
rob stalling non-critical load ip: 236148 freq: 40
rob stalling non-critical load ip: 241788 freq: 65
rob stalling non-critical load ip: 241796 freq: 4509
rob stalling non-critical load ip: 241836 freq: 32
rob stalling non-critical load ip: 241972 freq: 107
rob stalling non-critical load ip: 241992 freq: 64
rob stalling non-critical load ip: 241996 freq: 98
rob stalling non-critical load ip: 242000 freq: 54
rob stalling non-critical load ip: 242020 freq: 57
rob stalling non-critical load ip: 242148 freq: 80
rob stalling non-critical load ip: 242156 freq: 138
rob stalling non-critical load ip: 242176 freq: 1521
rob stalling non-critical load ip: 242180 freq: 3260
rob stalling non-critical load ip: 242184 freq: 268
rob stalling non-critical load ip: 242208 freq: 95
rob stalling non-critical load ip: 242224 freq: 72
rob stalling non-critical load ip: 242232 freq: 31
rob stalling non-critical load ip: 242236 freq: 2
rob stalling non-critical load ip: 245668 freq: 1172
rob stalling non-critical load ip: 245676 freq: 147
rob stalling non-critical load ip: 245716 freq: 2
rob stalling non-critical load ip: 245732 freq: 31
rob stalling non-critical load ip: 245792 freq: 50
rob stalling non-critical load ip: 245800 freq: 322
rob stalling non-critical load ip: 245804 freq: 4
rob stalling non-critical load ip: 245816 freq: 6
rob stalling non-critical load ip: 245848 freq: 264
rob stalling non-critical load ip: 245860 freq: 38
rob stalling non-critical load ip: 245864 freq: 60
rob stalling non-critical load ip: 245876 freq: 42
rob stalling non-critical load ip: 245880 freq: 44
rob stalling non-critical load ip: 245892 freq: 21
rob stalling non-critical load ip: 246008 freq: 46
rob stalling non-critical load ip: 246168 freq: 82
rob stalling non-critical load ip: 246204 freq: 563
rob stalling non-critical load ip: 246216 freq: 501
rob stalling non-critical load ip: 246244 freq: 2858
rob stalling non-critical load ip: 246256 freq: 13
rob stalling non-critical load ip: 246344 freq: 376
rob stalling non-critical load ip: 246356 freq: 17
rob stalling non-critical load ip: 287024 freq: 29
rob stalling non-critical load ip: 287060 freq: 40
rob stalling non-critical load ip: 287088 freq: 30
rob stalling non-critical load ip: 287108 freq: 36
rob stalling non-critical load ip: 287112 freq: 19
rob stalling non-critical load ip: 287220 freq: 83
rob stalling non-critical load ip: 287244 freq: 34
rob stalling non-critical load ip: 287248 freq: 295
rob stalling non-critical load ip: 287268 freq: 29
rob stalling non-critical load ip: 300124 freq: 77
rob stalling non-critical load ip: 300132 freq: 3
rob stalling non-critical load ip: 300172 freq: 7
rob stalling non-critical load ip: 300192 freq: 17
rob stalling non-critical load ip: 300224 freq: 16
rob stalling non-critical load ip: 300836 freq: 78
rob stalling non-critical load ip: 300840 freq: 498
rob stalling non-critical load ip: 300848 freq: 286
rob stalling non-critical load ip: 300912 freq: 374
rob stalling non-critical load ip: 300936 freq: 18
rob stalling non-critical load ip: 300964 freq: 1121
rob stalling non-critical load ip: 301056 freq: 16
rob stalling non-critical load ip: 301068 freq: 1
rob stalling non-critical load ip: 301164 freq: 2
rob stalling non-critical load ip: 301188 freq: 79
rob stalling non-critical load ip: 301524 freq: 8
rob stalling non-critical load ip: 301712 freq: 23
rob stalling non-critical load ip: 301716 freq: 152
rob stalling non-critical load ip: 301720 freq: 33
rob stalling non-critical load ip: 318120 freq: 9
rob stalling non-critical load ip: 318132 freq: 13
rob stalling non-critical load ip: 318636 freq: 17
rob stalling non-critical load ip: 318828 freq: 4
rob stalling non-critical load ip: 318948 freq: 10
rob stalling non-critical load ip: 319000 freq: 4
rob stalling non-critical load ip: 319080 freq: 1
rob stalling non-critical load ip: 319208 freq: 5
rob stalling non-critical load ip: 319220 freq: 2
rob stalling non-critical load ip: 323496 freq: 2
rob stalling non-critical load ip: 329660 freq: 14
rob stalling non-critical load ip: 329676 freq: 13
rob stalling non-critical load ip: 341868 freq: 1092
rob stalling non-critical load ip: 341884 freq: 26
rob stalling non-critical load ip: 341888 freq: 2
rob stalling non-critical load ip: 341916 freq: 17
rob stalling non-critical load ip: 341940 freq: 15
rob stalling non-critical load ip: 341944 freq: 1300
rob stalling non-critical load ip: 342004 freq: 832
rob stalling non-critical load ip: 342068 freq: 15
rob stalling non-critical load ip: 352028 freq: 2
rob stalling non-critical load ip: 352920 freq: 26
rob stalling non-critical load ip: 353000 freq: 101
rob stalling non-critical load ip: 353036 freq: 45
rob stalling non-critical load ip: 353040 freq: 106
rob stalling non-critical load ip: 353052 freq: 13
rob stalling non-critical load ip: 353076 freq: 29
rob stalling non-critical load ip: 353216 freq: 11
rob stalling non-critical load ip: 353220 freq: 1429
rob stalling non-critical load ip: 353236 freq: 84
rob stalling non-critical load ip: 353260 freq: 23
rob stalling non-critical load ip: 353312 freq: 408
rob stalling non-critical load ip: 353316 freq: 105
rob stalling non-critical load ip: 353332 freq: 16
rob stalling non-critical load ip: 353356 freq: 18
rob stalling non-critical load ip: 353392 freq: 1931
rob stalling non-critical load ip: 353416 freq: 2
rob stalling non-critical load ip: 353492 freq: 143
rob stalling non-critical load ip: 353524 freq: 11
rob stalling non-critical load ip: 353540 freq: 17
rob stalling non-critical load ip: 353544 freq: 133
rob stalling non-critical load ip: 353548 freq: 4
rob stalling non-critical load ip: 353564 freq: 139
rob stalling non-critical load ip: 353604 freq: 57
rob stalling non-critical load ip: 353624 freq: 1
rob stalling non-critical load ip: 353636 freq: 101
rob stalling non-critical load ip: 353640 freq: 179
rob stalling non-critical load ip: 353652 freq: 18
rob stalling non-critical load ip: 353696 freq: 14
rob stalling non-critical load ip: 353744 freq: 11
rob stalling non-critical load ip: 353784 freq: 91
rob stalling non-critical load ip: 353788 freq: 219
rob stalling non-critical load ip: 353828 freq: 238
rob stalling non-critical load ip: 353832 freq: 6
rob stalling non-critical load ip: 353836 freq: 4
rob stalling non-critical load ip: 353852 freq: 6
rob stalling non-critical load ip: 353880 freq: 22
rob stalling non-critical load ip: 353904 freq: 11
rob stalling non-critical load ip: 353912 freq: 11
rob stalling non-critical load ip: 353948 freq: 62
rob stalling non-critical load ip: 353960 freq: 3
rob stalling non-critical load ip: 353984 freq: 5
rob stalling non-critical load ip: 354164 freq: 204
rob stalling non-critical load ip: 354176 freq: 11
rob stalling non-critical load ip: 354200 freq: 2
rob stalling non-critical load ip: 354212 freq: 13
rob stalling non-critical load ip: 354712 freq: 73
rob stalling non-critical load ip: 354716 freq: 144
rob stalling non-critical load ip: 354728 freq: 9
rob stalling non-critical load ip: 354740 freq: 263
rob stalling non-critical load ip: 354744 freq: 13
rob stalling non-critical load ip: 354748 freq: 1
rob stalling non-critical load ip: 354764 freq: 55
rob stalling non-critical load ip: 354776 freq: 53
rob stalling non-critical load ip: 516668 freq: 103
rob stalling non-critical load ip: 516676 freq: 19
rob stalling non-critical load ip: 516976 freq: 1447
rob stalling non-critical load ip: 517352 freq: 76
rob stalling non-critical load ip: 517396 freq: 28
rob stalling non-critical load ip: 517404 freq: 8
rob stalling non-critical load ip: 589008 freq: 14
rob stalling non-critical load ip: 589012 freq: 3
rob stalling non-critical load ip: 589036 freq: 5
rob stalling non-critical load ip: 589052 freq: 2
rob stalling non-critical load ip: 589084 freq: 18
rob stalling non-critical load ip: 589120 freq: 19
rob stalling non-critical load ip: 589136 freq: 18
rob stalling non-critical load ip: 589140 freq: 3
rob stalling non-critical load ip: 589144 freq: 125
rob stalling non-critical load ip: 589156 freq: 25
rob stalling non-critical load ip: 589180 freq: 24
rob stalling non-critical load ip: 589212 freq: 37
rob stalling non-critical load ip: 589228 freq: 3
rob stalling non-critical load ip: 589232 freq: 2
rob stalling non-critical load ip: 589236 freq: 189
rob stalling non-critical load ip: 589240 freq: 174
rob stalling non-critical load ip: 589252 freq: 166
rob stalling non-critical load ip: 589256 freq: 42
rob stalling non-critical load ip: 589260 freq: 1
rob stalling non-critical load ip: 589284 freq: 169
rob stalling non-critical load ip: 589288 freq: 38
rob stalling non-critical load ip: 589320 freq: 3
rob stalling non-critical load ip: 589392 freq: 7
rob stalling non-critical load ip: 589908 freq: 6
rob stalling non-critical load ip: 589912 freq: 9
rob stalling non-critical load ip: 589916 freq: 11
rob stalling non-critical load ip: 589932 freq: 17
rob stalling non-critical load ip: 589948 freq: 73
rob stalling non-critical load ip: 589960 freq: 38
rob stalling non-critical load ip: 589964 freq: 6
rob stalling non-critical load ip: 590000 freq: 69
rob stalling non-critical load ip: 590012 freq: 73
rob stalling non-critical load ip: 590036 freq: 51
rob stalling non-critical load ip: 590040 freq: 43
rob stalling non-critical load ip: 590064 freq: 31
rob stalling non-critical load ip: 590136 freq: 80
rob stalling non-critical load ip: 590148 freq: 20
rob stalling non-critical load ip: 590200 freq: 10
rob stalling non-critical load ip: 590216 freq: 5
rob stalling non-critical load ip: 590220 freq: 2
rob stalling non-critical load ip: 590340 freq: 2
rob stalling non-critical load ip: 590352 freq: 4
rob stalling non-critical load ip: 590956 freq: 11
rob stalling non-critical load ip: 591084 freq: 1
rob stalling non-critical load ip: 722812 freq: 3
rob stalling non-critical load ip: 722816 freq: 5
rob stalling non-critical load ip: 722832 freq: 45
rob stalling non-critical load ip: 722892 freq: 19
rob stalling non-critical load ip: 722896 freq: 146
rob stalling non-critical load ip: 722900 freq: 20
rob stalling non-critical load ip: 722920 freq: 11
rob stalling non-critical load ip: 846400 freq: 2
rob stalling non-critical load ip: 846404 freq: 12
rob stalling non-critical load ip: 846484 freq: 2
rob stalling non-critical load ip: 852864 freq: 5
rob stalling non-critical load ip: 852948 freq: 30
rob stalling non-critical load ip: 852988 freq: 8
rob stalling non-critical load ip: 856100 freq: 146
rob stalling non-critical load ip: 856148 freq: 35
rob stalling non-critical load ip: 856428 freq: 2
rob stalling non-critical load ip: 857344 freq: 3270
rob stalling non-critical load ip: 857508 freq: 4088
rob stalling non-critical load ip: 857592 freq: 53
rob stalling non-critical load ip: 857616 freq: 767
rob stalling non-critical load ip: 857628 freq: 37
rob stalling non-critical load ip: 857680 freq: 897
rob stalling non-critical load ip: 857820 freq: 47
rob stalling non-critical load ip: 857892 freq: 41
rob stalling non-critical load ip: 858172 freq: 4
rob stalling non-critical load ip: 858176 freq: 7
rob stalling non-critical load ip: 858380 freq: 738
rob stalling non-critical load ip: 858396 freq: 26
rob stalling non-critical load ip: 858416 freq: 30
rob stalling non-critical load ip: 858432 freq: 27
rob stalling non-critical load ip: 858436 freq: 14
rob stalling non-critical load ip: 858464 freq: 59
rob stalling non-critical load ip: 858468 freq: 138
rob stalling non-critical load ip: 858552 freq: 34
rob stalling non-critical load ip: 858620 freq: 5534
rob stalling non-critical load ip: 858624 freq: 15
rob stalling non-critical load ip: 858696 freq: 5548
rob stalling non-critical load ip: 858868 freq: 5
rob stalling non-critical load ip: 858880 freq: 125
rob stalling non-critical load ip: 858896 freq: 32
rob stalling non-critical load ip: 858900 freq: 245
rob stalling non-critical load ip: 858904 freq: 72
rob stalling non-critical load ip: 858912 freq: 32
rob stalling non-critical load ip: 858916 freq: 224
rob stalling non-critical load ip: 858940 freq: 10
rob stalling non-critical load ip: 858964 freq: 48
rob stalling non-critical load ip: 858984 freq: 110
rob stalling non-critical load ip: 859076 freq: 960
rob stalling non-critical load ip: 859088 freq: 729
rob stalling non-critical load ip: 859092 freq: 15
rob stalling non-critical load ip: 859100 freq: 17
rob stalling non-critical load ip: 859316 freq: 80
rob stalling non-critical load ip: 859328 freq: 30
rob stalling non-critical load ip: 859576 freq: 1
rob stalling non-critical load ip: 859632 freq: 38
rob stalling non-critical load ip: 859940 freq: 681
rob stalling non-critical load ip: 859960 freq: 27
rob stalling non-critical load ip: 859976 freq: 37
rob stalling non-critical load ip: 860000 freq: 1017
rob stalling non-critical load ip: 860132 freq: 2954
rob stalling non-critical load ip: 860144 freq: 36
rob stalling non-critical load ip: 860464 freq: 3
rob stalling non-critical load ip: 860504 freq: 14
rob stalling non-critical load ip: 860636 freq: 46
rob stalling non-critical load ip: 860640 freq: 31
rob stalling non-critical load ip: 860644 freq: 143
rob stalling non-critical load ip: 860696 freq: 10
rob stalling non-critical load ip: 860708 freq: 102
rob stalling non-critical load ip: 860752 freq: 5
rob stalling non-critical load ip: 860756 freq: 4
rob stalling non-critical load ip: 860976 freq: 35
rob stalling non-critical load ip: 861004 freq: 10
rob stalling non-critical load ip: 861080 freq: 4
rob stalling non-critical load ip: 861084 freq: 1
rob stalling non-critical load ip: 861088 freq: 5
rob stalling non-critical load ip: 861120 freq: 1
rob stalling non-critical load ip: 861124 freq: 4
rob stalling non-critical load ip: 862156 freq: 3792
rob stalling non-critical load ip: 862192 freq: 978
rob stalling non-critical load ip: 862232 freq: 1644
rob stalling non-critical load ip: 862360 freq: 1043
rob stalling non-critical load ip: 862384 freq: 346
rob stalling non-critical load ip: 862492 freq: 145
rob stalling non-critical load ip: 862504 freq: 16
rob stalling non-critical load ip: 862880 freq: 225
rob stalling non-critical load ip: 862896 freq: 8
rob stalling non-critical load ip: 862904 freq: 20
rob stalling non-critical load ip: 862916 freq: 9
rob stalling non-critical load ip: 863072 freq: 13
rob stalling non-critical load ip: 863124 freq: 125
rob stalling non-critical load ip: 863132 freq: 15
rob stalling non-critical load ip: 863136 freq: 252
rob stalling non-critical load ip: 863228 freq: 48
rob stalling non-critical load ip: 863260 freq: 46
rob stalling non-critical load ip: 863292 freq: 26
rob stalling non-critical load ip: 867796 freq: 11
rob stalling non-critical load ip: 881188 freq: 4
rob stalling non-critical load ip: 881224 freq: 5
rob stalling non-critical load ip: 881736 freq: 32
rob stalling non-critical load ip: 882032 freq: 4
rob stalling non-critical load ip: 888332 freq: 45
rob stalling non-critical load ip: 906552 freq: 4
rob stalling non-critical load ip: 906644 freq: 10
rob stalling non-critical load ip: 906764 freq: 2
rob stalling non-critical load ip: 906780 freq: 1
rob stalling non-critical load ip: 906876 freq: 16
rob stalling non-critical load ip: 910004 freq: 39
rob stalling non-critical load ip: 910088 freq: 5439
rob stalling non-critical load ip: 914940 freq: 64
rob stalling non-critical load ip: 914968 freq: 124
rob stalling non-critical load ip: 915504 freq: 121
rob stalling non-critical load ip: 915516 freq: 1941
rob stalling non-critical load ip: 915560 freq: 2188
rob stalling non-critical load ip: 919464 freq: 87
rob stalling non-critical load ip: 919532 freq: 30
rob stalling non-critical load ip: 919544 freq: 4
rob stalling non-critical load ip: 919548 freq: 1
rob stalling non-critical load ip: 919560 freq: 24
rob stalling non-critical load ip: 919624 freq: 32
rob stalling non-critical load ip: 919640 freq: 8
rob stalling non-critical load ip: 919664 freq: 25
rob stalling non-critical load ip: 919668 freq: 63
rob stalling non-critical load ip: 919968 freq: 2228
rob stalling non-critical load ip: 919976 freq: 1228
rob stalling non-critical load ip: 919980 freq: 11
rob stalling non-critical load ip: 920024 freq: 623
rob stalling non-critical load ip: 920040 freq: 104
rob stalling non-critical load ip: 920076 freq: 553
rob stalling non-critical load ip: 920108 freq: 30
rob stalling non-critical load ip: 920112 freq: 126
rob stalling non-critical load ip: 920148 freq: 84
rob stalling non-critical load ip: 920204 freq: 47
rob stalling non-critical load ip: 920216 freq: 50
rob stalling non-critical load ip: 920248 freq: 55
rob stalling non-critical load ip: 920320 freq: 22
rob stalling non-critical load ip: 920324 freq: 38
rob stalling non-critical load ip: 920344 freq: 18
rob stalling non-critical load ip: 920412 freq: 21
rob stalling non-critical load ip: 920440 freq: 51
rob stalling non-critical load ip: 920444 freq: 8
rob stalling non-critical load ip: 920508 freq: 210
rob stalling non-critical load ip: 920512 freq: 24
rob stalling non-critical load ip: 920620 freq: 341
rob stalling non-critical load ip: 920732 freq: 125
rob stalling non-critical load ip: 920764 freq: 37
rob stalling non-critical load ip: 920856 freq: 38
rob stalling non-critical load ip: 920888 freq: 1
rob stalling non-critical load ip: 920896 freq: 1
rob stalling non-critical load ip: 921224 freq: 5
rob stalling non-critical load ip: 921276 freq: 236
rob stalling non-critical load ip: 921300 freq: 2693
rob stalling non-critical load ip: 921304 freq: 36
rob stalling non-critical load ip: 921336 freq: 22
rob stalling non-critical load ip: 921408 freq: 68
rob stalling non-critical load ip: 921456 freq: 490
rob stalling non-critical load ip: 921460 freq: 460
rob stalling non-critical load ip: 921480 freq: 7
rob stalling non-critical load ip: 921496 freq: 26
rob stalling non-critical load ip: 921520 freq: 532
rob stalling non-critical load ip: 921544 freq: 604
rob stalling non-critical load ip: 921568 freq: 47
rob stalling non-critical load ip: 921764 freq: 21
rob stalling non-critical load ip: 921768 freq: 2475
rob stalling non-critical load ip: 921784 freq: 163
rob stalling non-critical load ip: 921804 freq: 18
rob stalling non-critical load ip: 921904 freq: 169
rob stalling non-critical load ip: 921920 freq: 23
rob stalling non-critical load ip: 921924 freq: 703
rob stalling non-critical load ip: 921948 freq: 80
rob stalling non-critical load ip: 921952 freq: 305
rob stalling non-critical load ip: 921968 freq: 25
rob stalling non-critical load ip: 922008 freq: 4486
rob stalling non-critical load ip: 922016 freq: 16
rob stalling non-critical load ip: 922500 freq: 18
rob stalling non-critical load ip: 922504 freq: 5
rob stalling non-critical load ip: 922544 freq: 37
rob stalling non-critical load ip: 922548 freq: 3176
rob stalling non-critical load ip: 922596 freq: 25
rob stalling non-critical load ip: 922612 freq: 26
rob stalling non-critical load ip: 922616 freq: 49
rob stalling non-critical load ip: 922624 freq: 8
rob stalling non-critical load ip: 922644 freq: 16
rob stalling non-critical load ip: 922648 freq: 431
rob stalling non-critical load ip: 922652 freq: 12
rob stalling non-critical load ip: 922656 freq: 19
rob stalling non-critical load ip: 922672 freq: 65
rob stalling non-critical load ip: 922812 freq: 595
rob stalling non-critical load ip: 922868 freq: 20
rob stalling non-critical load ip: 922888 freq: 887
rob stalling non-critical load ip: 922924 freq: 45
rob stalling non-critical load ip: 923060 freq: 2198
rob stalling non-critical load ip: 923064 freq: 2222
rob stalling non-critical load ip: 923076 freq: 84
rob stalling non-critical load ip: 923080 freq: 2454
rob stalling non-critical load ip: 923088 freq: 61
rob stalling non-critical load ip: 923096 freq: 35
rob stalling non-critical load ip: 923116 freq: 15
rob stalling non-critical load ip: 923816 freq: 99
rob stalling non-critical load ip: 923824 freq: 9
rob stalling non-critical load ip: 923832 freq: 11
rob stalling non-critical load ip: 930780 freq: 2668
rob stalling non-critical load ip: 930796 freq: 36
rob stalling non-critical load ip: 930828 freq: 15
rob stalling non-critical load ip: 930832 freq: 15
rob stalling non-critical load ip: 930840 freq: 4
rob stalling non-critical load ip: 930860 freq: 63
rob stalling non-critical load ip: 930864 freq: 4
rob stalling non-critical load ip: 931104 freq: 23
rob stalling non-critical load ip: 931120 freq: 4
rob stalling non-critical load ip: 931136 freq: 1
rob stalling non-critical load ip: 931172 freq: 54
rob stalling non-critical load ip: 931192 freq: 33
rob stalling non-critical load ip: 931200 freq: 58
rob stalling non-critical load ip: 931224 freq: 71
rob stalling non-critical load ip: 931308 freq: 44
rob stalling non-critical load ip: 931320 freq: 451
rob stalling non-critical load ip: 931356 freq: 165
rob stalling non-critical load ip: 931364 freq: 4
rob stalling non-critical load ip: 931372 freq: 5
rob stalling non-critical load ip: 931380 freq: 269
rob stalling non-critical load ip: 931412 freq: 63
rob stalling non-critical load ip: 931428 freq: 5
rob stalling non-critical load ip: 931436 freq: 67
rob stalling non-critical load ip: 931848 freq: 2
rob stalling non-critical load ip: 931852 freq: 5
rob stalling non-critical load ip: 931896 freq: 25
rob stalling non-critical load ip: 931924 freq: 12
rob stalling non-critical load ip: 931940 freq: 53
rob stalling non-critical load ip: 931964 freq: 61
rob stalling non-critical load ip: 931968 freq: 329
rob stalling non-critical load ip: 932004 freq: 828
rob stalling non-critical load ip: 932012 freq: 9
rob stalling non-critical load ip: 932044 freq: 150
rob stalling non-critical load ip: 932056 freq: 39
rob stalling non-critical load ip: 932064 freq: 246
rob stalling non-critical load ip: 932072 freq: 578
rob stalling non-critical load ip: 932096 freq: 45
rob stalling non-critical load ip: 932124 freq: 38
rob stalling non-critical load ip: 938528 freq: 194
rob stalling non-critical load ip: 938540 freq: 32
rob stalling non-critical load ip: 938556 freq: 145
rob stalling non-critical load ip: 938612 freq: 228
rob stalling non-critical load ip: 938616 freq: 68
rob stalling non-critical load ip: 938644 freq: 18
rob stalling non-critical load ip: 938660 freq: 27
rob stalling non-critical load ip: 938668 freq: 41
rob stalling non-critical load ip: 938692 freq: 1
rob stalling non-critical load ip: 938708 freq: 7
rob stalling non-critical load ip: 938720 freq: 2
rob stalling non-critical load ip: 938724 freq: 24
rob stalling non-critical load ip: 938736 freq: 2
rob stalling non-critical load ip: 938756 freq: 106
rob stalling non-critical load ip: 938772 freq: 4
rob stalling non-critical load ip: 938860 freq: 40
rob stalling non-critical load ip: 938912 freq: 65
rob stalling non-critical load ip: 938928 freq: 20
rob stalling non-critical load ip: 939012 freq: 7
rob stalling non-critical load ip: 939192 freq: 12
rob stalling non-critical load ip: 939204 freq: 65
rob stalling non-critical load ip: 944504 freq: 87
rob stalling non-critical load ip: 944536 freq: 74
rob stalling non-critical load ip: 944544 freq: 64
rob stalling non-critical load ip: 945012 freq: 23
rob stalling non-critical load ip: 945032 freq: 28
rob stalling non-critical load ip: 952748 freq: 463
rob stalling non-critical load ip: 952780 freq: 557
rob stalling non-critical load ip: 952796 freq: 188
rob stalling non-critical load ip: 952816 freq: 1462
rob stalling non-critical load ip: 952856 freq: 30
rob stalling non-critical load ip: 952900 freq: 524
rob stalling non-critical load ip: 952916 freq: 620
rob stalling non-critical load ip: 952920 freq: 157
rob stalling non-critical load ip: 952932 freq: 15
rob stalling non-critical load ip: 952968 freq: 90
rob stalling non-critical load ip: 952984 freq: 81
rob stalling non-critical load ip: 953040 freq: 88
rob stalling non-critical load ip: 953056 freq: 2
rob stalling non-critical load ip: 953072 freq: 2
rob stalling non-critical load ip: 953092 freq: 187
rob stalling non-critical load ip: 953108 freq: 5
rob stalling non-critical load ip: 953116 freq: 1
rob stalling non-critical load ip: 953128 freq: 15
rob stalling non-critical load ip: 953140 freq: 40
rob stalling non-critical load ip: 953144 freq: 48
rob stalling non-critical load ip: 953164 freq: 46
rob stalling non-critical load ip: 953196 freq: 21
rob stalling non-critical load ip: 953208 freq: 2
rob stalling non-critical load ip: 953228 freq: 123
rob stalling non-critical load ip: 953336 freq: 247
rob stalling non-critical load ip: 953472 freq: 54
rob stalling non-critical load ip: 956308 freq: 109
rob stalling non-critical load ip: 956332 freq: 23
rob stalling non-critical load ip: 956340 freq: 18
rob stalling non-critical load ip: 956344 freq: 5
rob stalling non-critical load ip: 959708 freq: 131
rob stalling non-critical load ip: 959720 freq: 37
rob stalling non-critical load ip: 959724 freq: 5
rob stalling non-critical load ip: 959740 freq: 17
rob stalling non-critical load ip: 959744 freq: 5
rob stalling non-critical load ip: 959760 freq: 4
rob stalling non-critical load ip: 959768 freq: 8
rob stalling non-critical load ip: 959796 freq: 1
rob stalling non-critical load ip: 959812 freq: 10
rob stalling non-critical load ip: 959832 freq: 3
rob stalling non-critical load ip: 959864 freq: 9
rob stalling non-critical load ip: 959888 freq: 8
rob stalling non-critical load ip: 959976 freq: 63
rob stalling non-critical load ip: 964556 freq: 2
rob stalling non-critical load ip: 964560 freq: 2
rob stalling non-critical load ip: 1029576 freq: 3056
rob stalling non-critical load ip: 1029596 freq: 692
rob stalling non-critical load ip: 1029612 freq: 22
rob stalling non-critical load ip: 1029628 freq: 571
rob stalling non-critical load ip: 1029652 freq: 48
rob stalling non-critical load ip: 1029672 freq: 290
rob stalling non-critical load ip: 1029684 freq: 21
rob stalling non-critical load ip: 1029688 freq: 1
rob stalling non-critical load ip: 1029720 freq: 118
rob stalling non-critical load ip: 1029740 freq: 615
rob stalling non-critical load ip: 1029776 freq: 964
rob stalling non-critical load ip: 1029812 freq: 36
rob stalling non-critical load ip: 1029816 freq: 51
rob stalling non-critical load ip: 1029832 freq: 31
rob stalling non-critical load ip: 1029844 freq: 24
rob stalling non-critical load ip: 1029964 freq: 1
rob stalling non-critical load ip: 1029980 freq: 33
rob stalling non-critical load ip: 1029996 freq: 46
rob stalling non-critical load ip: 1030008 freq: 33
rob stalling non-critical load ip: 1030128 freq: 94
rob stalling non-critical load ip: 1030144 freq: 3220
rob stalling non-critical load ip: 1030160 freq: 123
rob stalling non-critical load ip: 1031328 freq: 27
rob stalling non-critical load ip: 1031356 freq: 56
rob stalling non-critical load ip: 1031360 freq: 695
rob stalling non-critical load ip: 1032164 freq: 22
rob stalling non-critical load ip: 1032188 freq: 65
rob stalling non-critical load ip: 1032208 freq: 44
rob stalling non-critical load ip: 1032212 freq: 45
rob stalling non-critical load ip: 1032224 freq: 28
rob stalling non-critical load ip: 1032240 freq: 83
rob stalling non-critical load ip: 16780456 freq: 1139
rob stalling non-critical load ip: 16780584 freq: 1595
rob stalling non-critical load ip: 16783496 freq: 2916
rob stalling non-critical load ip: 16783504 freq: 380
rob stalling non-critical load ip: 16783512 freq: 178
rob stalling non-critical load ip: 16783524 freq: 23
rob stalling non-critical load ip: 16783528 freq: 63
rob stalling non-critical load ip: 16783532 freq: 22388
rob stalling non-critical load ip: 16783536 freq: 107
rob stalling non-critical load ip: 16783544 freq: 92
rob stalling non-critical load ip: 16783548 freq: 3635
rob stalling non-critical load ip: 16783552 freq: 3319
rob stalling non-critical load ip: 16783556 freq: 3
rob stalling non-critical load ip: 16783564 freq: 9167
rob stalling non-critical load ip: 16783568 freq: 56
rob stalling non-critical load ip: 16783572 freq: 7505
rob stalling non-critical load ip: 16783576 freq: 6
rob stalling non-critical load ip: 16783752 freq: 400
rob stalling non-critical load ip: 16783760 freq: 53
rob stalling non-critical load ip: 16783768 freq: 51
rob stalling non-critical load ip: 16783780 freq: 2
rob stalling non-critical load ip: 16783784 freq: 7
rob stalling non-critical load ip: 16783788 freq: 2246
rob stalling non-critical load ip: 16783792 freq: 19
rob stalling non-critical load ip: 16783804 freq: 59
rob stalling non-critical load ip: 16783808 freq: 2897
rob stalling non-critical load ip: 16783812 freq: 1
rob stalling non-critical load ip: 16783820 freq: 166
rob stalling non-critical load ip: 16783828 freq: 125
rob stalling non-critical load ip: 16783832 freq: 2
rob stalling non-critical load ip: 16784128 freq: 8611
rob stalling non-critical load ip: 16784136 freq: 152
rob stalling non-critical load ip: 16784144 freq: 75
rob stalling non-critical load ip: 16784152 freq: 3344
rob stalling non-critical load ip: 16784156 freq: 4
rob stalling non-critical load ip: 16784160 freq: 2562
rob stalling non-critical load ip: 16784168 freq: 3604
rob stalling non-critical load ip: 16784172 freq: 3
rob stalling non-critical load ip: 16784176 freq: 558
rob stalling non-critical load ip: 16784180 freq: 1
rob stalling non-critical load ip: 16784184 freq: 69
rob stalling non-critical load ip: 16800136 freq: 17
rob stalling non-critical load ip: 16800520 freq: 37
rob stalling non-critical load ip: 16800536 freq: 17
rob stalling non-critical load ip: 16803568 freq: 6
rob stalling non-critical load ip: 16806692 freq: 1
rob stalling non-critical load ip: 16806724 freq: 9
rob stalling non-critical load ip: 16806728 freq: 3
rob stalling non-critical load ip: 16807120 freq: 2787
rob stalling non-critical load ip: 16807124 freq: 45
rob stalling non-critical load ip: 16807128 freq: 10
rob stalling non-critical load ip: 16807136 freq: 16
rob stalling non-critical load ip: 16807188 freq: 30
rob stalling non-critical load ip: 16807200 freq: 41
rob stalling non-critical load ip: 16807208 freq: 10
rob stalling non-critical load ip: 16807216 freq: 3
rob stalling non-critical load ip: 16807220 freq: 340
rob stalling non-critical load ip: 16807228 freq: 73
rob stalling non-critical load ip: 16807244 freq: 21
rob stalling non-critical load ip: 16807252 freq: 10
rob stalling non-critical load ip: 16807268 freq: 254
rob stalling non-critical load ip: 16807272 freq: 1
rob stalling non-critical load ip: 16807344 freq: 154
rob stalling non-critical load ip: 16807352 freq: 102
rob stalling non-critical load ip: 16807392 freq: 3252
rob stalling non-critical load ip: 16807812 freq: 11
rob stalling non-critical load ip: 16807816 freq: 10
rob stalling non-critical load ip: 16807864 freq: 46
rob stalling non-critical load ip: 16807908 freq: 6
rob stalling non-critical load ip: 16807956 freq: 29
rob stalling non-critical load ip: 16807964 freq: 40
rob stalling non-critical load ip: 16807980 freq: 1
rob stalling non-critical load ip: 16807984 freq: 30
rob stalling non-critical load ip: 16808020 freq: 22
rob stalling non-critical load ip: 16808024 freq: 3
rob stalling non-critical load ip: 16808028 freq: 36
rob stalling non-critical load ip: 16808052 freq: 2
rob stalling non-critical load ip: 16808060 freq: 2
rob stalling non-critical load ip: 16809368 freq: 1
rob stalling non-critical load ip: 16809376 freq: 7
rob stalling non-critical load ip: 16809664 freq: 3
rob stalling non-critical load ip: 16812528 freq: 63
rob stalling non-critical load ip: 16812716 freq: 814
rob stalling non-critical load ip: 16813444 freq: 47
rob stalling non-critical load ip: 16813448 freq: 93
rob stalling non-critical load ip: 16813472 freq: 3
rob stalling non-critical load ip: 16813580 freq: 4
rob stalling non-critical load ip: 16813612 freq: 4
rob stalling non-critical load ip: 16813680 freq: 70
rob stalling non-critical load ip: 16813696 freq: 11
rob stalling non-critical load ip: 16813704 freq: 49
rob stalling non-critical load ip: 16813760 freq: 42
rob stalling non-critical load ip: 16813800 freq: 4
rob stalling non-critical load ip: 16813820 freq: 2
rob stalling non-critical load ip: 16815252 freq: 68
rob stalling non-critical load ip: 16815264 freq: 5
rob stalling non-critical load ip: 16815284 freq: 7
rob stalling non-critical load ip: 16815308 freq: 4
rob stalling non-critical load ip: 16817700 freq: 43
rob stalling non-critical load ip: 16817756 freq: 20
rob stalling non-critical load ip: 16817764 freq: 12
rob stalling non-critical load ip: 16817820 freq: 386
rob stalling non-critical load ip: 16817836 freq: 16
rob stalling non-critical load ip: 16817844 freq: 503
rob stalling non-critical load ip: 16817884 freq: 20
rob stalling non-critical load ip: 16817900 freq: 430
rob stalling non-critical load ip: 16817940 freq: 3
rob stalling non-critical load ip: 16817960 freq: 33
rob stalling non-critical load ip: 16819192 freq: 3
rob stalling non-critical load ip: 16819204 freq: 2
rob stalling non-critical load ip: 16820524 freq: 5
rob stalling non-critical load ip: 16820656 freq: 2
rob stalling non-critical load ip: 16820672 freq: 5
rob stalling non-critical load ip: 16820676 freq: 3
rob stalling non-critical load ip: 16820852 freq: 6
rob stalling non-critical load ip: 16820956 freq: 3
rob stalling non-critical load ip: 16821296 freq: 3
rob stalling non-critical load ip: 16821308 freq: 49
rob stalling non-critical load ip: 16821340 freq: 10
rob stalling non-critical load ip: 16821452 freq: 5
rob stalling non-critical load ip: 16821464 freq: 2
rob stalling non-critical load ip: 16821732 freq: 5
rob stalling non-critical load ip: 16821840 freq: 1
rob stalling non-critical load ip: 16821852 freq: 1
rob stalling non-critical load ip: 16821924 freq: 1
rob stalling non-critical load ip: 16822004 freq: 30
rob stalling non-critical load ip: 16822020 freq: 3
rob stalling non-critical load ip: 16822276 freq: 4
rob stalling non-critical load ip: 16822360 freq: 2
rob stalling non-critical load ip: 16822500 freq: 43
rob stalling non-critical load ip: 16822788 freq: 14
rob stalling non-critical load ip: 16822888 freq: 7
rob stalling non-critical load ip: 16823128 freq: 4
rob stalling non-critical load ip: 16823192 freq: 15
rob stalling non-critical load ip: 16823220 freq: 4
rob stalling non-critical load ip: 16823688 freq: 1
rob stalling non-critical load ip: 16823692 freq: 20
rob stalling non-critical load ip: 16827588 freq: 2
rob stalling non-critical load ip: 16844832 freq: 96
rob stalling non-critical load ip: 16844852 freq: 16
rob stalling non-critical load ip: 16844864 freq: 7
rob stalling non-critical load ip: 16845036 freq: 35
rob stalling non-critical load ip: 16845056 freq: 28
rob stalling non-critical load ip: 16845064 freq: 22
rob stalling non-critical load ip: 16845068 freq: 22
rob stalling non-critical load ip: 16845328 freq: 12
rob stalling non-critical load ip: 16851080 freq: 2109
rob stalling non-critical load ip: 16851160 freq: 366
rob stalling non-critical load ip: 16851208 freq: 87
rob stalling non-critical load ip: 16851340 freq: 756
rob stalling non-critical load ip: 16851388 freq: 5222
rob stalling non-critical load ip: 16851436 freq: 2799
rob stalling non-critical load ip: 16851456 freq: 7
rob stalling non-critical load ip: 16851472 freq: 113
rob stalling non-critical load ip: 16851552 freq: 44943
rob stalling non-critical load ip: 16851564 freq: 257
rob stalling non-critical load ip: 16851576 freq: 1126
rob stalling non-critical load ip: 16851588 freq: 41376
rob stalling non-critical load ip: 16851600 freq: 418
rob stalling non-critical load ip: 16851612 freq: 3117
rob stalling non-critical load ip: 16851624 freq: 279
rob stalling non-critical load ip: 16851632 freq: 744
rob stalling non-critical load ip: 16851652 freq: 41617
rob stalling non-critical load ip: 16851728 freq: 757
rob stalling non-critical load ip: 16851776 freq: 9
rob stalling non-critical load ip: 16851796 freq: 21
rob stalling non-critical load ip: 16891612 freq: 82
rob stalling non-critical load ip: 16891620 freq: 54
rob stalling non-critical load ip: 16891628 freq: 44
rob stalling non-critical load ip: 16891648 freq: 2
rob stalling non-critical load ip: 16898936 freq: 2
rob stalling non-critical load ip: 16899252 freq: 2
rob stalling non-critical load ip: 16899312 freq: 1
rob stalling non-critical load ip: 16900600 freq: 2
rob stalling non-critical load ip: 16902228 freq: 3
rob stalling non-critical load ip: 16902264 freq: 2
rob stalling non-critical load ip: 16902268 freq: 1
rob stalling non-critical load ip: 16902320 freq: 3
rob stalling non-critical load ip: 16902380 freq: 13
rob stalling non-critical load ip: 16902396 freq: 49
rob stalling non-critical load ip: 16903028 freq: 128
rob stalling non-critical load ip: 16917068 freq: 1524
rob stalling non-critical load ip: 16917076 freq: 22
rob stalling non-critical load ip: 16917116 freq: 62
rob stalling non-critical load ip: 16917124 freq: 50
rob stalling non-critical load ip: 16917760 freq: 42
rob stalling non-critical load ip: 16917772 freq: 70
rob stalling non-critical load ip: 16977328 freq: 9
rob stalling non-critical load ip: 16977348 freq: 3
rob stalling non-critical load ip: 16977404 freq: 9
rob stalling non-critical load ip: 16977424 freq: 1
rob stalling non-critical load ip: 16977440 freq: 1
rob stalling non-critical load ip: 16977480 freq: 4
rob stalling non-critical load ip: 17022708 freq: 10
rob stalling non-critical load ip: 17077560 freq: 44
rob stalling non-critical load ip: 17077572 freq: 125
rob stalling non-critical load ip: 17077620 freq: 19
rob stalling non-critical load ip: 17077688 freq: 25
rob stalling non-critical load ip: 17077812 freq: 9
rob stalling non-critical load ip: 17077816 freq: 3
rob stalling non-critical load ip: 17077916 freq: 8
rob stalling non-critical load ip: 17077968 freq: 7
rob stalling non-critical load ip: 17078012 freq: 7
rob stalling non-critical load ip: 17078020 freq: 2
rob stalling non-critical load ip: 17078040 freq: 7
rob stalling non-critical load ip: 17078088 freq: 7
rob stalling non-critical load ip: 17078100 freq: 18
rob stalling non-critical load ip: 17078104 freq: 9
rob stalling non-critical load ip: 17078144 freq: 1
rob stalling non-critical load ip: 17078252 freq: 1
rob stalling non-critical load ip: 17079552 freq: 7
rob stalling non-critical load ip: 17079680 freq: 1
rob stalling non-critical load ip: 17079744 freq: 34
rob stalling non-critical load ip: 17080064 freq: 12
rob stalling non-critical load ip: 17080100 freq: 4
rob stalling non-critical load ip: 17084036 freq: 10
rob stalling non-critical load ip: 17084128 freq: 131
rob stalling non-critical load ip: 17084160 freq: 18
rob stalling non-critical load ip: 17084192 freq: 3
rob stalling non-critical load ip: 17084300 freq: 62
rob stalling non-critical load ip: 17084332 freq: 1671
rob stalling non-critical load ip: 17084340 freq: 81
rob stalling non-critical load ip: 17084388 freq: 746
rob stalling non-critical load ip: 17084424 freq: 1
rob stalling non-critical load ip: 17084460 freq: 2
rob stalling non-critical load ip: 17084544 freq: 5840
rob stalling non-critical load ip: 17084592 freq: 70
rob stalling non-critical load ip: 17084596 freq: 8
rob stalling non-critical load ip: 17084652 freq: 65
rob stalling non-critical load ip: 17084656 freq: 143
rob stalling non-critical load ip: 17084752 freq: 13
rob stalling non-critical load ip: 17084772 freq: 7
rob stalling non-critical load ip: 17084780 freq: 173
rob stalling non-critical load ip: 17084836 freq: 7
rob stalling non-critical load ip: 17087300 freq: 27
rob stalling non-critical load ip: 17087348 freq: 4
rob stalling non-critical load ip: 17089924 freq: 10
rob stalling non-critical load ip: 17089932 freq: 13
rob stalling non-critical load ip: 17089968 freq: 11
rob stalling non-critical load ip: 17089988 freq: 1794
rob stalling non-critical load ip: 17090008 freq: 44
rob stalling non-critical load ip: 17090036 freq: 35
rob stalling non-critical load ip: 17090056 freq: 2
rob stalling non-critical load ip: 17090060 freq: 79
rob stalling non-critical load ip: 17090136 freq: 32
rob stalling non-critical load ip: 17090160 freq: 6
rob stalling non-critical load ip: 17090192 freq: 52
rob stalling non-critical load ip: 17090196 freq: 96
rob stalling non-critical load ip: 17105460 freq: 435
rob stalling non-critical load ip: 17105536 freq: 8
rob stalling non-critical load ip: 17105552 freq: 35
rob stalling non-critical load ip: 17109616 freq: 7
rob stalling non-critical load ip: 17109620 freq: 2
rob stalling non-critical load ip: 17147696 freq: 2
rob stalling non-critical load ip: 17148832 freq: 1681
rob stalling non-critical load ip: 17148844 freq: 7
rob stalling non-critical load ip: 17148868 freq: 14
rob stalling non-critical load ip: 17148904 freq: 23
rob stalling non-critical load ip: 17148972 freq: 1873
rob stalling non-critical load ip: 17148988 freq: 7
rob stalling non-critical load ip: 17149012 freq: 12
rob stalling non-critical load ip: 17149168 freq: 26
rob stalling non-critical load ip: 17149172 freq: 29
rob stalling non-critical load ip: 17149204 freq: 25
rob stalling non-critical load ip: 17149208 freq: 1571
rob stalling non-critical load ip: 17149340 freq: 28
rob stalling non-critical load ip: 17149344 freq: 657
rob stalling non-critical load ip: 17149400 freq: 53
rob stalling non-critical load ip: 17149504 freq: 88
rob stalling non-critical load ip: 17149516 freq: 9
rob stalling non-critical load ip: 17149568 freq: 25
rob stalling non-critical load ip: 17149600 freq: 223
rob stalling non-critical load ip: 17149604 freq: 40
rob stalling non-critical load ip: 17183060 freq: 43
rob stalling non-critical load ip: 17183108 freq: 3
rob stalling non-critical load ip: 17183140 freq: 3
rob stalling non-critical load ip: 17183160 freq: 1
rob stalling non-critical load ip: 17183188 freq: 43
rob stalling non-critical load ip: 17183232 freq: 13
rob stalling non-critical load ip: 17183244 freq: 5
rob stalling non-critical load ip: 17183248 freq: 24
rob stalling non-critical load ip: 17183268 freq: 3
rob stalling non-critical load ip: 17183380 freq: 3
rob stalling non-critical load ip: 17183392 freq: 8
rob stalling non-critical load ip: 17183436 freq: 4
rob stalling non-critical load ip: 17183476 freq: 8
rob stalling non-critical load ip: 17183520 freq: 2
rob stalling non-critical load ip: 17183812 freq: 39
rob stalling non-critical load ip: 17183952 freq: 4
rob stalling non-critical load ip: 17183960 freq: 122
rob stalling non-critical load ip: 17184072 freq: 62
rob stalling non-critical load ip: 17184084 freq: 31
rob stalling non-critical load ip: 17184100 freq: 51
rob stalling non-critical load ip: 17184500 freq: 5
rob stalling non-critical load ip: 17184740 freq: 4
rob stalling non-critical load ip: 17184968 freq: 5
rob stalling non-critical load ip: 17185072 freq: 11
rob stalling non-critical load ip: 17185076 freq: 14
rob stalling non-critical load ip: 17185180 freq: 5
rob stalling non-critical load ip: 17185632 freq: 17
rob stalling non-critical load ip: 17185696 freq: 1
rob stalling non-critical load ip: 17185704 freq: 1
rob stalling non-critical load ip: 17185796 freq: 13
rob stalling non-critical load ip: 17186844 freq: 4
rob stalling non-critical load ip: 17186964 freq: 4
rob stalling non-critical load ip: 17187060 freq: 2
rob stalling non-critical load ip: 17187176 freq: 2
rob stalling non-critical load ip: 17187196 freq: 9
rob stalling non-critical load ip: 17187208 freq: 2
rob stalling non-critical load ip: 17187260 freq: 3
rob stalling non-critical load ip: 17187276 freq: 5
rob stalling non-critical load ip: 17187284 freq: 20
rob stalling non-critical load ip: 17187304 freq: 11
rob stalling non-critical load ip: 17187388 freq: 8
rob stalling non-critical load ip: 17187456 freq: 3
rob stalling non-critical load ip: 17188224 freq: 25
rob stalling non-critical load ip: 17188264 freq: 5
rob stalling non-critical load ip: 17188292 freq: 52
rob stalling non-critical load ip: 17188308 freq: 75
rob stalling non-critical load ip: 17188316 freq: 3
rob stalling non-critical load ip: 17188320 freq: 3
rob stalling non-critical load ip: 17189416 freq: 4
rob stalling non-critical load ip: 17189432 freq: 8
rob stalling non-critical load ip: 17189488 freq: 29
rob stalling non-critical load ip: 17189504 freq: 3
rob stalling non-critical load ip: 17189520 freq: 20
rob stalling non-critical load ip: 17189536 freq: 36
rob stalling non-critical load ip: 17189632 freq: 5
rob stalling non-critical load ip: 17189652 freq: 6
rob stalling non-critical load ip: 17190268 freq: 2
rob stalling non-critical load ip: 17190288 freq: 4
rob stalling non-critical load ip: 17190300 freq: 2
rob stalling non-critical load ip: 17190516 freq: 3
rob stalling non-critical load ip: 17224964 freq: 9
rob stalling non-critical load ip: 17224980 freq: 94
rob stalling non-critical load ip: 17224996 freq: 2
rob stalling non-critical load ip: 17225096 freq: 13
rob stalling non-critical load ip: 17225180 freq: 18
rob stalling non-critical load ip: 17225204 freq: 83
rob stalling non-critical load ip: 17225220 freq: 627
rob stalling non-critical load ip: 17225292 freq: 1
rob stalling non-critical load ip: 17225312 freq: 3
rob stalling non-critical load ip: 17225488 freq: 6
rob stalling non-critical load ip: 17225500 freq: 93
rob stalling non-critical load ip: 17225528 freq: 8
rob stalling non-critical load ip: 17225540 freq: 4
rob stalling non-critical load ip: 17225644 freq: 1
rob stalling non-critical load ip: 17225876 freq: 97
rob stalling non-critical load ip: 17225984 freq: 37
rob stalling non-critical load ip: 17226112 freq: 8
rob stalling non-critical load ip: 17226208 freq: 27
rob stalling non-critical load ip: 17226296 freq: 17
rob stalling non-critical load ip: 17226320 freq: 4
rob stalling non-critical load ip: 17226332 freq: 6
rob stalling non-critical load ip: 17226812 freq: 8
rob stalling non-critical load ip: 17226872 freq: 4
rob stalling non-critical load ip: 17226948 freq: 50
rob stalling non-critical load ip: 17227996 freq: 9
rob stalling non-critical load ip: 17228024 freq: 6
rob stalling non-critical load ip: 17228064 freq: 1
rob stalling non-critical load ip: 17245100 freq: 189
rob stalling non-critical load ip: 17245104 freq: 7
rob stalling non-critical load ip: 17245188 freq: 3
rob stalling non-critical load ip: 17245192 freq: 2
rob stalling non-critical load ip: 17247576 freq: 97
rob stalling non-critical load ip: 17247588 freq: 7
rob stalling non-critical load ip: 17247664 freq: 19
rob stalling non-critical load ip: 17247668 freq: 74
rob stalling non-critical load ip: 17247840 freq: 61
rob stalling non-critical load ip: 17247864 freq: 16
rob stalling non-critical load ip: 17247952 freq: 19
rob stalling non-critical load ip: 17247988 freq: 77
rob stalling non-critical load ip: 17248008 freq: 73
rob stalling non-critical load ip: 17248120 freq: 106
rob stalling non-critical load ip: 17248624 freq: 26
rob stalling non-critical load ip: 17248652 freq: 26
rob stalling non-critical load ip: 17253688 freq: 3
rob stalling non-critical load ip: 17254328 freq: 4
rob stalling non-critical load ip: 17410740 freq: 5
rob stalling non-critical load ip: 17410756 freq: 17
rob stalling non-critical load ip: 17506076 freq: 25
rob stalling non-critical load ip: 17506112 freq: 1
rob stalling non-critical load ip: 17506192 freq: 4
rob stalling non-critical load ip: 17506380 freq: 6
rob stalling non-critical load ip: 17506584 freq: 16
rob stalling non-critical load ip: 17506760 freq: 18
rob stalling non-critical load ip: 17506824 freq: 4
rob stalling non-critical load ip: 17506884 freq: 7
rob stalling non-critical load ip: 17506964 freq: 7
rob stalling non-critical load ip: 17507044 freq: 26
rob stalling non-critical load ip: 17507160 freq: 2
rob stalling non-critical load ip: 17507396 freq: 3
rob stalling non-critical load ip: 17507428 freq: 2
rob stalling non-critical load ip: 17507476 freq: 1
rob stalling non-critical load ip: 17546088 freq: 50
rob stalling non-critical load ip: 17546104 freq: 8
rob stalling non-critical load ip: 17546120 freq: 8
rob stalling non-critical load ip: 17546260 freq: 4
rob stalling non-critical load ip: 17546300 freq: 1
rob stalling non-critical load ip: 17546416 freq: 1
rob stalling non-critical load ip: 17546588 freq: 3
rob stalling non-critical load ip: 17546692 freq: 3
rob stalling non-critical load ip: 17546908 freq: 15
rob stalling non-critical load ip: 17547352 freq: 8
rob stalling non-critical load ip: 17548040 freq: 1
rob stalling non-critical load ip: 17555420 freq: 1
rob stalling non-critical load ip: 17555508 freq: 35
rob stalling non-critical load ip: 17641540 freq: 1
rob stalling non-critical load ip: 17643644 freq: 2
rob stalling non-critical load ip: 17643696 freq: 1
rob stalling non-critical load ip: 17644128 freq: 5
rob stalling non-critical load ip: 17644276 freq: 102
rob stalling non-critical load ip: 17682804 freq: 4
rob stalling non-critical load ip: 17683252 freq: 2
rob stalling non-critical load ip: 17683312 freq: 1
rob stalling non-critical load ip: 17683380 freq: 3
rob stalling non-critical load ip: 17782316 freq: 162
rob stalling non-critical load ip: 17782320 freq: 11
rob stalling non-critical load ip: 17782380 freq: 650
rob stalling non-critical load ip: 17782384 freq: 2
rob stalling non-critical load ip: 17782400 freq: 36
rob stalling non-critical load ip: 17782428 freq: 14
rob stalling non-critical load ip: 17782476 freq: 65
rob stalling non-critical load ip: 17782480 freq: 2
rob stalling non-critical load ip: 17782548 freq: 18
rob stalling non-critical load ip: 17782600 freq: 11
rob stalling non-critical load ip: 17782928 freq: 132
rob stalling non-critical load ip: 17782984 freq: 37
rob stalling non-critical load ip: 17783272 freq: 8
rob stalling non-critical load ip: 17795512 freq: 1
rob stalling non-critical load ip: 17825316 freq: 1
rob stalling non-critical load ip: 17906156 freq: 13
rob stalling non-critical load ip: 17906336 freq: 147
rob stalling non-critical load ip: 17906384 freq: 1844
rob stalling non-critical load ip: 17906400 freq: 583
rob stalling non-critical load ip: 17906620 freq: 31
rob stalling non-critical load ip: 17906644 freq: 10
rob stalling non-critical load ip: 17906844 freq: 3208
rob stalling non-critical load ip: 17906852 freq: 9
rob stalling non-critical load ip: 17906912 freq: 20
rob stalling non-critical load ip: 17906968 freq: 23
rob stalling non-critical load ip: 17906980 freq: 22
rob stalling non-critical load ip: 17907064 freq: 1682
rob stalling non-critical load ip: 17908272 freq: 263
rob stalling non-critical load ip: 17908296 freq: 21
rob stalling non-critical load ip: 17908312 freq: 23
rob stalling non-critical load ip: 17908368 freq: 26
rob stalling non-critical load ip: 18022900 freq: 22
rob stalling non-critical load ip: 18022940 freq: 5
rob stalling non-critical load ip: 18022944 freq: 77
rob stalling non-critical load ip: 18022948 freq: 1
rob stalling non-critical load ip: 18022976 freq: 2
rob stalling non-critical load ip: 18023020 freq: 2
rob stalling non-critical load ip: 18023308 freq: 6
rob stalling non-critical load ip: 18025240 freq: 73
rob stalling non-critical load ip: 18025248 freq: 10
rob stalling non-critical load ip: 18025276 freq: 38
rob stalling non-critical load ip: 18025296 freq: 80
rob stalling non-critical load ip: 18025304 freq: 54
rob stalling non-critical load ip: 18025320 freq: 5
rob stalling non-critical load ip: 18025340 freq: 99
rob stalling non-critical load ip: 18025560 freq: 9
rob stalling non-critical load ip: 18025596 freq: 2
rob stalling non-critical load ip: 18025804 freq: 7
rob stalling non-critical load ip: 18025832 freq: 9
rob stalling non-critical load ip: 18026656 freq: 25
rob stalling non-critical load ip: 18026668 freq: 4
rob stalling non-critical load ip: 18026908 freq: 17
rob stalling non-critical load ip: 18026928 freq: 22
rob stalling non-critical load ip: 18026992 freq: 2
rob stalling non-critical load ip: 18027120 freq: 21
rob stalling non-critical load ip: 18027156 freq: 528
rob stalling non-critical load ip: 18027212 freq: 7
rob stalling non-critical load ip: 18027236 freq: 3
rob stalling non-critical load ip: 18027924 freq: 34
rob stalling non-critical load ip: 18027932 freq: 6
rob stalling non-critical load ip: 18049648 freq: 7
rob stalling non-critical load ip: 18049664 freq: 48
rob stalling non-critical load ip: 18049728 freq: 1
rob stalling non-critical load ip: 18049736 freq: 1
rob stalling non-critical load ip: 18049744 freq: 7
rob stalling non-critical load ip: 18049920 freq: 77
rob stalling non-critical load ip: 18049972 freq: 1
rob stalling non-critical load ip: 18049996 freq: 18
rob stalling non-critical load ip: 18050004 freq: 17
rob stalling non-critical load ip: 18050036 freq: 4
rob stalling non-critical load ip: 18050048 freq: 157
rob stalling non-critical load ip: 18073720 freq: 2
rob stalling non-critical load ip: 18073772 freq: 2
rob stalling non-critical load ip: 18074636 freq: 14
rob stalling non-critical load ip: 18074640 freq: 1
rob stalling non-critical load ip: 18085540 freq: 16
rob stalling non-critical load ip: 18128468 freq: 53
rob stalling non-critical load ip: 18128484 freq: 20
rob stalling non-critical load ip: 18128540 freq: 92
rob stalling non-critical load ip: 18128612 freq: 46
rob stalling non-critical load ip: 18128640 freq: 471
rob stalling non-critical load ip: 18128648 freq: 8
rob stalling non-critical load ip: 18128744 freq: 456
rob stalling non-critical load ip: 18132720 freq: 2961
rob stalling non-critical load ip: 18132760 freq: 627
rob stalling non-critical load ip: 18132804 freq: 46
rob stalling non-critical load ip: 18132832 freq: 196
rob stalling non-critical load ip: 18132844 freq: 29
rob stalling non-critical load ip: 18132856 freq: 9
rob stalling non-critical load ip: 18132872 freq: 22
rob stalling non-critical load ip: 18132896 freq: 211
rob stalling non-critical load ip: 18132908 freq: 275
rob stalling non-critical load ip: 18132916 freq: 26
rob stalling non-critical load ip: 18132980 freq: 7
rob stalling non-critical load ip: 18132996 freq: 2497
rob stalling non-critical load ip: 18133012 freq: 15
rob stalling non-critical load ip: 18133080 freq: 3253
rob stalling non-critical load ip: 18133112 freq: 274
rob stalling non-critical load ip: 18133280 freq: 26
rob stalling non-critical load ip: 18133368 freq: 137
rob stalling non-critical load ip: 18133388 freq: 26
rob stalling non-critical load ip: 18133392 freq: 33
rob stalling non-critical load ip: 18133404 freq: 16
rob stalling non-critical load ip: 18133408 freq: 102
rob stalling non-critical load ip: 18133456 freq: 5
rob stalling non-critical load ip: 18133528 freq: 5
rob stalling non-critical load ip: 18133592 freq: 22
rob stalling non-critical load ip: 18133608 freq: 12
rob stalling non-critical load ip: 18133724 freq: 3
rob stalling non-critical load ip: 18133736 freq: 2
rob stalling non-critical load ip: 18133828 freq: 2
rob stalling non-critical load ip: 18133936 freq: 9
rob stalling non-critical load ip: 18133940 freq: 10
rob stalling non-critical load ip: 18133964 freq: 4
rob stalling non-critical load ip: 18134084 freq: 40
rob stalling non-critical load ip: 18134132 freq: 2
rob stalling non-critical load ip: 18134192 freq: 50
rob stalling non-critical load ip: 18134276 freq: 5
rob stalling non-critical load ip: 18134316 freq: 21
rob stalling non-critical load ip: 18134344 freq: 13
rob stalling non-critical load ip: 18134356 freq: 27
rob stalling non-critical load ip: 18134420 freq: 4
rob stalling non-critical load ip: 18134436 freq: 8
rob stalling non-critical load ip: 18134440 freq: 1
rob stalling non-critical load ip: 18303116 freq: 16
rob stalling non-critical load ip: 18303200 freq: 5
rob stalling non-critical load ip: 18303276 freq: 1
rob stalling non-critical load ip: 18303328 freq: 1
rob stalling non-critical load ip: 18457504 freq: 2
rob stalling non-critical load ip: 18457572 freq: 8
rob stalling non-critical load ip: 18466760 freq: 1
rob stalling non-critical load ip: 18466824 freq: 1
rob stalling non-critical load ip: 18466904 freq: 2
rob stalling non-critical load ip: 18466940 freq: 6
rob stalling non-critical load ip: 18466952 freq: 3
rob stalling non-critical load ip: 18467104 freq: 4
rob stalling non-critical load ip: 18481788 freq: 360
rob stalling non-critical load ip: 18481820 freq: 63
rob stalling non-critical load ip: 18493424 freq: 2
rob stalling non-critical load ip: 18604280 freq: 145
rob stalling non-critical load ip: 18604288 freq: 6
rob stalling non-critical load ip: 18604344 freq: 1607
rob stalling non-critical load ip: 18604364 freq: 23
rob stalling non-critical load ip: 18604368 freq: 94
rob stalling non-critical load ip: 18604372 freq: 18
rob stalling non-critical load ip: 18604396 freq: 23
rob stalling non-critical load ip: 18604480 freq: 19
rob stalling non-critical load ip: 18625668 freq: 109
rob stalling non-critical load ip: 18627428 freq: 6
rob stalling non-critical load ip: 18630436 freq: 2
rob stalling non-critical load ip: 18631072 freq: 3
rob stalling non-critical load ip: 18631092 freq: 21
rob stalling non-critical load ip: 18631116 freq: 1
rob stalling non-critical load ip: 18634180 freq: 2
rob stalling non-critical load ip: 18634208 freq: 4
rob stalling non-critical load ip: 18634364 freq: 3
rob stalling non-critical load ip: 18634892 freq: 23
rob stalling non-critical load ip: 18642072 freq: 3
rob stalling non-critical load ip: 18757496 freq: 3
rob stalling non-critical load ip: 18759348 freq: 1
rob stalling non-critical load ip: 18783856 freq: 75
rob stalling non-critical load ip: 18783872 freq: 23
rob stalling non-critical load ip: 18783896 freq: 1
rob stalling non-critical load ip: 18783924 freq: 1
rob stalling non-critical load ip: 18783940 freq: 29
rob stalling non-critical load ip: 18783960 freq: 3
rob stalling non-critical load ip: 18783964 freq: 1
rob stalling non-critical load ip: 18790068 freq: 22
rob stalling non-critical load ip: 18790796 freq: 19
rob stalling non-critical load ip: 18790812 freq: 9
rob stalling non-critical load ip: 18790940 freq: 6
rob stalling non-critical load ip: 18791368 freq: 7
rob stalling non-critical load ip: 18791384 freq: 1
rob stalling non-critical load ip: 18791472 freq: 8
rob stalling non-critical load ip: 18791500 freq: 2
rob stalling non-critical load ip: 18791504 freq: 8
rob stalling non-critical load ip: 18791520 freq: 13
rob stalling non-critical load ip: 18791552 freq: 5
rob stalling non-critical load ip: 18791568 freq: 4
rob stalling non-critical load ip: 18791612 freq: 1
rob stalling non-critical load ip: 18791632 freq: 9
rob stalling non-critical load ip: 18791700 freq: 64
rob stalling non-critical load ip: 18791740 freq: 1
rob stalling non-critical load ip: 18791860 freq: 2
rob stalling non-critical load ip: 18791880 freq: 13
rob stalling non-critical load ip: 18792112 freq: 19
rob stalling non-critical load ip: 18792888 freq: 4
rob stalling non-critical load ip: 18793340 freq: 3
rob stalling non-critical load ip: 18847888 freq: 18
rob stalling non-critical load ip: 18847912 freq: 6
rob stalling non-critical load ip: 18847948 freq: 33
rob stalling non-critical load ip: 18847960 freq: 1
rob stalling non-critical load ip: 18847964 freq: 1
rob stalling non-critical load ip: 18847984 freq: 38
rob stalling non-critical load ip: 18848036 freq: 2
rob stalling non-critical load ip: 18848072 freq: 30
rob stalling non-critical load ip: 18848172 freq: 3
rob stalling non-critical load ip: 18848276 freq: 9
rob stalling non-critical load ip: 18848288 freq: 1
rob stalling non-critical load ip: 18848296 freq: 14
rob stalling non-critical load ip: 18848340 freq: 2
rob stalling non-critical load ip: 18848448 freq: 2
rob stalling non-critical load ip: 18848452 freq: 2
rob stalling non-critical load ip: 18848600 freq: 1
rob stalling non-critical load ip: 18848928 freq: 3
rob stalling non-critical load ip: 18848996 freq: 3
rob stalling non-critical load ip: 18850924 freq: 3
rob stalling non-critical load ip: 18851012 freq: 1
rob stalling non-critical load ip: 18851080 freq: 3
rob stalling non-critical load ip: 18853212 freq: 26
rob stalling non-critical load ip: 18853284 freq: 9
rob stalling non-critical load ip: 18853336 freq: 2
rob stalling non-critical load ip: 18854636 freq: 10
rob stalling non-critical load ip: 18956724 freq: 28
rob stalling non-critical load ip: 18956808 freq: 5
rob stalling non-critical load ip: 18956864 freq: 9
rob stalling non-critical load ip: 18956900 freq: 1
rob stalling non-critical load ip: 18960512 freq: 13
rob stalling non-critical load ip: 18960552 freq: 14
rob stalling non-critical load ip: 18960584 freq: 38
rob stalling non-critical load ip: 18960616 freq: 3
rob stalling non-critical load ip: 18960648 freq: 4
rob stalling non-critical load ip: 18960676 freq: 2
rob stalling non-critical load ip: 18960688 freq: 18
rob stalling non-critical load ip: 18960700 freq: 6
rob stalling non-critical load ip: 18960716 freq: 1
rob stalling non-critical load ip: 18960780 freq: 8
rob stalling non-critical load ip: 18960812 freq: 7
rob stalling non-critical load ip: 18960836 freq: 14
rob stalling non-critical load ip: 18960860 freq: 3
rob stalling non-critical load ip: 18960876 freq: 4
rob stalling non-critical load ip: 18960940 freq: 2
rob stalling non-critical load ip: 18960972 freq: 2
rob stalling non-critical load ip: 19454556 freq: 4
rob stalling non-critical load ip: 19489332 freq: 24
rob stalling non-critical load ip: 19489344 freq: 210
rob stalling non-critical load ip: 19489356 freq: 433
rob stalling non-critical load ip: 19489368 freq: 28
rob stalling non-critical load ip: 19489396 freq: 20
rob stalling non-critical load ip: 19489408 freq: 49
rob stalling non-critical load ip: 19489580 freq: 2
rob stalling non-critical load ip: 19493692 freq: 2
rob stalling non-critical load ip: 19493820 freq: 23
rob stalling non-critical load ip: 19493844 freq: 1
rob stalling non-critical load ip: 19493916 freq: 18
rob stalling non-critical load ip: 19493920 freq: 16
rob stalling non-critical load ip: 19493924 freq: 16
rob stalling non-critical load ip: 19493928 freq: 3
rob stalling non-critical load ip: 19493932 freq: 21
rob stalling non-critical load ip: 19493940 freq: 6
rob stalling non-critical load ip: 19493948 freq: 4
rob stalling non-critical load ip: 19493956 freq: 6
rob stalling non-critical load ip: 19493960 freq: 9
rob stalling non-critical load ip: 19493984 freq: 2
rob stalling non-critical load ip: 19494000 freq: 4
rob stalling non-critical load ip: 19494032 freq: 172
rob stalling non-critical load ip: 19494040 freq: 84
rob stalling non-critical load ip: 19494052 freq: 198
rob stalling non-critical load ip: 19494060 freq: 87
rob stalling non-critical load ip: 19494068 freq: 113
rob stalling non-critical load ip: 19494076 freq: 8694
rob stalling non-critical load ip: 19494084 freq: 83
rob stalling non-critical load ip: 19494096 freq: 176
rob stalling non-critical load ip: 19494104 freq: 19682
rob stalling non-critical load ip: 19494112 freq: 339
rob stalling non-critical load ip: 19494176 freq: 6
rob stalling non-critical load ip: 19494212 freq: 4
rob stalling non-critical load ip: 19494292 freq: 125
rob stalling non-critical load ip: 19494380 freq: 18
rob stalling non-critical load ip: 19494412 freq: 5
rob stalling non-critical load ip: 19495680 freq: 17
rob stalling non-critical load ip: 19495700 freq: 202
rob stalling non-critical load ip: 19495740 freq: 277
rob stalling non-critical load ip: 19495772 freq: 199
rob stalling non-critical load ip: 19495816 freq: 182
rob stalling non-critical load ip: 19496092 freq: 2
rob stalling non-critical load ip: 19496192 freq: 18300
rob stalling non-critical load ip: 19496208 freq: 3314
rob stalling non-critical load ip: 19496224 freq: 16051
rob stalling non-critical load ip: 19496236 freq: 17986
rob stalling non-critical load ip: 19496264 freq: 1293
rob stalling non-critical load ip: 19496548 freq: 13
rob stalling non-critical load ip: 19496676 freq: 82
rob stalling non-critical load ip: 19496688 freq: 87
rob stalling non-critical load ip: 19496700 freq: 2187
rob stalling non-critical load ip: 19496712 freq: 47
rob stalling non-critical load ip: 19496768 freq: 237
rob stalling non-critical load ip: 19496772 freq: 262
rob stalling non-critical load ip: 19496776 freq: 229
rob stalling non-critical load ip: 19496780 freq: 202
rob stalling non-critical load ip: 19496788 freq: 1776
rob stalling non-critical load ip: 19496792 freq: 178
rob stalling non-critical load ip: 19496796 freq: 1568
rob stalling non-critical load ip: 19496804 freq: 36
rob stalling non-critical load ip: 19496812 freq: 19
rob stalling non-critical load ip: 19496816 freq: 1712
rob stalling non-critical load ip: 19496824 freq: 11
rob stalling non-critical load ip: 19496832 freq: 548
rob stalling non-critical load ip: 19496840 freq: 23
rob stalling non-critical load ip: 19496856 freq: 10
rob stalling non-critical load ip: 19496880 freq: 2673
rob stalling non-critical load ip: 19496888 freq: 237
rob stalling non-critical load ip: 19496900 freq: 4751
rob stalling non-critical load ip: 19496908 freq: 296
rob stalling non-critical load ip: 19496916 freq: 3359
rob stalling non-critical load ip: 19496924 freq: 1597
rob stalling non-critical load ip: 19496932 freq: 199
rob stalling non-critical load ip: 19496944 freq: 489
rob stalling non-critical load ip: 19496952 freq: 6023
rob stalling non-critical load ip: 19496960 freq: 322
rob stalling non-critical load ip: 19497140 freq: 4849
rob stalling non-critical load ip: 19497228 freq: 22
rob stalling non-critical load ip: 19497260 freq: 20
rob stalling non-critical load ip: 19497416 freq: 5
rob stalling non-critical load ip: 19497448 freq: 108
rob stalling non-critical load ip: 19497776 freq: 8
rob stalling non-critical load ip: 19497852 freq: 7
rob stalling non-critical load ip: 19499140 freq: 27
rob stalling non-critical load ip: 19499152 freq: 2
rob stalling non-critical load ip: 19499172 freq: 3
rob stalling non-critical load ip: 19499804 freq: 5
rob stalling non-critical load ip: 19499832 freq: 31
rob stalling non-critical load ip: 19500044 freq: 9
rob stalling non-critical load ip: 19500056 freq: 15
rob stalling non-critical load ip: 19500084 freq: 38
rob stalling non-critical load ip: 19500756 freq: 1
rob stalling non-critical load ip: 19500968 freq: 5
rob stalling non-critical load ip: 19501032 freq: 1
rob stalling non-critical load ip: 19695740 freq: 23
rob stalling non-critical load ip: 19695780 freq: 11
rob stalling non-critical load ip: 19695796 freq: 29
rob stalling non-critical load ip: 19695888 freq: 5
rob stalling non-critical load ip: 19695924 freq: 3
rob stalling non-critical load ip: 19695960 freq: 1
rob stalling non-critical load ip: 19695992 freq: 2
rob stalling non-critical load ip: 19696032 freq: 2
rob stalling non-critical load ip: 19698128 freq: 5
rob stalling non-critical load ip: 19698148 freq: 2
rob stalling non-critical load ip: 19698204 freq: 23
rob stalling non-critical load ip: 19698228 freq: 11
rob stalling non-critical load ip: 19698504 freq: 1
rob stalling non-critical load ip: 19699940 freq: 3
rob stalling non-critical load ip: 19699952 freq: 2
rob stalling non-critical load ip: 19699968 freq: 3
rob stalling non-critical load ip: 19699980 freq: 1
rob stalling non-critical load ip: 19700096 freq: 1
rob stalling non-critical load ip: 19700336 freq: 1
rob stalling non-critical load ip: 19701440 freq: 35
rob stalling non-critical load ip: 19701552 freq: 1
rob stalling non-critical load ip: 19701708 freq: 3
rob stalling non-critical load ip: 19701852 freq: 81
rob stalling non-critical load ip: 19701876 freq: 10
rob stalling non-critical load ip: 19701920 freq: 7
rob stalling non-critical load ip: 19701924 freq: 26
rob stalling non-critical load ip: 19701944 freq: 5
rob stalling non-critical load ip: 19702132 freq: 3
rob stalling non-critical load ip: 19702196 freq: 2
rob stalling non-critical load ip: 19702220 freq: 3
rob stalling non-critical load ip: 19702392 freq: 5
rob stalling non-critical load ip: 19702404 freq: 1
rob stalling non-critical load ip: 19702444 freq: 3
rob stalling non-critical load ip: 19702604 freq: 3
rob stalling non-critical load ip: 19702672 freq: 2
rob stalling non-critical load ip: 19702696 freq: 4
rob stalling non-critical load ip: 19704804 freq: 2
rob stalling non-critical load ip: 19705616 freq: 4
rob stalling non-critical load ip: 19706104 freq: 1
rob stalling non-critical load ip: 19706276 freq: 1
rob stalling non-critical load ip: 19706288 freq: 1
rob stalling non-critical load ip: 19706600 freq: 1
rob stalling non-critical load ip: 19706632 freq: 2
rob stalling non-critical load ip: 19706816 freq: 1
rob stalling non-critical load ip: 19707028 freq: 13
rob stalling non-critical load ip: 19707268 freq: 7
rob stalling non-critical load ip: 19708440 freq: 1
rob stalling non-critical load ip: 19708996 freq: 2
rob stalling non-critical load ip: 19709316 freq: 1
rob stalling non-critical load ip: 19709324 freq: 2
rob stalling non-critical load ip: 19709476 freq: 1
rob stalling non-critical load ip: 19709740 freq: 1
rob stalling non-critical load ip: 19710524 freq: 1
rob stalling non-critical load ip: 19710620 freq: 2
rob stalling non-critical load ip: 19711924 freq: 3
rob stalling non-critical load ip: 19711940 freq: 2
rob stalling non-critical load ip: 19711948 freq: 19
rob stalling non-critical load ip: 19723140 freq: 3
rob stalling non-critical load ip: 19723236 freq: 64
rob stalling non-critical load ip: 19723284 freq: 3
rob stalling non-critical load ip: 19723312 freq: 2
rob stalling non-critical load ip: 19723320 freq: 24
rob stalling non-critical load ip: 19723336 freq: 33
rob stalling non-critical load ip: 19723352 freq: 9
rob stalling non-critical load ip: 19723368 freq: 3
rob stalling non-critical load ip: 19723384 freq: 1
rob stalling non-critical load ip: 19723456 freq: 5
rob stalling non-critical load ip: 19723524 freq: 1
rob stalling non-critical load ip: 19724416 freq: 3
rob stalling non-critical load ip: 19724432 freq: 19
rob stalling non-critical load ip: 19724576 freq: 18
rob stalling non-critical load ip: 19725616 freq: 14
rob stalling non-critical load ip: 19725656 freq: 2
rob stalling non-critical load ip: 19725660 freq: 12
rob stalling non-critical load ip: 19725704 freq: 17
rob stalling non-critical load ip: 19725736 freq: 1
rob stalling non-critical load ip: 19725880 freq: 2
rob stalling non-critical load ip: 19725904 freq: 6
rob stalling non-critical load ip: 19730884 freq: 3
rob stalling non-critical load ip: 19730936 freq: 7
rob stalling non-critical load ip: 19730952 freq: 3
rob stalling non-critical load ip: 19731852 freq: 1
rob stalling non-critical load ip: 19732000 freq: 1
rob stalling non-critical load ip: 19732288 freq: 6
rob stalling non-critical load ip: 19732392 freq: 1
rob stalling non-critical load ip: 19732408 freq: 1
rob stalling non-critical load ip: 19732456 freq: 4
rob stalling non-critical load ip: 19732912 freq: 5
rob stalling non-critical load ip: 19732928 freq: 2
rob stalling non-critical load ip: 19732940 freq: 7
rob stalling non-critical load ip: 19732968 freq: 1
rob stalling non-critical load ip: 19733036 freq: 5
rob stalling non-critical load ip: 19733048 freq: 1
rob stalling non-critical load ip: 19733228 freq: 2
rob stalling non-critical load ip: 19733500 freq: 43
rob stalling non-critical load ip: 19745436 freq: 1
rob stalling non-critical load ip: 19745440 freq: 1
rob stalling non-critical load ip: 19745660 freq: 2
rob stalling non-critical load ip: 19745684 freq: 5
rob stalling non-critical load ip: 19745720 freq: 1
rob stalling non-critical load ip: 19746244 freq: 43
rob stalling non-critical load ip: 19746296 freq: 6
rob stalling non-critical load ip: 19746308 freq: 17
rob stalling non-critical load ip: 19748964 freq: 51
rob stalling non-critical load ip: 19749032 freq: 1
rob stalling non-critical load ip: 19749068 freq: 28
rob stalling non-critical load ip: 19791508 freq: 11
rob stalling non-critical load ip: 19791796 freq: 23
rob stalling non-critical load ip: 19791900 freq: 8
rob stalling non-critical load ip: 19795528 freq: 3
rob stalling non-critical load ip: 19795660 freq: 2
rob stalling non-critical load ip: 19851160 freq: 41
rob stalling non-critical load ip: 19851192 freq: 7
rob stalling non-critical load ip: 19851292 freq: 11
rob stalling non-critical load ip: 19851312 freq: 3
rob stalling non-critical load ip: 19851632 freq: 10
rob stalling non-critical load ip: 19852592 freq: 6
rob stalling non-critical load ip: 19852960 freq: 4
rob stalling non-critical load ip: 19853208 freq: 2
rob stalling non-critical load ip: 19867252 freq: 4927
rob stalling non-critical load ip: 19927076 freq: 31
rob stalling non-critical load ip: 19932180 freq: 4
rob stalling non-critical load ip: 19942976 freq: 1
rob stalling non-critical load ip: 19957192 freq: 1
rob stalling non-critical load ip: 19957964 freq: 51
rob stalling non-critical load ip: 19961896 freq: 2
rob stalling non-critical load ip: 19961904 freq: 11
rob stalling non-critical load ip: 19971860 freq: 12
rob stalling non-critical load ip: 19974832 freq: 3
rob stalling non-critical load ip: 19975432 freq: 1
rob stalling non-critical load ip: 19976536 freq: 2
rob stalling non-critical load ip: 19976572 freq: 1
rob stalling non-critical load ip: 20047492 freq: 105
rob stalling non-critical load ip: 20047856 freq: 1
rob stalling non-critical load ip: 20048080 freq: 267
rob stalling non-critical load ip: 20048096 freq: 3
rob stalling non-critical load ip: 20048244 freq: 3
rob stalling non-critical load ip: 20048380 freq: 10
rob stalling non-critical load ip: 20048408 freq: 1
rob stalling non-critical load ip: 20048660 freq: 22
rob stalling non-critical load ip: 20048684 freq: 48
rob stalling non-critical load ip: 20048792 freq: 3
rob stalling non-critical load ip: 20048800 freq: 21
rob stalling non-critical load ip: 20048856 freq: 15
rob stalling non-critical load ip: 20048920 freq: 7
rob stalling non-critical load ip: 20048960 freq: 9
rob stalling non-critical load ip: 20050724 freq: 4
rob stalling non-critical load ip: 20050808 freq: 2
rob stalling non-critical load ip: 20050828 freq: 1
rob stalling non-critical load ip: 20050840 freq: 2
rob stalling non-critical load ip: 20051180 freq: 2
rob stalling non-critical load ip: 20052520 freq: 20
rob stalling non-critical load ip: 20052540 freq: 15
rob stalling non-critical load ip: 20052640 freq: 12
rob stalling non-critical load ip: 20052736 freq: 1
rob stalling non-critical load ip: 20052892 freq: 13
rob stalling non-critical load ip: 20052952 freq: 10
rob stalling non-critical load ip: 20053048 freq: 7
rob stalling non-critical load ip: 20053068 freq: 2
rob stalling non-critical load ip: 20053164 freq: 46
rob stalling non-critical load ip: 20054744 freq: 32
rob stalling non-critical load ip: 20059568 freq: 2
rob stalling non-critical load ip: 20061440 freq: 9
rob stalling non-critical load ip: 20061492 freq: 58
rob stalling non-critical load ip: 20061676 freq: 6
rob stalling non-critical load ip: 20061832 freq: 1
rob stalling non-critical load ip: 20061844 freq: 1
rob stalling non-critical load ip: 20061856 freq: 1
rob stalling non-critical load ip: 20061860 freq: 2
rob stalling non-critical load ip: 20062784 freq: 50
rob stalling non-critical load ip: 20062836 freq: 21
rob stalling non-critical load ip: 20062904 freq: 49
rob stalling non-critical load ip: 20081736 freq: 10
rob stalling non-critical load ip: 20082308 freq: 1
rob stalling non-critical load ip: 20155144 freq: 2
rob stalling non-critical load ip: 20155176 freq: 27
rob stalling non-critical load ip: 20170580 freq: 41
rob stalling non-critical load ip: 20170592 freq: 27
rob stalling non-critical load ip: 20170616 freq: 26
rob stalling non-critical load ip: 20170656 freq: 10
rob stalling non-critical load ip: 20170704 freq: 9
rob stalling non-critical load ip: 20170792 freq: 1
rob stalling non-critical load ip: 20170852 freq: 2
rob stalling non-critical load ip: 20170968 freq: 20
rob stalling non-critical load ip: 20171040 freq: 2
rob stalling non-critical load ip: 20197540 freq: 1
rob stalling non-critical load ip: 20432196 freq: 3
rob stalling non-critical load ip: 20432220 freq: 2
rob stalling non-critical load ip: 20561136 freq: 4
rob stalling non-critical load ip: 20585832 freq: 1
rob stalling non-critical load ip: 20632776 freq: 1
rob stalling non-critical load ip: 20633040 freq: 1
rob stalling non-critical load ip: 20634272 freq: 5
rob stalling non-critical load ip: 20637384 freq: 1
rob stalling non-critical load ip: 20637644 freq: 1
[...]
Critical_ROB_Stalls_Percent_1_Bucket_6: 9130
Non-critical_ROB_Stalls_Percent_1_Bucket_6: 1910
Critical_ROB_Stalls_Percent_2_Bucket_0: 375628
Non-critical_ROB_Stalls_Percent_2_Bucket_0: 241756
Critical_ROB_Stalls_Percent_2_Bucket_1: 2861
Non-critical_ROB_Stalls_Percent_2_Bucket_1: 24065
Critical_ROB_Stalls_Percent_2_Bucket_2: 1881
Non-critical_ROB_Stalls_Percent_2_Bucket_2: 3765
Critical_ROB_Stalls_Percent_2_Bucket_3: 2790
Non-critical_ROB_Stalls_Percent_2_Bucket_3: 2313
Critical_ROB_Stalls_Percent_2_Bucket_4: 5381
Non-critical_ROB_Stalls_Percent_2_Bucket_4: 1437
Critical_ROB_Stalls_Percent_2_Bucket_5: 7678
Non-critical_ROB_Stalls_Percent_2_Bucket_5: 1151
Critical_ROB_Stalls_Percent_2_Bucket_6: 9140
Non-critical_ROB_Stalls_Percent_2_Bucket_6: 1900
Critical_ROB_Stalls_Percent_3_Bucket_0: 403100
Non-critical_ROB_Stalls_Percent_3_Bucket_0: 214284
Critical_ROB_Stalls_Percent_3_Bucket_1: 6065
Non-critical_ROB_Stalls_Percent_3_Bucket_1: 20861
Critical_ROB_Stalls_Percent_3_Bucket_2: 1991
Non-critical_ROB_Stalls_Percent_3_Bucket_2: 3655
Critical_ROB_Stalls_Percent_3_Bucket_3: 2809
Non-critical_ROB_Stalls_Percent_3_Bucket_3: 2294
Critical_ROB_Stalls_Percent_3_Bucket_4: 5386
Non-critical_ROB_Stalls_Percent_3_Bucket_4: 1432
Critical_ROB_Stalls_Percent_3_Bucket_5: 7684
Non-critical_ROB_Stalls_Percent_3_Bucket_5: 1145
Critical_ROB_Stalls_Percent_3_Bucket_6: 9147
Non-critical_ROB_Stalls_Percent_3_Bucket_6: 1893
Critical_ROB_Stalls_Percent_4_Bucket_0: 438608
Non-critical_ROB_Stalls_Percent_4_Bucket_0: 178776
Critical_ROB_Stalls_Percent_4_Bucket_1: 6089
Non-critical_ROB_Stalls_Percent_4_Bucket_1: 20837
Critical_ROB_Stalls_Percent_4_Bucket_2: 2004
Non-critical_ROB_Stalls_Percent_4_Bucket_2: 3642
Critical_ROB_Stalls_Percent_4_Bucket_3: 2816
Non-critical_ROB_Stalls_Percent_4_Bucket_3: 2287
Critical_ROB_Stalls_Percent_4_Bucket_4: 5390
Non-critical_ROB_Stalls_Percent_4_Bucket_4: 1428
Critical_ROB_Stalls_Percent_4_Bucket_5: 7686
Non-critical_ROB_Stalls_Percent_4_Bucket_5: 1143
Critical_ROB_Stalls_Percent_4_Bucket_6: 9148
Non-critical_ROB_Stalls_Percent_4_Bucket_6: 1892
Critical_ROB_Stalls_Percent_5_Bucket_0: 470846
Non-critical_ROB_Stalls_Percent_5_Bucket_0: 146538
Critical_ROB_Stalls_Percent_5_Bucket_1: 6957
Non-critical_ROB_Stalls_Percent_5_Bucket_1: 19969
Critical_ROB_Stalls_Percent_5_Bucket_2: 2043
Non-critical_ROB_Stalls_Percent_5_Bucket_2: 3603
Critical_ROB_Stalls_Percent_5_Bucket_3: 2829
Non-critical_ROB_Stalls_Percent_5_Bucket_3: 2274
Critical_ROB_Stalls_Percent_5_Bucket_4: 5398
Non-critical_ROB_Stalls_Percent_5_Bucket_4: 1420
Critical_ROB_Stalls_Percent_5_Bucket_5: 7694
Non-critical_ROB_Stalls_Percent_5_Bucket_5: 1135
Critical_ROB_Stalls_Percent_5_Bucket_6: 9161
Non-critical_ROB_Stalls_Percent_5_Bucket_6: 1879
Critical_ROB_Stalls_Percent_6_Bucket_0: 497764
Non-critical_ROB_Stalls_Percent_6_Bucket_0: 119620
Critical_ROB_Stalls_Percent_6_Bucket_1: 10351
Non-critical_ROB_Stalls_Percent_6_Bucket_1: 16575
Critical_ROB_Stalls_Percent_6_Bucket_2: 2795
Non-critical_ROB_Stalls_Percent_6_Bucket_2: 2851
Critical_ROB_Stalls_Percent_6_Bucket_3: 3300
Non-critical_ROB_Stalls_Percent_6_Bucket_3: 1803
Critical_ROB_Stalls_Percent_6_Bucket_4: 5606
Non-critical_ROB_Stalls_Percent_6_Bucket_4: 1212
Critical_ROB_Stalls_Percent_6_Bucket_5: 7813
Non-critical_ROB_Stalls_Percent_6_Bucket_5: 1016
Critical_ROB_Stalls_Percent_6_Bucket_6: 9379
Non-critical_ROB_Stalls_Percent_6_Bucket_6: 1661
Critical_ROB_Stalls_Percent_7_Bucket_0: 528186
Non-critical_ROB_Stalls_Percent_7_Bucket_0: 89198
Critical_ROB_Stalls_Percent_7_Bucket_1: 13453
Non-critical_ROB_Stalls_Percent_7_Bucket_1: 13473
Critical_ROB_Stalls_Percent_7_Bucket_2: 3021
Non-critical_ROB_Stalls_Percent_7_Bucket_2: 2625
Critical_ROB_Stalls_Percent_7_Bucket_3: 3425
Non-critical_ROB_Stalls_Percent_7_Bucket_3: 1678
Critical_ROB_Stalls_Percent_7_Bucket_4: 5741
Non-critical_ROB_Stalls_Percent_7_Bucket_4: 1077
Critical_ROB_Stalls_Percent_7_Bucket_5: 7865
Non-critical_ROB_Stalls_Percent_7_Bucket_5: 964
Critical_ROB_Stalls_Percent_7_Bucket_6: 9452
Non-critical_ROB_Stalls_Percent_7_Bucket_6: 1588
Critical_ROB_Stalls_Percent_8_Bucket_0: 558080
Non-critical_ROB_Stalls_Percent_8_Bucket_0: 59304
Critical_ROB_Stalls_Percent_8_Bucket_1: 15736
Non-critical_ROB_Stalls_Percent_8_Bucket_1: 11190
Critical_ROB_Stalls_Percent_8_Bucket_2: 3438
Non-critical_ROB_Stalls_Percent_8_Bucket_2: 2208
Critical_ROB_Stalls_Percent_8_Bucket_3: 3641
Non-critical_ROB_Stalls_Percent_8_Bucket_3: 1462
Critical_ROB_Stalls_Percent_8_Bucket_4: 5833
Non-critical_ROB_Stalls_Percent_8_Bucket_4: 985
Critical_ROB_Stalls_Percent_8_Bucket_5: 7925
Non-critical_ROB_Stalls_Percent_8_Bucket_5: 904
Critical_ROB_Stalls_Percent_8_Bucket_6: 9497
Non-critical_ROB_Stalls_Percent_8_Bucket_6: 1543
Average ROB occupancy Load Stall Begin: 27.9295
Average ROB occupancy Load Stall End: 33.5203
Min ROB occupancy Load Stall Begin: 1
Max ROB occupancy Load Stall Begin: 351
Min ROB occupancy Load Stall End: 1
Max ROB occupancy Load Stall End: 352
Average ROB occupancy Critical Load Stall Begin: -nan
Average ROB occupancy Critical Load Stall End: -nan
Min ROB occupancy Critical Load Stall Begin: 400
Max ROB occupancy Critical Load Stall Begin: 0
Min ROB occupancy Critical Load Stall End: 400
Max ROB occupancy Critical Load Stall End: 0
 ROB Load Stall Begin Bucket Count 0: 623808
 ROB Load Stall End Bucket Count 0: 617384
 ROB Critical Load Stall Begin Bucket Count 0: 0
 ROB Critical Load Stall End Bucket Count 0: 0
 ROB Load Stall Begin Bucket Count 1: 23374
 ROB Load Stall End Bucket Count 1: 26926
 ROB Critical Load Stall Begin Bucket Count 1: 0
 ROB Critical Load Stall End Bucket Count 1: 0
 ROB Load Stall Begin Bucket Count 2: 5001
 ROB Load Stall End Bucket Count 2: 5646
 ROB Critical Load Stall Begin Bucket Count 2: 0
 ROB Critical Load Stall End Bucket Count 2: 0
 ROB Load Stall Begin Bucket Count 3: 4822
 ROB Load Stall End Bucket Count 3: 5103
 ROB Critical Load Stall Begin Bucket Count 3: 0
 ROB Critical Load Stall End Bucket Count 3: 0
 ROB Load Stall Begin Bucket Count 4: 7472
 ROB Load Stall End Bucket Count 4: 6818
 ROB Critical Load Stall Begin Bucket Count 4: 0
 ROB Critical Load Stall End Bucket Count 4: 0
 ROB Load Stall Begin Bucket Count 5: 8562
 ROB Load Stall End Bucket Count 5: 8829
 ROB Critical Load Stall Begin Bucket Count 5: 0
 ROB Critical Load Stall End Bucket Count 5: 0
 ROB Load Stall Begin Bucket Count 6: 8707
 ROB Load Stall End Bucket Count 6: 11040
 ROB Critical Load Stall Begin Bucket Count 6: 0
 ROB Critical Load Stall End Bucket Count 6: 0
PIST Tag Read Accesses: 59224
PIST Read Accesses: 29612
PIST Tag Write Accesses: 59224
PIST Write Accesses: 29612
Criticality detector called times: 388450
Max global_stall_cycles_count: 112913
Threshold Modified: 1 times, factor: -1
Sturdy critical IP cache stats: 
 Unused entries: 0
CIC Tag Read Accesses: 0
CIC Read Accesses: 0
CIC Tag Write Accesses: 0
CIC Write Accesses: 0
Wobbly critical IP cache stats: 
 Unused entries: 125
CIC Tag Read Accesses: 53945016
CIC Read Accesses: 0
CIC Tag Write Accesses: 3
CIC Write Accesses: 0
ITLB TOTAL     ACCESS:    9026306  HIT:    7610300  MISS:    1416006  HIT %:    84.3125  MISS %:    15.6875   MPKI: 28.3201
ITLB LOAD TRANSLATION ACCESS:    9026306  HIT:    7610300  MISS:    1416006  HIT %:    84.3125  MISS %:    15.6875   MPKI: 28.3201
ITLB PREFETCH  REQUESTED:          0  ISSUED:          0  USEFUL:          0  USELESS:          0
ITLB USEFUL LOAD PREFETCHES:          0 PREFETCH ISSUED TO LOWER LEVEL:          0  ACCURACY: -nan
ITLB TIMELY PREFETCHES:          0 LATE PREFETCHES: 0 DROPPED PREFETCHES: 0
ITLB PREFETCHES SAME FILL-ORIGIN LEVEL: 0 DIFFERENT FILL-ORIGIN LEVEL: 0
ITLB AVERAGE MISS LATENCY: 29.4583 cycles
ITLB RQ	ACCESS:   11208229	FORWARD:          0	MERGED:    1588550	TO_CACHE:    9619679

DTLB TOTAL     ACCESS:    6356418  HIT:    4590562  MISS:    1765856  HIT %:    72.2193  MISS %:    27.7807   MPKI: 35.3171
DTLB LOAD TRANSLATION ACCESS:    6356418  HIT:    4590562  MISS:    1765856  HIT %:    72.2193  MISS %:    27.7807   MPKI: 35.3171
DTLB PREFETCH  REQUESTED:          0  ISSUED:          0  USEFUL:          0  USELESS:          0
DTLB USEFUL LOAD PREFETCHES:          0 PREFETCH ISSUED TO LOWER LEVEL:          0  ACCURACY: -nan
DTLB TIMELY PREFETCHES:          0 LATE PREFETCHES: 0 DROPPED PREFETCHES: 0
DTLB PREFETCHES SAME FILL-ORIGIN LEVEL: 0 DIFFERENT FILL-ORIGIN LEVEL: 0
DTLB AVERAGE MISS LATENCY: 30.3461 cycles
DTLB RQ	ACCESS:    9583912	FORWARD:          0	MERGED:    2868442	TO_CACHE:    6715470

STLB TOTAL     ACCESS:    3181862  HIT:     846323  MISS:    2335539  HIT %:    26.5984  MISS %:    73.4016   MPKI: 46.7108
STLB LOAD TRANSLATION ACCESS:    3181862  HIT:     846323  MISS:    2335539  HIT %:    26.5984  MISS %:    73.4016   MPKI: 46.7108
STLB PREFETCH  REQUESTED:          0  ISSUED:          0  USEFUL:          0  USELESS:          0
STLB USEFUL LOAD PREFETCHES:          0 PREFETCH ISSUED TO LOWER LEVEL:          0  ACCURACY: -nan
STLB TIMELY PREFETCHES:          0 LATE PREFETCHES: 0 DROPPED PREFETCHES: 0
STLB PREFETCHES SAME FILL-ORIGIN LEVEL: 0 DIFFERENT FILL-ORIGIN LEVEL: 0
STLB AVERAGE MISS LATENCY: 28.4449 cycles
STLB RQ	ACCESS:    3181862	FORWARD:          0	MERGED:          0	TO_CACHE:    3181862

STLB Hit, L1D data hit: 0
STLB Hit, L2C data hit: 0
STLB Hit, LLC data hit: 0
STLB Hit, LLC data miss: 0
STLB STLB hints to L2: 0
L1D TOTAL     ACCESS:    9118036  HIT:    8735757  MISS:     382279  HIT %:    95.8074  MISS %:    4.19256   MPKI: 7.64558
L1D LOAD      ACCESS:    5030326  HIT:    4768810  MISS:     261516  HIT %:    94.8012  MISS %:    5.19879   MPKI: 5.23032
L1D RFO       ACCESS:    4087710  HIT:    3966947  MISS:     120763  HIT %:    97.0457  MISS %:    2.95429   MPKI: 2.41526
L1D PREFETCH  REQUESTED:          0  ISSUED:          0  USEFUL:          0  USELESS:          0
L1D USEFUL LOAD PREFETCHES:          0 PREFETCH ISSUED TO LOWER LEVEL:          0  ACCURACY: -nan
L1D TIMELY PREFETCHES:          0 LATE PREFETCHES: 0 DROPPED PREFETCHES: 0
L1D PREFETCHES SAME FILL-ORIGIN LEVEL: 0 DIFFERENT FILL-ORIGIN LEVEL: 0
L1D AVERAGE MISS LATENCY: 65.3053 cycles
L1D RQ	ACCESS:    9013642	FORWARD:          0	MERGED:    3932606	TO_CACHE:    5045003
L1D WQ	ACCESS:    4576492	FORWARD:      36033	MERGED:      37583	TO_CACHE:    4538909

L1D UNIQUE REGIONS ACCESSED: 0
L1D REGIONS CONFLICTS: 0
L1D Cross Page Prefetch Requests: 0
L1D Same Page Prefetch Requests: 0
L1D ROI Sum of L1D PQ occupancy: 0
L1D PREFETCHES PUSHED FROM L2C: 0
L1I TOTAL     ACCESS:   10546387  HIT:    8463929  MISS:    2082458  HIT %:    80.2543  MISS %:    19.7457   MPKI: 41.6492
L1I LOAD      ACCESS:   10546387  HIT:    8463929  MISS:    2082458  HIT %:    80.2543  MISS %:    19.7457   MPKI: 41.6492
L1I PREFETCH  REQUESTED:          0  ISSUED:          0  USEFUL:          0  USELESS:          0
L1I USEFUL LOAD PREFETCHES:          0 PREFETCH ISSUED TO LOWER LEVEL:          0  ACCURACY: -nan
L1I TIMELY PREFETCHES:          0 LATE PREFETCHES: 0 DROPPED PREFETCHES: 0
L1I PREFETCHES SAME FILL-ORIGIN LEVEL: 0 DIFFERENT FILL-ORIGIN LEVEL: 0
L1I AVERAGE MISS LATENCY: 14.7047 cycles
L1I RQ	ACCESS:   20073418	FORWARD:          0	MERGED:    8865189	TO_CACHE:   11208229

BTB BRANCH_DIRECT_JUMP	ACCESS:          0  HIT:          0  MISS:          0
BTB BRANCH_INDIRECT	ACCESS:          0  HIT:          0  MISS:          0
BTB BRANCH_CONDITIONAL	ACCESS:          0  HIT:          0  MISS:          0
BTB BRANCH_DIRECT_CALL	ACCESS:          0  HIT:          0  MISS:          0
BTB BRANCH_INDIRECT_CALL	ACCESS:          0  HIT:          0  MISS:          0
BTB BRANCH_RETURN	ACCESS:          0  HIT:          0  MISS:          0
BTB BRANCH_OTHER ACCESS:          0  HIT:          0  MISS:          0

L2C TOTAL     ACCESS:    5433717  HIT:    5112769  MISS:     320948  HIT %:    94.0934  MISS %:     5.9066   MPKI: 6.41896
L2C LOAD      ACCESS:    2343967  HIT:    2262280  MISS:      81687  HIT %:     96.515  MISS %:    3.48499   MPKI: 1.63374
L2C DATA LOAD MPKI: 1.22274
L2C INSTRUCTION LOAD MPKI: 0.411
L2C RFO       ACCESS:     120742  HIT:      33858  MISS:      86884  HIT %:    28.0416  MISS %:    71.9584   MPKI: 1.73768
L2C PREFETCH  ACCESS:     199182  HIT:      69991  MISS:     129191  HIT %:    35.1392  MISS %:    64.8608   MPKI: 2.58382
L2C DATA PREFETCH MPKI: 2.58382
L2C INSTRUCTION PREFETCH MPKI: 0
L2C WRITEBACK ACCESS:     172552  HIT:     164847  MISS:       7705  HIT %:    95.5347  MISS %:    4.46532   MPKI: 0.1541
L2C LOAD TRANSLATION ACCESS:    2597274  HIT:    2581793  MISS:      15481  HIT %:     99.404  MISS %:   0.596048   MPKI: 0.30962
L2C PREFETCH  REQUESTED:     213033  ISSUED:     213033  USEFUL:      82745  USELESS:      46555
L2C USEFUL LOAD PREFETCHES:      82745 PREFETCH ISSUED TO LOWER LEVEL:     137217  ACCURACY: 60.3023
L2C TIMELY PREFETCHES:      82745 LATE PREFETCHES: 8026 DROPPED PREFETCHES: 0
L2C PREFETCHES SAME FILL-ORIGIN LEVEL: 137217 DIFFERENT FILL-ORIGIN LEVEL: 0
L2C AVERAGE MISS LATENCY: 145.781 cycles
L2C RQ	ACCESS:    5062011	FORWARD:          0	MERGED:          0	TO_CACHE:    5061987
L2C WQ	ACCESS:     172552	FORWARD:         24	MERGED:          0	TO_CACHE:     172552
L2C PQ	ACCESS:     213033	FORWARD:          0	MERGED:          0	TO_CACHE:     213033

L2C Instructions Evicting Data 17809
L2C Translations Evicting Data 13722
L2C Data Evicting Data 246848
L2C Instructions Evicting Instructions 1684
L2C Translations Evicting Instructions 1019
L2C Data Evicting Instructions 17078
L2C Instructions Evicting Translations 1057
L2C Translations Evicting Translations 740
L2C Data Evicting Translations 13286
L2C Dense regions hint from L2: 0
PSCL5 TOTAL     ACCESS:    2335539  HIT:    2335539  MISS:          0  HIT %:        100  MISS %:          0   MPKI: 0
PSCL5 LOAD TRANSLATION ACCESS:    2335539  HIT:    2335539  MISS:          0  HIT %:        100  MISS %:          0   MPKI: 0
PSCL5 PREFETCH  REQUESTED:          0  ISSUED:          0  USEFUL:          0  USELESS:          0
PSCL5 USEFUL LOAD PREFETCHES:          0 PREFETCH ISSUED TO LOWER LEVEL:          0  ACCURACY: -nan
PSCL5 TIMELY PREFETCHES:          0 LATE PREFETCHES: 0 DROPPED PREFETCHES: 0
PSCL5 PREFETCHES SAME FILL-ORIGIN LEVEL: 0 DIFFERENT FILL-ORIGIN LEVEL: 0

PSCL4 TOTAL     ACCESS:    2335539  HIT:    2335539  MISS:          0  HIT %:        100  MISS %:          0   MPKI: 0
PSCL4 LOAD TRANSLATION ACCESS:    2335539  HIT:    2335539  MISS:          0  HIT %:        100  MISS %:          0   MPKI: 0
PSCL4 PREFETCH  REQUESTED:          0  ISSUED:          0  USEFUL:          0  USELESS:          0
PSCL4 USEFUL LOAD PREFETCHES:          0 PREFETCH ISSUED TO LOWER LEVEL:          0  ACCURACY: -nan
PSCL4 TIMELY PREFETCHES:          0 LATE PREFETCHES: 0 DROPPED PREFETCHES: 0
PSCL4 PREFETCHES SAME FILL-ORIGIN LEVEL: 0 DIFFERENT FILL-ORIGIN LEVEL: 0

PSCL3 TOTAL     ACCESS:    2335316  HIT:    2335191  MISS:        125  HIT %:    99.9946  MISS %: 0.00535259   MPKI: 0.0025
PSCL3 LOAD TRANSLATION ACCESS:    2335316  HIT:    2335191  MISS:        125  HIT %:    99.9946  MISS %: 0.00535259   MPKI: 0.0025
PSCL3 PREFETCH  REQUESTED:          0  ISSUED:          0  USEFUL:          0  USELESS:          0
PSCL3 USEFUL LOAD PREFETCHES:          0 PREFETCH ISSUED TO LOWER LEVEL:          0  ACCURACY: -nan
PSCL3 TIMELY PREFETCHES:          0 LATE PREFETCHES: 0 DROPPED PREFETCHES: 0
PSCL3 PREFETCHES SAME FILL-ORIGIN LEVEL: 0 DIFFERENT FILL-ORIGIN LEVEL: 0

PSCL2 TOTAL     ACCESS:    2335539  HIT:    2073847  MISS:     261692  HIT %:    88.7952  MISS %:    11.2048   MPKI: 5.23384
PSCL2 LOAD TRANSLATION ACCESS:    2335539  HIT:    2073847  MISS:     261692  HIT %:    88.7952  MISS %:    11.2048   MPKI: 5.23384
PSCL2 PREFETCH  REQUESTED:          0  ISSUED:          0  USEFUL:          0  USELESS:          0
PSCL2 USEFUL LOAD PREFETCHES:          0 PREFETCH ISSUED TO LOWER LEVEL:          0  ACCURACY: -nan
PSCL2 TIMELY PREFETCHES:          0 LATE PREFETCHES: 0 DROPPED PREFETCHES: 0
PSCL2 PREFETCHES SAME FILL-ORIGIN LEVEL: 0 DIFFERENT FILL-ORIGIN LEVEL: 0

LLC TOTAL     ACCESS:     425205  HIT:     235137  MISS:     190068  HIT %:    55.2997  MISS %:    44.7003   MPKI: 3.80136
LLC LOAD      ACCESS:      73664  HIT:      41545  MISS:      32119  HIT %:     56.398  MISS %:     43.602   MPKI: 0.64238
LLC RFO       ACCESS:      86881  HIT:      46535  MISS:      40346  HIT %:    53.5618  MISS %:    46.4382   MPKI: 0.80692
LLC PREFETCH  ACCESS:     137217  HIT:      26758  MISS:     110459  HIT %:    19.5005  MISS %:    80.4995   MPKI: 2.20918
LLC WRITEBACK ACCESS:     111962  HIT:     110949  MISS:       1013  HIT %:    99.0952  MISS %:   0.904771   MPKI: 0.02026
LLC LOAD TRANSLATION ACCESS:      15481  HIT:       9350  MISS:       6131  HIT %:    60.3966  MISS %:    39.6034   MPKI: 0.12262
LLC PREFETCH  REQUESTED:          0  ISSUED:          0  USEFUL:       1567  USELESS:     107563
LLC USEFUL LOAD PREFETCHES:       1567 PREFETCH ISSUED TO LOWER LEVEL:     110459  ACCURACY: 1.41863
LLC TIMELY PREFETCHES:       1567 LATE PREFETCHES: 0 DROPPED PREFETCHES: 0
LLC PREFETCHES SAME FILL-ORIGIN LEVEL: 0 DIFFERENT FILL-ORIGIN LEVEL: 0
LLC AVERAGE MISS LATENCY: 198.34 cycles
LLC RQ	ACCESS:     176026	FORWARD:          0	MERGED:          0	TO_CACHE:     176026
LLC WQ	ACCESS:     111962	FORWARD:          0	MERGED:          0	TO_CACHE:     111962
LLC PQ	ACCESS:     137217	FORWARD:          0	MERGED:          0	TO_CACHE:     137217

LLC Dense regions hint to LLC: 0

RAW hits: 248875
Loads Generated: 9262517
Loads sent to L1D: 9013642
Stores Generated: 4576491
Stores sent to L1D: 4576492
Major fault: 0 Minor fault: 17913
Allocated PAGES: 17913
[Bingo] PHT Access: 70291
[Bingo] PHT Hit PC+Addr: 29489
[Bingo] PHT Hit PC+Offs: 25483
[Bingo] PHT Miss: 15319
[Bingo] Prefetch PC+Addr: 0
[Bingo] Prefetch PC+Offs: 0
[Bingo] Useful PC+Addr: 0
[Bingo] Useful PC+Offs: 0
[Bingo] Useless PC+Addr: 0
[Bingo] Useless PC+Offs: 0
[Bingo] L1 Prefetch per Region: 0
[Bingo] L2 Prefetch per Region: 4.91594
[Bingo] L3 Prefetch per Region: 0
[Bingo] No Prefetch per Region: 27.0841
[Bingo] Number of Voters Mean: 6.77279
[Bingo] Number of Voters SD: 10.0812
PHT read accesses: 671433
PHT write accesses: 26319
AT read accesses: 192004
AT write accesses: 206139
FT read accesses: 105859
FT write accesses: 70291
PS read accesses: 121241
PS write accesses: 54972
PHT tag read accesses: 1382874
PHT tag write accesses: 55808
AT tag read accesses: 10489542
AT tag write accesses: 218319
FT tag read accesses: 9302855
FT tag write accesses: 138440
PS tag read accesses: 6350051
PS tag write accesses: 176028

DRAM Statistics
 CHANNEL 0
 RQ ROW_BUFFER_HIT:      96621  ROW_BUFFER_MISS:      92433
 DBUS_CONGESTED:        112
 WQ ROW_BUFFER_HIT:       6507  ROW_BUFFER_MISS:      48583  FULL:          0

 AVG_CONGESTED_CYCLE: 4
 All warmup complete: 2
Channel 0 Bank busy for read cycles: 0
Channel 0 Bank busy for write cycles: 0
Channel 0
Rank 0
0banks busy for read cycles: 78721913
0banks busy for write cycles: 9521
1banks busy for read cycles: 2600431
1banks busy for write cycles: 1123340
2banks busy for read cycles: 1247857
2banks busy for write cycles: 570708
3banks busy for read cycles: 590013
3banks busy for write cycles: 353427
4banks busy for read cycles: 352229
4banks busy for write cycles: 251253
5banks busy for read cycles: 230976
5banks busy for write cycles: 194095
6banks busy for read cycles: 185462
6banks busy for write cycles: 158112
7banks busy for read cycles: 246895
7banks busy for write cycles: 136851
8banks busy for read cycles: 817542
8banks busy for write cycles: 371143

CPU 0 Branch Prediction Accuracy: 99.2045% MPKI: 1.49454 Average ROB Occupancy at Mispredict: 30.7252
Branch types
NOT_BRANCH: 0 0%
BRANCH_DIRECT_JUMP: 0 0%
BRANCH_INDIRECT: 0 0%
BRANCH_CONDITIONAL: 0 0%
BRANCH_DIRECT_CALL: 0 0%
BRANCH_INDIRECT_CALL: 0 0%
BRANCH_RETURN: 0 0%
BRANCH_OTHER: 0 0%

DRAM PAGES: 1048576
Allocated PAGES: 17913
