
*** ChampSim Multicore Out-of-Order Simulator ***

Warmup Instructions: 50000000
Simulation Instructions: 50000000
Number of CPUs: 1
LLC sets: 2048
LLC ways: 16
Off-chip DRAM Size: 4096 MB Channels: 1 Width: 64-bit Data Rate: 6400 MT/s
CPU 0 runs ../cloudsuite_traces//streaming_phase0_core2.trace.gz
.gz
BTB has LRU replacement policy
ITLB has LRU replacement policy
DTLB has LRU replacement policy
STLB has LRU replacement policy
L1I has LRU replacement policy
L1D has LRU replacement policy
Bingo PHT WAYS: 16 and PHT_SIZE: 16384
Initialize SRRIP state for L2C
Initialize DRRIP state for LLC
UNIQUE_ASID[0] = €
UNIQUE_ASID[1] = 
Heartbeat CPU 0 instructions: 10000003 cycles: 3329267 heartbeat IPC: 3.00366 cumulative IPC: 3.00366 (Simulation time: 0 hr 0 min 58 sec) 
Heartbeat CPU 0 instructions: 20000001 cycles: 6654861 heartbeat IPC: 3.00698 cumulative IPC: 3.00532 (Simulation time: 0 hr 1 min 48 sec) 
Heartbeat CPU 0 instructions: 30000001 cycles: 10066358 heartbeat IPC: 2.93126 cumulative IPC: 2.98022 (Simulation time: 0 hr 2 min 47 sec) 
Heartbeat CPU 0 instructions: 40000000 cycles: 13443041 heartbeat IPC: 2.96149 cumulative IPC: 2.97552 (Simulation time: 0 hr 3 min 39 sec) 
Heartbeat CPU 0 instructions: 50000000 cycles: 16841012 heartbeat IPC: 2.94293 cumulative IPC: 2.96894 (Simulation time: 0 hr 4 min 31 sec) 

Warmup complete CPU 0 instructions: 50000004 cycles: 16841013 (Simulation time: 0 hr 4 min 31 sec) 

Heartbeat CPU 0 instructions: 60000000 cycles: 35014678 heartbeat IPC: 0.550247 cumulative IPC: 0.550247 (Simulation time: 0 hr 6 min 22 sec) 
Heartbeat CPU 0 instructions: 70000003 cycles: 52598043 heartbeat IPC: 0.56872 cumulative IPC: 0.559331 (Simulation time: 0 hr 7 min 46 sec) 
Heartbeat CPU 0 instructions: 80000001 cycles: 68609340 heartbeat IPC: 0.624559 cumulative IPC: 0.579505 (Simulation time: 0 hr 8 min 56 sec) 
Heartbeat CPU 0 instructions: 90000002 cycles: 84361782 heartbeat IPC: 0.634822 cumulative IPC: 0.59241 (Simulation time: 0 hr 10 min 3 sec) 
Heartbeat CPU 0 instructions: 100000000 cycles: 101870580 heartbeat IPC: 0.571141 cumulative IPC: 0.588031 (Simulation time: 0 hr 11 min 28 sec) 
Finished CPU 0 instructions: 50000000 cycles: 85029583 cumulative IPC: 0.588031 (Simulation time: 0 hr 11 min 28 sec) 

ChampSim completed all CPUs

Region of Interest Statistics

CPU 0 cumulative IPC: 0.588031 instructions: 50000000 cycles: 85029583

CPU 0 Average Load ROB stall cycles: 1.72705e+07
CPU 0 Fraction of times ROB stalled by Loads: 28.7797
CPU 0 Percentage of Load stall cycles in Total stall cycles: 2.78924e+08
Issued all: 33889802
Issued LT all: 26475794
rob_not_full_when_issued_lt_all: 24084146
Issued LT one: 24599841
rob_not_full_when_issued_lt_one: 22372341
FVP critical_dynamic_instances_0: 4772344
FVP unique_critical_ips_0: 2729
 Total stall cycles: 71588173
 Total load stall cycles: 199676582943767
Unique Load IPs: 7205
CPU 0 NUM of IPS identified critical: 0
CPU 0 Num of Load IPs stalling ROB: 0
Threshold modification factor: 0
Trouble in retire width: -nan
MaC = Marked as critical.
lt_50_percent_before_Mac: 0
gt_90_percent_before_Mac: 0
gt_75_percent_before_Mac: 0
gt_50_percent_before_Mac: 0
stall_proportion_bin_same_before_after: 0
stall_proportion_bin_lower_before_after: 0
stall_proportion_bin_upper_before_after: 0
average_stall_proportion_before: -nan
average_stall_proportion_after: -nan
Critical IP stalls, total frequency: 0
Non-critical IP stalls, total frequency: 0
Total Freq all stalling IPs: 0
Critical_IP_Detector_Accuracy_70: 0.000366435
Critical_IP_Detector_Accuracy_80: 0.000366435
Critical_IP_Detector_Accuracy_90: 0.000366435
Critical_IP_Detector_Coverage_70: 1
Critical_IP_Detector_Coverage_80: 1
Critical_IP_Detector_Coverage_90: 1
stat_90_percent_critical_ip_stalls_freq: 2348736
stat_90_percent_non_critical_ip_stalls_freq: 18446744073707202880
AVERAGE_ROB_Occupancy_90_Percent_Critical_IP_Stalls: 12.454
AVERAGE_ROB_Occupancy_90_Percent_Non_Critical_IP_Stalls: 3.62302e-12
Critical_IP_ROB_Stalls_Bucket_0: 0
Non-critical_IP_ROB_Stalls_Bucket_0: 2910887
Critical_IP_ROB_Stalls_Bucket_1: 0
Non-critical_IP_ROB_Stalls_Bucket_1: 262056
Critical_IP_ROB_Stalls_Bucket_2: 0
Non-critical_IP_ROB_Stalls_Bucket_2: 41027
Critical_IP_ROB_Stalls_Bucket_3: 0
Non-critical_IP_ROB_Stalls_Bucket_3: 24576
Critical_IP_ROB_Stalls_Bucket_4: 0
Non-critical_IP_ROB_Stalls_Bucket_4: 15974
Critical_IP_ROB_Stalls_Bucket_5: 0
Non-critical_IP_ROB_Stalls_Bucket_5: 19689
Critical_IP_ROB_Stalls_Bucket_6: 0
Non-critical_IP_ROB_Stalls_Bucket_6: 53231
0 => IPs accounting for >50 percent of stalls, 1 => 55, 2 => 60, 3 => 65 and so on till 90.
percent50: inf num IPs:  1
percent55: inf num IPs: 1
percent60: inf num IPs: 1
percent65: inf num IPs: 1
percent70: inf num IPs: 1
percent75: inf num IPs: 1
percent80: inf num IPs: 1
percent85: inf num IPs: 1
percent90: inf num IPs: 1
Critical_ROB_Stalls_Percent_0_Bucket_0: 2323739
Non-critical_ROB_Stalls_Percent_0_Bucket_0: 587148
Critical_ROB_Stalls_Percent_0_Bucket_1: 15861
Non-critical_ROB_Stalls_Percent_0_Bucket_1: 246195
Critical_ROB_Stalls_Percent_0_Bucket_2: 4132
Non-critical_ROB_Stalls_Percent_0_Bucket_2: 36895
Critical_ROB_Stalls_Percent_0_Bucket_3: 3574
Non-critical_ROB_Stalls_Percent_0_Bucket_3: 21002
Critical_ROB_Stalls_Percent_0_Bucket_4: 594
Non-critical_ROB_Stalls_Percent_0_Bucket_4: 15380
Critical_ROB_Stalls_Percent_0_Bucket_5: 229
Non-critical_ROB_Stalls_Percent_0_Bucket_5: 19460
Critical_ROB_Stalls_Percent_0_Bucket_6: 607
Non-critical_ROB_Stalls_Percent_0_Bucket_6: 52624
Critical_ROB_Stalls_Percent_1_Bucket_0: 2323739
Non-critical_ROB_Stalls_Percent_1_Bucket_0: 587148
Critical_ROB_Stalls_Percent_1_Bucket_1: 15861
Non-critical_ROB_Stalls_Percent_1_Bucket_1: 246195
Critical_ROB_Stalls_Percent_1_Bucket_2: 4132
Non-critical_ROB_Stalls_Percent_1_Bucket_2: 36895
Critical_ROB_Stalls_Percent_1_Bucket_3: 3574
Non-critical_ROB_Stalls_Percent_1_Bucket_3: 21002
Critical_ROB_Stalls_Percent_1_Bucket_4: 594
Non-critical_ROB_Stalls_Percent_1_Bucket_4: 15380
Critical_ROB_Stalls_Percent_1_Bucket_5: 229
Non-critical_ROB_Stalls_Percent_1_Bucket_5: 19460
Critical_ROB_Stalls_Percent_1_Bucket_6: 607
Non-critical_ROB_Stalls_Percent_1_Bucket_6: 52624
Critical_ROB_Stalls_Percent_2_Bucket_0: 2323739
Non-critical_ROB_Stalls_Percent_2_Bucket_0: 587148
Critical_ROB_Stalls_Percent_2_Bucket_1: 15861
Non-critical_ROB_Stalls_Percent_2_Bucket_1: 246195
Critical_ROB_Stalls_Percent_2_Bucket_2: 4132
Non-critical_ROB_Stalls_Percent_2_Bucket_2: 36895
Critical_ROB_Stalls_Percent_2_Bucket_3: 3574
Non-critical_ROB_Stalls_Percent_2_Bucket_3: 21002
Critical_ROB_Stalls_Percent_2_Bucket_4: 594
Non-critical_ROB_Stalls_Percent_2_Bucket_4: 15380
Critical_ROB_Stalls_Percent_2_Bucket_5: 229
Non-critical_ROB_Stalls_Percent_2_Bucket_5: 19460
Critical_ROB_Stalls_Percent_2_Bucket_6: 607
Non-critical_ROB_Stalls_Percent_2_Bucket_6: 52624
Critical_ROB_Stalls_Percent_3_Bucket_0: 2323739
Non-critical_ROB_Stalls_Percent_3_Bucket_0: 587148
Critical_ROB_Stalls_Percent_3_Bucket_1: 15861
Non-critical_ROB_Stalls_Percent_3_Bucket_1: 246195
Critical_ROB_Stalls_Percent_3_Bucket_2: 4132
Non-critical_ROB_Stalls_Percent_3_Bucket_2: 36895
Critical_ROB_Stalls_Percent_3_Bucket_3: 3574
Non-critical_ROB_Stalls_Percent_3_Bucket_3: 21002
Critical_ROB_Stalls_Percent_3_Bucket_4: 594
Non-critical_ROB_Stalls_Percent_3_Bucket_4: 15380
Critical_ROB_Stalls_Percent_3_Bucket_5: 229
Non-critical_ROB_Stalls_Percent_3_Bucket_5: 19460
Critical_ROB_Stalls_Percent_3_Bucket_6: 607
Non-critical_ROB_Stalls_Percent_3_Bucket_6: 52624
Critical_ROB_Stalls_Percent_4_Bucket_0: 2323739
Non-critical_ROB_Stalls_Percent_4_Bucket_0: 587148
Critical_ROB_Stalls_Percent_4_Bucket_1: 15861
Non-critical_ROB_Stalls_Percent_4_Bucket_1: 246195
Critical_ROB_Stalls_Percent_4_Bucket_2: 4132
Non-critical_ROB_Stalls_Percent_4_Bucket_2: 36895
Critical_ROB_Stalls_Percent_4_Bucket_3: 3574
Non-critical_ROB_Stalls_Percent_4_Bucket_3: 21002
Critical_ROB_Stalls_Percent_4_Bucket_4: 594
Non-critical_ROB_Stalls_Percent_4_Bucket_4: 15380
Critical_ROB_Stalls_Percent_4_Bucket_5: 229
Non-critical_ROB_Stalls_Percent_4_Bucket_5: 19460
Critical_ROB_Stalls_Percent_4_Bucket_6: 607
Non-critical_ROB_Stalls_Percent_4_Bucket_6: 52624
Critical_ROB_Stalls_Percent_5_Bucket_0: 2323739
Non-critical_ROB_Stalls_Percent_5_Bucket_0: 587148
Critical_ROB_Stalls_Percent_5_Bucket_1: 15861
Non-critical_ROB_Stalls_Percent_5_Bucket_1: 246195
Critical_ROB_Stalls_Percent_5_Bucket_2: 4132
Non-critical_ROB_Stalls_Percent_5_Bucket_2: 36895
Critical_ROB_Stalls_Percent_5_Bucket_3: 3574
Non-critical_ROB_Stalls_Percent_5_Bucket_3: 21002
Critical_ROB_Stalls_Percent_5_Bucket_4: 594
Non-critical_ROB_Stalls_Percent_5_Bucket_4: 15380
Critical_ROB_Stalls_Percent_5_Bucket_5: 229
Non-critical_ROB_Stalls_Percent_5_Bucket_5: 19460
Critical_ROB_Stalls_Percent_5_Bucket_6: 607
Non-critical_ROB_Stalls_Percent_5_Bucket_6: 52624
Critical_ROB_Stalls_Percent_6_Bucket_0: 2323739
Non-critical_ROB_Stalls_Percent_6_Bucket_0: 587148
Critical_ROB_Stalls_Percent_6_Bucket_1: 15861
Non-critical_ROB_Stalls_Percent_6_Bucket_1: 246195
Critical_ROB_Stalls_Percent_6_Bucket_2: 4132
Non-critical_ROB_Stalls_Percent_6_Bucket_2: 36895
Critical_ROB_Stalls_Percent_6_Bucket_3: 3574
Non-critical_ROB_Stalls_Percent_6_Bucket_3: 21002
Critical_ROB_Stalls_Percent_6_Bucket_4: 594
Non-critical_ROB_Stalls_Percent_6_Bucket_4: 15380
Critical_ROB_Stalls_Percent_6_Bucket_5: 229
Non-critical_ROB_Stalls_Percent_6_Bucket_5: 19460
Critical_ROB_Stalls_Percent_6_Bucket_6: 607
Non-critical_ROB_Stalls_Percent_6_Bucket_6: 52624
Critical_ROB_Stalls_Percent_7_Bucket_0: 2323739
Non-critical_ROB_Stalls_Percent_7_Bucket_0: 587148
Critical_ROB_Stalls_Percent_7_Bucket_1: 15861
Non-critical_ROB_Stalls_Percent_7_Bucket_1: 246195
Critical_ROB_Stalls_Percent_7_Bucket_2: 4132
Non-critical_ROB_Stalls_Percent_7_Bucket_2: 36895
Critical_ROB_Stalls_Percent_7_Bucket_3: 3574
Non-critical_ROB_Stalls_Percent_7_Bucket_3: 21002
Critical_ROB_Stalls_Percent_7_Bucket_4: 594
Non-critical_ROB_Stalls_Percent_7_Bucket_4: 15380
Critical_ROB_Stalls_Percent_7_Bucket_5: 229
Non-critical_ROB_Stalls_Percent_7_Bucket_5: 19460
Critical_ROB_Stalls_Percent_7_Bucket_6: 607
Non-critical_ROB_Stalls_Percent_7_Bucket_6: 52624
Critical_ROB_Stalls_Percent_8_Bucket_0: 2323739
Non-critical_ROB_Stalls_Percent_8_Bucket_0: 587148
Critical_ROB_Stalls_Percent_8_Bucket_1: 15861
Non-critical_ROB_Stalls_Percent_8_Bucket_1: 246195
Critical_ROB_Stalls_Percent_8_Bucket_2: 4132
Non-critical_ROB_Stalls_Percent_8_Bucket_2: 36895
Critical_ROB_Stalls_Percent_8_Bucket_3: 3574
Non-critical_ROB_Stalls_Percent_8_Bucket_3: 21002
Critical_ROB_Stalls_Percent_8_Bucket_4: 594
Non-critical_ROB_Stalls_Percent_8_Bucket_4: 15380
Critical_ROB_Stalls_Percent_8_Bucket_5: 229
Non-critical_ROB_Stalls_Percent_8_Bucket_5: 19460
Critical_ROB_Stalls_Percent_8_Bucket_6: 607
Non-critical_ROB_Stalls_Percent_8_Bucket_6: 52624
Average ROB occupancy Load Stall Begin: 21.9859
Average ROB occupancy Load Stall End: 28.8763
Min ROB occupancy Load Stall Begin: 1
Max ROB occupancy Load Stall Begin: 352
Min ROB occupancy Load Stall End: 1
Max ROB occupancy Load Stall End: 352
Average ROB occupancy Critical Load Stall Begin: -nan
Average ROB occupancy Critical Load Stall End: -nan
Min ROB occupancy Critical Load Stall Begin: 400
Max ROB occupancy Critical Load Stall Begin: 0
Min ROB occupancy Critical Load Stall End: 400
Max ROB occupancy Critical Load Stall End: 0
 ROB Load Stall Begin Bucket Count 0: 3035697
 ROB Load Stall End Bucket Count 0: 2910887
 ROB Critical Load Stall Begin Bucket Count 0: 0
 ROB Critical Load Stall End Bucket Count 0: 0
 ROB Load Stall Begin Bucket Count 1: 163567
 ROB Load Stall End Bucket Count 1: 262056
 ROB Critical Load Stall Begin Bucket Count 1: 0
 ROB Critical Load Stall End Bucket Count 1: 0
 ROB Load Stall Begin Bucket Count 2: 28196
 ROB Load Stall End Bucket Count 2: 41027
 ROB Critical Load Stall Begin Bucket Count 2: 0
 ROB Critical Load Stall End Bucket Count 2: 0
 ROB Load Stall Begin Bucket Count 3: 18960
 ROB Load Stall End Bucket Count 3: 24576
 ROB Critical Load Stall Begin Bucket Count 3: 0
 ROB Critical Load Stall End Bucket Count 3: 0
 ROB Load Stall Begin Bucket Count 4: 17310
 ROB Load Stall End Bucket Count 4: 15974
 ROB Critical Load Stall Begin Bucket Count 4: 0
 ROB Critical Load Stall End Bucket Count 4: 0
 ROB Load Stall Begin Bucket Count 5: 23290
 ROB Load Stall End Bucket Count 5: 19689
 ROB Critical Load Stall Begin Bucket Count 5: 0
 ROB Critical Load Stall End Bucket Count 5: 0
 ROB Load Stall Begin Bucket Count 6: 40420
 ROB Load Stall End Bucket Count 6: 53231
 ROB Critical Load Stall Begin Bucket Count 6: 0
 ROB Critical Load Stall End Bucket Count 6: 0
PIST Tag Read Accesses: 0
PIST Read Accesses: 0
PIST Tag Write Accesses: 0
PIST Write Accesses: 0
Criticality detector called times: 0
Max global_stall_cycles_count: 0
Threshold Modified: 0 times, factor: 0
ITLB TOTAL     ACCESS:    8528834  HIT:    8001861  MISS:     526973  HIT %:    93.8213  MISS %:    6.17872   MPKI: 10.5395
ITLB LOAD TRANSLATION ACCESS:    8528834  HIT:    8001861  MISS:     526973  HIT %:    93.8213  MISS %:    6.17872   MPKI: 10.5395
ITLB PREFETCH  REQUESTED:          0  ISSUED:          0  USEFUL:          0  USELESS:          0
ITLB USEFUL LOAD PREFETCHES:          0 PREFETCH ISSUED TO LOWER LEVEL:          0  ACCURACY: -nan
ITLB TIMELY PREFETCHES:          0 LATE PREFETCHES: 0 DROPPED PREFETCHES: 0
ITLB PREFETCHES SAME FILL-ORIGIN LEVEL: 0 DIFFERENT FILL-ORIGIN LEVEL: 0
ITLB AVERAGE MISS LATENCY: 32.8979 cycles
ITLB RQ	ACCESS:    9321190	FORWARD:          0	MERGED:     592738	TO_CACHE:    8728452

DTLB TOTAL     ACCESS:    5087742  HIT:    4158972  MISS:     928770  HIT %:    81.7449  MISS %:    18.2551   MPKI: 18.5754
DTLB LOAD TRANSLATION ACCESS:    5087742  HIT:    4158972  MISS:     928770  HIT %:    81.7449  MISS %:    18.2551   MPKI: 18.5754
DTLB PREFETCH  REQUESTED:          0  ISSUED:          0  USEFUL:          0  USELESS:          0
DTLB USEFUL LOAD PREFETCHES:          0 PREFETCH ISSUED TO LOWER LEVEL:          0  ACCURACY: -nan
DTLB TIMELY PREFETCHES:          0 LATE PREFETCHES: 0 DROPPED PREFETCHES: 0
DTLB PREFETCHES SAME FILL-ORIGIN LEVEL: 0 DIFFERENT FILL-ORIGIN LEVEL: 0
DTLB AVERAGE MISS LATENCY: 35.4894 cycles
DTLB RQ	ACCESS:    6166249	FORWARD:          0	MERGED:     935104	TO_CACHE:    5231145

STLB TOTAL     ACCESS:    1455743  HIT:     306838  MISS:    1148905  HIT %:    21.0778  MISS %:    78.9222   MPKI: 22.9781
STLB LOAD TRANSLATION ACCESS:    1455743  HIT:     306838  MISS:    1148905  HIT %:    21.0778  MISS %:    78.9222   MPKI: 22.9781
STLB PREFETCH  REQUESTED:          0  ISSUED:          0  USEFUL:          0  USELESS:          0
STLB USEFUL LOAD PREFETCHES:          0 PREFETCH ISSUED TO LOWER LEVEL:          0  ACCURACY: -nan
STLB TIMELY PREFETCHES:          0 LATE PREFETCHES: 0 DROPPED PREFETCHES: 0
STLB PREFETCHES SAME FILL-ORIGIN LEVEL: 0 DIFFERENT FILL-ORIGIN LEVEL: 0
STLB AVERAGE MISS LATENCY: 32.2664 cycles
STLB RQ	ACCESS:    1455743	FORWARD:          0	MERGED:          0	TO_CACHE:    1455743

STLB Hit, L1D data hit: 0
STLB Hit, L2C data hit: 0
STLB Hit, LLC data hit: 0
STLB Hit, LLC data miss: 0
STLB STLB hints to L2: 0
L1D TOTAL     ACCESS:    5985798  HIT:    5502053  MISS:     483745  HIT %:    91.9185  MISS %:    8.08155   MPKI: 9.6749
L1D LOAD      ACCESS:    4613018  HIT:    4168506  MISS:     444512  HIT %:     90.364  MISS %:    9.63603   MPKI: 8.89024
L1D RFO       ACCESS:    1372780  HIT:    1333547  MISS:      39233  HIT %:    97.1421  MISS %:    2.85792   MPKI: 0.78466
L1D PREFETCH  REQUESTED:          0  ISSUED:          0  USEFUL:          0  USELESS:          0
L1D USEFUL LOAD PREFETCHES:          0 PREFETCH ISSUED TO LOWER LEVEL:          0  ACCURACY: -nan
L1D TIMELY PREFETCHES:          0 LATE PREFETCHES: 0 DROPPED PREFETCHES: 0
L1D PREFETCHES SAME FILL-ORIGIN LEVEL: 0 DIFFERENT FILL-ORIGIN LEVEL: 0
L1D AVERAGE MISS LATENCY: 50.1542 cycles
L1D RQ	ACCESS:    7327275	FORWARD:          0	MERGED:    2639733	TO_CACHE:    4678910
L1D WQ	ACCESS:    1513454	FORWARD:       8632	MERGED:      26115	TO_CACHE:    1487339

L1D UNIQUE REGIONS ACCESSED: 0
L1D REGIONS CONFLICTS: 0
L1D Cross Page Prefetch Requests: 0
L1D Same Page Prefetch Requests: 0
L1D ROI Sum of L1D PQ occupancy: 0
L1D PREFETCHES PUSHED FROM L2C: 0
L1I TOTAL     ACCESS:    9186490  HIT:    8750716  MISS:     435774  HIT %:    95.2564  MISS %:    4.74364   MPKI: 8.71548
L1I LOAD      ACCESS:    9186490  HIT:    8750716  MISS:     435774  HIT %:    95.2564  MISS %:    4.74364   MPKI: 8.71548
L1I PREFETCH  REQUESTED:          0  ISSUED:          0  USEFUL:          0  USELESS:          0
L1I USEFUL LOAD PREFETCHES:          0 PREFETCH ISSUED TO LOWER LEVEL:          0  ACCURACY: -nan
L1I TIMELY PREFETCHES:          0 LATE PREFETCHES: 0 DROPPED PREFETCHES: 0
L1I PREFETCHES SAME FILL-ORIGIN LEVEL: 0 DIFFERENT FILL-ORIGIN LEVEL: 0
L1I AVERAGE MISS LATENCY: 19.4457 cycles
L1I RQ	ACCESS:   15728613	FORWARD:          0	MERGED:    6407423	TO_CACHE:    9321190

BTB BRANCH_DIRECT_JUMP	ACCESS:          0  HIT:          0  MISS:          0
BTB BRANCH_INDIRECT	ACCESS:          0  HIT:          0  MISS:          0
BTB BRANCH_CONDITIONAL	ACCESS:          0  HIT:          0  MISS:          0
BTB BRANCH_DIRECT_CALL	ACCESS:          0  HIT:          0  MISS:          0
BTB BRANCH_INDIRECT_CALL	ACCESS:          0  HIT:          0  MISS:          0
BTB BRANCH_RETURN	ACCESS:          0  HIT:          0  MISS:          0
BTB BRANCH_OTHER ACCESS:          0  HIT:          0  MISS:          0

L2C TOTAL     ACCESS:    2594552  HIT:    2135229  MISS:     459323  HIT %:    82.2966  MISS %:    17.7034   MPKI: 9.18646
L2C LOAD      ACCESS:     880276  HIT:     739944  MISS:     140332  HIT %:    84.0582  MISS %:    15.9418   MPKI: 2.80664
L2C DATA LOAD MPKI: 2.26266
L2C INSTRUCTION LOAD MPKI: 0.54398
L2C RFO       ACCESS:      39229  HIT:      17366  MISS:      21863  HIT %:    44.2683  MISS %:    55.7317   MPKI: 0.43726
L2C PREFETCH  ACCESS:     290433  HIT:       7823  MISS:     282610  HIT %:    2.69356  MISS %:    97.3064   MPKI: 5.6522
L2C DATA PREFETCH MPKI: 5.6522
L2C INSTRUCTION PREFETCH MPKI: 0
L2C WRITEBACK ACCESS:     101171  HIT:      97821  MISS:       3350  HIT %:    96.6888  MISS %:    3.31123   MPKI: 0.067
L2C LOAD TRANSLATION ACCESS:    1283443  HIT:    1272275  MISS:      11168  HIT %:    99.1298  MISS %:   0.870159   MPKI: 0.22336
L2C PREFETCH  REQUESTED:     293269  ISSUED:     293269  USEFUL:     259813  USELESS:      22628
L2C USEFUL LOAD PREFETCHES:     259813 PREFETCH ISSUED TO LOWER LEVEL:     284715  ACCURACY: 91.2537
L2C TIMELY PREFETCHES:     259813 LATE PREFETCHES: 2098 DROPPED PREFETCHES: 0
L2C PREFETCHES SAME FILL-ORIGIN LEVEL: 284715 DIFFERENT FILL-ORIGIN LEVEL: 0
L2C AVERAGE MISS LATENCY: 133.834 cycles
L2C RQ	ACCESS:    2202962	FORWARD:          0	MERGED:          0	TO_CACHE:    2202954
L2C WQ	ACCESS:     101171	FORWARD:          8	MERGED:          0	TO_CACHE:     101171
L2C PQ	ACCESS:     293269	FORWARD:          0	MERGED:          0	TO_CACHE:     293269

L2C Instructions Evicting Data 24052
L2C Translations Evicting Data 10072
L2C Data Evicting Data 384308
L2C Instructions Evicting Instructions 2486
L2C Translations Evicting Instructions 748
L2C Data Evicting Instructions 23276
L2C Instructions Evicting Translations 661
L2C Translations Evicting Translations 348
L2C Data Evicting Translations 10022
L2C Dense regions hint from L2: 0
PSCL5 TOTAL     ACCESS:    1148905  HIT:    1148905  MISS:          0  HIT %:        100  MISS %:          0   MPKI: 0
PSCL5 LOAD TRANSLATION ACCESS:    1148905  HIT:    1148905  MISS:          0  HIT %:        100  MISS %:          0   MPKI: 0
PSCL5 PREFETCH  REQUESTED:          0  ISSUED:          0  USEFUL:          0  USELESS:          0
PSCL5 USEFUL LOAD PREFETCHES:          0 PREFETCH ISSUED TO LOWER LEVEL:          0  ACCURACY: -nan
PSCL5 TIMELY PREFETCHES:          0 LATE PREFETCHES: 0 DROPPED PREFETCHES: 0
PSCL5 PREFETCHES SAME FILL-ORIGIN LEVEL: 0 DIFFERENT FILL-ORIGIN LEVEL: 0

PSCL4 TOTAL     ACCESS:    1148905  HIT:    1148905  MISS:          0  HIT %:        100  MISS %:          0   MPKI: 0
PSCL4 LOAD TRANSLATION ACCESS:    1148905  HIT:    1148905  MISS:          0  HIT %:        100  MISS %:          0   MPKI: 0
PSCL4 PREFETCH  REQUESTED:          0  ISSUED:          0  USEFUL:          0  USELESS:          0
PSCL4 USEFUL LOAD PREFETCHES:          0 PREFETCH ISSUED TO LOWER LEVEL:          0  ACCURACY: -nan
PSCL4 TIMELY PREFETCHES:          0 LATE PREFETCHES: 0 DROPPED PREFETCHES: 0
PSCL4 PREFETCHES SAME FILL-ORIGIN LEVEL: 0 DIFFERENT FILL-ORIGIN LEVEL: 0

PSCL3 TOTAL     ACCESS:    1148462  HIT:    1148269  MISS:        193  HIT %:    99.9832  MISS %:  0.0168051   MPKI: 0.00386
PSCL3 LOAD TRANSLATION ACCESS:    1148462  HIT:    1148269  MISS:        193  HIT %:    99.9832  MISS %:  0.0168051   MPKI: 0.00386
PSCL3 PREFETCH  REQUESTED:          0  ISSUED:          0  USEFUL:          0  USELESS:          0
PSCL3 USEFUL LOAD PREFETCHES:          0 PREFETCH ISSUED TO LOWER LEVEL:          0  ACCURACY: -nan
PSCL3 TIMELY PREFETCHES:          0 LATE PREFETCHES: 0 DROPPED PREFETCHES: 0
PSCL3 PREFETCHES SAME FILL-ORIGIN LEVEL: 0 DIFFERENT FILL-ORIGIN LEVEL: 0

PSCL2 TOTAL     ACCESS:    1148905  HIT:    1014391  MISS:     134514  HIT %:     88.292  MISS %:     11.708   MPKI: 2.69028
PSCL2 LOAD TRANSLATION ACCESS:    1148905  HIT:    1014391  MISS:     134514  HIT %:     88.292  MISS %:     11.708   MPKI: 2.69028
PSCL2 PREFETCH  REQUESTED:          0  ISSUED:          0  USEFUL:          0  USELESS:          0
PSCL2 USEFUL LOAD PREFETCHES:          0 PREFETCH ISSUED TO LOWER LEVEL:          0  ACCURACY: -nan
PSCL2 TIMELY PREFETCHES:          0 LATE PREFETCHES: 0 DROPPED PREFETCHES: 0
PSCL2 PREFETCHES SAME FILL-ORIGIN LEVEL: 0 DIFFERENT FILL-ORIGIN LEVEL: 0

LLC TOTAL     ACCESS:     516072  HIT:     140165  MISS:     375907  HIT %:      27.16  MISS %:      72.84   MPKI: 7.51814
LLC LOAD      ACCESS:     138236  HIT:      52830  MISS:      85406  HIT %:    38.2173  MISS %:    61.7827   MPKI: 1.70812
LLC RFO       ACCESS:      21861  HIT:       6437  MISS:      15424  HIT %:    29.4451  MISS %:    70.5549   MPKI: 0.30848
LLC PREFETCH  ACCESS:     284715  HIT:      16121  MISS:     268594  HIT %:    5.66215  MISS %:    94.3378   MPKI: 5.37188
LLC WRITEBACK ACCESS:      60092  HIT:      59001  MISS:       1091  HIT %:    98.1845  MISS %:    1.81555   MPKI: 0.02182
LLC LOAD TRANSLATION ACCESS:      11168  HIT:       5776  MISS:       5392  HIT %:    51.7192  MISS %:    48.2808   MPKI: 0.10784
LLC PREFETCH  REQUESTED:          0  ISSUED:          0  USEFUL:       1887  USELESS:     246733
LLC USEFUL LOAD PREFETCHES:       1887 PREFETCH ISSUED TO LOWER LEVEL:     268594  ACCURACY: 0.702547
LLC TIMELY PREFETCHES:       1887 LATE PREFETCHES: 0 DROPPED PREFETCHES: 0
LLC PREFETCHES SAME FILL-ORIGIN LEVEL: 0 DIFFERENT FILL-ORIGIN LEVEL: 0
LLC AVERAGE MISS LATENCY: 127.286 cycles
LLC RQ	ACCESS:     171265	FORWARD:          0	MERGED:          0	TO_CACHE:     171265
LLC WQ	ACCESS:      60092	FORWARD:          0	MERGED:          0	TO_CACHE:      60092
LLC PQ	ACCESS:     284715	FORWARD:          0	MERGED:          0	TO_CACHE:     284715

LLC Dense regions hint to LLC: 0

RAW hits: 80595
Loads Generated: 7407871
Loads sent to L1D: 7327275
Stores Generated: 1513454
Stores sent to L1D: 1513454
Major fault: 0 Minor fault: 17128
Allocated PAGES: 17128
[Bingo] PHT Access: 29850
[Bingo] PHT Hit PC+Addr: 5220
[Bingo] PHT Hit PC+Offs: 19247
[Bingo] PHT Miss: 5383
[Bingo] Prefetch PC+Addr: 0
[Bingo] Prefetch PC+Offs: 0
[Bingo] Useful PC+Addr: 0
[Bingo] Useful PC+Offs: 0
[Bingo] Useless PC+Addr: 0
[Bingo] Useless PC+Offs: 0
[Bingo] L1 Prefetch per Region: 0
[Bingo] L2 Prefetch per Region: 12.9974
[Bingo] L3 Prefetch per Region: 0
[Bingo] No Prefetch per Region: 19.0026
[Bingo] Number of Voters Mean: 9.86954
[Bingo] Number of Voters SD: 6.0433
PHT read accesses: 254086
PHT write accesses: 14414
AT read accesses: 285816
AT write accesses: 288436
FT read accesses: 54088
FT write accesses: 29850
PS read accesses: 57669
PS write accesses: 24467
PHT tag read accesses: 821458
PHT tag write accesses: 19634
AT tag read accesses: 12829856
AT tag write accesses: 300338
FT tag read accesses: 9098826
FT tag write accesses: 67852
PS tag read accesses: 5711429
PS tag write accesses: 82111

DRAM Statistics
 CHANNEL 0
 RQ ROW_BUFFER_HIT:     274229  ROW_BUFFER_MISS:     100586
 DBUS_CONGESTED:        135
 WQ ROW_BUFFER_HIT:       3451  ROW_BUFFER_MISS:      33278  FULL:          0

 AVG_CONGESTED_CYCLE: 4
 All warmup complete: 2
Channel 0 Bank busy for read cycles: 0
Channel 0 Bank busy for write cycles: 0
Channel 0
Rank 0
0banks busy for read cycles: 71960002
0banks busy for write cycles: 13036
1banks busy for read cycles: 4501313
1banks busy for write cycles: 1531949
2banks busy for read cycles: 1955788
2banks busy for write cycles: 642196
3banks busy for read cycles: 916241
3banks busy for write cycles: 361008
4banks busy for read cycles: 477769
4banks busy for write cycles: 208323
5banks busy for read cycles: 282403
5banks busy for write cycles: 125726
6banks busy for read cycles: 192550
6banks busy for write cycles: 77875
7banks busy for read cycles: 527436
7banks busy for write cycles: 46720
8banks busy for read cycles: 1183563
8banks busy for write cycles: 25686

CPU 0 Branch Prediction Accuracy: 99.5713% MPKI: 0.6457 Average ROB Occupancy at Mispredict: 42.4769
Branch types
NOT_BRANCH: 0 0%
BRANCH_DIRECT_JUMP: 0 0%
BRANCH_INDIRECT: 0 0%
BRANCH_CONDITIONAL: 0 0%
BRANCH_DIRECT_CALL: 0 0%
BRANCH_INDIRECT_CALL: 0 0%
BRANCH_RETURN: 0 0%
BRANCH_OTHER: 0 0%

DRAM PAGES: 1048576
Allocated PAGES: 17128
