
*** ChampSim Multicore Out-of-Order Simulator ***

Warmup Instructions: 50000000
Simulation Instructions: 50000000
Number of CPUs: 1
LLC sets: 2048
LLC ways: 16
Off-chip DRAM Size: 4096 MB Channels: 1 Width: 64-bit Data Rate: 6400 MT/s
CPU 0 runs ../cloudsuite_traces//streaming_phase0_core2.trace.gz
.gz
NUM_OF_IPS_IN_CRITICAL_IP_TRAINING: 64
NUM_OF_CRITICAL_IP_TRAINING_TABLE_WAYS: 2
NUM_OF_CRITICAL_IP_TRAINING_TABLE_SETS: 32
WOBBLY_CRITICAL_IP_CACHE_SETS: 32
WOBBLY_CRITICAL_IP_CACHE_WAYS: 4
BTB has LRU replacement policy
ITLB has LRU replacement policy
DTLB has LRU replacement policy
STLB has LRU replacement policy
L1I has LRU replacement policy
IP Table Entries: 256
L1D has LRU replacement policy
Initialize SRRIP state for L2C
Initialize DRRIP state for LLC
UNIQUE_ASID[0] = €
UNIQUE_ASID[1] = 
Heartbeat CPU 0 instructions: 10000003 cycles: 3330087 heartbeat IPC: 3.00293 cumulative IPC: 3.00293 (Simulation time: 0 hr 2 min 57 sec) 
Heartbeat CPU 0 instructions: 20000001 cycles: 6658159 heartbeat IPC: 3.00474 cumulative IPC: 3.00383 (Simulation time: 0 hr 6 min 4 sec) 
Heartbeat CPU 0 instructions: 30000001 cycles: 10079323 heartbeat IPC: 2.92298 cumulative IPC: 2.97639 (Simulation time: 0 hr 10 min 24 sec) 
Heartbeat CPU 0 instructions: 40000000 cycles: 13463728 heartbeat IPC: 2.95473 cumulative IPC: 2.97095 (Simulation time: 0 hr 14 min 54 sec) 
Heartbeat CPU 0 instructions: 50000000 cycles: 16869793 heartbeat IPC: 2.93594 cumulative IPC: 2.96388 (Simulation time: 0 hr 19 min 32 sec) 

Warmup complete CPU 0 instructions: 50000004 cycles: 16869794 (Simulation time: 0 hr 19 min 32 sec) 

% increase in all ip prefetch 323.216
% increase in all ip prefetch -3.80612
Heartbeat CPU 0 instructions: 60000000 cycles: 35256542 heartbeat IPC: 0.54387 cumulative IPC: 0.54387 (Simulation time: 0 hr 25 min 18 sec) 
Heartbeat CPU 0 instructions: 70000003 cycles: 52911991 heartbeat IPC: 0.566398 cumulative IPC: 0.554905 (Simulation time: 0 hr 30 min 42 sec) 
Heartbeat CPU 0 instructions: 80000001 cycles: 68879907 heartbeat IPC: 0.626256 cumulative IPC: 0.576811 (Simulation time: 0 hr 35 min 11 sec) 
Heartbeat CPU 0 instructions: 90000002 cycles: 84639556 heartbeat IPC: 0.634532 cumulative IPC: 0.590234 (Simulation time: 0 hr 39 min 26 sec) 
Heartbeat CPU 0 instructions: 100000000 cycles: 102157857 heartbeat IPC: 0.570831 cumulative IPC: 0.586248 (Simulation time: 0 hr 44 min 7 sec) 
Finished CPU 0 instructions: 50000000 cycles: 85288080 cumulative IPC: 0.586248 (Simulation time: 0 hr 44 min 7 sec) 

ChampSim completed all CPUs

Region of Interest Statistics

CPU 0 cumulative IPC: 0.586248 instructions: 50000000 cycles: 85288080

CPU 0 Average Load ROB stall cycles: 1.71194e+07
CPU 0 Fraction of times ROB stalled by Loads: 28.5617
CPU 0 Percentage of Load stall cycles in Total stall cycles: 2.95932e+08
Issued all: 34275339
Issued LT all: 26868332
rob_not_full_when_issued_lt_all: 24069015
Issued LT one: 24978871
rob_not_full_when_issued_lt_one: 22359372
 Total stall cycles: 71536654
 Total load stall cycles: 211700138886593
CPU 0 NUM of IPS identified critical: 0
CPU 0 Num of Load IPs stalling ROB: 5715
Threshold modification factor: -1
Max PIST entries: 64
Min PIST entries: 0
Avg PIST entries: 31.98
Trouble in retire width: 0.922808
MaC = Marked as critical.
lt_50_percent_before_Mac: 0
gt_90_percent_before_Mac: 0
gt_75_percent_before_Mac: 0
gt_50_percent_before_Mac: 0
stall_proportion_bin_same_before_after: 0
stall_proportion_bin_lower_before_after: 0
stall_proportion_bin_upper_before_after: 0
average_stall_proportion_before: -nan
average_stall_proportion_after: -nan
Critical IP stalls, total frequency: 0
Non-critical IP stalls, total frequency: 3531983
Total Freq all stalling IPs: 3531983
stat_90_percent_critical_ip_stalls_freq: 3178948
stat_90_percent_non_critical_ip_stalls_freq: 353035
Critical_IP_ROB_Stalls_Bucket_0: 0
Non-critical_IP_ROB_Stalls_Bucket_0: 3129161
Critical_IP_ROB_Stalls_Bucket_1: 0
Non-critical_IP_ROB_Stalls_Bucket_1: 251685
Critical_IP_ROB_Stalls_Bucket_2: 0
Non-critical_IP_ROB_Stalls_Bucket_2: 37029
Critical_IP_ROB_Stalls_Bucket_3: 0
Non-critical_IP_ROB_Stalls_Bucket_3: 20813
Critical_IP_ROB_Stalls_Bucket_4: 0
Non-critical_IP_ROB_Stalls_Bucket_4: 15713
Critical_IP_ROB_Stalls_Bucket_5: 0
Non-critical_IP_ROB_Stalls_Bucket_5: 20069
Critical_IP_ROB_Stalls_Bucket_6: 0
Non-critical_IP_ROB_Stalls_Bucket_6: 57513
0 => IPs accounting for >50 percent of stalls, 1 => 55, 2 => 60, 3 => 65 and so on till 90.
percent50: 72.3605 num IPs:  1
percent55: 72.3605 num IPs: 1
percent60: 72.3605 num IPs: 1
percent65: 72.3605 num IPs: 1
percent70: 72.3605 num IPs: 1
percent75: 75.1282 num IPs: 8
percent80: 80.0057 num IPs: 32
percent85: 85.0279 num IPs: 71
percent90: 90.0046 num IPs: 179
Critical_ROB_Stalls_Percent_0_Bucket_0: 2541735
Non-critical_ROB_Stalls_Percent_0_Bucket_0: 587426
Critical_ROB_Stalls_Percent_0_Bucket_1: 8071
Non-critical_ROB_Stalls_Percent_0_Bucket_1: 243614
Critical_ROB_Stalls_Percent_0_Bucket_2: 3592
Non-critical_ROB_Stalls_Percent_0_Bucket_2: 33437
Critical_ROB_Stalls_Percent_0_Bucket_3: 1022
Non-critical_ROB_Stalls_Percent_0_Bucket_3: 19791
Critical_ROB_Stalls_Percent_0_Bucket_4: 563
Non-critical_ROB_Stalls_Percent_0_Bucket_4: 15150
Critical_ROB_Stalls_Percent_0_Bucket_5: 268
Non-critical_ROB_Stalls_Percent_0_Bucket_5: 19801
Critical_ROB_Stalls_Percent_0_Bucket_6: 511
Non-critical_ROB_Stalls_Percent_0_Bucket_6: 57002
Critical_ROB_Stalls_Percent_1_Bucket_0: 2541735
Non-critical_ROB_Stalls_Percent_1_Bucket_0: 587426
Critical_ROB_Stalls_Percent_1_Bucket_1: 8071
Non-critical_ROB_Stalls_Percent_1_Bucket_1: 243614
Critical_ROB_Stalls_Percent_1_Bucket_2: 3592
Non-critical_ROB_Stalls_Percent_1_Bucket_2: 33437
Critical_ROB_Stalls_Percent_1_Bucket_3: 1022
Non-critical_ROB_Stalls_Percent_1_Bucket_3: 19791
Critical_ROB_Stalls_Percent_1_Bucket_4: 563
Non-critical_ROB_Stalls_Percent_1_Bucket_4: 15150
Critical_ROB_Stalls_Percent_1_Bucket_5: 268
Non-critical_ROB_Stalls_Percent_1_Bucket_5: 19801
Critical_ROB_Stalls_Percent_1_Bucket_6: 511
Non-critical_ROB_Stalls_Percent_1_Bucket_6: 57002
Critical_ROB_Stalls_Percent_2_Bucket_0: 2541735
Non-critical_ROB_Stalls_Percent_2_Bucket_0: 587426
Critical_ROB_Stalls_Percent_2_Bucket_1: 8071
Non-critical_ROB_Stalls_Percent_2_Bucket_1: 243614
Critical_ROB_Stalls_Percent_2_Bucket_2: 3592
Non-critical_ROB_Stalls_Percent_2_Bucket_2: 33437
Critical_ROB_Stalls_Percent_2_Bucket_3: 1022
Non-critical_ROB_Stalls_Percent_2_Bucket_3: 19791
Critical_ROB_Stalls_Percent_2_Bucket_4: 563
Non-critical_ROB_Stalls_Percent_2_Bucket_4: 15150
Critical_ROB_Stalls_Percent_2_Bucket_5: 268
Non-critical_ROB_Stalls_Percent_2_Bucket_5: 19801
Critical_ROB_Stalls_Percent_2_Bucket_6: 511
Non-critical_ROB_Stalls_Percent_2_Bucket_6: 57002
Critical_ROB_Stalls_Percent_3_Bucket_0: 2541735
Non-critical_ROB_Stalls_Percent_3_Bucket_0: 587426
Critical_ROB_Stalls_Percent_3_Bucket_1: 8071
Non-critical_ROB_Stalls_Percent_3_Bucket_1: 243614
Critical_ROB_Stalls_Percent_3_Bucket_2: 3592
Non-critical_ROB_Stalls_Percent_3_Bucket_2: 33437
Critical_ROB_Stalls_Percent_3_Bucket_3: 1022
Non-critical_ROB_Stalls_Percent_3_Bucket_3: 19791
Critical_ROB_Stalls_Percent_3_Bucket_4: 563
Non-critical_ROB_Stalls_Percent_3_Bucket_4: 15150
Critical_ROB_Stalls_Percent_3_Bucket_5: 268
Non-critical_ROB_Stalls_Percent_3_Bucket_5: 19801
Critical_ROB_Stalls_Percent_3_Bucket_6: 511
Non-critical_ROB_Stalls_Percent_3_Bucket_6: 57002
Critical_ROB_Stalls_Percent_4_Bucket_0: 2541735
Non-critical_ROB_Stalls_Percent_4_Bucket_0: 587426
Critical_ROB_Stalls_Percent_4_Bucket_1: 8071
Non-critical_ROB_Stalls_Percent_4_Bucket_1: 243614
Critical_ROB_Stalls_Percent_4_Bucket_2: 3592
Non-critical_ROB_Stalls_Percent_4_Bucket_2: 33437
Critical_ROB_Stalls_Percent_4_Bucket_3: 1022
Non-critical_ROB_Stalls_Percent_4_Bucket_3: 19791
Critical_ROB_Stalls_Percent_4_Bucket_4: 563
Non-critical_ROB_Stalls_Percent_4_Bucket_4: 15150
Critical_ROB_Stalls_Percent_4_Bucket_5: 268
Non-critical_ROB_Stalls_Percent_4_Bucket_5: 19801
Critical_ROB_Stalls_Percent_4_Bucket_6: 511
Non-critical_ROB_Stalls_Percent_4_Bucket_6: 57002
Critical_ROB_Stalls_Percent_5_Bucket_0: 2598273
Non-critical_ROB_Stalls_Percent_5_Bucket_0: 530888
Critical_ROB_Stalls_Percent_5_Bucket_1: 33921
Non-critical_ROB_Stalls_Percent_5_Bucket_1: 217764
Critical_ROB_Stalls_Percent_5_Bucket_2: 7753
Non-critical_ROB_Stalls_Percent_5_Bucket_2: 29276
Critical_ROB_Stalls_Percent_5_Bucket_3: 3899
Non-critical_ROB_Stalls_Percent_5_Bucket_3: 16914
Critical_ROB_Stalls_Percent_5_Bucket_4: 2279
Non-critical_ROB_Stalls_Percent_5_Bucket_4: 13434
Critical_ROB_Stalls_Percent_5_Bucket_5: 2248
Non-critical_ROB_Stalls_Percent_5_Bucket_5: 17821
Critical_ROB_Stalls_Percent_5_Bucket_6: 5142
Non-critical_ROB_Stalls_Percent_5_Bucket_6: 52371
Critical_ROB_Stalls_Percent_6_Bucket_0: 2660143
Non-critical_ROB_Stalls_Percent_6_Bucket_0: 469018
Critical_ROB_Stalls_Percent_6_Bucket_1: 130118
Non-critical_ROB_Stalls_Percent_6_Bucket_1: 121567
Critical_ROB_Stalls_Percent_6_Bucket_2: 14870
Non-critical_ROB_Stalls_Percent_6_Bucket_2: 22159
Critical_ROB_Stalls_Percent_6_Bucket_3: 6871
Non-critical_ROB_Stalls_Percent_6_Bucket_3: 13942
Critical_ROB_Stalls_Percent_6_Bucket_4: 3670
Non-critical_ROB_Stalls_Percent_6_Bucket_4: 12043
Critical_ROB_Stalls_Percent_6_Bucket_5: 3600
Non-critical_ROB_Stalls_Percent_6_Bucket_5: 16469
Critical_ROB_Stalls_Percent_6_Bucket_6: 6517
Non-critical_ROB_Stalls_Percent_6_Bucket_6: 50996
Critical_ROB_Stalls_Percent_7_Bucket_0: 2774078
Non-critical_ROB_Stalls_Percent_7_Bucket_0: 355083
Critical_ROB_Stalls_Percent_7_Bucket_1: 169187
Non-critical_ROB_Stalls_Percent_7_Bucket_1: 82498
Critical_ROB_Stalls_Percent_7_Bucket_2: 19516
Non-critical_ROB_Stalls_Percent_7_Bucket_2: 17513
Critical_ROB_Stalls_Percent_7_Bucket_3: 9769
Non-critical_ROB_Stalls_Percent_7_Bucket_3: 11044
Critical_ROB_Stalls_Percent_7_Bucket_4: 7129
Non-critical_ROB_Stalls_Percent_7_Bucket_4: 8584
Critical_ROB_Stalls_Percent_7_Bucket_5: 8019
Non-critical_ROB_Stalls_Percent_7_Bucket_5: 12050
Critical_ROB_Stalls_Percent_7_Bucket_6: 15473
Non-critical_ROB_Stalls_Percent_7_Bucket_6: 42040
Critical_ROB_Stalls_Percent_8_Bucket_0: 2873052
Non-critical_ROB_Stalls_Percent_8_Bucket_0: 256109
Critical_ROB_Stalls_Percent_8_Bucket_1: 195955
Non-critical_ROB_Stalls_Percent_8_Bucket_1: 55730
Critical_ROB_Stalls_Percent_8_Bucket_2: 24831
Non-critical_ROB_Stalls_Percent_8_Bucket_2: 12198
Critical_ROB_Stalls_Percent_8_Bucket_3: 15835
Non-critical_ROB_Stalls_Percent_8_Bucket_3: 4978
Critical_ROB_Stalls_Percent_8_Bucket_4: 11751
Non-critical_ROB_Stalls_Percent_8_Bucket_4: 3962
Critical_ROB_Stalls_Percent_8_Bucket_5: 13577
Non-critical_ROB_Stalls_Percent_8_Bucket_5: 6492
Critical_ROB_Stalls_Percent_8_Bucket_6: 43947
Non-critical_ROB_Stalls_Percent_8_Bucket_6: 13566
Average ROB occupancy Load Stall Begin: 21.0472
Average ROB occupancy Load Stall End: 26.9041
Min ROB occupancy Load Stall Begin: 1
Max ROB occupancy Load Stall Begin: 352
Min ROB occupancy Load Stall End: 1
Max ROB occupancy Load Stall End: 352
Average ROB occupancy Critical Load Stall Begin: -nan
Average ROB occupancy Critical Load Stall End: -nan
Min ROB occupancy Critical Load Stall Begin: 400
Max ROB occupancy Critical Load Stall Begin: 0
Min ROB occupancy Critical Load Stall End: 400
Max ROB occupancy Critical Load Stall End: 0
 ROB Load Stall Begin Bucket Count 0: 3248766
 ROB Load Stall End Bucket Count 0: 3129161
 ROB Critical Load Stall Begin Bucket Count 0: 0
 ROB Critical Load Stall End Bucket Count 0: 0
 ROB Load Stall Begin Bucket Count 1: 154984
 ROB Load Stall End Bucket Count 1: 251685
 ROB Critical Load Stall Begin Bucket Count 1: 0
 ROB Critical Load Stall End Bucket Count 1: 0
 ROB Load Stall Begin Bucket Count 2: 24773
 ROB Load Stall End Bucket Count 2: 37029
 ROB Critical Load Stall Begin Bucket Count 2: 0
 ROB Critical Load Stall End Bucket Count 2: 0
 ROB Load Stall Begin Bucket Count 3: 17710
 ROB Load Stall End Bucket Count 3: 20813
 ROB Critical Load Stall Begin Bucket Count 3: 0
 ROB Critical Load Stall End Bucket Count 3: 0
 ROB Load Stall Begin Bucket Count 4: 17688
 ROB Load Stall End Bucket Count 4: 15713
 ROB Critical Load Stall Begin Bucket Count 4: 0
 ROB Critical Load Stall End Bucket Count 4: 0
 ROB Load Stall Begin Bucket Count 5: 24258
 ROB Load Stall End Bucket Count 5: 20069
 ROB Critical Load Stall Begin Bucket Count 5: 0
 ROB Critical Load Stall End Bucket Count 5: 0
 ROB Load Stall Begin Bucket Count 6: 43804
 ROB Load Stall End Bucket Count 6: 57513
 ROB Critical Load Stall Begin Bucket Count 6: 0
 ROB Critical Load Stall End Bucket Count 6: 0
PIST Tag Read Accesses: 890478
PIST Read Accesses: 445239
PIST Tag Write Accesses: 890478
PIST Write Accesses: 445239
Criticality detector called times: 996219
Max global_stall_cycles_count: 7355974
Threshold Modified: 1 times, factor: -1
Sturdy critical IP cache stats: 
 Unused entries: 0
CIC Tag Read Accesses: 0
CIC Read Accesses: 0
CIC Tag Write Accesses: 0
CIC Write Accesses: 0
Wobbly critical IP cache stats: 
 Unused entries: 105
CIC Tag Read Accesses: 54808380
CIC Read Accesses: 0
CIC Tag Write Accesses: 1759
CIC Write Accesses: 0
ITLB TOTAL     ACCESS:    8530196  HIT:    8003235  MISS:     526961  HIT %:    93.8224  MISS %:     6.1776   MPKI: 10.5392
ITLB LOAD TRANSLATION ACCESS:    8530196  HIT:    8003235  MISS:     526961  HIT %:    93.8224  MISS %:     6.1776   MPKI: 10.5392
ITLB PREFETCH  REQUESTED:          0  ISSUED:          0  USEFUL:          0  USELESS:          0
ITLB USEFUL LOAD PREFETCHES:          0 PREFETCH ISSUED TO LOWER LEVEL:          0  ACCURACY: -nan
ITLB TIMELY PREFETCHES:          0 LATE PREFETCHES: 0 DROPPED PREFETCHES: 0
ITLB PREFETCHES SAME FILL-ORIGIN LEVEL: 0 DIFFERENT FILL-ORIGIN LEVEL: 0
ITLB AVERAGE MISS LATENCY: 32.8215 cycles
ITLB RQ	ACCESS:    9321215	FORWARD:          0	MERGED:     591255	TO_CACHE:    8729960

DTLB TOTAL     ACCESS:    5108505  HIT:    4180580  MISS:     927925  HIT %:    81.8357  MISS %:    18.1643   MPKI: 18.5585
DTLB LOAD TRANSLATION ACCESS:    5108505  HIT:    4180580  MISS:     927925  HIT %:    81.8357  MISS %:    18.1643   MPKI: 18.5585
DTLB PREFETCH  REQUESTED:          0  ISSUED:          0  USEFUL:          0  USELESS:          0
DTLB USEFUL LOAD PREFETCHES:          0 PREFETCH ISSUED TO LOWER LEVEL:          0  ACCURACY: -nan
DTLB TIMELY PREFETCHES:          0 LATE PREFETCHES: 0 DROPPED PREFETCHES: 0
DTLB PREFETCHES SAME FILL-ORIGIN LEVEL: 0 DIFFERENT FILL-ORIGIN LEVEL: 0
DTLB AVERAGE MISS LATENCY: 35.3793 cycles
DTLB RQ	ACCESS:    6186083	FORWARD:          0	MERGED:     935334	TO_CACHE:    5250749

STLB TOTAL     ACCESS:    1703691  HIT:     547956  MISS:    1155735  HIT %:    32.1629  MISS %:    67.8371   MPKI: 23.1147
STLB LOAD TRANSLATION ACCESS:    1454886  HIT:     306281  MISS:    1148605  HIT %:    21.0519  MISS %:    78.9481   MPKI: 22.9721
STLB TRANSLATION FROM L1D PREFETCHER ACCESS:     248805  HIT:     241675  MISS:       7130  HIT %:    97.1343  MISS %:     2.8657   MPKI: 0.1426
STLB PREFETCH  REQUESTED:          0  ISSUED:          0  USEFUL:       5245  USELESS:       1881
STLB USEFUL LOAD PREFETCHES:       5245 PREFETCH ISSUED TO LOWER LEVEL:          0  ACCURACY: inf
STLB TIMELY PREFETCHES:       5245 LATE PREFETCHES: 0 DROPPED PREFETCHES: 0
STLB PREFETCHES SAME FILL-ORIGIN LEVEL: 0 DIFFERENT FILL-ORIGIN LEVEL: 0
STLB AVERAGE MISS LATENCY: 32.1153 cycles
STLB RQ	ACCESS:    1724427	FORWARD:          0	MERGED:      20619	TO_CACHE:    1703808

STLB Hit, L1D data hit: 0
STLB Hit, L2C data hit: 0
STLB Hit, LLC data hit: 0
STLB Hit, LLC data miss: 0
STLB STLB hints to L2: 0
L1D TOTAL     ACCESS:    6299106  HIT:    5809731  MISS:     489375  HIT %:     92.231  MISS %:    7.76896   MPKI: 9.7875
L1D LOAD      ACCESS:    4666507  HIT:    4469955  MISS:     196552  HIT %:     95.788  MISS %:    4.21197   MPKI: 3.93104
L1D RFO       ACCESS:    1372095  HIT:    1332703  MISS:      39392  HIT %:    97.1291  MISS %:    2.87094   MPKI: 0.78784
L1D PREFETCH  ACCESS:     260504  HIT:       7073  MISS:     253431  HIT %:    2.71512  MISS %:    97.2849   MPKI: 5.06862
L1D PREFETCH  REQUESTED:     539088  ISSUED:     539083  USEFUL:     248548  USELESS:       4881
L1D USEFUL LOAD PREFETCHES:     248548 PREFETCH ISSUED TO LOWER LEVEL:     260750  ACCURACY: 95.3204
L1D TIMELY PREFETCHES:     248548 LATE PREFETCHES: 7317 DROPPED PREFETCHES: 0
L1D PREFETCHES SAME FILL-ORIGIN LEVEL: 260750 DIFFERENT FILL-ORIGIN LEVEL: 0
L1D AVERAGE MISS LATENCY: 1.09621e+06 cycles
L1D RQ	ACCESS:    7327492	FORWARD:          0	MERGED:    2620611	TO_CACHE:    4698470
L1D WQ	ACCESS:    1513454	FORWARD:       8412	MERGED:      25841	TO_CACHE:    1487613
L1D PQ	ACCESS:     269542	FORWARD:          0	MERGED:          0	TO_CACHE:     269541

L1D UNIQUE REGIONS ACCESSED: 0
L1D REGIONS CONFLICTS: 0
L1D Cross Page Prefetch Requests: 0
L1D Same Page Prefetch Requests: 671837
L1D ROI Sum of L1D PQ occupancy: 3909527
L1D PREFETCHES PUSHED FROM L2C: 0
L1I TOTAL     ACCESS:    9187032  HIT:    8751259  MISS:     435773  HIT %:    95.2567  MISS %:    4.74335   MPKI: 8.71546
L1I LOAD      ACCESS:    9187032  HIT:    8751259  MISS:     435773  HIT %:    95.2567  MISS %:    4.74335   MPKI: 8.71546
L1I PREFETCH  REQUESTED:          0  ISSUED:          0  USEFUL:          0  USELESS:          0
L1I USEFUL LOAD PREFETCHES:          0 PREFETCH ISSUED TO LOWER LEVEL:          0  ACCURACY: -nan
L1I TIMELY PREFETCHES:          0 LATE PREFETCHES: 0 DROPPED PREFETCHES: 0
L1I PREFETCHES SAME FILL-ORIGIN LEVEL: 0 DIFFERENT FILL-ORIGIN LEVEL: 0
L1I AVERAGE MISS LATENCY: 19.1943 cycles
L1I RQ	ACCESS:   15732565	FORWARD:          0	MERGED:    6411350	TO_CACHE:    9321215

BTB BRANCH_DIRECT_JUMP	ACCESS:          0  HIT:          0  MISS:          0
BTB BRANCH_INDIRECT	ACCESS:          0  HIT:          0  MISS:          0
BTB BRANCH_CONDITIONAL	ACCESS:          0  HIT:          0  MISS:          0
BTB BRANCH_DIRECT_CALL	ACCESS:          0  HIT:          0  MISS:          0
BTB BRANCH_INDIRECT_CALL	ACCESS:          0  HIT:          0  MISS:          0
BTB BRANCH_RETURN	ACCESS:          0  HIT:          0  MISS:          0
BTB BRANCH_OTHER ACCESS:          0  HIT:          0  MISS:          0

L2C TOTAL     ACCESS:    2316910  HIT:    1900392  MISS:     416518  HIT %:    82.0227  MISS %:    17.9773   MPKI: 8.33036
L2C LOAD      ACCESS:     624999  HIT:     495753  MISS:     129246  HIT %:    79.3206  MISS %:    20.6794   MPKI: 2.58492
L2C DATA LOAD MPKI: 2.18182
L2C INSTRUCTION LOAD MPKI: 0.4031
L2C RFO       ACCESS:      39385  HIT:      20056  MISS:      19329  HIT %:    50.9229  MISS %:    49.0771   MPKI: 0.38658
L2C PREFETCH  ACCESS:     260749  HIT:       2521  MISS:     258228  HIT %:    0.96683  MISS %:    99.0332   MPKI: 5.16456
L2C DATA PREFETCH MPKI: 5.16456
L2C INSTRUCTION PREFETCH MPKI: 0
L2C WRITEBACK ACCESS:     101510  HIT:     100333  MISS:       1177  HIT %:    98.8405  MISS %:    1.15949   MPKI: 0.02354
L2C LOAD TRANSLATION ACCESS:    1283116  HIT:    1274679  MISS:       8437  HIT %:    99.3425  MISS %:    0.65754   MPKI: 0.16874
L2C TRANSLATION FROM L1D PREFETCHER ACCESS:       7151  HIT:       7050  MISS:        101  HIT %:    98.5876  MISS %:    1.41239   MPKI: 0.00202
L2C PREFETCH  REQUESTED:          0  ISSUED:          0  USEFUL:       1116  USELESS:     258069
L2C USEFUL LOAD PREFETCHES:       1116 PREFETCH ISSUED TO LOWER LEVEL:     258229  ACCURACY: 0.432175
L2C TIMELY PREFETCHES:       1116 LATE PREFETCHES: 0 DROPPED PREFETCHES: 0
L2C PREFETCHES SAME FILL-ORIGIN LEVEL: 0 DIFFERENT FILL-ORIGIN LEVEL: 0
L2C AVERAGE MISS LATENCY: 119.32 cycles
L2C RQ	ACCESS:    1954666	FORWARD:          0	MERGED:          0	TO_CACHE:    1954657
L2C WQ	ACCESS:     101510	FORWARD:          9	MERGED:          0	TO_CACHE:     101510
L2C PQ	ACCESS:     260750	FORWARD:          0	MERGED:          0	TO_CACHE:     260750

L2C Instructions Evicting Data 18654
L2C Translations Evicting Data 7825
L2C Data Evicting Data 360835
L2C Instructions Evicting Instructions 1082
L2C Translations Evicting Instructions 458
L2C Data Evicting Instructions 18076
L2C Instructions Evicting Translations 419
L2C Translations Evicting Translations 255
L2C Data Evicting Translations 7737
L2C Dense regions hint from L2: 0
PSCL5 TOTAL     ACCESS:    1155735  HIT:    1155735  MISS:          0  HIT %:        100  MISS %:          0   MPKI: 0
PSCL5 LOAD TRANSLATION ACCESS:    1148605  HIT:    1148605  MISS:          0  HIT %:        100  MISS %:          0   MPKI: 0
PSCL5 TRANSLATION FROM L1D PREFETCHER ACCESS:       7130  HIT:       7130  MISS:          0  HIT %:        100  MISS %:          0   MPKI: 0
PSCL5 PREFETCH  REQUESTED:          0  ISSUED:          0  USEFUL:          0  USELESS:          0
PSCL5 USEFUL LOAD PREFETCHES:          0 PREFETCH ISSUED TO LOWER LEVEL:          0  ACCURACY: -nan
PSCL5 TIMELY PREFETCHES:          0 LATE PREFETCHES: 0 DROPPED PREFETCHES: 0
PSCL5 PREFETCHES SAME FILL-ORIGIN LEVEL: 0 DIFFERENT FILL-ORIGIN LEVEL: 0

PSCL4 TOTAL     ACCESS:    1155735  HIT:    1155735  MISS:          0  HIT %:        100  MISS %:          0   MPKI: 0
PSCL4 LOAD TRANSLATION ACCESS:    1148605  HIT:    1148605  MISS:          0  HIT %:        100  MISS %:          0   MPKI: 0
PSCL4 TRANSLATION FROM L1D PREFETCHER ACCESS:       7130  HIT:       7130  MISS:          0  HIT %:        100  MISS %:          0   MPKI: 0
PSCL4 PREFETCH  REQUESTED:          0  ISSUED:          0  USEFUL:          0  USELESS:          0
PSCL4 USEFUL LOAD PREFETCHES:          0 PREFETCH ISSUED TO LOWER LEVEL:          0  ACCURACY: -nan
PSCL4 TIMELY PREFETCHES:          0 LATE PREFETCHES: 0 DROPPED PREFETCHES: 0
PSCL4 PREFETCHES SAME FILL-ORIGIN LEVEL: 0 DIFFERENT FILL-ORIGIN LEVEL: 0

PSCL3 TOTAL     ACCESS:    1155315  HIT:    1155122  MISS:        193  HIT %:    99.9833  MISS %:  0.0167054   MPKI: 0.00386
PSCL3 LOAD TRANSLATION ACCESS:    1148187  HIT:    1147994  MISS:        193  HIT %:    99.9832  MISS %:  0.0168091   MPKI: 0.00386
PSCL3 TRANSLATION FROM L1D PREFETCHER ACCESS:       7128  HIT:       7128  MISS:          0  HIT %:        100  MISS %:          0   MPKI: 0
PSCL3 PREFETCH  REQUESTED:          0  ISSUED:          0  USEFUL:          0  USELESS:          0
PSCL3 USEFUL LOAD PREFETCHES:          0 PREFETCH ISSUED TO LOWER LEVEL:          0  ACCURACY: -nan
PSCL3 TIMELY PREFETCHES:          0 LATE PREFETCHES: 0 DROPPED PREFETCHES: 0
PSCL3 PREFETCHES SAME FILL-ORIGIN LEVEL: 0 DIFFERENT FILL-ORIGIN LEVEL: 0

PSCL2 TOTAL     ACCESS:    1155735  HIT:    1021227  MISS:     134508  HIT %:    88.3617  MISS %:    11.6383   MPKI: 2.69016
PSCL2 LOAD TRANSLATION ACCESS:    1148626  HIT:    1014118  MISS:     134508  HIT %:    88.2897  MISS %:    11.7103   MPKI: 2.69016
PSCL2 TRANSLATION FROM L1D PREFETCHER ACCESS:       7109  HIT:       7109  MISS:          0  HIT %:        100  MISS %:          0   MPKI: 0
PSCL2 PREFETCH  REQUESTED:          0  ISSUED:          0  USEFUL:          0  USELESS:          0
PSCL2 USEFUL LOAD PREFETCHES:          0 PREFETCH ISSUED TO LOWER LEVEL:          0  ACCURACY: -nan
PSCL2 TIMELY PREFETCHES:          0 LATE PREFETCHES: 0 DROPPED PREFETCHES: 0
PSCL2 PREFETCHES SAME FILL-ORIGIN LEVEL: 0 DIFFERENT FILL-ORIGIN LEVEL: 0

LLC TOTAL     ACCESS:     467440  HIT:      99593  MISS:     367847  HIT %:     21.306  MISS %:     78.694   MPKI: 7.35694
LLC LOAD      ACCESS:     129246  HIT:      40749  MISS:      88497  HIT %:    31.5282  MISS %:    68.4718   MPKI: 1.76994
LLC RFO       ACCESS:      19329  HIT:       3859  MISS:      15470  HIT %:    19.9648  MISS %:    80.0352   MPKI: 0.3094
LLC PREFETCH  ACCESS:     258228  HIT:       2158  MISS:     256070  HIT %:   0.835696  MISS %:    99.1643   MPKI: 5.1214
LLC WRITEBACK ACCESS:      52099  HIT:      49841  MISS:       2258  HIT %:    95.6659  MISS %:    4.33406   MPKI: 0.04516
LLC LOAD TRANSLATION ACCESS:       8437  HIT:       2986  MISS:       5451  HIT %:    35.3917  MISS %:    64.6083   MPKI: 0.10902
LLC TRANSLATION FROM L1D PREFETCHER ACCESS:        101  HIT:          0  MISS:        101  HIT %:          0  MISS %:        100   MPKI: 0.00202
LLC PREFETCH  REQUESTED:          0  ISSUED:          0  USEFUL:        565  USELESS:     259339
LLC USEFUL LOAD PREFETCHES:        565 PREFETCH ISSUED TO LOWER LEVEL:     256070  ACCURACY: 0.220643
LLC TIMELY PREFETCHES:        565 LATE PREFETCHES: 0 DROPPED PREFETCHES: 0
LLC PREFETCHES SAME FILL-ORIGIN LEVEL: 0 DIFFERENT FILL-ORIGIN LEVEL: 0
LLC AVERAGE MISS LATENCY: 100.833 cycles
LLC RQ	ACCESS:     157113	FORWARD:          0	MERGED:          0	TO_CACHE:     157113
LLC WQ	ACCESS:      52099	FORWARD:          0	MERGED:          0	TO_CACHE:      52099
LLC PQ	ACCESS:     258229	FORWARD:          0	MERGED:          0	TO_CACHE:     258229

LLC Dense regions hint to LLC: 0

RAW hits: 80378
Loads Generated: 7407871
Loads sent to L1D: 7327492
Stores Generated: 1513454
Stores sent to L1D: 1513454
Major fault: 0 Minor fault: 17128
Allocated PAGES: 17128

stream: 
stream:times selected: 1107465
stream:pref_filled: 44473
stream:pref_useful: 22775
stream:pref_late: 3425
stream:misses: 7709
stream:misses_by_poll: 0

CS: 
CS:times selected: 704777
CS:pref_filled: 467707
CS:pref_useful: 461776
CS:pref_late: 4893
CS:misses: 47800
CS:misses_by_poll: 924

CPLX: 
CPLX:times selected: 401394
CPLX:pref_filled: 14263
CPLX:pref_useful: 4455
CPLX:pref_late: 124
CPLX:misses: 41201
CPLX:misses_by_poll: 2

NL_L1: 
NL:times selected: 1071
NL:pref_filled: 119
NL:pref_useful: 51
NL:pref_late: 5
NL:misses: 463
NL:misses_by_poll: 0

total selections: 2214707
total_filled: 253431
total_useful: 248548
total_late: 8642
total_polluted: 926
total_misses_after_warmup: 228515
conflicts: 610179
Degree Incremented Times: 40200
Degree Decremented Times: 33272

L1 IP Table Write Accesses: 3884469
L1 IP Table Read Accesses: 3274290
L1 RST Write Accesses: 468588
L1 RST Read Accesses: 937176
L1 CSPT Write Accesses: 468588
L1 CSPT Read Accesses: 603737
L1 RR Filter Tag Write Accesses: 269547
L1 RR Filter Tag Read Accesses: 32719620
L1 IP Table Tag Write Accesses: 4698470
L1 IP Table Tag Read Accesses: 4698470
L1 RST Tag Write Accesses: 0
L1 RST Tag Read Accesses: 4208974
L1 RR Filter Write Accesses: 0
L1 RR Filter Read Accesses: 1045367
test: 99435

DRAM Statistics
 CHANNEL 0
 RQ ROW_BUFFER_HIT:     264302  ROW_BUFFER_MISS:     101287
 DBUS_CONGESTED:        225
 WQ ROW_BUFFER_HIT:      24151  ROW_BUFFER_MISS:      11252  FULL:          0

 AVG_CONGESTED_CYCLE: 4
 All warmup complete: 2
Channel 0 Bank busy for read cycles: 0
Channel 0 Bank busy for write cycles: 0
Channel 0
Rank 0
0banks busy for read cycles: 58090876
0banks busy for write cycles: 22660
1banks busy for read cycles: 17878277
1banks busy for write cycles: 4348378
2banks busy for read cycles: 2005327
2banks busy for write cycles: 740448
3banks busy for read cycles: 1077064
3banks busy for write cycles: 239206
4banks busy for read cycles: 451026
4banks busy for write cycles: 95488
5banks busy for read cycles: 147930
5banks busy for write cycles: 37964
6banks busy for read cycles: 60420
6banks busy for write cycles: 21558
7banks busy for read cycles: 29731
7banks busy for write cycles: 9589
8banks busy for read cycles: 21881
8banks busy for write cycles: 10258

CPU 0 Branch Prediction Accuracy: 99.5713% MPKI: 0.6457 Average ROB Occupancy at Mispredict: 43.3423
Branch types
NOT_BRANCH: 0 0%
BRANCH_DIRECT_JUMP: 0 0%
BRANCH_INDIRECT: 0 0%
BRANCH_CONDITIONAL: 0 0%
BRANCH_DIRECT_CALL: 0 0%
BRANCH_INDIRECT_CALL: 0 0%
BRANCH_RETURN: 0 0%
BRANCH_OTHER: 0 0%

DRAM PAGES: 1048576
Allocated PAGES: 17128
