
*** ChampSim Multicore Out-of-Order Simulator ***

Warmup Instructions: 50000000
Simulation Instructions: 100000000
Number of CPUs: 1
LLC sets: 2048
LLC ways: 16
Off-chip DRAM Size: 4096 MB Channels: 1 Width: 64-bit Data Rate: 6400 MT/s
CPU 0 runs ../SPEC2017//600.perlbench_s-570B.champsimtrace.xz
.xz
NUM_OF_IPS_IN_CRITICAL_IP_TRAINING: 64
NUM_OF_CRITICAL_IP_TRAINING_TABLE_WAYS: 2
NUM_OF_CRITICAL_IP_TRAINING_TABLE_SETS: 32
WOBBLY_CRITICAL_IP_CACHE_SETS: 32
WOBBLY_CRITICAL_IP_CACHE_WAYS: 4
BTB has LRU replacement policy
ITLB has LRU replacement policy
DTLB has LRU replacement policy
STLB has LRU replacement policy
L1I has LRU replacement policy
IP Table Entries: 64
L1D has LRU replacement policy
Initialize SRRIP state for L2C
Initialize DRRIP state for LLC
Heartbeat CPU 0 instructions: 10000003 cycles: 2894045 heartbeat IPC: 3.45537 cumulative IPC: 3.45537 (Simulation time: 0 hr 3 min 42 sec) 
Heartbeat CPU 0 instructions: 20000003 cycles: 5752866 heartbeat IPC: 3.49795 cumulative IPC: 3.47653 (Simulation time: 0 hr 6 min 39 sec) 
Heartbeat CPU 0 instructions: 30000003 cycles: 8648404 heartbeat IPC: 3.45359 cumulative IPC: 3.46885 (Simulation time: 0 hr 9 min 32 sec) 
Heartbeat CPU 0 instructions: 40000002 cycles: 11519780 heartbeat IPC: 3.48265 cumulative IPC: 3.47229 (Simulation time: 0 hr 12 min 0 sec) 
Heartbeat CPU 0 instructions: 50000002 cycles: 14389455 heartbeat IPC: 3.48472 cumulative IPC: 3.47477 (Simulation time: 0 hr 14 min 13 sec) 

Warmup complete CPU 0 instructions: 50000002 cycles: 14389455 (Simulation time: 0 hr 14 min 13 sec) 

% increase in all ip prefetch 328.703
% increase in all ip prefetch -0.0881407
Heartbeat CPU 0 instructions: 60000000 cycles: 28597796 heartbeat IPC: 0.703812 cumulative IPC: 0.703812 (Simulation time: 0 hr 17 min 7 sec) 
Heartbeat CPU 0 instructions: 70000000 cycles: 51019664 heartbeat IPC: 0.445993 cumulative IPC: 0.545997 (Simulation time: 0 hr 20 min 5 sec) 
Heartbeat CPU 0 instructions: 80000002 cycles: 74890874 heartbeat IPC: 0.418915 cumulative IPC: 0.495856 (Simulation time: 0 hr 23 min 10 sec) 
Heartbeat CPU 0 instructions: 90000003 cycles: 103109403 heartbeat IPC: 0.354377 cumulative IPC: 0.450857 (Simulation time: 0 hr 26 min 19 sec) 
Heartbeat CPU 0 instructions: 100000002 cycles: 118410769 heartbeat IPC: 0.653536 cumulative IPC: 0.480671 (Simulation time: 0 hr 29 min 6 sec) 
Heartbeat CPU 0 instructions: 110000000 cycles: 133628380 heartbeat IPC: 0.657133 cumulative IPC: 0.503191 (Simulation time: 0 hr 31 min 41 sec) 
Heartbeat CPU 0 instructions: 120000003 cycles: 149655714 heartbeat IPC: 0.623934 cumulative IPC: 0.517498 (Simulation time: 0 hr 34 min 10 sec) 
Heartbeat CPU 0 instructions: 130000000 cycles: 165476240 heartbeat IPC: 0.63209 cumulative IPC: 0.529497 (Simulation time: 0 hr 36 min 37 sec) 
Heartbeat CPU 0 instructions: 140000003 cycles: 193813491 heartbeat IPC: 0.352892 cumulative IPC: 0.501605 (Simulation time: 0 hr 39 min 10 sec) 
Heartbeat CPU 0 instructions: 150000002 cycles: 220262885 heartbeat IPC: 0.37808 cumulative IPC: 0.485735 (Simulation time: 0 hr 41 min 3 sec) 
Finished CPU 0 instructions: 100000000 cycles: 205873430 cumulative IPC: 0.485735 (Simulation time: 0 hr 41 min 3 sec) 

ChampSim completed all CPUs

Region of Interest Statistics

CPU 0 cumulative IPC: 0.485735 instructions: 100000000 cycles: 205873430

CPU 0 Average Load ROB stall cycles: 4.55532e+07
CPU 0 Fraction of times ROB stalled by Loads: 39.0012
CPU 0 Percentage of Load stall cycles in Total stall cycles: 5.7285e+08
Issued all: 53585964
Issued LT all: 41696352
rob_not_full_when_issued_lt_all: 36573260
Issued LT one: 31911253
rob_not_full_when_issued_lt_one: 27629216
 Total stall cycles: 172509040
 Total load stall cycles: 988217788624427
Unique Load IPs: 11553
CPU 0 NUM of IPS identified critical: 130
CPU 0 Num of Load IPs stalling ROB: 10229
Threshold modification factor: -1
Max PIST entries: 64
Min PIST entries: 0
Avg PIST entries: 42.5667
Trouble in retire width: 0.928202
MaC = Marked as critical.
lt_50_percent_before_Mac: 102
gt_90_percent_before_Mac: 5
gt_75_percent_before_Mac: 3
gt_50_percent_before_Mac: 20
stall_proportion_bin_same_before_after: 0
stall_proportion_bin_lower_before_after: 0
stall_proportion_bin_upper_before_after: 0
average_stall_proportion_before: 0.0848786
average_stall_proportion_after: 0.0823404
Critical IP stalls, total frequency: 2574206
Non-critical IP stalls, total frequency: 5886617
Total Freq all stalling IPs: 8460823
Critical_IP_Detector_Accuracy_70: 0.561538
Critical_IP_Detector_Accuracy_80: 0.669231
Critical_IP_Detector_Accuracy_90: 0.938462
Critical_IP_Detector_Coverage_70: 0.238562
Critical_IP_Detector_Coverage_80: 0.155914
Critical_IP_Detector_Coverage_90: 0.117195
stat_90_percent_critical_ip_stalls_freq: 7614848
stat_90_percent_non_critical_ip_stalls_freq: 845975
AVERAGE_ROB_Occupancy_90_Percent_Critical_IP_Stalls: 77.4299
AVERAGE_ROB_Occupancy_90_Percent_Non_Critical_IP_Stalls: 47.3243
Critical_IP_ROB_Stalls_Bucket_0: 565409
Non-critical_IP_ROB_Stalls_Bucket_0: 3908870
Critical_IP_ROB_Stalls_Bucket_1: 808931
Non-critical_IP_ROB_Stalls_Bucket_1: 947874
Critical_IP_ROB_Stalls_Bucket_2: 351879
Non-critical_IP_ROB_Stalls_Bucket_2: 529836
Critical_IP_ROB_Stalls_Bucket_3: 418221
Non-critical_IP_ROB_Stalls_Bucket_3: 164688
Critical_IP_ROB_Stalls_Bucket_4: 308108
Non-critical_IP_ROB_Stalls_Bucket_4: 121431
Critical_IP_ROB_Stalls_Bucket_5: 25120
Non-critical_IP_ROB_Stalls_Bucket_5: 35621
Critical_IP_ROB_Stalls_Bucket_6: 96538
Non-critical_IP_ROB_Stalls_Bucket_6: 178297
0 => IPs accounting for >50 percent of stalls, 1 => 55, 2 => 60, 3 => 65 and so on till 90.
percent50: 50.0406 num IPs:  94
percent55: 55.0642 num IPs: 130
percent60: 60.0484 num IPs: 173
percent65: 65.0662 num IPs: 231
percent70: 70.0216 num IPs: 306
percent75: 75.0036 num IPs: 411
percent80: 80.0292 num IPs: 558
percent85: 85.0168 num IPs: 748
percent90: 90.0013 num IPs: 1041
Critical_ROB_Stalls_Percent_0_Bucket_0: 1856200
Non-critical_ROB_Stalls_Percent_0_Bucket_0: 2618079
Critical_ROB_Stalls_Percent_0_Bucket_1: 950130
Non-critical_ROB_Stalls_Percent_0_Bucket_1: 806675
Critical_ROB_Stalls_Percent_0_Bucket_2: 528042
Non-critical_ROB_Stalls_Percent_0_Bucket_2: 353673
Critical_ROB_Stalls_Percent_0_Bucket_3: 432084
Non-critical_ROB_Stalls_Percent_0_Bucket_3: 150825
Critical_ROB_Stalls_Percent_0_Bucket_4: 359930
Non-critical_ROB_Stalls_Percent_0_Bucket_4: 69609
Critical_ROB_Stalls_Percent_0_Bucket_5: 21931
Non-critical_ROB_Stalls_Percent_0_Bucket_5: 38810
Critical_ROB_Stalls_Percent_0_Bucket_6: 85533
Non-critical_ROB_Stalls_Percent_0_Bucket_6: 189302
Critical_ROB_Stalls_Percent_1_Bucket_0: 2081332
Non-critical_ROB_Stalls_Percent_1_Bucket_0: 2392947
Critical_ROB_Stalls_Percent_1_Bucket_1: 1002041
Non-critical_ROB_Stalls_Percent_1_Bucket_1: 754764
Critical_ROB_Stalls_Percent_1_Bucket_2: 571031
Non-critical_ROB_Stalls_Percent_1_Bucket_2: 310684
Critical_ROB_Stalls_Percent_1_Bucket_3: 449254
Non-critical_ROB_Stalls_Percent_1_Bucket_3: 133655
Critical_ROB_Stalls_Percent_1_Bucket_4: 374478
Non-critical_ROB_Stalls_Percent_1_Bucket_4: 55061
Critical_ROB_Stalls_Percent_1_Bucket_5: 30618
Non-critical_ROB_Stalls_Percent_1_Bucket_5: 30123
Critical_ROB_Stalls_Percent_1_Bucket_6: 150131
Non-critical_ROB_Stalls_Percent_1_Bucket_6: 124704
Critical_ROB_Stalls_Percent_2_Bucket_0: 2328676
Non-critical_ROB_Stalls_Percent_2_Bucket_0: 2145603
Critical_ROB_Stalls_Percent_2_Bucket_1: 1092947
Non-critical_ROB_Stalls_Percent_2_Bucket_1: 663858
Critical_ROB_Stalls_Percent_2_Bucket_2: 627547
Non-critical_ROB_Stalls_Percent_2_Bucket_2: 254168
Critical_ROB_Stalls_Percent_2_Bucket_3: 459183
Non-critical_ROB_Stalls_Percent_2_Bucket_3: 123726
Critical_ROB_Stalls_Percent_2_Bucket_4: 381075
Non-critical_ROB_Stalls_Percent_2_Bucket_4: 48464
Critical_ROB_Stalls_Percent_2_Bucket_5: 34662
Non-critical_ROB_Stalls_Percent_2_Bucket_5: 26079
Critical_ROB_Stalls_Percent_2_Bucket_6: 156499
Non-critical_ROB_Stalls_Percent_2_Bucket_6: 118336
Critical_ROB_Stalls_Percent_3_Bucket_0: 2614433
Non-critical_ROB_Stalls_Percent_3_Bucket_0: 1859846
Critical_ROB_Stalls_Percent_3_Bucket_1: 1173080
Non-critical_ROB_Stalls_Percent_3_Bucket_1: 583725
Critical_ROB_Stalls_Percent_3_Bucket_2: 649510
Non-critical_ROB_Stalls_Percent_3_Bucket_2: 232205
Critical_ROB_Stalls_Percent_3_Bucket_3: 466352
Non-critical_ROB_Stalls_Percent_3_Bucket_3: 116557
Critical_ROB_Stalls_Percent_3_Bucket_4: 386823
Non-critical_ROB_Stalls_Percent_3_Bucket_4: 42716
Critical_ROB_Stalls_Percent_3_Bucket_5: 38077
Non-critical_ROB_Stalls_Percent_3_Bucket_5: 22664
Critical_ROB_Stalls_Percent_3_Bucket_6: 176865
Non-critical_ROB_Stalls_Percent_3_Bucket_6: 97970
Critical_ROB_Stalls_Percent_4_Bucket_0: 2857679
Non-critical_ROB_Stalls_Percent_4_Bucket_0: 1616600
Critical_ROB_Stalls_Percent_4_Bucket_1: 1243190
Non-critical_ROB_Stalls_Percent_4_Bucket_1: 513615
Critical_ROB_Stalls_Percent_4_Bucket_2: 686824
Non-critical_ROB_Stalls_Percent_4_Bucket_2: 194891
Critical_ROB_Stalls_Percent_4_Bucket_3: 490762
Non-critical_ROB_Stalls_Percent_4_Bucket_3: 92147
Critical_ROB_Stalls_Percent_4_Bucket_4: 396537
Non-critical_ROB_Stalls_Percent_4_Bucket_4: 33002
Critical_ROB_Stalls_Percent_4_Bucket_5: 43432
Non-critical_ROB_Stalls_Percent_4_Bucket_5: 17309
Critical_ROB_Stalls_Percent_4_Bucket_6: 205980
Non-critical_ROB_Stalls_Percent_4_Bucket_6: 68855
Critical_ROB_Stalls_Percent_5_Bucket_0: 3117715
Non-critical_ROB_Stalls_Percent_5_Bucket_0: 1356564
Critical_ROB_Stalls_Percent_5_Bucket_1: 1323761
Non-critical_ROB_Stalls_Percent_5_Bucket_1: 433044
Critical_ROB_Stalls_Percent_5_Bucket_2: 715688
Non-critical_ROB_Stalls_Percent_5_Bucket_2: 166027
Critical_ROB_Stalls_Percent_5_Bucket_3: 510205
Non-critical_ROB_Stalls_Percent_5_Bucket_3: 72704
Critical_ROB_Stalls_Percent_5_Bucket_4: 404219
Non-critical_ROB_Stalls_Percent_5_Bucket_4: 25320
Critical_ROB_Stalls_Percent_5_Bucket_5: 47283
Non-critical_ROB_Stalls_Percent_5_Bucket_5: 13458
Critical_ROB_Stalls_Percent_5_Bucket_6: 227054
Non-critical_ROB_Stalls_Percent_5_Bucket_6: 47781
Critical_ROB_Stalls_Percent_6_Bucket_0: 3331995
Non-critical_ROB_Stalls_Percent_6_Bucket_0: 1142284
Critical_ROB_Stalls_Percent_6_Bucket_1: 1434586
Non-critical_ROB_Stalls_Percent_6_Bucket_1: 322219
Critical_ROB_Stalls_Percent_6_Bucket_2: 770817
Non-critical_ROB_Stalls_Percent_6_Bucket_2: 110898
Critical_ROB_Stalls_Percent_6_Bucket_3: 532482
Non-critical_ROB_Stalls_Percent_6_Bucket_3: 50427
Critical_ROB_Stalls_Percent_6_Bucket_4: 411028
Non-critical_ROB_Stalls_Percent_6_Bucket_4: 18511
Critical_ROB_Stalls_Percent_6_Bucket_5: 49236
Non-critical_ROB_Stalls_Percent_6_Bucket_5: 11505
Critical_ROB_Stalls_Percent_6_Bucket_6: 240990
Non-critical_ROB_Stalls_Percent_6_Bucket_6: 33845
Critical_ROB_Stalls_Percent_7_Bucket_0: 3613707
Non-critical_ROB_Stalls_Percent_7_Bucket_0: 860572
Critical_ROB_Stalls_Percent_7_Bucket_1: 1524822
Non-critical_ROB_Stalls_Percent_7_Bucket_1: 231983
Critical_ROB_Stalls_Percent_7_Bucket_2: 796164
Non-critical_ROB_Stalls_Percent_7_Bucket_2: 85551
Critical_ROB_Stalls_Percent_7_Bucket_3: 543354
Non-critical_ROB_Stalls_Percent_7_Bucket_3: 39555
Critical_ROB_Stalls_Percent_7_Bucket_4: 415750
Non-critical_ROB_Stalls_Percent_7_Bucket_4: 13789
Critical_ROB_Stalls_Percent_7_Bucket_5: 51321
Non-critical_ROB_Stalls_Percent_7_Bucket_5: 9420
Critical_ROB_Stalls_Percent_7_Bucket_6: 248005
Non-critical_ROB_Stalls_Percent_7_Bucket_6: 26830
Critical_ROB_Stalls_Percent_8_Bucket_0: 3877843
Non-critical_ROB_Stalls_Percent_8_Bucket_0: 596436
Critical_ROB_Stalls_Percent_8_Bucket_1: 1602017
Non-critical_ROB_Stalls_Percent_8_Bucket_1: 154788
Critical_ROB_Stalls_Percent_8_Bucket_2: 836077
Non-critical_ROB_Stalls_Percent_8_Bucket_2: 45638
Critical_ROB_Stalls_Percent_8_Bucket_3: 558785
Non-critical_ROB_Stalls_Percent_8_Bucket_3: 24124
Critical_ROB_Stalls_Percent_8_Bucket_4: 422833
Non-critical_ROB_Stalls_Percent_8_Bucket_4: 6706
Critical_ROB_Stalls_Percent_8_Bucket_5: 55902
Non-critical_ROB_Stalls_Percent_8_Bucket_5: 4839
Critical_ROB_Stalls_Percent_8_Bucket_6: 261391
Non-critical_ROB_Stalls_Percent_8_Bucket_6: 13444
Average ROB occupancy Load Stall Begin: 68.2255
Average ROB occupancy Load Stall End: 74.4197
Min ROB occupancy Load Stall Begin: 1
Max ROB occupancy Load Stall Begin: 352
Min ROB occupancy Load Stall End: 1
Max ROB occupancy Load Stall End: 352
Average ROB occupancy Critical Load Stall Begin: 108.429
Average ROB occupancy Critical Load Stall End: 116.379
Min ROB occupancy Critical Load Stall Begin: 1
Max ROB occupancy Critical Load Stall Begin: 352
Min ROB occupancy Critical Load Stall End: 1
Max ROB occupancy Critical Load Stall End: 352
 ROB Load Stall Begin Bucket Count 0: 5013271
 ROB Load Stall End Bucket Count 0: 4474279
 ROB Critical Load Stall Begin Bucket Count 0: 794992
 ROB Critical Load Stall End Bucket Count 0: 457436
 ROB Load Stall Begin Bucket Count 1: 1389244
 ROB Load Stall End Bucket Count 1: 1756805
 ROB Critical Load Stall Begin Bucket Count 1: 409555
 ROB Critical Load Stall End Bucket Count 1: 714469
 ROB Load Stall Begin Bucket Count 2: 810050
 ROB Load Stall End Bucket Count 2: 881715
 ROB Critical Load Stall Begin Bucket Count 2: 324052
 ROB Critical Load Stall End Bucket Count 2: 316548
 ROB Load Stall Begin Bucket Count 3: 530342
 ROB Load Stall End Bucket Count 3: 582909
 ROB Critical Load Stall Begin Bucket Count 3: 382753
 ROB Critical Load Stall End Bucket Count 3: 392493
 ROB Load Stall Begin Bucket Count 4: 395523
 ROB Load Stall End Bucket Count 4: 429539
 ROB Critical Load Stall Begin Bucket Count 4: 245374
 ROB Critical Load Stall End Bucket Count 4: 271162
 ROB Load Stall Begin Bucket Count 5: 56028
 ROB Load Stall End Bucket Count 5: 60741
 ROB Critical Load Stall Begin Bucket Count 5: 17386
 ROB Critical Load Stall End Bucket Count 5: 20162
 ROB Load Stall Begin Bucket Count 6: 266365
 ROB Load Stall End Bucket Count 6: 274835
 ROB Critical Load Stall Begin Bucket Count 6: 81137
 ROB Critical Load Stall End Bucket Count 6: 82979
PIST Tag Read Accesses: 4735740
PIST Read Accesses: 2367870
PIST Tag Write Accesses: 4735740
PIST Write Accesses: 2367870
Criticality detector called times: 6100507
Max global_stall_cycles_count: 8130631
Threshold Modified: 1 times, factor: -1
Sturdy critical IP cache stats: 
 Unused entries: 0
CIC Tag Read Accesses: 0
CIC Read Accesses: 0
CIC Tag Write Accesses: 0
CIC Write Accesses: 0
Wobbly critical IP cache stats: 
 Unused entries: 24
CIC Tag Read Accesses: 212394156
CIC Read Accesses: 0
CIC Tag Write Accesses: 1575346
CIC Write Accesses: 0
ITLB TOTAL     ACCESS:   15698554  HIT:   15665240  MISS:      33314  HIT %:    99.7878  MISS %:   0.212211   MPKI: 0.33314
ITLB LOAD TRANSLATION ACCESS:   15698554  HIT:   15665240  MISS:      33314  HIT %:    99.7878  MISS %:   0.212211   MPKI: 0.33314
ITLB PREFETCH  REQUESTED:          0  ISSUED:          0  USEFUL:          0  USELESS:          0
ITLB USEFUL LOAD PREFETCHES:          0 PREFETCH ISSUED TO LOWER LEVEL:          0  ACCURACY: -nan
ITLB TIMELY PREFETCHES:          0 LATE PREFETCHES: 0 DROPPED PREFETCHES: 0
ITLB PREFETCHES SAME FILL-ORIGIN LEVEL: 0 DIFFERENT FILL-ORIGIN LEVEL: 0
ITLB AVERAGE MISS LATENCY: 10.203 cycles
ITLB RQ	ACCESS:   17669767	FORWARD:          0	MERGED:    1958953	TO_CACHE:   15710814

DTLB TOTAL     ACCESS:   27512623  HIT:   27239198  MISS:     273425  HIT %:    99.0062  MISS %:   0.993817   MPKI: 2.73425
DTLB LOAD TRANSLATION ACCESS:   27512623  HIT:   27239198  MISS:     273425  HIT %:    99.0062  MISS %:   0.993817   MPKI: 2.73425
DTLB PREFETCH  REQUESTED:          0  ISSUED:          0  USEFUL:          0  USELESS:          0
DTLB USEFUL LOAD PREFETCHES:          0 PREFETCH ISSUED TO LOWER LEVEL:          0  ACCURACY: -nan
DTLB TIMELY PREFETCHES:          0 LATE PREFETCHES: 0 DROPPED PREFETCHES: 0
DTLB PREFETCHES SAME FILL-ORIGIN LEVEL: 0 DIFFERENT FILL-ORIGIN LEVEL: 0
DTLB AVERAGE MISS LATENCY: 13.8152 cycles
DTLB RQ	ACCESS:   37611472	FORWARD:          0	MERGED:   10090387	TO_CACHE:   27521085

STLB TOTAL     ACCESS:     400030  HIT:     386961  MISS:      13069  HIT %:     96.733  MISS %:      3.267   MPKI: 0.13069
STLB LOAD TRANSLATION ACCESS:     306739  HIT:     293670  MISS:      13069  HIT %:    95.7394  MISS %:    4.26063   MPKI: 0.13069
STLB TRANSLATION FROM L1D PREFETCHER ACCESS:      93291  HIT:      93291  MISS:          0  HIT %:        100  MISS %:          0   MPKI: 0
STLB PREFETCH  REQUESTED:          0  ISSUED:          0  USEFUL:          0  USELESS:          0
STLB USEFUL LOAD PREFETCHES:          0 PREFETCH ISSUED TO LOWER LEVEL:          0  ACCURACY: -nan
STLB TIMELY PREFETCHES:          0 LATE PREFETCHES: 0 DROPPED PREFETCHES: 0
STLB PREFETCHES SAME FILL-ORIGIN LEVEL: 0 DIFFERENT FILL-ORIGIN LEVEL: 0
STLB AVERAGE MISS LATENCY: 103.068 cycles
STLB RQ	ACCESS:     479134	FORWARD:          0	MERGED:      79104	TO_CACHE:     400030

STLB Hit, L1D data hit: 0
STLB Hit, L2C data hit: 0
STLB Hit, LLC data hit: 0
STLB Hit, LLC data miss: 0
STLB STLB hints to L2: 0
L1D TOTAL     ACCESS:   37702633  HIT:   37365403  MISS:     337230  HIT %:    99.1056  MISS %:   0.894447   MPKI: 3.3723
L1D LOAD      ACCESS:   18061527  HIT:   17780493  MISS:     281034  HIT %:     98.444  MISS %:    1.55598   MPKI: 2.81034
L1D RFO       ACCESS:   19472529  HIT:   19441632  MISS:      30897  HIT %:    99.8413  MISS %:    0.15867   MPKI: 0.30897
L1D PREFETCH  ACCESS:     168577  HIT:     143278  MISS:      25299  HIT %:    84.9926  MISS %:    15.0074   MPKI: 0.25299
L1D PREFETCH  REQUESTED:     344817  ISSUED:     344812  USEFUL:      10149  USELESS:      15143
L1D USEFUL LOAD PREFETCHES:      10149 PREFETCH ISSUED TO LOWER LEVEL:      25780  ACCURACY: 39.3677
L1D TIMELY PREFETCHES:      10149 LATE PREFETCHES: 472 DROPPED PREFETCHES: 0
L1D PREFETCHES SAME FILL-ORIGIN LEVEL: 25780 DIFFERENT FILL-ORIGIN LEVEL: 0
L1D AVERAGE MISS LATENCY: 282461 cycles
L1D RQ	ACCESS:   23304676	FORWARD:          0	MERGED:    4661407	TO_CACHE:   18081337
L1D WQ	ACCESS:   19785327	FORWARD:     561954	MERGED:     255192	TO_CACHE:   19530135
L1D PQ	ACCESS:     172417	FORWARD:          0	MERGED:          0	TO_CACHE:     172395

L1D UNIQUE REGIONS ACCESSED: 0
L1D REGIONS CONFLICTS: 0
L1D Cross Page Prefetch Requests: 0
L1D Same Page Prefetch Requests: 172654
L1D ROI Sum of L1D PQ occupancy: 2321867
L1D PREFETCHES PUSHED FROM L2C: 0
L1I TOTAL     ACCESS:   17543365  HIT:   17040814  MISS:     502551  HIT %:    97.1354  MISS %:    2.86462   MPKI: 5.02551
L1I LOAD      ACCESS:   17543365  HIT:   17040814  MISS:     502551  HIT %:    97.1354  MISS %:    2.86462   MPKI: 5.02551
L1I PREFETCH  REQUESTED:          0  ISSUED:          0  USEFUL:          0  USELESS:          0
L1I USEFUL LOAD PREFETCHES:          0 PREFETCH ISSUED TO LOWER LEVEL:          0  ACCURACY: -nan
L1I TIMELY PREFETCHES:          0 LATE PREFETCHES: 0 DROPPED PREFETCHES: 0
L1I PREFETCHES SAME FILL-ORIGIN LEVEL: 0 DIFFERENT FILL-ORIGIN LEVEL: 0
L1I AVERAGE MISS LATENCY: 16.9919 cycles
L1I RQ	ACCESS:   28103207	FORWARD:          0	MERGED:   10433440	TO_CACHE:   17669767

BTB TOTAL     ACCESS:   12959212  HIT:   12197760  MISS:     761452  HIT %:    94.1242  MISS %:    5.87576   MPKI: 7.61452
BTB BRANCH_DIRECT_JUMP	ACCESS:    2068606  HIT:    2062261  MISS:       6345
BTB BRANCH_INDIRECT	ACCESS:     637045  HIT:     204601  MISS:     432444
BTB BRANCH_CONDITIONAL	ACCESS:    8289203  HIT:    8271716  MISS:      17487
BTB BRANCH_DIRECT_CALL	ACCESS:     790916  HIT:     786347  MISS:       4569
BTB BRANCH_INDIRECT_CALL	ACCESS:     191262  HIT:      22762  MISS:     168500
BTB BRANCH_RETURN	ACCESS:     982180  HIT:     850073  MISS:     132107
BTB BRANCH_OTHER ACCESS:          0  HIT:          0  MISS:          0

L2C TOTAL     ACCESS:     945660  HIT:     783617  MISS:     162043  HIT %:    82.8646  MISS %:    17.1354   MPKI: 1.62043
L2C LOAD      ACCESS:     783113  HIT:     646885  MISS:     136228  HIT %:    82.6043  MISS %:    17.3957   MPKI: 1.36228
L2C DATA LOAD MPKI: 1.17826
L2C INSTRUCTION LOAD MPKI: 0.18402
L2C RFO       ACCESS:      30888  HIT:      22906  MISS:       7982  HIT %:    74.1582  MISS %:    25.8418   MPKI: 0.07982
L2C PREFETCH  ACCESS:      25780  HIT:      15446  MISS:      10334  HIT %:    59.9147  MISS %:    40.0853   MPKI: 0.10334
L2C DATA PREFETCH MPKI: 0.10334
L2C INSTRUCTION PREFETCH MPKI: 0
L2C WRITEBACK ACCESS:      90194  HIT:      88909  MISS:       1285  HIT %:    98.5753  MISS %:    1.42471   MPKI: 0.01285
L2C LOAD TRANSLATION ACCESS:      15685  HIT:       9471  MISS:       6214  HIT %:    60.3825  MISS %:    39.6175   MPKI: 0.06214
L2C PREFETCH  REQUESTED:          0  ISSUED:          0  USEFUL:        777  USELESS:       9163
L2C USEFUL LOAD PREFETCHES:        777 PREFETCH ISSUED TO LOWER LEVEL:      10334  ACCURACY: 7.51887
L2C TIMELY PREFETCHES:        777 LATE PREFETCHES: 0 DROPPED PREFETCHES: 0
L2C PREFETCHES SAME FILL-ORIGIN LEVEL: 0 DIFFERENT FILL-ORIGIN LEVEL: 0
L2C AVERAGE MISS LATENCY: 135.124 cycles
L2C RQ	ACCESS:     829686	FORWARD:          0	MERGED:          0	TO_CACHE:     829686
L2C WQ	ACCESS:      90194	FORWARD:          0	MERGED:          0	TO_CACHE:      90194
L2C PQ	ACCESS:      25780	FORWARD:          0	MERGED:          0	TO_CACHE:      25780

L2C Instructions Evicting Data 15064
L2C Translations Evicting Data 5104
L2C Data Evicting Data 115243
L2C Instructions Evicting Instructions 2265
L2C Translations Evicting Instructions 732
L2C Data Evicting Instructions 14031
L2C Instructions Evicting Translations 780
L2C Translations Evicting Translations 273
L2C Data Evicting Translations 5042
L2C Dense regions hint from L2: 0
PSCL5 TOTAL     ACCESS:      13069  HIT:      13069  MISS:          0  HIT %:        100  MISS %:          0   MPKI: 0
PSCL5 LOAD TRANSLATION ACCESS:      13069  HIT:      13069  MISS:          0  HIT %:        100  MISS %:          0   MPKI: 0
PSCL5 PREFETCH  REQUESTED:          0  ISSUED:          0  USEFUL:          0  USELESS:          0
PSCL5 USEFUL LOAD PREFETCHES:          0 PREFETCH ISSUED TO LOWER LEVEL:          0  ACCURACY: -nan
PSCL5 TIMELY PREFETCHES:          0 LATE PREFETCHES: 0 DROPPED PREFETCHES: 0
PSCL5 PREFETCHES SAME FILL-ORIGIN LEVEL: 0 DIFFERENT FILL-ORIGIN LEVEL: 0

PSCL4 TOTAL     ACCESS:      13069  HIT:      13069  MISS:          0  HIT %:        100  MISS %:          0   MPKI: 0
PSCL4 LOAD TRANSLATION ACCESS:      13069  HIT:      13069  MISS:          0  HIT %:        100  MISS %:          0   MPKI: 0
PSCL4 PREFETCH  REQUESTED:          0  ISSUED:          0  USEFUL:          0  USELESS:          0
PSCL4 USEFUL LOAD PREFETCHES:          0 PREFETCH ISSUED TO LOWER LEVEL:          0  ACCURACY: -nan
PSCL4 TIMELY PREFETCHES:          0 LATE PREFETCHES: 0 DROPPED PREFETCHES: 0
PSCL4 PREFETCHES SAME FILL-ORIGIN LEVEL: 0 DIFFERENT FILL-ORIGIN LEVEL: 0

PSCL3 TOTAL     ACCESS:      13069  HIT:      13069  MISS:          0  HIT %:        100  MISS %:          0   MPKI: 0
PSCL3 LOAD TRANSLATION ACCESS:      13069  HIT:      13069  MISS:          0  HIT %:        100  MISS %:          0   MPKI: 0
PSCL3 PREFETCH  REQUESTED:          0  ISSUED:          0  USEFUL:          0  USELESS:          0
PSCL3 USEFUL LOAD PREFETCHES:          0 PREFETCH ISSUED TO LOWER LEVEL:          0  ACCURACY: -nan
PSCL3 TIMELY PREFETCHES:          0 LATE PREFETCHES: 0 DROPPED PREFETCHES: 0
PSCL3 PREFETCHES SAME FILL-ORIGIN LEVEL: 0 DIFFERENT FILL-ORIGIN LEVEL: 0

PSCL2 TOTAL     ACCESS:      13069  HIT:      10399  MISS:       2670  HIT %:      79.57  MISS %:      20.43   MPKI: 0.0267
PSCL2 LOAD TRANSLATION ACCESS:      13069  HIT:      10399  MISS:       2670  HIT %:      79.57  MISS %:      20.43   MPKI: 0.0267
PSCL2 PREFETCH  REQUESTED:          0  ISSUED:          0  USEFUL:          0  USELESS:          0
PSCL2 USEFUL LOAD PREFETCHES:          0 PREFETCH ISSUED TO LOWER LEVEL:          0  ACCURACY: -nan
PSCL2 TIMELY PREFETCHES:          0 LATE PREFETCHES: 0 DROPPED PREFETCHES: 0
PSCL2 PREFETCHES SAME FILL-ORIGIN LEVEL: 0 DIFFERENT FILL-ORIGIN LEVEL: 0

LLC TOTAL     ACCESS:     188737  HIT:      70685  MISS:     118052  HIT %:    37.4516  MISS %:    62.5484   MPKI: 1.18052
LLC LOAD      ACCESS:     136228  HIT:      35472  MISS:     100756  HIT %:    26.0387  MISS %:    73.9613   MPKI: 1.00756
LLC RFO       ACCESS:       7982  HIT:       1849  MISS:       6133  HIT %:    23.1646  MISS %:    76.8354   MPKI: 0.06133
LLC PREFETCH  ACCESS:      10334  HIT:       2323  MISS:       8011  HIT %:    22.4792  MISS %:    77.5208   MPKI: 0.08011
LLC WRITEBACK ACCESS:      27979  HIT:      27172  MISS:        807  HIT %:    97.1157  MISS %:    2.88431   MPKI: 0.00807
LLC LOAD TRANSLATION ACCESS:       6214  HIT:       3869  MISS:       2345  HIT %:    62.2626  MISS %:    37.7374   MPKI: 0.02345
LLC PREFETCH  REQUESTED:          0  ISSUED:          0  USEFUL:        375  USELESS:       5032
LLC USEFUL LOAD PREFETCHES:        375 PREFETCH ISSUED TO LOWER LEVEL:       8011  ACCURACY: 4.68106
LLC TIMELY PREFETCHES:        375 LATE PREFETCHES: 0 DROPPED PREFETCHES: 0
LLC PREFETCHES SAME FILL-ORIGIN LEVEL: 0 DIFFERENT FILL-ORIGIN LEVEL: 0
LLC AVERAGE MISS LATENCY: 144.492 cycles
LLC RQ	ACCESS:     150424	FORWARD:          0	MERGED:          0	TO_CACHE:     150424
LLC WQ	ACCESS:      27979	FORWARD:          0	MERGED:          0	TO_CACHE:      27979
LLC PQ	ACCESS:      10334	FORWARD:          0	MERGED:          0	TO_CACHE:      10334

LLC Dense regions hint to LLC: 0

RAW hits: 1586822
Loads Generated: 24891497
Loads sent to L1D: 23304676
Stores Generated: 19785308
Stores sent to L1D: 19785327
Major fault: 0 Minor fault: 5710
Allocated PAGES: 5710

stream: 
stream:times selected: 350320
stream:pref_filled: 15301
stream:pref_useful: 7006
stream:pref_late: 248
stream:misses: 1378
stream:misses_by_poll: 0

CS: 
CS:times selected: 15538
CS:pref_filled: 865
CS:pref_useful: 537
CS:pref_late: 7
CS:misses: 26
CS:misses_by_poll: 0

CPLX: 
CPLX:times selected: 342338
CPLX:pref_filled: 9054
CPLX:pref_useful: 2569
CPLX:pref_late: 179
CPLX:misses: 12149
CPLX:misses_by_poll: 34

NL_L1: 
NL:times selected: 1579
NL:pref_filled: 212
NL:pref_useful: 61
NL:pref_late: 8
NL:misses: 164
NL:misses_by_poll: 0

total selections: 709775
total_filled: 25299
total_useful: 10149
total_late: 472
total_polluted: 34
total_misses_after_warmup: 14951
conflicts: 154713
Degree Incremented Times: 0
Degree Decremented Times: 9221

L1 IP Table Write Accesses: 2896640
L1 IP Table Read Accesses: 2741927
L1 RST Write Accesses: 350273
L1 RST Read Accesses: 700546
L1 CSPT Write Accesses: 350273
L1 CSPT Read Accesses: 770518
L1 RR Filter Tag Write Accesses: 172422
L1 RR Filter Tag Read Accesses: 18226607
L1 IP Table Tag Write Accesses: 3411256
L1 IP Table Tag Read Accesses: 3411256
L1 RST Tag Write Accesses: 0
L1 RST Tag Read Accesses: 3419549
L1 RR Filter Write Accesses: 0
L1 RR Filter Read Accesses: 853687
test: 34222

DRAM Statistics
 CHANNEL 0
 RQ ROW_BUFFER_HIT:      30464  ROW_BUFFER_MISS:      86781
 DBUS_CONGESTED:          9
 WQ ROW_BUFFER_HIT:       3672  ROW_BUFFER_MISS:      11164  FULL:          0

 AVG_CONGESTED_CYCLE: 6
 All warmup complete: 2
Channel 0 Bank busy for read cycles: 0
Channel 0 Bank busy for write cycles: 0
Channel 0
Rank 0
0banks busy for read cycles: 190628466
0banks busy for write cycles: 12266
1banks busy for read cycles: 11317185
1banks busy for write cycles: 2190751
2banks busy for read cycles: 1192024
2banks busy for write cycles: 234920
3banks busy for read cycles: 193242
3banks busy for write cycles: 37468
4banks busy for read cycles: 25916
4banks busy for write cycles: 8346
5banks busy for read cycles: 10424
5banks busy for write cycles: 3169
6banks busy for read cycles: 6833
6banks busy for write cycles: 1852
7banks busy for read cycles: 4563
7banks busy for write cycles: 878
8banks busy for read cycles: 3844
8banks busy for write cycles: 1284

CPU 0 Branch Prediction Accuracy: 99.0079% MPKI: 1.64619 Average ROB Occupancy at Mispredict: 50.7249
Branch types
NOT_BRANCH: 83406157 83.4062%
BRANCH_DIRECT_JUMP: 2068606 2.06861%
BRANCH_INDIRECT: 637045 0.637045%
BRANCH_CONDITIONAL: 11923465 11.9235%
BRANCH_DIRECT_CALL: 790916 0.790916%
BRANCH_INDIRECT_CALL: 191262 0.191262%
BRANCH_RETURN: 982180 0.98218%
BRANCH_OTHER: 0 0%

DRAM PAGES: 1048576
Allocated PAGES: 5710
