
*** ChampSim Multicore Out-of-Order Simulator ***

Warmup Instructions: 50000000
Simulation Instructions: 100000000
Number of CPUs: 1
LLC sets: 2048
LLC ways: 16
Off-chip DRAM Size: 4096 MB Channels: 1 Width: 64-bit Data Rate: 6400 MT/s
CPU 0 runs ../SPEC2017//600.perlbench_s-570B.champsimtrace.xz
.xz
NUM_OF_IPS_IN_CRITICAL_IP_TRAINING: 64
NUM_OF_CRITICAL_IP_TRAINING_TABLE_WAYS: 2
NUM_OF_CRITICAL_IP_TRAINING_TABLE_SETS: 32
WOBBLY_CRITICAL_IP_CACHE_SETS: 32
WOBBLY_CRITICAL_IP_CACHE_WAYS: 4
BTB has LRU replacement policy
ITLB has LRU replacement policy
DTLB has LRU replacement policy
STLB has LRU replacement policy
L1I has LRU replacement policy
IP Table Entries: 64
L1D has LRU replacement policy
Initialize SRRIP state for L2C
Initialize DRRIP state for LLC
Heartbeat CPU 0 instructions: 10000003 cycles: 2893642 heartbeat IPC: 3.45585 cumulative IPC: 3.45585 (Simulation time: 0 hr 6 min 46 sec) 
Heartbeat CPU 0 instructions: 20000003 cycles: 5752242 heartbeat IPC: 3.49822 cumulative IPC: 3.47691 (Simulation time: 0 hr 12 min 59 sec) 
Heartbeat CPU 0 instructions: 30000003 cycles: 8647435 heartbeat IPC: 3.454 cumulative IPC: 3.46924 (Simulation time: 0 hr 17 min 57 sec) 
Heartbeat CPU 0 instructions: 40000002 cycles: 11518579 heartbeat IPC: 3.48293 cumulative IPC: 3.47265 (Simulation time: 0 hr 22 min 34 sec) 
Heartbeat CPU 0 instructions: 50000002 cycles: 14387992 heartbeat IPC: 3.48503 cumulative IPC: 3.47512 (Simulation time: 0 hr 27 min 5 sec) 

Warmup complete CPU 0 instructions: 50000002 cycles: 14387992 (Simulation time: 0 hr 27 min 5 sec) 

% increase in all ip prefetch 328.743
% increase in all ip prefetch -0.0881407
Heartbeat CPU 0 instructions: 60000000 cycles: 28583005 heartbeat IPC: 0.704473 cumulative IPC: 0.704473 (Simulation time: 0 hr 31 min 14 sec) 
Heartbeat CPU 0 instructions: 70000000 cycles: 50746959 heartbeat IPC: 0.451183 cumulative IPC: 0.550071 (Simulation time: 0 hr 35 min 23 sec) 
Heartbeat CPU 0 instructions: 80000002 cycles: 74292100 heartbeat IPC: 0.424716 cumulative IPC: 0.5008 (Simulation time: 0 hr 39 min 11 sec) 
Heartbeat CPU 0 instructions: 90000003 cycles: 102148653 heartbeat IPC: 0.358982 cumulative IPC: 0.455785 (Simulation time: 0 hr 42 min 56 sec) 
Heartbeat CPU 0 instructions: 100000002 cycles: 117342979 heartbeat IPC: 0.65814 cumulative IPC: 0.485649 (Simulation time: 0 hr 45 min 57 sec) 
Heartbeat CPU 0 instructions: 110000000 cycles: 132448904 heartbeat IPC: 0.661992 cumulative IPC: 0.508212 (Simulation time: 0 hr 48 min 55 sec) 
Heartbeat CPU 0 instructions: 120000003 cycles: 148346825 heartbeat IPC: 0.629013 cumulative IPC: 0.522549 (Simulation time: 0 hr 51 min 44 sec) 
Heartbeat CPU 0 instructions: 130000000 cycles: 164045435 heartbeat IPC: 0.636999 cumulative IPC: 0.534554 (Simulation time: 0 hr 54 min 26 sec) 
Heartbeat CPU 0 instructions: 140000003 cycles: 192040985 heartbeat IPC: 0.3572 cumulative IPC: 0.506606 (Simulation time: 1 hr 0 min 28 sec) 
Heartbeat CPU 0 instructions: 150000002 cycles: 218375656 heartbeat IPC: 0.379728 cumulative IPC: 0.490226 (Simulation time: 1 hr 7 min 29 sec) 
Finished CPU 0 instructions: 100000000 cycles: 203987664 cumulative IPC: 0.490226 (Simulation time: 1 hr 7 min 29 sec) 

ChampSim completed all CPUs

Region of Interest Statistics

CPU 0 cumulative IPC: 0.490226 instructions: 100000000 cycles: 203987664

CPU 0 Average Load ROB stall cycles: 8.04468e+06
CPU 0 Fraction of times ROB stalled by Loads: 7.07367
CPU 0 Percentage of Load stall cycles in Total stall cycles: 1.06582e+08
 Total stall cycles: 137875457
 Total load stall cycles: 146950182587672
CPU 0 NUM of IPS identified critical: 31
CPU 0 Num of Load IPs stalling ROB: 3589
Threshold modification factor: -1
Max PIST entries: 64
Min PIST entries: 0
Avg PIST entries: 39.0267
Trouble in retire width: 0.709526
MaC = Marked as critical.
lt_50_percent_before_Mac: 25
gt_90_percent_before_Mac: 0
gt_75_percent_before_Mac: 0
gt_50_percent_before_Mac: 6
stall_proportion_bin_same_before_after: 0
stall_proportion_bin_lower_before_after: 0
stall_proportion_bin_upper_before_after: 0
average_stall_proportion_before: 0.250989
average_stall_proportion_after: 0.269673
Critical IP stalls, total frequency: 365228
Non-critical IP stalls, total frequency: 846908
Critical_IP_ROB_Stalls_Bucket_0: 69965
Non-critical_IP_ROB_Stalls_Bucket_0: 709452
Critical_IP_ROB_Stalls_Bucket_1: 110287
Non-critical_IP_ROB_Stalls_Bucket_1: 154056
Critical_IP_ROB_Stalls_Bucket_2: 103563
Non-critical_IP_ROB_Stalls_Bucket_2: 32893
Critical_IP_ROB_Stalls_Bucket_3: 15655
Non-critical_IP_ROB_Stalls_Bucket_3: 11693
Critical_IP_ROB_Stalls_Bucket_4: 50716
Non-critical_IP_ROB_Stalls_Bucket_4: 9241
Critical_IP_ROB_Stalls_Bucket_5: 3815
Non-critical_IP_ROB_Stalls_Bucket_5: 3225
Critical_IP_ROB_Stalls_Bucket_6: 11227
Non-critical_IP_ROB_Stalls_Bucket_6: 6342
0 => IPs accounting for >50 percent of stalls, 1 => 55, 2 => 60, 3 => 65 and so on till 90.
percent50: 50.1312 num IPs:27
percent55: 55.2258 num IPs:37
percent60: 60.0763 num IPs:50
percent65: 65.2257 num IPs:69
percent70: 70.1254 num IPs:91
percent75: 75.0388 num IPs:119
percent80: 80.0749 num IPs:163
percent85: 85.0123 num IPs:223
percent90: 90.0055 num IPs:317
Critical_ROB_Stalls_Percent_0_Bucket_0: 292831
Non-critical_ROB_Stalls_Percent_0_Bucket_0: 486586
Critical_ROB_Stalls_Percent_0_Bucket_1: 143408
Non-critical_ROB_Stalls_Percent_0_Bucket_1: 120935
Critical_ROB_Stalls_Percent_0_Bucket_2: 100291
Non-critical_ROB_Stalls_Percent_0_Bucket_2: 36165
Critical_ROB_Stalls_Percent_0_Bucket_3: 10955
Non-critical_ROB_Stalls_Percent_0_Bucket_3: 16393
Critical_ROB_Stalls_Percent_0_Bucket_4: 47830
Non-critical_ROB_Stalls_Percent_0_Bucket_4: 12127
Critical_ROB_Stalls_Percent_0_Bucket_5: 3241
Non-critical_ROB_Stalls_Percent_0_Bucket_5: 3799
Critical_ROB_Stalls_Percent_0_Bucket_6: 9102
Non-critical_ROB_Stalls_Percent_0_Bucket_6: 8467
Critical_ROB_Stalls_Percent_1_Bucket_0: 331609
Non-critical_ROB_Stalls_Percent_1_Bucket_0: 447808
Critical_ROB_Stalls_Percent_1_Bucket_1: 158852
Non-critical_ROB_Stalls_Percent_1_Bucket_1: 105491
Critical_ROB_Stalls_Percent_1_Bucket_2: 101544
Non-critical_ROB_Stalls_Percent_1_Bucket_2: 34912
Critical_ROB_Stalls_Percent_1_Bucket_3: 13874
Non-critical_ROB_Stalls_Percent_1_Bucket_3: 13474
Critical_ROB_Stalls_Percent_1_Bucket_4: 50592
Non-critical_ROB_Stalls_Percent_1_Bucket_4: 9365
Critical_ROB_Stalls_Percent_1_Bucket_5: 3357
Non-critical_ROB_Stalls_Percent_1_Bucket_5: 3683
Critical_ROB_Stalls_Percent_1_Bucket_6: 9584
Non-critical_ROB_Stalls_Percent_1_Bucket_6: 7985
Critical_ROB_Stalls_Percent_2_Bucket_0: 370252
Non-critical_ROB_Stalls_Percent_2_Bucket_0: 409165
Critical_ROB_Stalls_Percent_2_Bucket_1: 169270
Non-critical_ROB_Stalls_Percent_2_Bucket_1: 95073
Critical_ROB_Stalls_Percent_2_Bucket_2: 108388
Non-critical_ROB_Stalls_Percent_2_Bucket_2: 28068
Critical_ROB_Stalls_Percent_2_Bucket_3: 15018
Non-critical_ROB_Stalls_Percent_2_Bucket_3: 12330
Critical_ROB_Stalls_Percent_2_Bucket_4: 51384
Non-critical_ROB_Stalls_Percent_2_Bucket_4: 8573
Critical_ROB_Stalls_Percent_2_Bucket_5: 3655
Non-critical_ROB_Stalls_Percent_2_Bucket_5: 3385
Critical_ROB_Stalls_Percent_2_Bucket_6: 10239
Non-critical_ROB_Stalls_Percent_2_Bucket_6: 7330
Critical_ROB_Stalls_Percent_3_Bucket_0: 419015
Non-critical_ROB_Stalls_Percent_3_Bucket_0: 360402
Critical_ROB_Stalls_Percent_3_Bucket_1: 178954
Non-critical_ROB_Stalls_Percent_3_Bucket_1: 85389
Critical_ROB_Stalls_Percent_3_Bucket_2: 108694
Non-critical_ROB_Stalls_Percent_3_Bucket_2: 27762
Critical_ROB_Stalls_Percent_3_Bucket_3: 15681
Non-critical_ROB_Stalls_Percent_3_Bucket_3: 11667
Critical_ROB_Stalls_Percent_3_Bucket_4: 53192
Non-critical_ROB_Stalls_Percent_3_Bucket_4: 6765
Critical_ROB_Stalls_Percent_3_Bucket_5: 4598
Non-critical_ROB_Stalls_Percent_3_Bucket_5: 2442
Critical_ROB_Stalls_Percent_3_Bucket_6: 10490
Non-critical_ROB_Stalls_Percent_3_Bucket_6: 7079
Critical_ROB_Stalls_Percent_4_Bucket_0: 460015
Non-critical_ROB_Stalls_Percent_4_Bucket_0: 319402
Critical_ROB_Stalls_Percent_4_Bucket_1: 193097
Non-critical_ROB_Stalls_Percent_4_Bucket_1: 71246
Critical_ROB_Stalls_Percent_4_Bucket_2: 109948
Non-critical_ROB_Stalls_Percent_4_Bucket_2: 26508
Critical_ROB_Stalls_Percent_4_Bucket_3: 16344
Non-critical_ROB_Stalls_Percent_4_Bucket_3: 11004
Critical_ROB_Stalls_Percent_4_Bucket_4: 55118
Non-critical_ROB_Stalls_Percent_4_Bucket_4: 4839
Critical_ROB_Stalls_Percent_4_Bucket_5: 4707
Non-critical_ROB_Stalls_Percent_4_Bucket_5: 2333
Critical_ROB_Stalls_Percent_4_Bucket_6: 10786
Non-critical_ROB_Stalls_Percent_4_Bucket_6: 6783
Critical_ROB_Stalls_Percent_5_Bucket_0: 508334
Non-critical_ROB_Stalls_Percent_5_Bucket_0: 271083
Critical_ROB_Stalls_Percent_5_Bucket_1: 202425
Non-critical_ROB_Stalls_Percent_5_Bucket_1: 61918
Critical_ROB_Stalls_Percent_5_Bucket_2: 111257
Non-critical_ROB_Stalls_Percent_5_Bucket_2: 25199
Critical_ROB_Stalls_Percent_5_Bucket_3: 16691
Non-critical_ROB_Stalls_Percent_5_Bucket_3: 10657
Critical_ROB_Stalls_Percent_5_Bucket_4: 55207
Non-critical_ROB_Stalls_Percent_5_Bucket_4: 4750
Critical_ROB_Stalls_Percent_5_Bucket_5: 4749
Non-critical_ROB_Stalls_Percent_5_Bucket_5: 2291
Critical_ROB_Stalls_Percent_5_Bucket_6: 10909
Non-critical_ROB_Stalls_Percent_5_Bucket_6: 6660
Critical_ROB_Stalls_Percent_6_Bucket_0: 552329
Non-critical_ROB_Stalls_Percent_6_Bucket_0: 227088
Critical_ROB_Stalls_Percent_6_Bucket_1: 211472
Non-critical_ROB_Stalls_Percent_6_Bucket_1: 52871
Critical_ROB_Stalls_Percent_6_Bucket_2: 116212
Non-critical_ROB_Stalls_Percent_6_Bucket_2: 20244
Critical_ROB_Stalls_Percent_6_Bucket_3: 17585
Non-critical_ROB_Stalls_Percent_6_Bucket_3: 9763
Critical_ROB_Stalls_Percent_6_Bucket_4: 56177
Non-critical_ROB_Stalls_Percent_6_Bucket_4: 3780
Critical_ROB_Stalls_Percent_6_Bucket_5: 4987
Non-critical_ROB_Stalls_Percent_6_Bucket_5: 2053
Critical_ROB_Stalls_Percent_6_Bucket_6: 11854
Non-critical_ROB_Stalls_Percent_6_Bucket_6: 5715
Critical_ROB_Stalls_Percent_7_Bucket_0: 594317
Non-critical_ROB_Stalls_Percent_7_Bucket_0: 185100
Critical_ROB_Stalls_Percent_7_Bucket_1: 220395
Non-critical_ROB_Stalls_Percent_7_Bucket_1: 43948
Critical_ROB_Stalls_Percent_7_Bucket_2: 121789
Non-critical_ROB_Stalls_Percent_7_Bucket_2: 14667
Critical_ROB_Stalls_Percent_7_Bucket_3: 18818
Non-critical_ROB_Stalls_Percent_7_Bucket_3: 8530
Critical_ROB_Stalls_Percent_7_Bucket_4: 57415
Non-critical_ROB_Stalls_Percent_7_Bucket_4: 2542
Critical_ROB_Stalls_Percent_7_Bucket_5: 5275
Non-critical_ROB_Stalls_Percent_7_Bucket_5: 1765
Critical_ROB_Stalls_Percent_7_Bucket_6: 12455
Non-critical_ROB_Stalls_Percent_7_Bucket_6: 5114
Critical_ROB_Stalls_Percent_8_Bucket_0: 635135
Non-critical_ROB_Stalls_Percent_8_Bucket_0: 144282
Critical_ROB_Stalls_Percent_8_Bucket_1: 231869
Non-critical_ROB_Stalls_Percent_8_Bucket_1: 32474
Critical_ROB_Stalls_Percent_8_Bucket_2: 125205
Non-critical_ROB_Stalls_Percent_8_Bucket_2: 11251
Critical_ROB_Stalls_Percent_8_Bucket_3: 21283
Non-critical_ROB_Stalls_Percent_8_Bucket_3: 6065
Critical_ROB_Stalls_Percent_8_Bucket_4: 58039
Non-critical_ROB_Stalls_Percent_8_Bucket_4: 1918
Critical_ROB_Stalls_Percent_8_Bucket_5: 5846
Non-critical_ROB_Stalls_Percent_8_Bucket_5: 1194
Critical_ROB_Stalls_Percent_8_Bucket_6: 13612
Non-critical_ROB_Stalls_Percent_8_Bucket_6: 3957
Average ROB occupancy Load Stall Begin: 54.9604
Average ROB occupancy Load Stall End: 58.3602
Min ROB occupancy Load Stall Begin: 1
Max ROB occupancy Load Stall Begin: 351
Min ROB occupancy Load Stall End: 1
Max ROB occupancy Load Stall End: 352
Average ROB occupancy Critical Load Stall Begin: 107.218
Average ROB occupancy Critical Load Stall End: 112.034
Min ROB occupancy Critical Load Stall Begin: 1
Max ROB occupancy Critical Load Stall Begin: 351
Min ROB occupancy Critical Load Stall End: 1
Max ROB occupancy Critical Load Stall End: 352
 ROB Load Stall Begin Bucket Count 0: 857340
 ROB Load Stall End Bucket Count 0: 779417
 ROB Critical Load Stall Begin Bucket Count 0: 115985
 ROB Critical Load Stall End Bucket Count 0: 58259
 ROB Load Stall Begin Bucket Count 1: 191415
 ROB Load Stall End Bucket Count 1: 264343
 ROB Critical Load Stall Begin Bucket Count 1: 41738
 ROB Critical Load Stall End Bucket Count 1: 98931
 ROB Load Stall Begin Bucket Count 2: 134278
 ROB Load Stall End Bucket Count 2: 136456
 ROB Critical Load Stall Begin Bucket Count 2: 91313
 ROB Critical Load Stall End Bucket Count 2: 91025
 ROB Load Stall Begin Bucket Count 3: 31776
 ROB Load Stall End Bucket Count 3: 27348
 ROB Critical Load Stall Begin Bucket Count 3: 19708
 ROB Critical Load Stall End Bucket Count 3: 14607
 ROB Load Stall Begin Bucket Count 4: 53740
 ROB Load Stall End Bucket Count 4: 59957
 ROB Critical Load Stall Begin Bucket Count 4: 39881
 ROB Critical Load Stall End Bucket Count 4: 45450
 ROB Load Stall Begin Bucket Count 5: 6483
 ROB Load Stall End Bucket Count 5: 7040
 ROB Critical Load Stall Begin Bucket Count 5: 3289
 ROB Critical Load Stall End Bucket Count 5: 3580
 ROB Load Stall Begin Bucket Count 6: 17098
 ROB Load Stall End Bucket Count 6: 17569
 ROB Critical Load Stall Begin Bucket Count 6: 10089
 ROB Critical Load Stall End Bucket Count 6: 10151
PIST Tag Read Accesses: 179262
PIST Read Accesses: 89631
PIST Tag Write Accesses: 179262
PIST Write Accesses: 89631
Criticality detector called times: 314677
Max global_stall_cycles_count: 238539
Threshold Modified: 1 times, factor: -1
ITLB TOTAL     ACCESS:   15698239  HIT:   15664925  MISS:      33314  HIT %:    99.7878  MISS %:   0.212215   MPKI: 0.33314
ITLB LOAD TRANSLATION ACCESS:   15698239  HIT:   15664925  MISS:      33314  HIT %:    99.7878  MISS %:   0.212215   MPKI: 0.33314
ITLB PREFETCH  REQUESTED:          0  ISSUED:          0  USEFUL:          0  USELESS:          0
ITLB USEFUL LOAD PREFETCHES:          0 PREFETCH ISSUED TO LOWER LEVEL:          0  ACCURACY: -nan
ITLB TIMELY PREFETCHES:          0 LATE PREFETCHES: 0 DROPPED PREFETCHES: 0
ITLB PREFETCHES SAME FILL-ORIGIN LEVEL: 0 DIFFERENT FILL-ORIGIN LEVEL: 0
ITLB AVERAGE MISS LATENCY: 10.3047 cycles
ITLB RQ	ACCESS:   17669508	FORWARD:          0	MERGED:    1959021	TO_CACHE:   15710487

DTLB TOTAL     ACCESS:   27516542  HIT:   27243136  MISS:     273406  HIT %:    99.0064  MISS %:   0.993606   MPKI: 2.73406
DTLB LOAD TRANSLATION ACCESS:   27516542  HIT:   27243136  MISS:     273406  HIT %:    99.0064  MISS %:   0.993606   MPKI: 2.73406
DTLB PREFETCH  REQUESTED:          0  ISSUED:          0  USEFUL:          0  USELESS:          0
DTLB USEFUL LOAD PREFETCHES:          0 PREFETCH ISSUED TO LOWER LEVEL:          0  ACCURACY: -nan
DTLB TIMELY PREFETCHES:          0 LATE PREFETCHES: 0 DROPPED PREFETCHES: 0
DTLB PREFETCHES SAME FILL-ORIGIN LEVEL: 0 DIFFERENT FILL-ORIGIN LEVEL: 0
DTLB AVERAGE MISS LATENCY: 14.1095 cycles
DTLB RQ	ACCESS:   37617653	FORWARD:          0	MERGED:   10092709	TO_CACHE:   27524944

STLB TOTAL     ACCESS:     759683  HIT:     746609  MISS:      13074  HIT %:     98.279  MISS %:    1.72098   MPKI: 0.13074
STLB LOAD TRANSLATION ACCESS:     306720  HIT:     293647  MISS:      13073  HIT %:    95.7378  MISS %:    4.26219   MPKI: 0.13073
STLB TRANSLATION FROM L1D PREFETCHER ACCESS:     452963  HIT:     452962  MISS:          1  HIT %:    99.9998  MISS %: 0.000220769   MPKI: 1e-05
STLB PREFETCH  REQUESTED:          0  ISSUED:          0  USEFUL:          1  USELESS:          0
STLB USEFUL LOAD PREFETCHES:          1 PREFETCH ISSUED TO LOWER LEVEL:          0  ACCURACY: inf
STLB TIMELY PREFETCHES:          1 LATE PREFETCHES: 0 DROPPED PREFETCHES: 0
STLB PREFETCHES SAME FILL-ORIGIN LEVEL: 0 DIFFERENT FILL-ORIGIN LEVEL: 0
STLB AVERAGE MISS LATENCY: 109.441 cycles
STLB RQ	ACCESS:     861602	FORWARD:          0	MERGED:     101919	TO_CACHE:     759683

STLB Hit, L1D data hit: 0
STLB Hit, L2C data hit: 0
STLB Hit, LLC data hit: 0
STLB Hit, LLC data miss: 0
STLB STLB hints to L2: 0
L1D TOTAL     ACCESS:   38095983  HIT:   37630047  MISS:     465936  HIT %:    98.7769  MISS %:    1.22306   MPKI: 4.65936
L1D LOAD      ACCESS:   18068132  HIT:   17796250  MISS:     271882  HIT %:    98.4952  MISS %:    1.50476   MPKI: 2.71882
L1D RFO       ACCESS:   19481003  HIT:   19451497  MISS:      29506  HIT %:    99.8485  MISS %:    0.15146   MPKI: 0.29506
L1D PREFETCH  ACCESS:     546848  HIT:     382300  MISS:     164548  HIT %:    69.9097  MISS %:    30.0903   MPKI: 1.64548
L1D PREFETCH  REQUESTED:    1109858  ISSUED:    1109858  USEFUL:      56223  USELESS:     108418
L1D USEFUL LOAD PREFETCHES:      56223 PREFETCH ISSUED TO LOWER LEVEL:     167891  ACCURACY: 33.4878
L1D TIMELY PREFETCHES:      56223 LATE PREFETCHES: 3316 DROPPED PREFETCHES: 0
L1D PREFETCHES SAME FILL-ORIGIN LEVEL: 167891 DIFFERENT FILL-ORIGIN LEVEL: 0
L1D AVERAGE MISS LATENCY: 1.01572e+06 cycles
L1D RQ	ACCESS:   23305144	FORWARD:          0	MERGED:    4655851	TO_CACHE:   18087005
L1D WQ	ACCESS:   19785327	FORWARD:     562382	MERGED:     254679	TO_CACHE:   19530648
L1D PQ	ACCESS:     554976	FORWARD:          0	MERGED:          0	TO_CACHE:     554882

L1D UNIQUE REGIONS ACCESSED: 0
L1D REGIONS CONFLICTS: 0
L1D Cross Page Prefetch Requests: 0
L1D Same Page Prefetch Requests: 651862
L1D ROI Sum of L1D PQ occupancy: 7214021
L1D PREFETCHES PUSHED FROM L2C: 0
L1I TOTAL     ACCESS:   17542959  HIT:   17040407  MISS:     502552  HIT %:    97.1353  MISS %:    2.86469   MPKI: 5.02552
L1I LOAD      ACCESS:   17542959  HIT:   17040407  MISS:     502552  HIT %:    97.1353  MISS %:    2.86469   MPKI: 5.02552
L1I PREFETCH  REQUESTED:          0  ISSUED:          0  USEFUL:          0  USELESS:          0
L1I USEFUL LOAD PREFETCHES:          0 PREFETCH ISSUED TO LOWER LEVEL:          0  ACCURACY: -nan
L1I TIMELY PREFETCHES:          0 LATE PREFETCHES: 0 DROPPED PREFETCHES: 0
L1I PREFETCHES SAME FILL-ORIGIN LEVEL: 0 DIFFERENT FILL-ORIGIN LEVEL: 0
L1I AVERAGE MISS LATENCY: 17.5114 cycles
L1I RQ	ACCESS:   28102221	FORWARD:          0	MERGED:   10432713	TO_CACHE:   17669508

BTB TOTAL     ACCESS:   12959212  HIT:   12197760  MISS:     761452  HIT %:    94.1242  MISS %:    5.87576   MPKI: 7.61452
BTB BRANCH_DIRECT_JUMP	ACCESS:    2068606  HIT:    2062261  MISS:       6345
BTB BRANCH_INDIRECT	ACCESS:     637045  HIT:     204601  MISS:     432444
BTB BRANCH_CONDITIONAL	ACCESS:    8289203  HIT:    8271716  MISS:      17487
BTB BRANCH_DIRECT_CALL	ACCESS:     790916  HIT:     786347  MISS:       4569
BTB BRANCH_INDIRECT_CALL	ACCESS:     191262  HIT:      22762  MISS:     168500
BTB BRANCH_RETURN	ACCESS:     982180  HIT:     850073  MISS:     132107
BTB BRANCH_OTHER ACCESS:          0  HIT:          0  MISS:          0

L2C TOTAL     ACCESS:    1086955  HIT:     878079  MISS:     208876  HIT %:    80.7834  MISS %:    19.2166   MPKI: 2.08876
L2C LOAD      ACCESS:     771111  HIT:     647135  MISS:     123976  HIT %:    83.9224  MISS %:    16.0776   MPKI: 1.23976
L2C DATA LOAD MPKI: 1.01817
L2C INSTRUCTION LOAD MPKI: 0.22159
L2C RFO       ACCESS:      29476  HIT:      21812  MISS:       7664  HIT %:    73.9992  MISS %:    26.0008   MPKI: 0.07664
L2C PREFETCH  ACCESS:     167891  HIT:      98581  MISS:      69310  HIT %:    58.7173  MISS %:    41.2827   MPKI: 0.6931
L2C DATA PREFETCH MPKI: 0.6931
L2C INSTRUCTION PREFETCH MPKI: 0
L2C WRITEBACK ACCESS:     102776  HIT:     101586  MISS:       1190  HIT %:    98.8421  MISS %:    1.15786   MPKI: 0.0119
L2C LOAD TRANSLATION ACCESS:      15699  HIT:       8964  MISS:       6735  HIT %:    57.0992  MISS %:    42.9008   MPKI: 0.06735
L2C TRANSLATION FROM L1D PREFETCHER ACCESS:          2  HIT:          1  MISS:          1  HIT %:         50  MISS %:         50   MPKI: 1e-05
L2C PREFETCH  REQUESTED:          0  ISSUED:          0  USEFUL:       3975  USELESS:      66025
L2C USEFUL LOAD PREFETCHES:       3975 PREFETCH ISSUED TO LOWER LEVEL:      69310  ACCURACY: 5.7351
L2C TIMELY PREFETCHES:       3975 LATE PREFETCHES: 0 DROPPED PREFETCHES: 0
L2C PREFETCHES SAME FILL-ORIGIN LEVEL: 0 DIFFERENT FILL-ORIGIN LEVEL: 0
L2C AVERAGE MISS LATENCY: 133.653 cycles
L2C RQ	ACCESS:     816298	FORWARD:          0	MERGED:          0	TO_CACHE:     816288
L2C WQ	ACCESS:     102776	FORWARD:         10	MERGED:          0	TO_CACHE:     102776
L2C PQ	ACCESS:     167891	FORWARD:          0	MERGED:          0	TO_CACHE:     167891

L2C Instructions Evicting Data 18607
L2C Translations Evicting Data 5758
L2C Data Evicting Data 154771
L2C Instructions Evicting Instructions 2614
L2C Translations Evicting Instructions 706
L2C Data Evicting Instructions 17491
L2C Instructions Evicting Translations 779
L2C Translations Evicting Translations 228
L2C Data Evicting Translations 5635
L2C Dense regions hint from L2: 0
PSCL5 TOTAL     ACCESS:      13074  HIT:      13074  MISS:          0  HIT %:        100  MISS %:          0   MPKI: 0
PSCL5 LOAD TRANSLATION ACCESS:      13073  HIT:      13073  MISS:          0  HIT %:        100  MISS %:          0   MPKI: 0
PSCL5 TRANSLATION FROM L1D PREFETCHER ACCESS:          1  HIT:          1  MISS:          0  HIT %:        100  MISS %:          0   MPKI: 0
PSCL5 PREFETCH  REQUESTED:          0  ISSUED:          0  USEFUL:          0  USELESS:          0
PSCL5 USEFUL LOAD PREFETCHES:          0 PREFETCH ISSUED TO LOWER LEVEL:          0  ACCURACY: -nan
PSCL5 TIMELY PREFETCHES:          0 LATE PREFETCHES: 0 DROPPED PREFETCHES: 0
PSCL5 PREFETCHES SAME FILL-ORIGIN LEVEL: 0 DIFFERENT FILL-ORIGIN LEVEL: 0

PSCL4 TOTAL     ACCESS:      13074  HIT:      13074  MISS:          0  HIT %:        100  MISS %:          0   MPKI: 0
PSCL4 LOAD TRANSLATION ACCESS:      13073  HIT:      13073  MISS:          0  HIT %:        100  MISS %:          0   MPKI: 0
PSCL4 TRANSLATION FROM L1D PREFETCHER ACCESS:          1  HIT:          1  MISS:          0  HIT %:        100  MISS %:          0   MPKI: 0
PSCL4 PREFETCH  REQUESTED:          0  ISSUED:          0  USEFUL:          0  USELESS:          0
PSCL4 USEFUL LOAD PREFETCHES:          0 PREFETCH ISSUED TO LOWER LEVEL:          0  ACCURACY: -nan
PSCL4 TIMELY PREFETCHES:          0 LATE PREFETCHES: 0 DROPPED PREFETCHES: 0
PSCL4 PREFETCHES SAME FILL-ORIGIN LEVEL: 0 DIFFERENT FILL-ORIGIN LEVEL: 0

PSCL3 TOTAL     ACCESS:      13074  HIT:      13074  MISS:          0  HIT %:        100  MISS %:          0   MPKI: 0
PSCL3 LOAD TRANSLATION ACCESS:      13073  HIT:      13073  MISS:          0  HIT %:        100  MISS %:          0   MPKI: 0
PSCL3 TRANSLATION FROM L1D PREFETCHER ACCESS:          1  HIT:          1  MISS:          0  HIT %:        100  MISS %:          0   MPKI: 0
PSCL3 PREFETCH  REQUESTED:          0  ISSUED:          0  USEFUL:          0  USELESS:          0
PSCL3 USEFUL LOAD PREFETCHES:          0 PREFETCH ISSUED TO LOWER LEVEL:          0  ACCURACY: -nan
PSCL3 TIMELY PREFETCHES:          0 LATE PREFETCHES: 0 DROPPED PREFETCHES: 0
PSCL3 PREFETCHES SAME FILL-ORIGIN LEVEL: 0 DIFFERENT FILL-ORIGIN LEVEL: 0

PSCL2 TOTAL     ACCESS:      13074  HIT:      10393  MISS:       2681  HIT %:    79.4937  MISS %:    20.5063   MPKI: 0.02681
PSCL2 LOAD TRANSLATION ACCESS:      13074  HIT:      10393  MISS:       2681  HIT %:    79.4937  MISS %:    20.5063   MPKI: 0.02681
PSCL2 PREFETCH  REQUESTED:          0  ISSUED:          0  USEFUL:          0  USELESS:          0
PSCL2 USEFUL LOAD PREFETCHES:          0 PREFETCH ISSUED TO LOWER LEVEL:          0  ACCURACY: -nan
PSCL2 TIMELY PREFETCHES:          0 LATE PREFETCHES: 0 DROPPED PREFETCHES: 0
PSCL2 PREFETCHES SAME FILL-ORIGIN LEVEL: 0 DIFFERENT FILL-ORIGIN LEVEL: 0

LLC TOTAL     ACCESS:     237254  HIT:      88483  MISS:     148771  HIT %:    37.2946  MISS %:    62.7054   MPKI: 1.48771
LLC LOAD      ACCESS:     123976  HIT:      37235  MISS:      86741  HIT %:     30.034  MISS %:     69.966   MPKI: 0.86741
LLC RFO       ACCESS:       7664  HIT:       1882  MISS:       5782  HIT %:    24.5564  MISS %:    75.4436   MPKI: 0.05782
LLC PREFETCH  ACCESS:      69310  HIT:      16831  MISS:      52479  HIT %:    24.2837  MISS %:    75.7163   MPKI: 0.52479
LLC WRITEBACK ACCESS:      29568  HIT:      28508  MISS:       1060  HIT %:     96.415  MISS %:    3.58496   MPKI: 0.0106
LLC LOAD TRANSLATION ACCESS:       6735  HIT:       4027  MISS:       2708  HIT %:    59.7921  MISS %:    40.2079   MPKI: 0.02708
LLC TRANSLATION FROM L1D PREFETCHER ACCESS:          1  HIT:          0  MISS:          1  HIT %:          0  MISS %:        100   MPKI: 1e-05
LLC PREFETCH  REQUESTED:          0  ISSUED:          0  USEFUL:       2084  USELESS:      42776
LLC USEFUL LOAD PREFETCHES:       2084 PREFETCH ISSUED TO LOWER LEVEL:      52479  ACCURACY: 3.97111
LLC TIMELY PREFETCHES:       2084 LATE PREFETCHES: 0 DROPPED PREFETCHES: 0
LLC PREFETCHES SAME FILL-ORIGIN LEVEL: 0 DIFFERENT FILL-ORIGIN LEVEL: 0
LLC AVERAGE MISS LATENCY: 145.61 cycles
LLC RQ	ACCESS:     138376	FORWARD:          0	MERGED:          0	TO_CACHE:     138376
LLC WQ	ACCESS:      29568	FORWARD:          0	MERGED:          0	TO_CACHE:      29568
LLC PQ	ACCESS:      69310	FORWARD:          0	MERGED:          0	TO_CACHE:      69310

LLC Dense regions hint to LLC: 0

RAW hits: 1586354
Loads Generated: 24891497
Loads sent to L1D: 23305144
Stores Generated: 19785308
Stores sent to L1D: 19785327
Major fault: 0 Minor fault: 5710
Allocated PAGES: 5710

stream: 
stream:times selected: 1974135
stream:pref_filled: 106630
stream:pref_useful: 40100
stream:pref_late: 2533
stream:misses: 8851
stream:misses_by_poll: 0

CS: 
CS:times selected: 49551
CS:pref_filled: 12247
CS:pref_useful: 8659
CS:pref_late: 95
CS:misses: 668
CS:misses_by_poll: 1

CPLX: 
CPLX:times selected: 1920589
CPLX:pref_filled: 48552
CPLX:pref_useful: 8423
CPLX:pref_late: 490
CPLX:misses: 57421
CPLX:misses_by_poll: 40

NL_L1: 
NL:times selected: 5578
NL:pref_filled: 970
NL:pref_useful: 321
NL:pref_late: 16
NL:misses: 739
NL:misses_by_poll: 0

total selections: 3949853
total_filled: 164548
total_useful: 56223
total_late: 3329
total_polluted: 41
total_misses_after_warmup: 290757
conflicts: 4234470
Degree Incremented Times: 4250
Degree Decremented Times: 172705

L1 IP Table Write Accesses: 11809676
L1 IP Table Read Accesses: 7575206
L1 RST Write Accesses: 1398641
L1 RST Read Accesses: 2797282
L1 CSPT Write Accesses: 1398641
L1 CSPT Read Accesses: 2754474
L1 RR Filter Tag Write Accesses: 554976
L1 RR Filter Tag Read Accesses: 50064768
L1 IP Table Tag Write Accesses: 18087007
L1 IP Table Tag Read Accesses: 18087007
L1 RST Tag Write Accesses: 0
L1 RST Tag Read Accesses: 15276516
L1 RR Filter Write Accesses: 0
L1 RR Filter Read Accesses: 2287209
test: 231778

DRAM Statistics
 CHANNEL 0
 RQ ROW_BUFFER_HIT:      38249  ROW_BUFFER_MISS:     109462
 DBUS_CONGESTED:         23
 WQ ROW_BUFFER_HIT:       3564  ROW_BUFFER_MISS:      13262  FULL:          0

 AVG_CONGESTED_CYCLE: 5
 All warmup complete: 2
Channel 0 Bank busy for read cycles: 0
Channel 0 Bank busy for write cycles: 0
Channel 0
Rank 0
0banks busy for read cycles: 187211290
0banks busy for write cycles: 13548
1banks busy for read cycles: 10740926
1banks busy for write cycles: 2307894
2banks busy for read cycles: 2608436
2banks busy for write cycles: 316982
3banks busy for read cycles: 568356
3banks busy for write cycles: 50016
4banks busy for read cycles: 101745
4banks busy for write cycles: 12040
5banks busy for read cycles: 27262
5banks busy for write cycles: 5403
6banks busy for read cycles: 9573
6banks busy for write cycles: 2610
7banks busy for read cycles: 5835
7banks busy for write cycles: 1593
8banks busy for read cycles: 3433
8banks busy for write cycles: 723

CPU 0 Branch Prediction Accuracy: 99.0079% MPKI: 1.64619 Average ROB Occupancy at Mispredict: 50.665
Branch types
NOT_BRANCH: 83406157 83.4062%
BRANCH_DIRECT_JUMP: 2068606 2.06861%
BRANCH_INDIRECT: 637045 0.637045%
BRANCH_CONDITIONAL: 11923465 11.9235%
BRANCH_DIRECT_CALL: 790916 0.790916%
BRANCH_INDIRECT_CALL: 191262 0.191262%
BRANCH_RETURN: 982180 0.98218%
BRANCH_OTHER: 0 0%

DRAM PAGES: 1048576
Allocated PAGES: 5710
