Initialize SIGNATURE TABLE
ST_SET: 1
ST_WAY: 256
ST_TAG_BIT: 16
ST_TAG_MASK: ffff

Initialize PATTERN TABLE
PT_SET: 512
PT_WAY: 4
SIG_DELTA_BIT: 7
C_SIG_BIT: 4
C_DELTA_BIT: 4

Initialize PREFETCH FILTER
FILTER_SET: 1024

Initialize PERCEPTRON
PERC_ENTRIES: 4096
PERC_FEATURES: 9

*** ChampSim Multicore Out-of-Order Simulator ***

Warmup Instructions: 50000000
Simulation Instructions: 100000000
Number of CPUs: 1
LLC sets: 2048
LLC ways: 16
Off-chip DRAM Size: 4096 MB Channels: 1 Width: 64-bit Data Rate: 6400 MT/s
CPU 0 runs ../SPEC2017//600.perlbench_s-570B.champsimtrace.xz
.xz
NUM_OF_IPS_IN_CRITICAL_IP_TRAINING: 128
NUM_OF_CRITICAL_IP_TRAINING_TABLE_WAYS: 8
NUM_OF_CRITICAL_IP_TRAINING_TABLE_SETS: 16
BTB has LRU replacement policy
ITLB has LRU replacement policy
DTLB has LRU replacement policy
STLB has LRU replacement policy
L1I has LRU replacement policy
L1D has LRU replacement policy
Initialize SRRIP state for L2C
Initialize DRRIP state for LLC
Heartbeat CPU 0 instructions: 10000003 cycles: 2893854 heartbeat IPC: 3.4556 cumulative IPC: 3.4556 (Simulation time: 0 hr 5 min 41 sec) 
Heartbeat CPU 0 instructions: 20000003 cycles: 5752423 heartbeat IPC: 3.49825 cumulative IPC: 3.4768 (Simulation time: 0 hr 10 min 31 sec) 
Heartbeat CPU 0 instructions: 30000003 cycles: 8647573 heartbeat IPC: 3.45405 cumulative IPC: 3.46918 (Simulation time: 0 hr 15 min 4 sec) 
Heartbeat CPU 0 instructions: 40000002 cycles: 11518526 heartbeat IPC: 3.48316 cumulative IPC: 3.47267 (Simulation time: 0 hr 19 min 12 sec) 
Heartbeat CPU 0 instructions: 50000002 cycles: 14387845 heartbeat IPC: 3.48515 cumulative IPC: 3.47516 (Simulation time: 0 hr 23 min 11 sec) 

Warmup complete CPU 0 instructions: 50000002 cycles: 14387845 (Simulation time: 0 hr 23 min 11 sec) 

% increase in all ip prefetch 328.741
% increase in all ip prefetch -0.0881407
Heartbeat CPU 0 instructions: 60000000 cycles: 28568974 heartbeat IPC: 0.705162 cumulative IPC: 0.705162 (Simulation time: 0 hr 27 min 32 sec) 
Heartbeat CPU 0 instructions: 70000000 cycles: 50605565 heartbeat IPC: 0.453791 cumulative IPC: 0.552216 (Simulation time: 0 hr 31 min 46 sec) 
Heartbeat CPU 0 instructions: 80000002 cycles: 73946204 heartbeat IPC: 0.428437 cumulative IPC: 0.503708 (Simulation time: 0 hr 35 min 59 sec) 
Heartbeat CPU 0 instructions: 90000003 cycles: 101165069 heartbeat IPC: 0.367392 cumulative IPC: 0.46095 (Simulation time: 0 hr 39 min 47 sec) 
Heartbeat CPU 0 instructions: 100000002 cycles: 116186162 heartbeat IPC: 0.66573 cumulative IPC: 0.491167 (Simulation time: 0 hr 42 min 50 sec) 
Heartbeat CPU 0 instructions: 110000000 cycles: 131077949 heartbeat IPC: 0.671511 cumulative IPC: 0.514182 (Simulation time: 0 hr 45 min 44 sec) 
Heartbeat CPU 0 instructions: 120000003 cycles: 146708364 heartbeat IPC: 0.639778 cumulative IPC: 0.529018 (Simulation time: 0 hr 48 min 30 sec) 
Heartbeat CPU 0 instructions: 130000000 cycles: 162155098 heartbeat IPC: 0.647386 cumulative IPC: 0.541392 (Simulation time: 0 hr 51 min 54 sec) 
Heartbeat CPU 0 instructions: 140000003 cycles: 189818433 heartbeat IPC: 0.361489 cumulative IPC: 0.513023 (Simulation time: 0 hr 59 min 22 sec) 
Heartbeat CPU 0 instructions: 150000002 cycles: 216001888 heartbeat IPC: 0.381921 cumulative IPC: 0.495997 (Simulation time: 1 hr 6 min 24 sec) 
Finished CPU 0 instructions: 100000000 cycles: 201614043 cumulative IPC: 0.495997 (Simulation time: 1 hr 6 min 24 sec) 

ChampSim completed all CPUs

Region of Interest Statistics

CPU 0 cumulative IPC: 0.495997 instructions: 100000000 cycles: 201614043

CPU 0 Average Load ROB stall cycles: 7.97812e+06
CPU 0 Fraction of times ROB stalled by Loads: 7.07848
CPU 0 Percentage of Load stall cycles in Total stall cycles: 1.06502e+08
 Total stall cycles: 136988862
 Total load stall cycles: 145895445130055
CPU 0 NUM of IPS identified critical: 36

Threshold modification factor: -1
Max PIST entries: 128
Min PIST entries: 0
Avg PIST entries: 70.6067
Average ROB occupancy Load Stall Begin: 54.9488
Average ROB occupancy Load Stall End: 58.2933
Min ROB occupancy Load Stall Begin: 1
Max ROB occupancy Load Stall Begin: 351
Min ROB occupancy Load Stall End: 1
Max ROB occupancy Load Stall End: 352
Average ROB occupancy Critical Load Stall Begin: 106.406
Average ROB occupancy Critical Load Stall End: 111.205
Min ROB occupancy Critical Load Stall Begin: 1
Max ROB occupancy Critical Load Stall Begin: 351
Min ROB occupancy Critical Load Stall End: 1
Max ROB occupancy Critical Load Stall End: 352
 ROB Load Stall Begin Bucket Count 0: 859172
 ROB Load Stall End Bucket Count 0: 781344
 ROB Critical Load Stall Begin Bucket Count 0: 121545
 ROB Critical Load Stall End Bucket Count 0: 63621
 ROB Load Stall Begin Bucket Count 1: 191784
 ROB Load Stall End Bucket Count 1: 264902
 ROB Critical Load Stall Begin Bucket Count 1: 45540
 ROB Critical Load Stall End Bucket Count 1: 102813
 ROB Load Stall Begin Bucket Count 2: 134186
 ROB Load Stall End Bucket Count 2: 136395
 ROB Critical Load Stall Begin Bucket Count 2: 92330
 ROB Critical Load Stall End Bucket Count 2: 92011
 ROB Load Stall Begin Bucket Count 3: 31747
 ROB Load Stall End Bucket Count 3: 27361
 ROB Critical Load Stall Begin Bucket Count 3: 20314
 ROB Critical Load Stall End Bucket Count 3: 15305
 ROB Load Stall Begin Bucket Count 4: 53727
 ROB Load Stall End Bucket Count 4: 59838
 ROB Critical Load Stall Begin Bucket Count 4: 40211
 ROB Critical Load Stall End Bucket Count 4: 45825
 ROB Load Stall Begin Bucket Count 5: 6461
 ROB Load Stall End Bucket Count 5: 6866
 ROB Critical Load Stall Begin Bucket Count 5: 3424
 ROB Critical Load Stall End Bucket Count 5: 3724
 ROB Load Stall Begin Bucket Count 6: 17360
 ROB Load Stall End Bucket Count 6: 17731
 ROB Critical Load Stall Begin Bucket Count 6: 10854
 ROB Critical Load Stall End Bucket Count 6: 10919
Threshold Modified: 1 times, factor: -1
ITLB TOTAL     ACCESS:   15699443  HIT:   15666129  MISS:      33314  HIT %:    99.7878  MISS %:   0.212199   MPKI: 0.33314
ITLB LOAD TRANSLATION ACCESS:   15699443  HIT:   15666129  MISS:      33314  HIT %:    99.7878  MISS %:   0.212199   MPKI: 0.33314
ITLB AVERAGE MISS LATENCY: 10.3326 cycles
ITLB RQ	ACCESS:   17670694	FORWARD:          0	MERGED:    1959004	TO_CACHE:   15711690

DTLB TOTAL     ACCESS:   27520895  HIT:   27247502  MISS:     273393  HIT %:    99.0066  MISS %:   0.993402   MPKI: 2.73393
DTLB LOAD TRANSLATION ACCESS:   27520895  HIT:   27247502  MISS:     273393  HIT %:    99.0066  MISS %:   0.993402   MPKI: 2.73393
DTLB AVERAGE MISS LATENCY: 14.3374 cycles
DTLB RQ	ACCESS:   37619780	FORWARD:          0	MERGED:   10090483	TO_CACHE:   27529297

STLB TOTAL     ACCESS:     306707  HIT:     293631  MISS:      13076  HIT %:    95.7366  MISS %:    4.26335   MPKI: 0.13076
STLB LOAD TRANSLATION ACCESS:     306707  HIT:     293631  MISS:      13076  HIT %:    95.7366  MISS %:    4.26335   MPKI: 0.13076
STLB AVERAGE MISS LATENCY: 114.168 cycles
STLB RQ	ACCESS:     306707	FORWARD:          0	MERGED:          0	TO_CACHE:     306707

STLB Hit, L1D data hit: 0
STLB Hit, L2C data hit: 0
STLB Hit, LLC data hit: 0
STLB Hit, LLC data miss: 0
STLB STLB hints to L2: 0
L1D TOTAL     ACCESS:   37547526  HIT:   37232150  MISS:     315376  HIT %:    99.1601  MISS %:   0.839938   MPKI: 3.15376
L1D LOAD      ACCESS:   18073696  HIT:   17788634  MISS:     285062  HIT %:    98.4228  MISS %:    1.57722   MPKI: 2.85062
L1D RFO       ACCESS:   19473830  HIT:   19443516  MISS:      30314  HIT %:    99.8443  MISS %:   0.155665   MPKI: 0.30314
L1D AVERAGE MISS LATENCY: 54.3678 cycles
L1D RQ	ACCESS:   23305816	FORWARD:          0	MERGED:    4654444	TO_CACHE:   18089130
L1D WQ	ACCESS:   19785327	FORWARD:     562242	MERGED:     254677	TO_CACHE:   19530650

L1D UNIQUE REGIONS ACCESSED: 0
L1D REGIONS CONFLICTS: 0
L1D Cross Page Prefetch Requests: 0
L1D Same Page Prefetch Requests: 0
L1D ROI Sum of L1D PQ occupancy: 0
L1D PREFETCHES PUSHED FROM L2C: 0
L1I TOTAL     ACCESS:   17543757  HIT:   17041206  MISS:     502551  HIT %:    97.1354  MISS %:    2.86456   MPKI: 5.02551
L1I LOAD      ACCESS:   17543757  HIT:   17041206  MISS:     502551  HIT %:    97.1354  MISS %:    2.86456   MPKI: 5.02551
L1I AVERAGE MISS LATENCY: 18.06 cycles
L1I RQ	ACCESS:   28103767	FORWARD:          0	MERGED:   10433073	TO_CACHE:   17670694

BTB TOTAL     ACCESS:   12959212  HIT:   12197760  MISS:     761452  HIT %:    94.1242  MISS %:    5.87576   MPKI: 7.61452
BTB BRANCH_DIRECT_JUMP	ACCESS:    2068606  HIT:    2062261  MISS:       6345
BTB BRANCH_INDIRECT	ACCESS:     637045  HIT:     204601  MISS:     432444
BTB BRANCH_CONDITIONAL	ACCESS:    8289203  HIT:    8271716  MISS:      17487
BTB BRANCH_DIRECT_CALL	ACCESS:     790916  HIT:     786347  MISS:       4569
BTB BRANCH_INDIRECT_CALL	ACCESS:     191262  HIT:      22762  MISS:     168500
BTB BRANCH_RETURN	ACCESS:     982180  HIT:     850073  MISS:     132107
BTB BRANCH_OTHER ACCESS:          0  HIT:          0  MISS:          0

L2C TOTAL     ACCESS:    1201278  HIT:     957540  MISS:     243738  HIT %:    79.7101  MISS %:    20.2899   MPKI: 2.43738
L2C LOAD      ACCESS:     787610  HIT:     676217  MISS:     111393  HIT %:    85.8568  MISS %:    14.1432   MPKI: 1.11393
L2C DATA LOAD MPKI: 0.84165
L2C INSTRUCTION LOAD MPKI: 0.27228
L2C RFO       ACCESS:      30314  HIT:      21906  MISS:       8408  HIT %:    72.2636  MISS %:    27.7364   MPKI: 0.08408
L2C PREFETCH  ACCESS:     279694  HIT:     164863  MISS:     114831  HIT %:    58.9441  MISS %:    41.0559   MPKI: 1.14831
L2C DATA PREFETCH MPKI: 1.14831
L2C INSTRUCTION PREFETCH MPKI: 0
L2C WRITEBACK ACCESS:      87957  HIT:      86045  MISS:       1912  HIT %:    97.8262  MISS %:    2.17379   MPKI: 0.01912
L2C LOAD TRANSLATION ACCESS:      15703  HIT:       8509  MISS:       7194  HIT %:    54.1871  MISS %:    45.8129   MPKI: 0.07194
L2C PREFETCH  REQUESTED:     307169  ISSUED:     307169  USEFUL:      43276  USELESS:      70960
L2C USEFUL LOAD PREFETCHES:      43276 PREFETCH ISSUED TO LOWER LEVEL:     137577  ACCURACY: 31.4558
L2C TIMELY PREFETCHES:      43276 LATE PREFETCHES: 4101 DROPPED PREFETCHES: 0
L2C PREFETCHES SAME FILL-ORIGIN LEVEL: 118932 DIFFERENT FILL-ORIGIN LEVEL: 18645
L2C AVERAGE MISS LATENCY: 128.62 cycles
L2C RQ	ACCESS:     833630	FORWARD:          0	MERGED:          0	TO_CACHE:     833627
L2C WQ	ACCESS:      87957	FORWARD:          3	MERGED:          0	TO_CACHE:      87957
L2C PQ	ACCESS:     307169	FORWARD:          0	MERGED:        286	TO_CACHE:     306883

L2C Instructions Evicting Data22819
L2C Translations Evicting Data6149
L2C Data Evicting Data178376
L2C Instructions Evicting Instructions3405
L2C Translations Evicting Instructions755
L2C Data Evicting Instructions21779
L2C Instructions Evicting Translations824
L2C Translations Evicting Translations231
L2C Data Evicting Translations6059
L2C Dense regions hint from L2: 0
PSCL5 TOTAL     ACCESS:      13076  HIT:      13076  MISS:          0  HIT %:        100  MISS %:          0   MPKI: 0
PSCL5 LOAD TRANSLATION ACCESS:      13076  HIT:      13076  MISS:          0  HIT %:        100  MISS %:          0   MPKI: 0

PSCL4 TOTAL     ACCESS:      13076  HIT:      13076  MISS:          0  HIT %:        100  MISS %:          0   MPKI: 0
PSCL4 LOAD TRANSLATION ACCESS:      13076  HIT:      13076  MISS:          0  HIT %:        100  MISS %:          0   MPKI: 0

PSCL3 TOTAL     ACCESS:      13076  HIT:      13076  MISS:          0  HIT %:        100  MISS %:          0   MPKI: 0
PSCL3 LOAD TRANSLATION ACCESS:      13076  HIT:      13076  MISS:          0  HIT %:        100  MISS %:          0   MPKI: 0

PSCL2 TOTAL     ACCESS:      13076  HIT:      10395  MISS:       2681  HIT %:    79.4968  MISS %:    20.5032   MPKI: 0.02681
PSCL2 LOAD TRANSLATION ACCESS:      13076  HIT:      10395  MISS:       2681  HIT %:    79.4968  MISS %:    20.5032   MPKI: 0.02681

LLC TOTAL     ACCESS:     291599  HIT:     112034  MISS:     179565  HIT %:    38.4206  MISS %:    61.5794   MPKI: 1.79565
LLC LOAD      ACCESS:     107331  HIT:      40845  MISS:      66486  HIT %:    38.0552  MISS %:    61.9448   MPKI: 0.66486
LLC RFO       ACCESS:       8369  HIT:       2453  MISS:       5916  HIT %:    29.3106  MISS %:    70.6894   MPKI: 0.05916
LLC PREFETCH  ACCESS:     137465  HIT:      34189  MISS:     103276  HIT %:    24.8711  MISS %:    75.1289   MPKI: 1.03276
LLC WRITEBACK ACCESS:      31240  HIT:      30327  MISS:        913  HIT %:    97.0775  MISS %:    2.92254   MPKI: 0.00913
LLC LOAD TRANSLATION ACCESS:       7194  HIT:       4220  MISS:       2974  HIT %:      58.66  MISS %:      41.34   MPKI: 0.02974
LLC AVERAGE MISS LATENCY: 146.01 cycles
LLC RQ	ACCESS:     122894	FORWARD:          0	MERGED:          0	TO_CACHE:     122894
LLC WQ	ACCESS:      31240	FORWARD:          0	MERGED:          0	TO_CACHE:      31240
LLC PQ	ACCESS:     137577	FORWARD:          0	MERGED:          0	TO_CACHE:     137577

LLC Dense regions hint to LLC: 0

RAW hits: 1585682
Loads Generated: 24891497
Loads sent to L1D: 23305816
Stores Generated: 19785308
Stores sent to L1D: 19785327
Major fault: 0 Minor fault: 5710
Allocated PAGES: 5710
------------------
Depth Distribution
------------------
depth 0: 51294
depth 1: 162944
depth 2: 61011
depth 3: 11792
depth 4: 2769
depth 5: 241
depth 6: 14
depth 7: 16
depth 8: 27
depth 9: 18
depth 10: 0
depth 11: 5
depth 12: 0
depth 13: 0
depth 14: 0
depth 15: 0
depth 16: 0
depth 17: 0
depth 18: 0
depth 19: 0
depth 20: 0
depth 21: 0
depth 22: 0
depth 23: 0
depth 24: 0
depth 25: 0
depth 26: 0
depth 27: 0
depth 28: 0
depth 29: 0
Total: 290131
------------------
ST read accesses: 247386
ST write accesses: 37673
PT read accesses: 3840869
PT write accesses: 321925
FILTER read accesses: 1314098
FILTER write accesses: 972834
GHR read accesses: 501693
GHR write accesses: 28664
PERC read accesses: 23448735
PERC write accesses: 2939656
GHR counter read accesses: 570118
GHR counter write accesses: 725304
GHR ip read accesses: 1980312
GHR ip write accesses: 1140236
ST tag read accesses: 129130455
ST tag write accesses: 17212345

DRAM Statistics
 CHANNEL 0
 RQ ROW_BUFFER_HIT:      48806  ROW_BUFFER_MISS:     129845
 DBUS_CONGESTED:         29
 WQ ROW_BUFFER_HIT:       3299  ROW_BUFFER_MISS:      15186  FULL:          0

 AVG_CONGESTED_CYCLE: 4
 All warmup complete: 2
Channel 0 Bank busy for read cycles: 0
Channel 0 Bank busy for write cycles: 0
Channel 0
Rank 0
0banks busy for read cycles: 185185224
0banks busy for write cycles: 13868
1banks busy for read cycles: 8198576
1banks busy for write cycles: 2240116
2banks busy for read cycles: 3368838
2banks busy for write cycles: 438727
3banks busy for read cycles: 1436511
3banks busy for write cycles: 95303
4banks busy for read cycles: 437136
4banks busy for write cycles: 19617
5banks busy for read cycles: 119171
5banks busy for write cycles: 6996
6banks busy for read cycles: 35799
6banks busy for write cycles: 1897
7banks busy for read cycles: 11035
7banks busy for write cycles: 698
8banks busy for read cycles: 4380
8banks busy for write cycles: 152

CPU 0 Branch Prediction Accuracy: 99.0079% MPKI: 1.64619 Average ROB Occupancy at Mispredict: 50.4136
Branch types
NOT_BRANCH: 83406157 83.4062%
BRANCH_DIRECT_JUMP: 2068606 2.06861%
BRANCH_INDIRECT: 637045 0.637045%
BRANCH_CONDITIONAL: 11923465 11.9235%
BRANCH_DIRECT_CALL: 790916 0.790916%
BRANCH_INDIRECT_CALL: 191262 0.191262%
BRANCH_RETURN: 982180 0.98218%
BRANCH_OTHER: 0 0%

DRAM PAGES: 1048576
Allocated PAGES: 5710
