Initialize SIGNATURE TABLE
ST_SET: 1
ST_WAY: 256
ST_TAG_BIT: 16
ST_TAG_MASK: ffff

Initialize PATTERN TABLE
PT_SET: 512
PT_WAY: 4
SIG_DELTA_BIT: 7
C_SIG_BIT: 4
C_DELTA_BIT: 4

Initialize PREFETCH FILTER
FILTER_SET: 1024

*** ChampSim Multicore Out-of-Order Simulator ***

Warmup Instructions: 50000000
Simulation Instructions: 100000000
Number of CPUs: 1
LLC sets: 2048
LLC ways: 16
Off-chip DRAM Size: 4096 MB Channels: 1 Width: 64-bit Data Rate: 6400 MT/s
CPU 0 runs ../SPEC2017//602.gcc_s-2226B.champsimtrace.xz
.xz
BTB has LRU replacement policy
ITLB has LRU replacement policy
DTLB has LRU replacement policy
STLB has LRU replacement policy
L1I has LRU replacement policy
L1D has LRU replacement policy
Initialize SRRIP state for L2C
Initialize DRRIP state for LLC
Heartbeat CPU 0 instructions: 10000002 cycles: 3748467 heartbeat IPC: 2.66776 cumulative IPC: 2.66776 (Simulation time: 0 hr 6 min 11 sec) 
Heartbeat CPU 0 instructions: 20000001 cycles: 7498749 heartbeat IPC: 2.66647 cumulative IPC: 2.66711 (Simulation time: 0 hr 11 min 46 sec) 
Heartbeat CPU 0 instructions: 30000001 cycles: 11243651 heartbeat IPC: 2.6703 cumulative IPC: 2.66817 (Simulation time: 0 hr 17 min 18 sec) 
Heartbeat CPU 0 instructions: 40000002 cycles: 14988752 heartbeat IPC: 2.67016 cumulative IPC: 2.66867 (Simulation time: 0 hr 22 min 46 sec) 
Heartbeat CPU 0 instructions: 50000000 cycles: 18737746 heartbeat IPC: 2.66738 cumulative IPC: 2.66841 (Simulation time: 0 hr 27 min 42 sec) 

Warmup complete CPU 0 instructions: 50000004 cycles: 18737747 (Simulation time: 0 hr 27 min 42 sec) 

Heartbeat CPU 0 instructions: 60000002 cycles: 119381392 heartbeat IPC: 0.0993605 cumulative IPC: 0.0993605 (Simulation time: 0 hr 38 min 54 sec) 
Heartbeat CPU 0 instructions: 70000000 cycles: 220247117 heartbeat IPC: 0.0991417 cumulative IPC: 0.0992509 (Simulation time: 0 hr 49 min 2 sec) 
Heartbeat CPU 0 instructions: 80000000 cycles: 320155266 heartbeat IPC: 0.100092 cumulative IPC: 0.0995297 (Simulation time: 0 hr 58 min 31 sec) 
Heartbeat CPU 0 instructions: 90000001 cycles: 420708978 heartbeat IPC: 0.0994493 cumulative IPC: 0.0995096 (Simulation time: 1 hr 7 min 17 sec) 
Heartbeat CPU 0 instructions: 100000001 cycles: 520788894 heartbeat IPC: 0.0999201 cumulative IPC: 0.0995914 (Simulation time: 1 hr 25 min 5 sec) 
Heartbeat CPU 0 instructions: 110000000 cycles: 621229929 heartbeat IPC: 0.0995609 cumulative IPC: 0.0995863 (Simulation time: 1 hr 39 min 26 sec) 
Heartbeat CPU 0 instructions: 120000000 cycles: 719543611 heartbeat IPC: 0.101715 cumulative IPC: 0.099885 (Simulation time: 1 hr 51 min 45 sec) 
Heartbeat CPU 0 instructions: 130000001 cycles: 819804420 heartbeat IPC: 0.0997399 cumulative IPC: 0.0998668 (Simulation time: 2 hr 2 min 48 sec) 
Heartbeat CPU 0 instructions: 140000000 cycles: 920183427 heartbeat IPC: 0.0996224 cumulative IPC: 0.0998396 (Simulation time: 2 hr 12 min 55 sec) 
Heartbeat CPU 0 instructions: 150000001 cycles: 1020610013 heartbeat IPC: 0.0995752 cumulative IPC: 0.0998131 (Simulation time: 2 hr 30 min 56 sec) 
Finished CPU 0 instructions: 100000000 cycles: 1001872280 cumulative IPC: 0.0998131 (Simulation time: 2 hr 30 min 56 sec) 

ChampSim completed all CPUs

Region of Interest Statistics

CPU 0 cumulative IPC: 0.0998131 instructions: 100000000 cycles: 1001872280

CPU 0 Average Load ROB stall cycles: 1.59526e+08
CPU 0 Fraction of times ROB stalled by Loads: 30.6665
CPU 0 Percentage of Load stall cycles in Total stall cycles: 5.11636e+08
Issued all: 681536599
Issued LT all: 675487146
rob_not_full_when_issued_lt_all: 18605925
Issued LT one: 645671077
rob_not_full_when_issued_lt_one: 17587592
 Total stall cycles: 983515790
 Total load stall cycles: 5032018784675891
Unique Load IPs: 236
CPU 0 NUM of IPS identified critical: 1
CPU 0 Num of Load IPs stalling ROB: 0
Threshold modification factor: 0
Trouble in retire width: -nan
MaC = Marked as critical.
lt_50_percent_before_Mac: 1
gt_90_percent_before_Mac: 0
gt_75_percent_before_Mac: 0
gt_50_percent_before_Mac: 0
stall_proportion_bin_same_before_after: 0
stall_proportion_bin_lower_before_after: 0
stall_proportion_bin_upper_before_after: 0
average_stall_proportion_before: 0.0124759
average_stall_proportion_after: 0.0124763
Critical_IP_Detector_Accuracy_70: 0
Critical_IP_Detector_Accuracy_80: 0
Critical_IP_Detector_Accuracy_90: 0
Critical_IP_Detector_Coverage_70: 0
Critical_IP_Detector_Coverage_80: 0
Critical_IP_Detector_Coverage_90: 0
stat_90_percent_critical_ip_stalls_freq: 8356396
stat_90_percent_non_critical_ip_stalls_freq: 18446744073701195220
AVERAGE_ROB_Occupancy_90_Percent_Critical_IP_Stalls: 295.374
AVERAGE_ROB_Occupancy_90_Percent_Non_Critical_IP_Stalls: 1.28286e-11
Critical_IP_ROB_Stalls_Bucket_0: 7184
Non-critical_IP_ROB_Stalls_Bucket_0: 527734
Critical_IP_ROB_Stalls_Bucket_1: 7136
Non-critical_IP_ROB_Stalls_Bucket_1: 798465
Critical_IP_ROB_Stalls_Bucket_2: 7573
Non-critical_IP_ROB_Stalls_Bucket_2: 454687
Critical_IP_ROB_Stalls_Bucket_3: 9754
Non-critical_IP_ROB_Stalls_Bucket_3: 451630
Critical_IP_ROB_Stalls_Bucket_4: 7288
Non-critical_IP_ROB_Stalls_Bucket_4: 503755
Critical_IP_ROB_Stalls_Bucket_5: 6276
Non-critical_IP_ROB_Stalls_Bucket_5: 408121
Critical_IP_ROB_Stalls_Bucket_6: 124691
Non-critical_IP_ROB_Stalls_Bucket_6: 6358997
0 => IPs accounting for >50 percent of stalls, 1 => 55, 2 => 60, 3 => 65 and so on till 90.
percent50: inf num IPs:  1
percent55: inf num IPs: 1
percent60: inf num IPs: 1
percent65: inf num IPs: 1
percent70: inf num IPs: 1
percent75: inf num IPs: 1
percent80: inf num IPs: 1
percent85: inf num IPs: 1
percent90: inf num IPs: 1
Critical_ROB_Stalls_Percent_0_Bucket_0: 355294
Non-critical_ROB_Stalls_Percent_0_Bucket_0: 179624
Critical_ROB_Stalls_Percent_0_Bucket_1: 408642
Non-critical_ROB_Stalls_Percent_0_Bucket_1: 396959
Critical_ROB_Stalls_Percent_0_Bucket_2: 369459
Non-critical_ROB_Stalls_Percent_0_Bucket_2: 92801
Critical_ROB_Stalls_Percent_0_Bucket_3: 391385
Non-critical_ROB_Stalls_Percent_0_Bucket_3: 69999
Critical_ROB_Stalls_Percent_0_Bucket_4: 382466
Non-critical_ROB_Stalls_Percent_0_Bucket_4: 128577
Critical_ROB_Stalls_Percent_0_Bucket_5: 355938
Non-critical_ROB_Stalls_Percent_0_Bucket_5: 58459
Critical_ROB_Stalls_Percent_0_Bucket_6: 6093212
Non-critical_ROB_Stalls_Percent_0_Bucket_6: 390476
Critical_ROB_Stalls_Percent_1_Bucket_0: 355294
Non-critical_ROB_Stalls_Percent_1_Bucket_0: 179624
Critical_ROB_Stalls_Percent_1_Bucket_1: 408642
Non-critical_ROB_Stalls_Percent_1_Bucket_1: 396959
Critical_ROB_Stalls_Percent_1_Bucket_2: 369459
Non-critical_ROB_Stalls_Percent_1_Bucket_2: 92801
Critical_ROB_Stalls_Percent_1_Bucket_3: 391385
Non-critical_ROB_Stalls_Percent_1_Bucket_3: 69999
Critical_ROB_Stalls_Percent_1_Bucket_4: 382466
Non-critical_ROB_Stalls_Percent_1_Bucket_4: 128577
Critical_ROB_Stalls_Percent_1_Bucket_5: 355938
Non-critical_ROB_Stalls_Percent_1_Bucket_5: 58459
Critical_ROB_Stalls_Percent_1_Bucket_6: 6093212
Non-critical_ROB_Stalls_Percent_1_Bucket_6: 390476
Critical_ROB_Stalls_Percent_2_Bucket_0: 355294
Non-critical_ROB_Stalls_Percent_2_Bucket_0: 179624
Critical_ROB_Stalls_Percent_2_Bucket_1: 408642
Non-critical_ROB_Stalls_Percent_2_Bucket_1: 396959
Critical_ROB_Stalls_Percent_2_Bucket_2: 369459
Non-critical_ROB_Stalls_Percent_2_Bucket_2: 92801
Critical_ROB_Stalls_Percent_2_Bucket_3: 391385
Non-critical_ROB_Stalls_Percent_2_Bucket_3: 69999
Critical_ROB_Stalls_Percent_2_Bucket_4: 382466
Non-critical_ROB_Stalls_Percent_2_Bucket_4: 128577
Critical_ROB_Stalls_Percent_2_Bucket_5: 355938
Non-critical_ROB_Stalls_Percent_2_Bucket_5: 58459
Critical_ROB_Stalls_Percent_2_Bucket_6: 6093212
Non-critical_ROB_Stalls_Percent_2_Bucket_6: 390476
Critical_ROB_Stalls_Percent_3_Bucket_0: 355294
Non-critical_ROB_Stalls_Percent_3_Bucket_0: 179624
Critical_ROB_Stalls_Percent_3_Bucket_1: 408642
Non-critical_ROB_Stalls_Percent_3_Bucket_1: 396959
Critical_ROB_Stalls_Percent_3_Bucket_2: 369459
Non-critical_ROB_Stalls_Percent_3_Bucket_2: 92801
Critical_ROB_Stalls_Percent_3_Bucket_3: 391385
Non-critical_ROB_Stalls_Percent_3_Bucket_3: 69999
Critical_ROB_Stalls_Percent_3_Bucket_4: 382466
Non-critical_ROB_Stalls_Percent_3_Bucket_4: 128577
Critical_ROB_Stalls_Percent_3_Bucket_5: 355938
Non-critical_ROB_Stalls_Percent_3_Bucket_5: 58459
Critical_ROB_Stalls_Percent_3_Bucket_6: 6093212
Non-critical_ROB_Stalls_Percent_3_Bucket_6: 390476
Critical_ROB_Stalls_Percent_4_Bucket_0: 355294
Non-critical_ROB_Stalls_Percent_4_Bucket_0: 179624
Critical_ROB_Stalls_Percent_4_Bucket_1: 408642
Non-critical_ROB_Stalls_Percent_4_Bucket_1: 396959
Critical_ROB_Stalls_Percent_4_Bucket_2: 369459
Non-critical_ROB_Stalls_Percent_4_Bucket_2: 92801
Critical_ROB_Stalls_Percent_4_Bucket_3: 391385
Non-critical_ROB_Stalls_Percent_4_Bucket_3: 69999
Critical_ROB_Stalls_Percent_4_Bucket_4: 382466
Non-critical_ROB_Stalls_Percent_4_Bucket_4: 128577
Critical_ROB_Stalls_Percent_4_Bucket_5: 355938
Non-critical_ROB_Stalls_Percent_4_Bucket_5: 58459
Critical_ROB_Stalls_Percent_4_Bucket_6: 6093212
Non-critical_ROB_Stalls_Percent_4_Bucket_6: 390476
Critical_ROB_Stalls_Percent_5_Bucket_0: 355294
Non-critical_ROB_Stalls_Percent_5_Bucket_0: 179624
Critical_ROB_Stalls_Percent_5_Bucket_1: 408642
Non-critical_ROB_Stalls_Percent_5_Bucket_1: 396959
Critical_ROB_Stalls_Percent_5_Bucket_2: 369459
Non-critical_ROB_Stalls_Percent_5_Bucket_2: 92801
Critical_ROB_Stalls_Percent_5_Bucket_3: 391385
Non-critical_ROB_Stalls_Percent_5_Bucket_3: 69999
Critical_ROB_Stalls_Percent_5_Bucket_4: 382466
Non-critical_ROB_Stalls_Percent_5_Bucket_4: 128577
Critical_ROB_Stalls_Percent_5_Bucket_5: 355938
Non-critical_ROB_Stalls_Percent_5_Bucket_5: 58459
Critical_ROB_Stalls_Percent_5_Bucket_6: 6093212
Non-critical_ROB_Stalls_Percent_5_Bucket_6: 390476
Critical_ROB_Stalls_Percent_6_Bucket_0: 355294
Non-critical_ROB_Stalls_Percent_6_Bucket_0: 179624
Critical_ROB_Stalls_Percent_6_Bucket_1: 408642
Non-critical_ROB_Stalls_Percent_6_Bucket_1: 396959
Critical_ROB_Stalls_Percent_6_Bucket_2: 369459
Non-critical_ROB_Stalls_Percent_6_Bucket_2: 92801
Critical_ROB_Stalls_Percent_6_Bucket_3: 391385
Non-critical_ROB_Stalls_Percent_6_Bucket_3: 69999
Critical_ROB_Stalls_Percent_6_Bucket_4: 382466
Non-critical_ROB_Stalls_Percent_6_Bucket_4: 128577
Critical_ROB_Stalls_Percent_6_Bucket_5: 355938
Non-critical_ROB_Stalls_Percent_6_Bucket_5: 58459
Critical_ROB_Stalls_Percent_6_Bucket_6: 6093212
Non-critical_ROB_Stalls_Percent_6_Bucket_6: 390476
Critical_ROB_Stalls_Percent_7_Bucket_0: 355294
Non-critical_ROB_Stalls_Percent_7_Bucket_0: 179624
Critical_ROB_Stalls_Percent_7_Bucket_1: 408642
Non-critical_ROB_Stalls_Percent_7_Bucket_1: 396959
Critical_ROB_Stalls_Percent_7_Bucket_2: 369459
Non-critical_ROB_Stalls_Percent_7_Bucket_2: 92801
Critical_ROB_Stalls_Percent_7_Bucket_3: 391385
Non-critical_ROB_Stalls_Percent_7_Bucket_3: 69999
Critical_ROB_Stalls_Percent_7_Bucket_4: 382466
Non-critical_ROB_Stalls_Percent_7_Bucket_4: 128577
Critical_ROB_Stalls_Percent_7_Bucket_5: 355938
Non-critical_ROB_Stalls_Percent_7_Bucket_5: 58459
Critical_ROB_Stalls_Percent_7_Bucket_6: 6093212
Non-critical_ROB_Stalls_Percent_7_Bucket_6: 390476
Critical_ROB_Stalls_Percent_8_Bucket_0: 355294
Non-critical_ROB_Stalls_Percent_8_Bucket_0: 179624
Critical_ROB_Stalls_Percent_8_Bucket_1: 408642
Non-critical_ROB_Stalls_Percent_8_Bucket_1: 396959
Critical_ROB_Stalls_Percent_8_Bucket_2: 369459
Non-critical_ROB_Stalls_Percent_8_Bucket_2: 92801
Critical_ROB_Stalls_Percent_8_Bucket_3: 391385
Non-critical_ROB_Stalls_Percent_8_Bucket_3: 69999
Critical_ROB_Stalls_Percent_8_Bucket_4: 382466
Non-critical_ROB_Stalls_Percent_8_Bucket_4: 128577
Critical_ROB_Stalls_Percent_8_Bucket_5: 355938
Non-critical_ROB_Stalls_Percent_8_Bucket_5: 58459
Critical_ROB_Stalls_Percent_8_Bucket_6: 6093212
Non-critical_ROB_Stalls_Percent_8_Bucket_6: 390476
Average ROB occupancy Load Stall Begin: 275.5
Average ROB occupancy Load Stall End: 279.626
Min ROB occupancy Load Stall Begin: 1
Max ROB occupancy Load Stall Begin: 352
Min ROB occupancy Load Stall End: 1
Max ROB occupancy Load Stall End: 352
Average ROB occupancy Critical Load Stall Begin: 295.752
Average ROB occupancy Critical Load Stall End: 296.3
Min ROB occupancy Critical Load Stall Begin: 6
Max ROB occupancy Critical Load Stall Begin: 352
Min ROB occupancy Critical Load Stall End: 6
Max ROB occupancy Critical Load Stall End: 352
 ROB Load Stall Begin Bucket Count 0: 689389
 ROB Load Stall End Bucket Count 0: 534918
 ROB Critical Load Stall Begin Bucket Count 0: 4364
 ROB Critical Load Stall End Bucket Count 0: 4364
 ROB Load Stall Begin Bucket Count 1: 743088
 ROB Load Stall End Bucket Count 1: 805601
 ROB Critical Load Stall Begin Bucket Count 1: 4464
 ROB Critical Load Stall End Bucket Count 1: 4323
 ROB Load Stall Begin Bucket Count 2: 465936
 ROB Load Stall End Bucket Count 2: 462260
 ROB Critical Load Stall Begin Bucket Count 2: 4513
 ROB Critical Load Stall End Bucket Count 2: 4606
 ROB Load Stall Begin Bucket Count 3: 446156
 ROB Load Stall End Bucket Count 3: 461384
 ROB Critical Load Stall Begin Bucket Count 3: 5956
 ROB Critical Load Stall End Bucket Count 3: 5996
 ROB Load Stall Begin Bucket Count 4: 514055
 ROB Load Stall End Bucket Count 4: 511043
 ROB Critical Load Stall Begin Bucket Count 4: 4601
 ROB Critical Load Stall End Bucket Count 4: 4381
 ROB Load Stall Begin Bucket Count 5: 428360
 ROB Load Stall End Bucket Count 5: 414397
 ROB Critical Load Stall Begin Bucket Count 5: 3696
 ROB Critical Load Stall End Bucket Count 5: 3881
 ROB Load Stall Begin Bucket Count 6: 6386307
 ROB Load Stall End Bucket Count 6: 6483688
 ROB Critical Load Stall Begin Bucket Count 6: 75886
 ROB Critical Load Stall End Bucket Count 6: 75929
PIST Tag Read Accesses: 0
PIST Read Accesses: 0
PIST Tag Write Accesses: 0
PIST Write Accesses: 0
Criticality detector called times: 0
Max global_stall_cycles_count: 0
Threshold Modified: 0 times, factor: 0
Sturdy critical IP cache stats: 
 Unused entries: 0
CIC Tag Read Accesses: 0
CIC Read Accesses: 0
CIC Tag Write Accesses: 0
CIC Write Accesses: 0
Wobbly critical IP cache stats: 
 Unused entries: 27
CIC Tag Read Accesses: 308601120
CIC Read Accesses: 0
CIC Tag Write Accesses: 27470
CIC Write Accesses: 0
ITLB TOTAL     ACCESS:   24204775  HIT:   24204775  MISS:          0  HIT %:        100  MISS %:          0   MPKI: 0
ITLB LOAD TRANSLATION ACCESS:   24204775  HIT:   24204775  MISS:          0  HIT %:        100  MISS %:          0   MPKI: 0
ITLB PREFETCH  REQUESTED:          0  ISSUED:          0  USEFUL:          0  USELESS:          0
ITLB USEFUL LOAD PREFETCHES:          0 PREFETCH ISSUED TO LOWER LEVEL:          0  ACCURACY: -nan
ITLB TIMELY PREFETCHES:          0 LATE PREFETCHES: 0 DROPPED PREFETCHES: 0
ITLB PREFETCHES SAME FILL-ORIGIN LEVEL: 0 DIFFERENT FILL-ORIGIN LEVEL: 0
ITLB AVERAGE MISS LATENCY: -nan cycles
ITLB RQ	ACCESS:   24550920	FORWARD:          0	MERGED:     346146	TO_CACHE:   24204774

DTLB TOTAL     ACCESS:   15341542  HIT:   15205462  MISS:     136080  HIT %:     99.113  MISS %:   0.887003   MPKI: 1.3608
DTLB LOAD TRANSLATION ACCESS:   15341542  HIT:   15205462  MISS:     136080  HIT %:     99.113  MISS %:   0.887003   MPKI: 1.3608
DTLB PREFETCH  REQUESTED:          0  ISSUED:          0  USEFUL:          0  USELESS:          0
DTLB USEFUL LOAD PREFETCHES:          0 PREFETCH ISSUED TO LOWER LEVEL:          0  ACCURACY: -nan
DTLB TIMELY PREFETCHES:          0 LATE PREFETCHES: 0 DROPPED PREFETCHES: 0
DTLB PREFETCHES SAME FILL-ORIGIN LEVEL: 0 DIFFERENT FILL-ORIGIN LEVEL: 0
DTLB AVERAGE MISS LATENCY: 68.5456 cycles
DTLB RQ	ACCESS:   18081016	FORWARD:          0	MERGED:    2738946	TO_CACHE:   15342070

STLB TOTAL     ACCESS:     136080  HIT:       4705  MISS:     131375  HIT %:    3.45752  MISS %:    96.5425   MPKI: 1.31375
STLB LOAD TRANSLATION ACCESS:     136080  HIT:       4705  MISS:     131375  HIT %:    3.45752  MISS %:    96.5425   MPKI: 1.31375
STLB PREFETCH  REQUESTED:          0  ISSUED:          0  USEFUL:          0  USELESS:          0
STLB USEFUL LOAD PREFETCHES:          0 PREFETCH ISSUED TO LOWER LEVEL:          0  ACCURACY: -nan
STLB TIMELY PREFETCHES:          0 LATE PREFETCHES: 0 DROPPED PREFETCHES: 0
STLB PREFETCHES SAME FILL-ORIGIN LEVEL: 0 DIFFERENT FILL-ORIGIN LEVEL: 0
STLB AVERAGE MISS LATENCY: 61.6778 cycles
STLB RQ	ACCESS:     136079	FORWARD:          0	MERGED:          0	TO_CACHE:     136079

STLB Hit, L1D data hit: 0
STLB Hit, L2C data hit: 0
STLB Hit, LLC data hit: 0
STLB Hit, LLC data miss: 0
STLB STLB hints to L2: 0
L1D TOTAL     ACCESS:   15530091  HIT:    8528641  MISS:    7001450  HIT %:    54.9169  MISS %:    45.0831   MPKI: 70.0145
L1D LOAD      ACCESS:   14204792  HIT:    7206095  MISS:    6998697  HIT %:      50.73  MISS %:      49.27   MPKI: 69.987
L1D RFO       ACCESS:    1325299  HIT:    1322546  MISS:       2753  HIT %:    99.7923  MISS %:   0.207727   MPKI: 0.02753
L1D PREFETCH  REQUESTED:          0  ISSUED:          0  USEFUL:          0  USELESS:          0
L1D USEFUL LOAD PREFETCHES:          0 PREFETCH ISSUED TO LOWER LEVEL:          0  ACCURACY: -nan
L1D TIMELY PREFETCHES:          0 LATE PREFETCHES: 0 DROPPED PREFETCHES: 0
L1D PREFETCHES SAME FILL-ORIGIN LEVEL: 0 DIFFERENT FILL-ORIGIN LEVEL: 0
L1D AVERAGE MISS LATENCY: 120.169 cycles
L1D RQ	ACCESS:   35892945	FORWARD:          0	MERGED:   19134395	TO_CACHE:   16755705
L1D WQ	ACCESS:    1469578	FORWARD:       2845	MERGED:     144267	TO_CACHE:    1325311

L1D UNIQUE REGIONS ACCESSED: 0
L1D REGIONS CONFLICTS: 0
L1D Cross Page Prefetch Requests: 0
L1D Same Page Prefetch Requests: 0
L1D ROI Sum of L1D PQ occupancy: 0
L1D PREFETCHES PUSHED FROM L2C: 0
L1I TOTAL     ACCESS:   24550918  HIT:   24550893  MISS:         25  HIT %:    99.9999  MISS %: 0.000101829   MPKI: 0.00025
L1I LOAD      ACCESS:   24550918  HIT:   24550893  MISS:         25  HIT %:    99.9999  MISS %: 0.000101829   MPKI: 0.00025
L1I PREFETCH  REQUESTED:          0  ISSUED:          0  USEFUL:          0  USELESS:          0
L1I USEFUL LOAD PREFETCHES:          0 PREFETCH ISSUED TO LOWER LEVEL:          0  ACCURACY: -nan
L1I TIMELY PREFETCHES:          0 LATE PREFETCHES: 0 DROPPED PREFETCHES: 0
L1I PREFETCHES SAME FILL-ORIGIN LEVEL: 0 DIFFERENT FILL-ORIGIN LEVEL: 0
L1I AVERAGE MISS LATENCY: 210 cycles
L1I RQ	ACCESS:   35557800	FORWARD:          0	MERGED:   11006880	TO_CACHE:   24550920

BTB TOTAL     ACCESS:   23931406  HIT:   23930814  MISS:        592  HIT %:    99.9975  MISS %: 0.00247374   MPKI: 0.00592
BTB BRANCH_DIRECT_JUMP	ACCESS:     340935  HIT:     340899  MISS:         36
BTB BRANCH_INDIRECT	ACCESS:          0  HIT:          0  MISS:          0
BTB BRANCH_CONDITIONAL	ACCESS:   23252725  HIT:   23252648  MISS:         77
BTB BRANCH_DIRECT_CALL	ACCESS:     168873  HIT:     168857  MISS:         16
BTB BRANCH_INDIRECT_CALL	ACCESS:          0  HIT:          0  MISS:          0
BTB BRANCH_RETURN	ACCESS:     168873  HIT:     168410  MISS:        463
BTB BRANCH_OTHER ACCESS:          0  HIT:          0  MISS:          0

L2C TOTAL     ACCESS:    7147394  HIT:     119427  MISS:    7027967  HIT %:    1.67092  MISS %:    98.3291   MPKI: 70.2797
L2C LOAD      ACCESS:    6998722  HIT:       3505  MISS:    6995217  HIT %:  0.0500806  MISS %:    99.9499   MPKI: 69.9522
L2C DATA LOAD MPKI: 69.9519
L2C INSTRUCTION LOAD MPKI: 0.00025
L2C RFO       ACCESS:       2753  HIT:          1  MISS:       2752  HIT %:   0.036324  MISS %:    99.9637   MPKI: 0.02752
L2C PREFETCH  ACCESS:        357  HIT:        357  MISS:          0  HIT %:        100  MISS %:          0   MPKI: 0
L2C DATA PREFETCH MPKI: 0
L2C INSTRUCTION PREFETCH MPKI: 0
L2C WRITEBACK ACCESS:      11211  HIT:      11188  MISS:         23  HIT %:    99.7948  MISS %:   0.205156   MPKI: 0.00023
L2C LOAD TRANSLATION ACCESS:     134351  HIT:     104376  MISS:      29975  HIT %:     77.689  MISS %:     22.311   MPKI: 0.29975
L2C PREFETCH  REQUESTED:      54357  ISSUED:      54357  USEFUL:          1  USELESS:          4
L2C USEFUL LOAD PREFETCHES:          1 PREFETCH ISSUED TO LOWER LEVEL:      36011  ACCURACY: 0.00277693
L2C TIMELY PREFETCHES:          1 LATE PREFETCHES: 0 DROPPED PREFETCHES: 0
L2C PREFETCHES SAME FILL-ORIGIN LEVEL: 0 DIFFERENT FILL-ORIGIN LEVEL: 36011
L2C AVERAGE MISS LATENCY: 105.559 cycles
L2C RQ	ACCESS:    7135826	FORWARD:          0	MERGED:          0	TO_CACHE:    7135826
L2C WQ	ACCESS:      11211	FORWARD:          0	MERGED:          0	TO_CACHE:      11211
L2C PQ	ACCESS:      54357	FORWARD:          0	MERGED:          2	TO_CACHE:      54355

L2C Instructions Evicting Data 25
L2C Translations Evicting Data 29837
L2C Data Evicting Data 6968145
L2C Instructions Evicting Instructions 0
L2C Translations Evicting Instructions 0
L2C Data Evicting Instructions 25
L2C Instructions Evicting Translations 0
L2C Translations Evicting Translations 138
L2C Data Evicting Translations 29774
L2C Dense regions hint from L2: 0
PSCL5 TOTAL     ACCESS:     131374  HIT:     131374  MISS:          0  HIT %:        100  MISS %:          0   MPKI: 0
PSCL5 LOAD TRANSLATION ACCESS:     131374  HIT:     131374  MISS:          0  HIT %:        100  MISS %:          0   MPKI: 0
PSCL5 PREFETCH  REQUESTED:          0  ISSUED:          0  USEFUL:          0  USELESS:          0
PSCL5 USEFUL LOAD PREFETCHES:          0 PREFETCH ISSUED TO LOWER LEVEL:          0  ACCURACY: -nan
PSCL5 TIMELY PREFETCHES:          0 LATE PREFETCHES: 0 DROPPED PREFETCHES: 0
PSCL5 PREFETCHES SAME FILL-ORIGIN LEVEL: 0 DIFFERENT FILL-ORIGIN LEVEL: 0

PSCL4 TOTAL     ACCESS:     131374  HIT:     131374  MISS:          0  HIT %:        100  MISS %:          0   MPKI: 0
PSCL4 LOAD TRANSLATION ACCESS:     131374  HIT:     131374  MISS:          0  HIT %:        100  MISS %:          0   MPKI: 0
PSCL4 PREFETCH  REQUESTED:          0  ISSUED:          0  USEFUL:          0  USELESS:          0
PSCL4 USEFUL LOAD PREFETCHES:          0 PREFETCH ISSUED TO LOWER LEVEL:          0  ACCURACY: -nan
PSCL4 TIMELY PREFETCHES:          0 LATE PREFETCHES: 0 DROPPED PREFETCHES: 0
PSCL4 PREFETCHES SAME FILL-ORIGIN LEVEL: 0 DIFFERENT FILL-ORIGIN LEVEL: 0

PSCL3 TOTAL     ACCESS:     131371  HIT:     131359  MISS:         12  HIT %:    99.9909  MISS %: 0.00913444   MPKI: 0.00012
PSCL3 LOAD TRANSLATION ACCESS:     131371  HIT:     131359  MISS:         12  HIT %:    99.9909  MISS %: 0.00913444   MPKI: 0.00012
PSCL3 PREFETCH  REQUESTED:          0  ISSUED:          0  USEFUL:          0  USELESS:          0
PSCL3 USEFUL LOAD PREFETCHES:          0 PREFETCH ISSUED TO LOWER LEVEL:          0  ACCURACY: -nan
PSCL3 TIMELY PREFETCHES:          0 LATE PREFETCHES: 0 DROPPED PREFETCHES: 0
PSCL3 PREFETCHES SAME FILL-ORIGIN LEVEL: 0 DIFFERENT FILL-ORIGIN LEVEL: 0

PSCL2 TOTAL     ACCESS:     131374  HIT:     128404  MISS:       2970  HIT %:    97.7393  MISS %:    2.26072   MPKI: 0.0297
PSCL2 LOAD TRANSLATION ACCESS:     131374  HIT:     128404  MISS:       2970  HIT %:    97.7393  MISS %:    2.26072   MPKI: 0.0297
PSCL2 PREFETCH  REQUESTED:          0  ISSUED:          0  USEFUL:          0  USELESS:          0
PSCL2 USEFUL LOAD PREFETCHES:          0 PREFETCH ISSUED TO LOWER LEVEL:          0  ACCURACY: -nan
PSCL2 TIMELY PREFETCHES:          0 LATE PREFETCHES: 0 DROPPED PREFETCHES: 0
PSCL2 PREFETCHES SAME FILL-ORIGIN LEVEL: 0 DIFFERENT FILL-ORIGIN LEVEL: 0

LLC TOTAL     ACCESS:    7074658  HIT:      47178  MISS:    7027480  HIT %:   0.666859  MISS %:    99.3331   MPKI: 70.2748
LLC LOAD      ACCESS:    6995217  HIT:      35245  MISS:    6959972  HIT %:   0.503844  MISS %:    99.4962   MPKI: 69.5997
LLC RFO       ACCESS:       2752  HIT:          0  MISS:       2752  HIT %:          0  MISS %:        100   MPKI: 0.02752
LLC PREFETCH  ACCESS:      35545  HIT:        214  MISS:      35331  HIT %:   0.602054  MISS %:    99.3979   MPKI: 0.35331
LLC WRITEBACK ACCESS:      11169  HIT:      10643  MISS:        526  HIT %:    95.2905  MISS %:    4.70946   MPKI: 0.00526
LLC LOAD TRANSLATION ACCESS:      29975  HIT:       1076  MISS:      28899  HIT %:    3.58966  MISS %:    96.4103   MPKI: 0.28899
LLC PREFETCH  REQUESTED:          0  ISSUED:          0  USEFUL:      35054  USELESS:       6597
LLC USEFUL LOAD PREFETCHES:      35054 PREFETCH ISSUED TO LOWER LEVEL:      35737  ACCURACY: 98.0888
LLC TIMELY PREFETCHES:      35054 LATE PREFETCHES: 406 DROPPED PREFETCHES: 0
LLC PREFETCHES SAME FILL-ORIGIN LEVEL: 35737 DIFFERENT FILL-ORIGIN LEVEL: 0
LLC AVERAGE MISS LATENCY: 75.9579 cycles
LLC RQ	ACCESS:    7027944	FORWARD:          0	MERGED:          0	TO_CACHE:    7027944
LLC WQ	ACCESS:      11169	FORWARD:          0	MERGED:          0	TO_CACHE:      11169
LLC PQ	ACCESS:      36011	FORWARD:          0	MERGED:          0	TO_CACHE:      36011

LLC Dense regions hint to LLC: 0

RAW hits: 10371
Loads Generated: 35903318
Loads sent to L1D: 35892945
Stores Generated: 1469578
Stores sent to L1D: 1469578
Major fault: 0 Minor fault: 48987
Allocated PAGES: 48987
 All Calls: 10495349
 Critical Calls: 3478646
------------------
Depth Distribution
------------------
depth 0: 0
depth 1: 3400789
depth 2: 3329389
depth 3: 3260263
depth 4: 3176224
depth 5: 3084228
depth 6: 2952415
depth 7: 2794379
depth 8: 2507610
depth 9: 2125117
depth 10: 1745883
depth 11: 1227091
depth 12: 702775
depth 13: 293669
depth 14: 2416
depth 15: 1719
depth 16: 0
depth 17: 0
depth 18: 0
depth 19: 0
depth 20: 0
depth 21: 0
depth 22: 0
depth 23: 0
depth 24: 0
depth 25: 0
depth 26: 0
depth 27: 0
depth 28: 0
depth 29: 0
Total: 30603967
-----------------------------
-----------------------------
	Captured at Filter
-----------------------------
depth 0: 0
depth 1: 41527
depth 2: 21319
depth 3: 20988
depth 4: 20660
depth 5: 20219
depth 6: 19664
depth 7: 18835
depth 8: 17042
depth 9: 14536
depth 10: 12086
depth 11: 8586
depth 12: 5115
depth 13: 2277
depth 14: 24
depth 15: 31
depth 16: 0
depth 17: 0
depth 18: 0
depth 19: 0
depth 20: 0
depth 21: 0
depth 22: 0
depth 23: 0
depth 24: 0
depth 25: 0
depth 26: 0
depth 27: 0
depth 28: 0
depth 29: 0
-----------------------------
-----------------------------
		Lost at Page
-----------------------------
depth 0: 0
depth 1: 54492
depth 2: 108526
depth 3: 162533
depth 4: 215643
depth 5: 268411
depth 6: 317815
depth 7: 362102
depth 8: 381784
depth 9: 372932
depth 10: 350284
depth 11: 279181
depth 12: 185829
depth 13: 91123
depth 14: 1074
depth 15: 1143
depth 16: 0
depth 17: 0
depth 18: 0
depth 19: 0
depth 20: 0
depth 21: 0
depth 22: 0
depth 23: 0
depth 24: 0
depth 25: 0
depth 26: 0
depth 27: 0
depth 28: 0
depth 29: 0
-----------------------------
-----------------------------
	Lost due to PQ Size
-----------------------------
1018009
-----------------------------
ST read accesses: 635
ST write accesses: 18361
PT read accesses: 358436
PT write accesses: 427
FILTER read accesses: 7101322
FILTER write accesses: 7028332
GHR read accesses: 152528
GHR write accesses: 1856
GHR counter read accesses: 338764
GHR counter write accesses: 19053
ST tag read accesses: 16703506
ST tag write accesses: 4712141

DRAM Statistics
 CHANNEL 0
 RQ ROW_BUFFER_HIT:    6615123  ROW_BUFFER_MISS:     411831
 DBUS_CONGESTED:          2
 WQ ROW_BUFFER_HIT:       8049  ROW_BUFFER_MISS:       3085  FULL:          0

 AVG_CONGESTED_CYCLE: 4
 All warmup complete: 2
Channel 0 Bank busy for read cycles: 0
Channel 0 Bank busy for write cycles: 0
Channel 0
Rank 0
0banks busy for read cycles: 606062998
0banks busy for write cycles: 8315
1banks busy for read cycles: 377535990
1banks busy for write cycles: 9287572
2banks busy for read cycles: 5815510
2banks busy for write cycles: 1755260
3banks busy for read cycles: 222322
3banks busy for write cycles: 445095
4banks busy for read cycles: 541610
4banks busy for write cycles: 76621
5banks busy for read cycles: 47910
5banks busy for write cycles: 24671
6banks busy for read cycles: 22132
6banks busy for write cycles: 4438
7banks busy for read cycles: 16641
7banks busy for write cycles: 0
8banks busy for read cycles: 5196
8banks busy for write cycles: 0

CPU 0 Branch Prediction Accuracy: 99.7034% MPKI: 1.05722 Average ROB Occupancy at Mispredict: 266.159
Branch types
NOT_BRANCH: 64349938 64.3499%
BRANCH_DIRECT_JUMP: 340935 0.340935%
BRANCH_INDIRECT: 0 0%
BRANCH_CONDITIONAL: 34971407 34.9714%
BRANCH_DIRECT_CALL: 168873 0.168873%
BRANCH_INDIRECT_CALL: 0 0%
BRANCH_RETURN: 168873 0.168873%
BRANCH_OTHER: 0 0%

DRAM PAGES: 1048576
Allocated PAGES: 48987
