
*** ChampSim Multicore Out-of-Order Simulator ***

Warmup Instructions: 50000000
Simulation Instructions: 100000000
Number of CPUs: 1
LLC sets: 2048
LLC ways: 16
Off-chip DRAM Size: 4096 MB Channels: 1 Width: 64-bit Data Rate: 6400 MT/s
CPU 0 runs ../SPEC2017//602.gcc_s-2226B.champsimtrace.xz
.xz
BTB has LRU replacement policy
ITLB has LRU replacement policy
DTLB has LRU replacement policy
STLB has LRU replacement policy
L1I has LRU replacement policy
IP Table Entries: 64
L1D has LRU replacement policy
Initialize SRRIP state for L2C
Initialize DRRIP state for LLC
Heartbeat CPU 0 instructions: 10000002 cycles: 3734631 heartbeat IPC: 2.67764 cumulative IPC: 2.67764 (Simulation time: 0 hr 7 min 39 sec) 
Heartbeat CPU 0 instructions: 20000001 cycles: 7470614 heartbeat IPC: 2.67667 cumulative IPC: 2.67716 (Simulation time: 0 hr 14 min 45 sec) 
Heartbeat CPU 0 instructions: 30000001 cycles: 11201472 heartbeat IPC: 2.68035 cumulative IPC: 2.67822 (Simulation time: 0 hr 21 min 38 sec) 
Heartbeat CPU 0 instructions: 40000002 cycles: 14933020 heartbeat IPC: 2.67985 cumulative IPC: 2.67863 (Simulation time: 0 hr 28 min 8 sec) 
Heartbeat CPU 0 instructions: 50000000 cycles: 18668930 heartbeat IPC: 2.67672 cumulative IPC: 2.67825 (Simulation time: 0 hr 33 min 56 sec) 

Warmup complete CPU 0 instructions: 50000004 cycles: 18668931 (Simulation time: 0 hr 33 min 56 sec) 

Heartbeat CPU 0 instructions: 60000002 cycles: 119313044 heartbeat IPC: 0.09936 cumulative IPC: 0.09936 (Simulation time: 0 hr 44 min 0 sec) 
Heartbeat CPU 0 instructions: 70000000 cycles: 220191871 heartbeat IPC: 0.0991288 cumulative IPC: 0.0992443 (Simulation time: 0 hr 53 min 58 sec) 
Heartbeat CPU 0 instructions: 80000000 cycles: 320107380 heartbeat IPC: 0.100085 cumulative IPC: 0.0995228 (Simulation time: 1 hr 2 min 40 sec) 
Heartbeat CPU 0 instructions: 90000001 cycles: 413775619 heartbeat IPC: 0.10676 cumulative IPC: 0.101238 (Simulation time: 1 hr 10 min 7 sec) 
Heartbeat CPU 0 instructions: 100000001 cycles: 440061646 heartbeat IPC: 0.38043 cumulative IPC: 0.118654 (Simulation time: 1 hr 12 min 53 sec) 
Heartbeat CPU 0 instructions: 110000000 cycles: 464473331 heartbeat IPC: 0.40964 cumulative IPC: 0.134588 (Simulation time: 1 hr 20 min 10 sec) 
Heartbeat CPU 0 instructions: 120000000 cycles: 489448693 heartbeat IPC: 0.400395 cumulative IPC: 0.148689 (Simulation time: 1 hr 28 min 29 sec) 
Heartbeat CPU 0 instructions: 130000001 cycles: 514212637 heartbeat IPC: 0.403813 cumulative IPC: 0.161439 (Simulation time: 1 hr 36 min 24 sec) 
Heartbeat CPU 0 instructions: 140000000 cycles: 538722964 heartbeat IPC: 0.407991 cumulative IPC: 0.173059 (Simulation time: 1 hr 43 min 37 sec) 
Heartbeat CPU 0 instructions: 150000001 cycles: 563244948 heartbeat IPC: 0.407797 cumulative IPC: 0.183629 (Simulation time: 1 hr 50 min 18 sec) 
Finished CPU 0 instructions: 100000000 cycles: 544576031 cumulative IPC: 0.183629 (Simulation time: 1 hr 50 min 18 sec) 

ChampSim completed all CPUs

Region of Interest Statistics

CPU 0 cumulative IPC: 0.183629 instructions: 100000000 cycles: 544576031

CPU 0 Average Load ROB stall cycles: 1.28653e+08
CPU 0 Fraction of times ROB stalled by Loads: 32.4424
CPU 0 Percentage of Load stall cycles in Total stall cycles: 8.45752e+08
Issued all: 350925233
Issued LT all: 342621410
rob_not_full_when_issued_lt_all: 25367245
Issued LT one: 318598620
rob_not_full_when_issued_lt_one: 24291972
 Total stall cycles: 527658767
 Total load stall cycles: 4462683591072028
Unique Load IPs: 236
CPU 0 NUM of IPS identified critical: 2
CPU 0 Num of Load IPs stalling ROB: 0
Threshold modification factor: 0
Trouble in retire width: -nan
MaC = Marked as critical.
lt_50_percent_before_Mac: 2
gt_90_percent_before_Mac: 0
gt_75_percent_before_Mac: 0
gt_50_percent_before_Mac: 0
stall_proportion_bin_same_before_after: 0
stall_proportion_bin_lower_before_after: 0
stall_proportion_bin_upper_before_after: 0
average_stall_proportion_before: 0.0114821
average_stall_proportion_after: 0.0405607
Critical_IP_Detector_Accuracy_70: 0.5
Critical_IP_Detector_Accuracy_80: 0.5
Critical_IP_Detector_Accuracy_90: 0.5
Critical_IP_Detector_Coverage_70: 1
Critical_IP_Detector_Coverage_80: 1
Critical_IP_Detector_Coverage_90: 1
stat_90_percent_critical_ip_stalls_freq: 9786133
stat_90_percent_non_critical_ip_stalls_freq: 18446744073699765483
AVERAGE_ROB_Occupancy_90_Percent_Critical_IP_Stalls: 269.239
AVERAGE_ROB_Occupancy_90_Percent_Non_Critical_IP_Stalls: 1.33437e-11
Critical_IP_ROB_Stalls_Bucket_0: 424738
Non-critical_IP_ROB_Stalls_Bucket_0: 193501
Critical_IP_ROB_Stalls_Bucket_1: 697422
Non-critical_IP_ROB_Stalls_Bucket_1: 456206
Critical_IP_ROB_Stalls_Bucket_2: 830189
Non-critical_IP_ROB_Stalls_Bucket_2: 85343
Critical_IP_ROB_Stalls_Bucket_3: 802385
Non-critical_IP_ROB_Stalls_Bucket_3: 93945
Critical_IP_ROB_Stalls_Bucket_4: 705946
Non-critical_IP_ROB_Stalls_Bucket_4: 160630
Critical_IP_ROB_Stalls_Bucket_5: 699505
Non-critical_IP_ROB_Stalls_Bucket_5: 37914
Critical_IP_ROB_Stalls_Bucket_6: 5841650
Non-critical_IP_ROB_Stalls_Bucket_6: 224128
0 => IPs accounting for >50 percent of stalls, 1 => 55, 2 => 60, 3 => 65 and so on till 90.
percent50: inf num IPs:  1
percent55: inf num IPs: 1
percent60: inf num IPs: 1
percent65: inf num IPs: 1
percent70: inf num IPs: 1
percent75: inf num IPs: 1
percent80: inf num IPs: 1
percent85: inf num IPs: 1
percent90: inf num IPs: 1
Critical_ROB_Stalls_Percent_0_Bucket_0: 415573
Non-critical_ROB_Stalls_Percent_0_Bucket_0: 202666
Critical_ROB_Stalls_Percent_0_Bucket_1: 685127
Non-critical_ROB_Stalls_Percent_0_Bucket_1: 468501
Critical_ROB_Stalls_Percent_0_Bucket_2: 809502
Non-critical_ROB_Stalls_Percent_0_Bucket_2: 106030
Critical_ROB_Stalls_Percent_0_Bucket_3: 783678
Non-critical_ROB_Stalls_Percent_0_Bucket_3: 112652
Critical_ROB_Stalls_Percent_0_Bucket_4: 690990
Non-critical_ROB_Stalls_Percent_0_Bucket_4: 175586
Critical_ROB_Stalls_Percent_0_Bucket_5: 685029
Non-critical_ROB_Stalls_Percent_0_Bucket_5: 52390
Critical_ROB_Stalls_Percent_0_Bucket_6: 5716234
Non-critical_ROB_Stalls_Percent_0_Bucket_6: 349544
Critical_ROB_Stalls_Percent_1_Bucket_0: 415573
Non-critical_ROB_Stalls_Percent_1_Bucket_0: 202666
Critical_ROB_Stalls_Percent_1_Bucket_1: 685127
Non-critical_ROB_Stalls_Percent_1_Bucket_1: 468501
Critical_ROB_Stalls_Percent_1_Bucket_2: 809502
Non-critical_ROB_Stalls_Percent_1_Bucket_2: 106030
Critical_ROB_Stalls_Percent_1_Bucket_3: 783678
Non-critical_ROB_Stalls_Percent_1_Bucket_3: 112652
Critical_ROB_Stalls_Percent_1_Bucket_4: 690990
Non-critical_ROB_Stalls_Percent_1_Bucket_4: 175586
Critical_ROB_Stalls_Percent_1_Bucket_5: 685029
Non-critical_ROB_Stalls_Percent_1_Bucket_5: 52390
Critical_ROB_Stalls_Percent_1_Bucket_6: 5716234
Non-critical_ROB_Stalls_Percent_1_Bucket_6: 349544
Critical_ROB_Stalls_Percent_2_Bucket_0: 415573
Non-critical_ROB_Stalls_Percent_2_Bucket_0: 202666
Critical_ROB_Stalls_Percent_2_Bucket_1: 685127
Non-critical_ROB_Stalls_Percent_2_Bucket_1: 468501
Critical_ROB_Stalls_Percent_2_Bucket_2: 809502
Non-critical_ROB_Stalls_Percent_2_Bucket_2: 106030
Critical_ROB_Stalls_Percent_2_Bucket_3: 783678
Non-critical_ROB_Stalls_Percent_2_Bucket_3: 112652
Critical_ROB_Stalls_Percent_2_Bucket_4: 690990
Non-critical_ROB_Stalls_Percent_2_Bucket_4: 175586
Critical_ROB_Stalls_Percent_2_Bucket_5: 685029
Non-critical_ROB_Stalls_Percent_2_Bucket_5: 52390
Critical_ROB_Stalls_Percent_2_Bucket_6: 5716234
Non-critical_ROB_Stalls_Percent_2_Bucket_6: 349544
Critical_ROB_Stalls_Percent_3_Bucket_0: 415573
Non-critical_ROB_Stalls_Percent_3_Bucket_0: 202666
Critical_ROB_Stalls_Percent_3_Bucket_1: 685127
Non-critical_ROB_Stalls_Percent_3_Bucket_1: 468501
Critical_ROB_Stalls_Percent_3_Bucket_2: 809502
Non-critical_ROB_Stalls_Percent_3_Bucket_2: 106030
Critical_ROB_Stalls_Percent_3_Bucket_3: 783678
Non-critical_ROB_Stalls_Percent_3_Bucket_3: 112652
Critical_ROB_Stalls_Percent_3_Bucket_4: 690990
Non-critical_ROB_Stalls_Percent_3_Bucket_4: 175586
Critical_ROB_Stalls_Percent_3_Bucket_5: 685029
Non-critical_ROB_Stalls_Percent_3_Bucket_5: 52390
Critical_ROB_Stalls_Percent_3_Bucket_6: 5716234
Non-critical_ROB_Stalls_Percent_3_Bucket_6: 349544
Critical_ROB_Stalls_Percent_4_Bucket_0: 415573
Non-critical_ROB_Stalls_Percent_4_Bucket_0: 202666
Critical_ROB_Stalls_Percent_4_Bucket_1: 685127
Non-critical_ROB_Stalls_Percent_4_Bucket_1: 468501
Critical_ROB_Stalls_Percent_4_Bucket_2: 809502
Non-critical_ROB_Stalls_Percent_4_Bucket_2: 106030
Critical_ROB_Stalls_Percent_4_Bucket_3: 783678
Non-critical_ROB_Stalls_Percent_4_Bucket_3: 112652
Critical_ROB_Stalls_Percent_4_Bucket_4: 690990
Non-critical_ROB_Stalls_Percent_4_Bucket_4: 175586
Critical_ROB_Stalls_Percent_4_Bucket_5: 685029
Non-critical_ROB_Stalls_Percent_4_Bucket_5: 52390
Critical_ROB_Stalls_Percent_4_Bucket_6: 5716234
Non-critical_ROB_Stalls_Percent_4_Bucket_6: 349544
Critical_ROB_Stalls_Percent_5_Bucket_0: 415573
Non-critical_ROB_Stalls_Percent_5_Bucket_0: 202666
Critical_ROB_Stalls_Percent_5_Bucket_1: 685127
Non-critical_ROB_Stalls_Percent_5_Bucket_1: 468501
Critical_ROB_Stalls_Percent_5_Bucket_2: 809502
Non-critical_ROB_Stalls_Percent_5_Bucket_2: 106030
Critical_ROB_Stalls_Percent_5_Bucket_3: 783678
Non-critical_ROB_Stalls_Percent_5_Bucket_3: 112652
Critical_ROB_Stalls_Percent_5_Bucket_4: 690990
Non-critical_ROB_Stalls_Percent_5_Bucket_4: 175586
Critical_ROB_Stalls_Percent_5_Bucket_5: 685029
Non-critical_ROB_Stalls_Percent_5_Bucket_5: 52390
Critical_ROB_Stalls_Percent_5_Bucket_6: 5716234
Non-critical_ROB_Stalls_Percent_5_Bucket_6: 349544
Critical_ROB_Stalls_Percent_6_Bucket_0: 415573
Non-critical_ROB_Stalls_Percent_6_Bucket_0: 202666
Critical_ROB_Stalls_Percent_6_Bucket_1: 685127
Non-critical_ROB_Stalls_Percent_6_Bucket_1: 468501
Critical_ROB_Stalls_Percent_6_Bucket_2: 809502
Non-critical_ROB_Stalls_Percent_6_Bucket_2: 106030
Critical_ROB_Stalls_Percent_6_Bucket_3: 783678
Non-critical_ROB_Stalls_Percent_6_Bucket_3: 112652
Critical_ROB_Stalls_Percent_6_Bucket_4: 690990
Non-critical_ROB_Stalls_Percent_6_Bucket_4: 175586
Critical_ROB_Stalls_Percent_6_Bucket_5: 685029
Non-critical_ROB_Stalls_Percent_6_Bucket_5: 52390
Critical_ROB_Stalls_Percent_6_Bucket_6: 5716234
Non-critical_ROB_Stalls_Percent_6_Bucket_6: 349544
Critical_ROB_Stalls_Percent_7_Bucket_0: 415573
Non-critical_ROB_Stalls_Percent_7_Bucket_0: 202666
Critical_ROB_Stalls_Percent_7_Bucket_1: 685127
Non-critical_ROB_Stalls_Percent_7_Bucket_1: 468501
Critical_ROB_Stalls_Percent_7_Bucket_2: 809502
Non-critical_ROB_Stalls_Percent_7_Bucket_2: 106030
Critical_ROB_Stalls_Percent_7_Bucket_3: 783678
Non-critical_ROB_Stalls_Percent_7_Bucket_3: 112652
Critical_ROB_Stalls_Percent_7_Bucket_4: 690990
Non-critical_ROB_Stalls_Percent_7_Bucket_4: 175586
Critical_ROB_Stalls_Percent_7_Bucket_5: 685029
Non-critical_ROB_Stalls_Percent_7_Bucket_5: 52390
Critical_ROB_Stalls_Percent_7_Bucket_6: 5716234
Non-critical_ROB_Stalls_Percent_7_Bucket_6: 349544
Critical_ROB_Stalls_Percent_8_Bucket_0: 415573
Non-critical_ROB_Stalls_Percent_8_Bucket_0: 202666
Critical_ROB_Stalls_Percent_8_Bucket_1: 685127
Non-critical_ROB_Stalls_Percent_8_Bucket_1: 468501
Critical_ROB_Stalls_Percent_8_Bucket_2: 809502
Non-critical_ROB_Stalls_Percent_8_Bucket_2: 106030
Critical_ROB_Stalls_Percent_8_Bucket_3: 783678
Non-critical_ROB_Stalls_Percent_8_Bucket_3: 112652
Critical_ROB_Stalls_Percent_8_Bucket_4: 690990
Non-critical_ROB_Stalls_Percent_8_Bucket_4: 175586
Critical_ROB_Stalls_Percent_8_Bucket_5: 685029
Non-critical_ROB_Stalls_Percent_8_Bucket_5: 52390
Critical_ROB_Stalls_Percent_8_Bucket_6: 5716234
Non-critical_ROB_Stalls_Percent_8_Bucket_6: 349544
Average ROB occupancy Load Stall Begin: 251.835
Average ROB occupancy Load Stall End: 256.005
Min ROB occupancy Load Stall Begin: 1
Max ROB occupancy Load Stall Begin: 352
Min ROB occupancy Load Stall End: 1
Max ROB occupancy Load Stall End: 352
Average ROB occupancy Critical Load Stall Begin: 252.22
Average ROB occupancy Critical Load Stall End: 255.797
Min ROB occupancy Critical Load Stall Begin: 2
Max ROB occupancy Critical Load Stall Begin: 352
Min ROB occupancy Critical Load Stall End: 2
Max ROB occupancy Critical Load Stall End: 352
 ROB Load Stall Begin Bucket Count 0: 785717
 ROB Load Stall End Bucket Count 0: 618239
 ROB Critical Load Stall Begin Bucket Count 0: 254337
 ROB Critical Load Stall End Bucket Count 0: 254298
 ROB Load Stall Begin Bucket Count 1: 1108330
 ROB Load Stall End Bucket Count 1: 1153628
 ROB Critical Load Stall Begin Bucket Count 1: 538967
 ROB Critical Load Stall End Bucket Count 1: 481089
 ROB Load Stall Begin Bucket Count 2: 921260
 ROB Load Stall End Bucket Count 2: 915532
 ROB Critical Load Stall Begin Bucket Count 2: 619104
 ROB Critical Load Stall End Bucket Count 2: 615257
 ROB Load Stall Begin Bucket Count 3: 889292
 ROB Load Stall End Bucket Count 3: 896330
 ROB Critical Load Stall Begin Bucket Count 3: 581943
 ROB Critical Load Stall End Bucket Count 3: 582761
 ROB Load Stall Begin Bucket Count 4: 860512
 ROB Load Stall End Bucket Count 4: 866576
 ROB Critical Load Stall Begin Bucket Count 4: 506763
 ROB Critical Load Stall End Bucket Count 4: 503866
 ROB Load Stall Begin Bucket Count 5: 726544
 ROB Load Stall End Bucket Count 5: 737419
 ROB Critical Load Stall Begin Bucket Count 5: 499951
 ROB Critical Load Stall End Bucket Count 5: 510707
 ROB Load Stall Begin Bucket Count 6: 5961847
 ROB Load Stall End Bucket Count 6: 6065778
 ROB Critical Load Stall Begin Bucket Count 6: 2996699
 ROB Critical Load Stall End Bucket Count 6: 3049787
PIST Tag Read Accesses: 0
PIST Read Accesses: 0
PIST Tag Write Accesses: 0
PIST Write Accesses: 0
Criticality detector called times: 0
Max global_stall_cycles_count: 0
Threshold Modified: 0 times, factor: 0
Sturdy critical IP cache stats: 
 Unused entries: 0
CIC Tag Read Accesses: 0
CIC Read Accesses: 0
CIC Tag Write Accesses: 0
CIC Write Accesses: 0
Wobbly critical IP cache stats: 
 Unused entries: 27
CIC Tag Read Accesses: 314251728
CIC Read Accesses: 0
CIC Tag Write Accesses: 27480
CIC Write Accesses: 0
ITLB TOTAL     ACCESS:   20886246  HIT:   20886246  MISS:          0  HIT %:        100  MISS %:          0   MPKI: 0
ITLB LOAD TRANSLATION ACCESS:   20886246  HIT:   20886246  MISS:          0  HIT %:        100  MISS %:          0   MPKI: 0
ITLB PREFETCH  REQUESTED:          0  ISSUED:          0  USEFUL:          0  USELESS:          0
ITLB USEFUL LOAD PREFETCHES:          0 PREFETCH ISSUED TO LOWER LEVEL:          0  ACCURACY: -nan
ITLB TIMELY PREFETCHES:          0 LATE PREFETCHES: 0 DROPPED PREFETCHES: 0
ITLB PREFETCHES SAME FILL-ORIGIN LEVEL: 0 DIFFERENT FILL-ORIGIN LEVEL: 0
ITLB AVERAGE MISS LATENCY: -nan cycles
ITLB RQ	ACCESS:   21232585	FORWARD:          0	MERGED:     346340	TO_CACHE:   20886245

DTLB TOTAL     ACCESS:   15352781  HIT:   15216684  MISS:     136097  HIT %:    99.1135  MISS %:   0.886465   MPKI: 1.36097
DTLB LOAD TRANSLATION ACCESS:   15352781  HIT:   15216684  MISS:     136097  HIT %:    99.1135  MISS %:   0.886465   MPKI: 1.36097
DTLB PREFETCH  REQUESTED:          0  ISSUED:          0  USEFUL:          0  USELESS:          0
DTLB USEFUL LOAD PREFETCHES:          0 PREFETCH ISSUED TO LOWER LEVEL:          0  ACCURACY: -nan
DTLB TIMELY PREFETCHES:          0 LATE PREFETCHES: 0 DROPPED PREFETCHES: 0
DTLB PREFETCHES SAME FILL-ORIGIN LEVEL: 0 DIFFERENT FILL-ORIGIN LEVEL: 0
DTLB AVERAGE MISS LATENCY: 68.847 cycles
DTLB RQ	ACCESS:   18089986	FORWARD:          0	MERGED:    2736677	TO_CACHE:   15353309

STLB TOTAL     ACCESS:    3250194  HIT:    3118818  MISS:     131376  HIT %:    95.9579  MISS %:     4.0421   MPKI: 1.31376
STLB LOAD TRANSLATION ACCESS:     136097  HIT:       4723  MISS:     131374  HIT %:    3.47032  MISS %:    96.5297   MPKI: 1.31374
STLB TRANSLATION FROM L1D PREFETCHER ACCESS:    3114097  HIT:    3114095  MISS:          2  HIT %:    99.9999  MISS %: 6.42241e-05   MPKI: 2e-05
STLB PREFETCH  REQUESTED:          0  ISSUED:          0  USEFUL:          2  USELESS:          0
STLB USEFUL LOAD PREFETCHES:          2 PREFETCH ISSUED TO LOWER LEVEL:          0  ACCURACY: inf
STLB TIMELY PREFETCHES:          2 LATE PREFETCHES: 0 DROPPED PREFETCHES: 0
STLB PREFETCHES SAME FILL-ORIGIN LEVEL: 0 DIFFERENT FILL-ORIGIN LEVEL: 0
STLB AVERAGE MISS LATENCY: 61.9975 cycles
STLB RQ	ACCESS:    4779374	FORWARD:          0	MERGED:    1529181	TO_CACHE:    3250193

STLB Hit, L1D data hit: 0
STLB Hit, L2C data hit: 0
STLB Hit, LLC data hit: 0
STLB Hit, LLC data miss: 0
STLB STLB hints to L2: 0
L1D TOTAL     ACCESS:   21668061  HIT:   14586765  MISS:    7081296  HIT %:    67.3192  MISS %:    32.6808   MPKI: 70.813
L1D LOAD      ACCESS:   15743240  HIT:   12846920  MISS:    2896320  HIT %:    81.6028  MISS %:    18.3972   MPKI: 28.9632
L1D RFO       ACCESS:    1325302  HIT:    1322549  MISS:       2753  HIT %:    99.7923  MISS %:   0.207726   MPKI: 0.02753
L1D PREFETCH  ACCESS:    4599519  HIT:     417296  MISS:    4182223  HIT %:     9.0726  MISS %:    90.9274   MPKI: 41.8222
L1D PREFETCH  REQUESTED:    9286563  ISSUED:    9286556  USEFUL:    4103310  USELESS:      78966
L1D USEFUL LOAD PREFETCHES:    4103310 PREFETCH ISSUED TO LOWER LEVEL:    4215513  ACCURACY: 97.3383
L1D TIMELY PREFETCHES:    4103310 LATE PREFETCHES: 33192 DROPPED PREFETCHES: 0
L1D PREFETCHES SAME FILL-ORIGIN LEVEL: 4215513 DIFFERENT FILL-ORIGIN LEVEL: 0
L1D AVERAGE MISS LATENCY: 2.29568e+06 cycles
L1D RQ	ACCESS:   35893802	FORWARD:          0	MERGED:   19126308	TO_CACHE:   16764672
L1D WQ	ACCESS:    1469578	FORWARD:       2822	MERGED:     144264	TO_CACHE:    1325314
L1D PQ	ACCESS:    4643278	FORWARD:          0	MERGED:          0	TO_CACHE:    4643278

L1D UNIQUE REGIONS ACCESSED: 0
L1D REGIONS CONFLICTS: 0
L1D Cross Page Prefetch Requests: 0
L1D Same Page Prefetch Requests: 9377542
L1D ROI Sum of L1D PQ occupancy: 59900058
L1D PREFETCHES PUSHED FROM L2C: 0
L1I TOTAL     ACCESS:   21232583  HIT:   21232558  MISS:         25  HIT %:    99.9999  MISS %: 0.000117744   MPKI: 0.00025
L1I LOAD      ACCESS:   21232583  HIT:   21232558  MISS:         25  HIT %:    99.9999  MISS %: 0.000117744   MPKI: 0.00025
L1I PREFETCH  REQUESTED:          0  ISSUED:          0  USEFUL:          0  USELESS:          0
L1I USEFUL LOAD PREFETCHES:          0 PREFETCH ISSUED TO LOWER LEVEL:          0  ACCURACY: -nan
L1I TIMELY PREFETCHES:          0 LATE PREFETCHES: 0 DROPPED PREFETCHES: 0
L1I PREFETCHES SAME FILL-ORIGIN LEVEL: 0 DIFFERENT FILL-ORIGIN LEVEL: 0
L1I AVERAGE MISS LATENCY: 206 cycles
L1I RQ	ACCESS:   31377157	FORWARD:          0	MERGED:   10144572	TO_CACHE:   21232585

BTB TOTAL     ACCESS:   23931406  HIT:   23930814  MISS:        592  HIT %:    99.9975  MISS %: 0.00247374   MPKI: 0.00592
BTB BRANCH_DIRECT_JUMP	ACCESS:     340935  HIT:     340899  MISS:         36
BTB BRANCH_INDIRECT	ACCESS:          0  HIT:          0  MISS:          0
BTB BRANCH_CONDITIONAL	ACCESS:   23252725  HIT:   23252648  MISS:         77
BTB BRANCH_DIRECT_CALL	ACCESS:     168873  HIT:     168857  MISS:         16
BTB BRANCH_INDIRECT_CALL	ACCESS:          0  HIT:          0  MISS:          0
BTB BRANCH_RETURN	ACCESS:     168873  HIT:     168410  MISS:        463
BTB BRANCH_OTHER ACCESS:          0  HIT:          0  MISS:          0

L2C TOTAL     ACCESS:   10548854  HIT:    3401570  MISS:    7147284  HIT %:    32.2459  MISS %:    67.7541   MPKI: 71.4728
L2C LOAD      ACCESS:    2863153  HIT:       7497  MISS:    2855656  HIT %:   0.261844  MISS %:    99.7382   MPKI: 28.5566
L2C DATA LOAD MPKI: 28.5563
L2C INSTRUCTION LOAD MPKI: 0.00025
L2C RFO       ACCESS:       2753  HIT:          1  MISS:       2752  HIT %:   0.036324  MISS %:    99.9637   MPKI: 0.02752
L2C PREFETCH  ACCESS:    7537386  HIT:    3279447  MISS:    4257939  HIT %:    43.5091  MISS %:    56.4909   MPKI: 42.5794
L2C DATA PREFETCH MPKI: 42.5794
L2C INSTRUCTION PREFETCH MPKI: 0
L2C WRITEBACK ACCESS:      11210  HIT:      10867  MISS:        343  HIT %:    96.9402  MISS %:    3.05977   MPKI: 0.00343
L2C LOAD TRANSLATION ACCESS:     134350  HIT:     103756  MISS:      30594  HIT %:    77.2281  MISS %:    22.7719   MPKI: 0.30594
L2C TRANSLATION FROM L1D PREFETCHER ACCESS:          2  HIT:          2  MISS:          0  HIT %:        100  MISS %:          0   MPKI: 0
L2C PREFETCH  REQUESTED:    8571989  ISSUED:    8571987  USEFUL:       4968  USELESS:    4252957
L2C USEFUL LOAD PREFETCHES:       4968 PREFETCH ISSUED TO LOWER LEVEL:    4258121  ACCURACY: 0.116671
L2C TIMELY PREFETCHES:       4968 LATE PREFETCHES: 181 DROPPED PREFETCHES: 0
L2C PREFETCHES SAME FILL-ORIGIN LEVEL: 3488835 DIFFERENT FILL-ORIGIN LEVEL: 0
L2C AVERAGE MISS LATENCY: 106.851 cycles
L2C RQ	ACCESS:    3000258	FORWARD:          0	MERGED:          0	TO_CACHE:    3000258
L2C WQ	ACCESS:      11210	FORWARD:          0	MERGED:          0	TO_CACHE:      11210
L2C PQ	ACCESS:   12787403	FORWARD:          0	MERGED:    2433785	TO_CACHE:   10353618

L2C Instructions Evicting Data 25
L2C Translations Evicting Data 30454
L2C Data Evicting Data 7085858
L2C Instructions Evicting Instructions 0
L2C Translations Evicting Instructions 0
L2C Data Evicting Instructions 25
L2C Instructions Evicting Translations 0
L2C Translations Evicting Translations 140
L2C Data Evicting Translations 30439
L2C Dense regions hint from L2: 0
PSCL5 TOTAL     ACCESS:     131375  HIT:     131375  MISS:          0  HIT %:        100  MISS %:          0   MPKI: 0
PSCL5 LOAD TRANSLATION ACCESS:     131373  HIT:     131373  MISS:          0  HIT %:        100  MISS %:          0   MPKI: 0
PSCL5 TRANSLATION FROM L1D PREFETCHER ACCESS:          2  HIT:          2  MISS:          0  HIT %:        100  MISS %:          0   MPKI: 0
PSCL5 PREFETCH  REQUESTED:          0  ISSUED:          0  USEFUL:          0  USELESS:          0
PSCL5 USEFUL LOAD PREFETCHES:          0 PREFETCH ISSUED TO LOWER LEVEL:          0  ACCURACY: -nan
PSCL5 TIMELY PREFETCHES:          0 LATE PREFETCHES: 0 DROPPED PREFETCHES: 0
PSCL5 PREFETCHES SAME FILL-ORIGIN LEVEL: 0 DIFFERENT FILL-ORIGIN LEVEL: 0

PSCL4 TOTAL     ACCESS:     131375  HIT:     131375  MISS:          0  HIT %:        100  MISS %:          0   MPKI: 0
PSCL4 LOAD TRANSLATION ACCESS:     131373  HIT:     131373  MISS:          0  HIT %:        100  MISS %:          0   MPKI: 0
PSCL4 TRANSLATION FROM L1D PREFETCHER ACCESS:          2  HIT:          2  MISS:          0  HIT %:        100  MISS %:          0   MPKI: 0
PSCL4 PREFETCH  REQUESTED:          0  ISSUED:          0  USEFUL:          0  USELESS:          0
PSCL4 USEFUL LOAD PREFETCHES:          0 PREFETCH ISSUED TO LOWER LEVEL:          0  ACCURACY: -nan
PSCL4 TIMELY PREFETCHES:          0 LATE PREFETCHES: 0 DROPPED PREFETCHES: 0
PSCL4 PREFETCHES SAME FILL-ORIGIN LEVEL: 0 DIFFERENT FILL-ORIGIN LEVEL: 0

PSCL3 TOTAL     ACCESS:     131372  HIT:     131360  MISS:         12  HIT %:    99.9909  MISS %: 0.00913437   MPKI: 0.00012
PSCL3 LOAD TRANSLATION ACCESS:     131370  HIT:     131358  MISS:         12  HIT %:    99.9909  MISS %: 0.00913451   MPKI: 0.00012
PSCL3 TRANSLATION FROM L1D PREFETCHER ACCESS:          2  HIT:          2  MISS:          0  HIT %:        100  MISS %:          0   MPKI: 0
PSCL3 PREFETCH  REQUESTED:          0  ISSUED:          0  USEFUL:          0  USELESS:          0
PSCL3 USEFUL LOAD PREFETCHES:          0 PREFETCH ISSUED TO LOWER LEVEL:          0  ACCURACY: -nan
PSCL3 TIMELY PREFETCHES:          0 LATE PREFETCHES: 0 DROPPED PREFETCHES: 0
PSCL3 PREFETCHES SAME FILL-ORIGIN LEVEL: 0 DIFFERENT FILL-ORIGIN LEVEL: 0

PSCL2 TOTAL     ACCESS:     131375  HIT:     128405  MISS:       2970  HIT %:    97.7393  MISS %:     2.2607   MPKI: 0.0297
PSCL2 LOAD TRANSLATION ACCESS:     131373  HIT:     128403  MISS:       2970  HIT %:    97.7393  MISS %:    2.26074   MPKI: 0.0297
PSCL2 TRANSLATION FROM L1D PREFETCHER ACCESS:          2  HIT:          2  MISS:          0  HIT %:        100  MISS %:          0   MPKI: 0
PSCL2 PREFETCH  REQUESTED:          0  ISSUED:          0  USEFUL:          0  USELESS:          0
PSCL2 USEFUL LOAD PREFETCHES:          0 PREFETCH ISSUED TO LOWER LEVEL:          0  ACCURACY: -nan
PSCL2 TIMELY PREFETCHES:          0 LATE PREFETCHES: 0 DROPPED PREFETCHES: 0
PSCL2 PREFETCHES SAME FILL-ORIGIN LEVEL: 0 DIFFERENT FILL-ORIGIN LEVEL: 0

LLC TOTAL     ACCESS:    7158136  HIT:      15475  MISS:    7142661  HIT %:   0.216188  MISS %:    99.7838   MPKI: 71.4266
LLC LOAD      ACCESS:    2855475  HIT:        595  MISS:    2854880  HIT %:  0.0208372  MISS %:    99.9792   MPKI: 28.5488
LLC RFO       ACCESS:       2752  HIT:          0  MISS:       2752  HIT %:          0  MISS %:        100   MPKI: 0.02752
LLC PREFETCH  ACCESS:    4258120  HIT:       2258  MISS:    4255862  HIT %:  0.0530281  MISS %:     99.947   MPKI: 42.5586
LLC WRITEBACK ACCESS:      11195  HIT:      10908  MISS:        287  HIT %:    97.4364  MISS %:    2.56364   MPKI: 0.00287
LLC LOAD TRANSLATION ACCESS:      30594  HIT:       1714  MISS:      28880  HIT %:    5.60241  MISS %:    94.3976   MPKI: 0.2888
LLC PREFETCH  REQUESTED:          0  ISSUED:          0  USEFUL:        131  USELESS:    4255766
LLC USEFUL LOAD PREFETCHES:        131 PREFETCH ISSUED TO LOWER LEVEL:    4255863  ACCURACY: 0.00307811
LLC TIMELY PREFETCHES:        131 LATE PREFETCHES: 0 DROPPED PREFETCHES: 0
LLC PREFETCHES SAME FILL-ORIGIN LEVEL: 0 DIFFERENT FILL-ORIGIN LEVEL: 0
LLC AVERAGE MISS LATENCY: 76.9043 cycles
LLC RQ	ACCESS:    2888821	FORWARD:          0	MERGED:          0	TO_CACHE:    2888821
LLC WQ	ACCESS:      11195	FORWARD:          0	MERGED:          0	TO_CACHE:      11195
LLC PQ	ACCESS:    4258121	FORWARD:          0	MERGED:          0	TO_CACHE:    4258121

LLC Dense regions hint to LLC: 0

RAW hits: 9514
Loads Generated: 35903318
Loads sent to L1D: 35893802
Stores Generated: 1469578
Stores sent to L1D: 1469578
Major fault: 0 Minor fault: 48987
Allocated PAGES: 48987

stream: 
stream:times selected: 15161784
stream:pref_filled: 7445489
stream:pref_useful: 7176618
stream:pref_late: 48727
stream:misses: 3950
stream:misses_by_poll: 0

CS: 
CS:times selected: 12069861
CS:pref_filled: 38925
CS:pref_useful: 37804
CS:pref_late: 1750
CS:misses: 216964
CS:misses_by_poll: 175

CPLX: 
CPLX:times selected: 3090025
CPLX:pref_filled: 339277
CPLX:pref_useful: 265644
CPLX:pref_late: 1780
CPLX:misses: 42710
CPLX:misses_by_poll: 1711

NL_L1: 
NL:times selected: 555
NL:pref_filled: 4
NL:pref_useful: 4
NL:pref_late: 5
NL:misses: 41
NL:misses_by_poll: 0

total selections: 30322225
total_filled: 4182223
total_useful: 4103310
total_late: 54953
total_polluted: 1886
total_misses_after_warmup: 120558
conflicts: 0
Degree Incremented Times: 173388
Degree Decremented Times: 0

L1 IP Table Write Accesses: 7747725
L1 IP Table Read Accesses: 7747725
L1 RST Write Accesses: 5607393
L1 RST Read Accesses: 11214786
L1 CSPT Write Accesses: 5607393
L1 CSPT Read Accesses: 11070001
L1 RR Filter Tag Write Accesses: 4643285
L1 RR Filter Tag Read Accesses: 1356656130
L1 IP Table Tag Write Accesses: 7747725
L1 IP Table Tag Read Accesses: 7747725
L1 RST Tag Write Accesses: 0
L1 RST Tag Read Accesses: 50468638
L1 RR Filter Write Accesses: 0
L1 RR Filter Read Accesses: 47222543
test: 1203097
L2 IP Table Read Accesses: 3525094
L2 IP Table Write Accesses: 3448568
L2 IP Table Tag Read Accesses: 1762547
L2 IP Table Tag Write Accesses: 1762547

DRAM Statistics
 CHANNEL 0
 RQ ROW_BUFFER_HIT:    6728672  ROW_BUFFER_MISS:     413703
 DBUS_CONGESTED:        929
 WQ ROW_BUFFER_HIT:       4049  ROW_BUFFER_MISS:       7145  FULL:          0

 AVG_CONGESTED_CYCLE: 3
 All warmup complete: 2
Channel 0 Bank busy for read cycles: 0
Channel 0 Bank busy for write cycles: 0
Channel 0
Rank 0
0banks busy for read cycles: 307331303
0banks busy for write cycles: 7777
1banks busy for read cycles: 168767419
1banks busy for write cycles: 4907367
2banks busy for read cycles: 20951623
2banks busy for write cycles: 1081145
3banks busy for read cycles: 14527989
3banks busy for write cycles: 300980
4banks busy for read cycles: 5711141
4banks busy for write cycles: 52268
5banks busy for read cycles: 11538878
5banks busy for write cycles: 15556
6banks busy for read cycles: 2903263
6banks busy for write cycles: 1983
7banks busy for read cycles: 5530060
7banks busy for write cycles: 299
8banks busy for read cycles: 946981
8banks busy for write cycles: 0

CPU 0 Branch Prediction Accuracy: 99.7034% MPKI: 1.05722 Average ROB Occupancy at Mispredict: 256.785
Branch types
NOT_BRANCH: 64349938 64.3499%
BRANCH_DIRECT_JUMP: 340935 0.340935%
BRANCH_INDIRECT: 0 0%
BRANCH_CONDITIONAL: 34971407 34.9714%
BRANCH_DIRECT_CALL: 168873 0.168873%
BRANCH_INDIRECT_CALL: 0 0%
BRANCH_RETURN: 168873 0.168873%
BRANCH_OTHER: 0 0%

DRAM PAGES: 1048576
Allocated PAGES: 48987
