
*** ChampSim Multicore Out-of-Order Simulator ***

Warmup Instructions: 50000000
Simulation Instructions: 100000000
Number of CPUs: 1
LLC sets: 2048
LLC ways: 16
Off-chip DRAM Size: 4096 MB Channels: 1 Width: 64-bit Data Rate: 6400 MT/s
CPU 0 runs ../SPEC2017//602.gcc_s-2226B.champsimtrace.xz
.xz
BTB has LRU replacement policy
ITLB has LRU replacement policy
DTLB has LRU replacement policy
STLB has LRU replacement policy
L1I has LRU replacement policy
IP Table Entries: 64
L1D has LRU replacement policy
Initialize SRRIP state for L2C
Initialize DRRIP state for LLC
Heartbeat CPU 0 instructions: 10000002 cycles: 3798566 heartbeat IPC: 2.63257 cumulative IPC: 2.63257 (Simulation time: 0 hr 3 min 17 sec) 
Heartbeat CPU 0 instructions: 20000001 cycles: 7599469 heartbeat IPC: 2.63095 cumulative IPC: 2.63176 (Simulation time: 0 hr 6 min 19 sec) 
Heartbeat CPU 0 instructions: 30000001 cycles: 11396025 heartbeat IPC: 2.63397 cumulative IPC: 2.6325 (Simulation time: 0 hr 9 min 20 sec) 
Heartbeat CPU 0 instructions: 40000002 cycles: 15192293 heartbeat IPC: 2.63417 cumulative IPC: 2.63291 (Simulation time: 0 hr 12 min 21 sec) 
Heartbeat CPU 0 instructions: 50000000 cycles: 18992490 heartbeat IPC: 2.63144 cumulative IPC: 2.63262 (Simulation time: 0 hr 15 min 18 sec) 

Warmup complete CPU 0 instructions: 50000004 cycles: 18992491 (Simulation time: 0 hr 15 min 18 sec) 

Heartbeat CPU 0 instructions: 60000001 cycles: 44467350 heartbeat IPC: 0.392544 cumulative IPC: 0.392544 (Simulation time: 0 hr 20 min 56 sec) 
Heartbeat CPU 0 instructions: 70000000 cycles: 69616326 heartbeat IPC: 0.39763 cumulative IPC: 0.395071 (Simulation time: 0 hr 26 min 44 sec) 
Heartbeat CPU 0 instructions: 80000000 cycles: 94915227 heartbeat IPC: 0.395274 cumulative IPC: 0.395139 (Simulation time: 0 hr 32 min 8 sec) 
Heartbeat CPU 0 instructions: 90000001 cycles: 120284250 heartbeat IPC: 0.394182 cumulative IPC: 0.394899 (Simulation time: 0 hr 37 min 3 sec) 
Heartbeat CPU 0 instructions: 100000001 cycles: 145606681 heartbeat IPC: 0.394907 cumulative IPC: 0.3949 (Simulation time: 0 hr 41 min 51 sec) 
Heartbeat CPU 0 instructions: 110000000 cycles: 170729123 heartbeat IPC: 0.39805 cumulative IPC: 0.395422 (Simulation time: 0 hr 46 min 7 sec) 
Heartbeat CPU 0 instructions: 120000000 cycles: 196204344 heartbeat IPC: 0.392538 cumulative IPC: 0.395007 (Simulation time: 0 hr 54 min 34 sec) 
Heartbeat CPU 0 instructions: 130000001 cycles: 221592703 heartbeat IPC: 0.393881 cumulative IPC: 0.394866 (Simulation time: 1 hr 3 min 34 sec) 
Heartbeat CPU 0 instructions: 140000000 cycles: 246838816 heartbeat IPC: 0.396101 cumulative IPC: 0.395003 (Simulation time: 1 hr 12 min 14 sec) 
Heartbeat CPU 0 instructions: 150000001 cycles: 272050862 heartbeat IPC: 0.396636 cumulative IPC: 0.395166 (Simulation time: 1 hr 19 min 28 sec) 
Finished CPU 0 instructions: 100000000 cycles: 253058385 cumulative IPC: 0.395166 (Simulation time: 1 hr 19 min 28 sec) 

ChampSim completed all CPUs

Region of Interest Statistics

CPU 0 cumulative IPC: 0.395166 instructions: 100000000 cycles: 253058385

CPU 0 Average Load ROB stall cycles: 4.86238e+07
CPU 0 Fraction of times ROB stalled by Loads: 33.3997
CPU 0 Percentage of Load stall cycles in Total stall cycles: 7.50709e+08
Issued all: 140280258
Issued LT all: 130712076
rob_not_full_when_issued_lt_all: 29162382
Issued LT one: 109876607
rob_not_full_when_issued_lt_one: 28045420
FVP critical_dynamic_instances_0: 35356008
FVP unique_critical_ips_0: 102
 Total stall cycles: 237019439
 Total load stall cycles: 1779326969912619
Unique Load IPs: 236
CPU 0 NUM of IPS identified critical: 0
CPU 0 Num of Load IPs stalling ROB: 0
Threshold modification factor: 0
Trouble in retire width: -nan
MaC = Marked as critical.
lt_50_percent_before_Mac: 0
gt_90_percent_before_Mac: 0
gt_75_percent_before_Mac: 0
gt_50_percent_before_Mac: 0
stall_proportion_bin_same_before_after: 0
stall_proportion_bin_lower_before_after: 0
stall_proportion_bin_upper_before_after: 0
average_stall_proportion_before: -nan
average_stall_proportion_after: -nan
Critical IP stalls, total frequency: 0
Non-critical IP stalls, total frequency: 0
Total Freq all stalling IPs: 0
Critical_IP_Detector_Accuracy_70: 0.00980392
Critical_IP_Detector_Accuracy_80: 0.00980392
Critical_IP_Detector_Accuracy_90: 0.00980392
Critical_IP_Detector_Coverage_70: 1
Critical_IP_Detector_Coverage_80: 1
Critical_IP_Detector_Coverage_90: 1
stat_90_percent_critical_ip_stalls_freq: 10665052
stat_90_percent_non_critical_ip_stalls_freq: 18446744073698886564
AVERAGE_ROB_Occupancy_90_Percent_Critical_IP_Stalls: 258.132
AVERAGE_ROB_Occupancy_90_Percent_Non_Critical_IP_Stalls: 1.3536e-11
Critical_IP_ROB_Stalls_Bucket_0: 0
Non-critical_IP_ROB_Stalls_Bucket_0: 674437
Critical_IP_ROB_Stalls_Bucket_1: 0
Non-critical_IP_ROB_Stalls_Bucket_1: 1373418
Critical_IP_ROB_Stalls_Bucket_2: 0
Non-critical_IP_ROB_Stalls_Bucket_2: 1150103
Critical_IP_ROB_Stalls_Bucket_3: 0
Non-critical_IP_ROB_Stalls_Bucket_3: 1114558
Critical_IP_ROB_Stalls_Bucket_4: 0
Non-critical_IP_ROB_Stalls_Bucket_4: 1094868
Critical_IP_ROB_Stalls_Bucket_5: 0
Non-critical_IP_ROB_Stalls_Bucket_5: 944667
Critical_IP_ROB_Stalls_Bucket_6: 0
Non-critical_IP_ROB_Stalls_Bucket_6: 5870136
0 => IPs accounting for >50 percent of stalls, 1 => 55, 2 => 60, 3 => 65 and so on till 90.
percent50: inf num IPs:  1
percent55: inf num IPs: 1
percent60: inf num IPs: 1
percent65: inf num IPs: 1
percent70: inf num IPs: 1
percent75: inf num IPs: 1
percent80: inf num IPs: 1
percent85: inf num IPs: 1
percent90: inf num IPs: 1
Critical_ROB_Stalls_Percent_0_Bucket_0: 452833
Non-critical_ROB_Stalls_Percent_0_Bucket_0: 221604
Critical_ROB_Stalls_Percent_0_Bucket_1: 859758
Non-critical_ROB_Stalls_Percent_0_Bucket_1: 513660
Critical_ROB_Stalls_Percent_0_Bucket_2: 1037663
Non-critical_ROB_Stalls_Percent_0_Bucket_2: 112440
Critical_ROB_Stalls_Percent_0_Bucket_3: 977761
Non-critical_ROB_Stalls_Percent_0_Bucket_3: 136797
Critical_ROB_Stalls_Percent_0_Bucket_4: 887670
Non-critical_ROB_Stalls_Percent_0_Bucket_4: 207198
Critical_ROB_Stalls_Percent_0_Bucket_5: 896382
Non-critical_ROB_Stalls_Percent_0_Bucket_5: 48285
Critical_ROB_Stalls_Percent_0_Bucket_6: 5552985
Non-critical_ROB_Stalls_Percent_0_Bucket_6: 317151
Critical_ROB_Stalls_Percent_1_Bucket_0: 452833
Non-critical_ROB_Stalls_Percent_1_Bucket_0: 221604
Critical_ROB_Stalls_Percent_1_Bucket_1: 859758
Non-critical_ROB_Stalls_Percent_1_Bucket_1: 513660
Critical_ROB_Stalls_Percent_1_Bucket_2: 1037663
Non-critical_ROB_Stalls_Percent_1_Bucket_2: 112440
Critical_ROB_Stalls_Percent_1_Bucket_3: 977761
Non-critical_ROB_Stalls_Percent_1_Bucket_3: 136797
Critical_ROB_Stalls_Percent_1_Bucket_4: 887670
Non-critical_ROB_Stalls_Percent_1_Bucket_4: 207198
Critical_ROB_Stalls_Percent_1_Bucket_5: 896382
Non-critical_ROB_Stalls_Percent_1_Bucket_5: 48285
Critical_ROB_Stalls_Percent_1_Bucket_6: 5552985
Non-critical_ROB_Stalls_Percent_1_Bucket_6: 317151
Critical_ROB_Stalls_Percent_2_Bucket_0: 452833
Non-critical_ROB_Stalls_Percent_2_Bucket_0: 221604
Critical_ROB_Stalls_Percent_2_Bucket_1: 859758
Non-critical_ROB_Stalls_Percent_2_Bucket_1: 513660
Critical_ROB_Stalls_Percent_2_Bucket_2: 1037663
Non-critical_ROB_Stalls_Percent_2_Bucket_2: 112440
Critical_ROB_Stalls_Percent_2_Bucket_3: 977761
Non-critical_ROB_Stalls_Percent_2_Bucket_3: 136797
Critical_ROB_Stalls_Percent_2_Bucket_4: 887670
Non-critical_ROB_Stalls_Percent_2_Bucket_4: 207198
Critical_ROB_Stalls_Percent_2_Bucket_5: 896382
Non-critical_ROB_Stalls_Percent_2_Bucket_5: 48285
Critical_ROB_Stalls_Percent_2_Bucket_6: 5552985
Non-critical_ROB_Stalls_Percent_2_Bucket_6: 317151
Critical_ROB_Stalls_Percent_3_Bucket_0: 452833
Non-critical_ROB_Stalls_Percent_3_Bucket_0: 221604
Critical_ROB_Stalls_Percent_3_Bucket_1: 859758
Non-critical_ROB_Stalls_Percent_3_Bucket_1: 513660
Critical_ROB_Stalls_Percent_3_Bucket_2: 1037663
Non-critical_ROB_Stalls_Percent_3_Bucket_2: 112440
Critical_ROB_Stalls_Percent_3_Bucket_3: 977761
Non-critical_ROB_Stalls_Percent_3_Bucket_3: 136797
Critical_ROB_Stalls_Percent_3_Bucket_4: 887670
Non-critical_ROB_Stalls_Percent_3_Bucket_4: 207198
Critical_ROB_Stalls_Percent_3_Bucket_5: 896382
Non-critical_ROB_Stalls_Percent_3_Bucket_5: 48285
Critical_ROB_Stalls_Percent_3_Bucket_6: 5552985
Non-critical_ROB_Stalls_Percent_3_Bucket_6: 317151
Critical_ROB_Stalls_Percent_4_Bucket_0: 452833
Non-critical_ROB_Stalls_Percent_4_Bucket_0: 221604
Critical_ROB_Stalls_Percent_4_Bucket_1: 859758
Non-critical_ROB_Stalls_Percent_4_Bucket_1: 513660
Critical_ROB_Stalls_Percent_4_Bucket_2: 1037663
Non-critical_ROB_Stalls_Percent_4_Bucket_2: 112440
Critical_ROB_Stalls_Percent_4_Bucket_3: 977761
Non-critical_ROB_Stalls_Percent_4_Bucket_3: 136797
Critical_ROB_Stalls_Percent_4_Bucket_4: 887670
Non-critical_ROB_Stalls_Percent_4_Bucket_4: 207198
Critical_ROB_Stalls_Percent_4_Bucket_5: 896382
Non-critical_ROB_Stalls_Percent_4_Bucket_5: 48285
Critical_ROB_Stalls_Percent_4_Bucket_6: 5552985
Non-critical_ROB_Stalls_Percent_4_Bucket_6: 317151
Critical_ROB_Stalls_Percent_5_Bucket_0: 452833
Non-critical_ROB_Stalls_Percent_5_Bucket_0: 221604
Critical_ROB_Stalls_Percent_5_Bucket_1: 859758
Non-critical_ROB_Stalls_Percent_5_Bucket_1: 513660
Critical_ROB_Stalls_Percent_5_Bucket_2: 1037663
Non-critical_ROB_Stalls_Percent_5_Bucket_2: 112440
Critical_ROB_Stalls_Percent_5_Bucket_3: 977761
Non-critical_ROB_Stalls_Percent_5_Bucket_3: 136797
Critical_ROB_Stalls_Percent_5_Bucket_4: 887670
Non-critical_ROB_Stalls_Percent_5_Bucket_4: 207198
Critical_ROB_Stalls_Percent_5_Bucket_5: 896382
Non-critical_ROB_Stalls_Percent_5_Bucket_5: 48285
Critical_ROB_Stalls_Percent_5_Bucket_6: 5552985
Non-critical_ROB_Stalls_Percent_5_Bucket_6: 317151
Critical_ROB_Stalls_Percent_6_Bucket_0: 452833
Non-critical_ROB_Stalls_Percent_6_Bucket_0: 221604
Critical_ROB_Stalls_Percent_6_Bucket_1: 859758
Non-critical_ROB_Stalls_Percent_6_Bucket_1: 513660
Critical_ROB_Stalls_Percent_6_Bucket_2: 1037663
Non-critical_ROB_Stalls_Percent_6_Bucket_2: 112440
Critical_ROB_Stalls_Percent_6_Bucket_3: 977761
Non-critical_ROB_Stalls_Percent_6_Bucket_3: 136797
Critical_ROB_Stalls_Percent_6_Bucket_4: 887670
Non-critical_ROB_Stalls_Percent_6_Bucket_4: 207198
Critical_ROB_Stalls_Percent_6_Bucket_5: 896382
Non-critical_ROB_Stalls_Percent_6_Bucket_5: 48285
Critical_ROB_Stalls_Percent_6_Bucket_6: 5552985
Non-critical_ROB_Stalls_Percent_6_Bucket_6: 317151
Critical_ROB_Stalls_Percent_7_Bucket_0: 452833
Non-critical_ROB_Stalls_Percent_7_Bucket_0: 221604
Critical_ROB_Stalls_Percent_7_Bucket_1: 859758
Non-critical_ROB_Stalls_Percent_7_Bucket_1: 513660
Critical_ROB_Stalls_Percent_7_Bucket_2: 1037663
Non-critical_ROB_Stalls_Percent_7_Bucket_2: 112440
Critical_ROB_Stalls_Percent_7_Bucket_3: 977761
Non-critical_ROB_Stalls_Percent_7_Bucket_3: 136797
Critical_ROB_Stalls_Percent_7_Bucket_4: 887670
Non-critical_ROB_Stalls_Percent_7_Bucket_4: 207198
Critical_ROB_Stalls_Percent_7_Bucket_5: 896382
Non-critical_ROB_Stalls_Percent_7_Bucket_5: 48285
Critical_ROB_Stalls_Percent_7_Bucket_6: 5552985
Non-critical_ROB_Stalls_Percent_7_Bucket_6: 317151
Critical_ROB_Stalls_Percent_8_Bucket_0: 452833
Non-critical_ROB_Stalls_Percent_8_Bucket_0: 221604
Critical_ROB_Stalls_Percent_8_Bucket_1: 859758
Non-critical_ROB_Stalls_Percent_8_Bucket_1: 513660
Critical_ROB_Stalls_Percent_8_Bucket_2: 1037663
Non-critical_ROB_Stalls_Percent_8_Bucket_2: 112440
Critical_ROB_Stalls_Percent_8_Bucket_3: 977761
Non-critical_ROB_Stalls_Percent_8_Bucket_3: 136797
Critical_ROB_Stalls_Percent_8_Bucket_4: 887670
Non-critical_ROB_Stalls_Percent_8_Bucket_4: 207198
Critical_ROB_Stalls_Percent_8_Bucket_5: 896382
Non-critical_ROB_Stalls_Percent_8_Bucket_5: 48285
Critical_ROB_Stalls_Percent_8_Bucket_6: 5552985
Non-critical_ROB_Stalls_Percent_8_Bucket_6: 317151
Average ROB occupancy Load Stall Begin: 241.502
Average ROB occupancy Load Stall End: 245.675
Min ROB occupancy Load Stall Begin: 1
Max ROB occupancy Load Stall Begin: 352
Min ROB occupancy Load Stall End: 1
Max ROB occupancy Load Stall End: 352
Average ROB occupancy Critical Load Stall Begin: -nan
Average ROB occupancy Critical Load Stall End: -nan
Min ROB occupancy Critical Load Stall Begin: 400
Max ROB occupancy Critical Load Stall Begin: 0
Min ROB occupancy Critical Load Stall End: 400
Max ROB occupancy Critical Load Stall End: 0
 ROB Load Stall Begin Bucket Count 0: 840603
 ROB Load Stall End Bucket Count 0: 674437
 ROB Critical Load Stall Begin Bucket Count 0: 0
 ROB Critical Load Stall End Bucket Count 0: 0
 ROB Load Stall Begin Bucket Count 1: 1346898
 ROB Load Stall End Bucket Count 1: 1373418
 ROB Critical Load Stall Begin Bucket Count 1: 0
 ROB Critical Load Stall End Bucket Count 1: 0
 ROB Load Stall Begin Bucket Count 2: 1152058
 ROB Load Stall End Bucket Count 2: 1150103
 ROB Critical Load Stall Begin Bucket Count 2: 0
 ROB Critical Load Stall End Bucket Count 2: 0
 ROB Load Stall Begin Bucket Count 3: 1115312
 ROB Load Stall End Bucket Count 3: 1114558
 ROB Critical Load Stall Begin Bucket Count 3: 0
 ROB Critical Load Stall End Bucket Count 3: 0
 ROB Load Stall Begin Bucket Count 4: 1089412
 ROB Load Stall End Bucket Count 4: 1094868
 ROB Critical Load Stall Begin Bucket Count 4: 0
 ROB Critical Load Stall End Bucket Count 4: 0
 ROB Load Stall Begin Bucket Count 5: 915765
 ROB Load Stall End Bucket Count 5: 944667
 ROB Critical Load Stall Begin Bucket Count 5: 0
 ROB Critical Load Stall End Bucket Count 5: 0
 ROB Load Stall Begin Bucket Count 6: 5762139
 ROB Load Stall End Bucket Count 6: 5870136
 ROB Critical Load Stall Begin Bucket Count 6: 0
 ROB Critical Load Stall End Bucket Count 6: 0
PIST Tag Read Accesses: 0
PIST Read Accesses: 0
PIST Tag Write Accesses: 0
PIST Write Accesses: 0
Criticality detector called times: 0
Max global_stall_cycles_count: 0
Threshold Modified: 0 times, factor: 0
ITLB TOTAL     ACCESS:   18825007  HIT:   18825007  MISS:          0  HIT %:        100  MISS %:          0   MPKI: 0
ITLB LOAD TRANSLATION ACCESS:   18825007  HIT:   18825007  MISS:          0  HIT %:        100  MISS %:          0   MPKI: 0
ITLB PREFETCH  REQUESTED:          0  ISSUED:          0  USEFUL:          0  USELESS:          0
ITLB USEFUL LOAD PREFETCHES:          0 PREFETCH ISSUED TO LOWER LEVEL:          0  ACCURACY: -nan
ITLB TIMELY PREFETCHES:          0 LATE PREFETCHES: 0 DROPPED PREFETCHES: 0
ITLB PREFETCHES SAME FILL-ORIGIN LEVEL: 0 DIFFERENT FILL-ORIGIN LEVEL: 0
ITLB AVERAGE MISS LATENCY: -nan cycles
ITLB RQ	ACCESS:   19171485	FORWARD:          0	MERGED:     346479	TO_CACHE:   18825006

DTLB TOTAL     ACCESS:   15353581  HIT:   15217469  MISS:     136112  HIT %:    99.1135  MISS %:   0.886516   MPKI: 1.36112
DTLB LOAD TRANSLATION ACCESS:   15353581  HIT:   15217469  MISS:     136112  HIT %:    99.1135  MISS %:   0.886516   MPKI: 1.36112
DTLB PREFETCH  REQUESTED:          0  ISSUED:          0  USEFUL:          0  USELESS:          0
DTLB USEFUL LOAD PREFETCHES:          0 PREFETCH ISSUED TO LOWER LEVEL:          0  ACCURACY: -nan
DTLB TIMELY PREFETCHES:          0 LATE PREFETCHES: 0 DROPPED PREFETCHES: 0
DTLB PREFETCHES SAME FILL-ORIGIN LEVEL: 0 DIFFERENT FILL-ORIGIN LEVEL: 0
DTLB AVERAGE MISS LATENCY: 69.1166 cycles
DTLB RQ	ACCESS:   18089029	FORWARD:          0	MERGED:    2734888	TO_CACHE:   15354141

STLB TOTAL     ACCESS:    5901230  HIT:    5769995  MISS:     131235  HIT %:    97.7761  MISS %:    2.22386   MPKI: 1.31235
STLB LOAD TRANSLATION ACCESS:     136112  HIT:       4884  MISS:     131228  HIT %:    3.58822  MISS %:    96.4118   MPKI: 1.31228
STLB TRANSLATION FROM L1D PREFETCHER ACCESS:    5765118  HIT:    5765111  MISS:          7  HIT %:    99.9999  MISS %: 0.00012142   MPKI: 7e-05
STLB PREFETCH  REQUESTED:          0  ISSUED:          0  USEFUL:          7  USELESS:          0
STLB USEFUL LOAD PREFETCHES:          7 PREFETCH ISSUED TO LOWER LEVEL:          0  ACCURACY: inf
STLB TIMELY PREFETCHES:          7 LATE PREFETCHES: 0 DROPPED PREFETCHES: 0
STLB PREFETCHES SAME FILL-ORIGIN LEVEL: 0 DIFFERENT FILL-ORIGIN LEVEL: 0
STLB AVERAGE MISS LATENCY: 62.3679 cycles
STLB RQ	ACCESS:    9029754	FORWARD:          0	MERGED:    3128523	TO_CACHE:    5901231

STLB Hit, L1D data hit: 0
STLB Hit, L2C data hit: 0
STLB Hit, LLC data hit: 0
STLB Hit, LLC data miss: 0
STLB STLB hints to L2: 0
L1D TOTAL     ACCESS:   26742111  HIT:   19214157  MISS:    7527954  HIT %:    71.8498  MISS %:    28.1502   MPKI: 75.2795
L1D LOAD      ACCESS:   16693599  HIT:   16323951  MISS:     369648  HIT %:    97.7857  MISS %:    2.21431   MPKI: 3.69648
L1D RFO       ACCESS:    1324027  HIT:    1322885  MISS:       1142  HIT %:    99.9137  MISS %:   0.086252   MPKI: 0.01142
L1D PREFETCH  ACCESS:    8724485  HIT:    1567321  MISS:    7157164  HIT %:    17.9646  MISS %:    82.0354   MPKI: 71.5716
L1D PREFETCH  REQUESTED:   17787301  ISSUED:   17787284  USEFUL:    6661652  USELESS:     495422
L1D USEFUL LOAD PREFETCHES:    6661652 PREFETCH ISSUED TO LOWER LEVEL:    7320256  ACCURACY: 91.003
L1D TIMELY PREFETCHES:    6661652 LATE PREFETCHES: 162322 DROPPED PREFETCHES: 0
L1D PREFETCHES SAME FILL-ORIGIN LEVEL: 7320256 DIFFERENT FILL-ORIGIN LEVEL: 0
L1D AVERAGE MISS LATENCY: 3.15312e+06 cycles
L1D RQ	ACCESS:   35895056	FORWARD:          0	MERGED:   19126950	TO_CACHE:   16764988
L1D WQ	ACCESS:    1469578	FORWARD:       3118	MERGED:     145537	TO_CACHE:    1324041
L1D PQ	ACCESS:    8893642	FORWARD:          0	MERGED:          0	TO_CACHE:    8893642

L1D UNIQUE REGIONS ACCESSED: 0
L1D REGIONS CONFLICTS: 0
L1D Cross Page Prefetch Requests: 0
L1D Same Page Prefetch Requests: 8909998
L1D ROI Sum of L1D PQ occupancy: 115953005
L1D PREFETCHES PUSHED FROM L2C: 0
L1I TOTAL     ACCESS:   19171483  HIT:   19171458  MISS:         25  HIT %:    99.9999  MISS %: 0.000130402   MPKI: 0.00025
L1I LOAD      ACCESS:   19171483  HIT:   19171458  MISS:         25  HIT %:    99.9999  MISS %: 0.000130402   MPKI: 0.00025
L1I PREFETCH  REQUESTED:          0  ISSUED:          0  USEFUL:          0  USELESS:          0
L1I USEFUL LOAD PREFETCHES:          0 PREFETCH ISSUED TO LOWER LEVEL:          0  ACCURACY: -nan
L1I TIMELY PREFETCHES:          0 LATE PREFETCHES: 0 DROPPED PREFETCHES: 0
L1I PREFETCHES SAME FILL-ORIGIN LEVEL: 0 DIFFERENT FILL-ORIGIN LEVEL: 0
L1I AVERAGE MISS LATENCY: 210 cycles
L1I RQ	ACCESS:   28807031	FORWARD:          0	MERGED:    9635546	TO_CACHE:   19171485

BTB TOTAL     ACCESS:   23931406  HIT:   23930814  MISS:        592  HIT %:    99.9975  MISS %: 0.00247374   MPKI: 0.00592
BTB BRANCH_DIRECT_JUMP	ACCESS:     340935  HIT:     340899  MISS:         36
BTB BRANCH_INDIRECT	ACCESS:          0  HIT:          0  MISS:          0
BTB BRANCH_CONDITIONAL	ACCESS:   23252725  HIT:   23252648  MISS:         77
BTB BRANCH_DIRECT_CALL	ACCESS:     168873  HIT:     168857  MISS:         16
BTB BRANCH_INDIRECT_CALL	ACCESS:          0  HIT:          0  MISS:          0
BTB BRANCH_RETURN	ACCESS:     168873  HIT:     168410  MISS:        463
BTB BRANCH_OTHER ACCESS:          0  HIT:          0  MISS:          0

L2C TOTAL     ACCESS:    7673950  HIT:     441648  MISS:    7232302  HIT %:    5.75516  MISS %:    94.2448   MPKI: 72.323
L2C LOAD      ACCESS:     207329  HIT:      31722  MISS:     175607  HIT %:    15.3003  MISS %:    84.6997   MPKI: 1.75607
L2C DATA LOAD MPKI: 1.75582
L2C INSTRUCTION LOAD MPKI: 0.00025
L2C RFO       ACCESS:        376  HIT:        142  MISS:        234  HIT %:     37.766  MISS %:     62.234   MPKI: 0.00234
L2C PREFETCH  ACCESS:    7320252  HIT:     293743  MISS:    7026509  HIT %:    4.01274  MISS %:    95.9873   MPKI: 70.2651
L2C DATA PREFETCH MPKI: 70.2651
L2C INSTRUCTION PREFETCH MPKI: 0
L2C WRITEBACK ACCESS:      11880  HIT:      11746  MISS:        134  HIT %:    98.8721  MISS %:    1.12795   MPKI: 0.00134
L2C LOAD TRANSLATION ACCESS:     134100  HIT:     104293  MISS:      29807  HIT %:    77.7726  MISS %:    22.2274   MPKI: 0.29807
L2C TRANSLATION FROM L1D PREFETCHER ACCESS:         13  HIT:          2  MISS:         11  HIT %:    15.3846  MISS %:    84.6154   MPKI: 0.00011
L2C PREFETCH  REQUESTED:          0  ISSUED:          0  USEFUL:       4267  USELESS:    7014426
L2C USEFUL LOAD PREFETCHES:       4267 PREFETCH ISSUED TO LOWER LEVEL:    7026512  ACCURACY: 0.0607271
L2C TIMELY PREFETCHES:       4267 LATE PREFETCHES: 0 DROPPED PREFETCHES: 0
L2C PREFETCHES SAME FILL-ORIGIN LEVEL: 0 DIFFERENT FILL-ORIGIN LEVEL: 0
L2C AVERAGE MISS LATENCY: 108.185 cycles
L2C RQ	ACCESS:     341839	FORWARD:          0	MERGED:          0	TO_CACHE:     341817
L2C WQ	ACCESS:      11880	FORWARD:         22	MERGED:          0	TO_CACHE:      11880
L2C PQ	ACCESS:    7320256	FORWARD:          0	MERGED:          0	TO_CACHE:    7320256

L2C Instructions Evicting Data 25
L2C Translations Evicting Data 29683
L2C Data Evicting Data 7172621
L2C Instructions Evicting Instructions 0
L2C Translations Evicting Instructions 1
L2C Data Evicting Instructions 24
L2C Instructions Evicting Translations 0
L2C Translations Evicting Translations 134
L2C Data Evicting Translations 29680
L2C Dense regions hint from L2: 0
PSCL5 TOTAL     ACCESS:     131235  HIT:     131235  MISS:          0  HIT %:        100  MISS %:          0   MPKI: 0
PSCL5 LOAD TRANSLATION ACCESS:     131228  HIT:     131228  MISS:          0  HIT %:        100  MISS %:          0   MPKI: 0
PSCL5 TRANSLATION FROM L1D PREFETCHER ACCESS:          7  HIT:          7  MISS:          0  HIT %:        100  MISS %:          0   MPKI: 0
PSCL5 PREFETCH  REQUESTED:          0  ISSUED:          0  USEFUL:          0  USELESS:          0
PSCL5 USEFUL LOAD PREFETCHES:          0 PREFETCH ISSUED TO LOWER LEVEL:          0  ACCURACY: -nan
PSCL5 TIMELY PREFETCHES:          0 LATE PREFETCHES: 0 DROPPED PREFETCHES: 0
PSCL5 PREFETCHES SAME FILL-ORIGIN LEVEL: 0 DIFFERENT FILL-ORIGIN LEVEL: 0

PSCL4 TOTAL     ACCESS:     131235  HIT:     131235  MISS:          0  HIT %:        100  MISS %:          0   MPKI: 0
PSCL4 LOAD TRANSLATION ACCESS:     131228  HIT:     131228  MISS:          0  HIT %:        100  MISS %:          0   MPKI: 0
PSCL4 TRANSLATION FROM L1D PREFETCHER ACCESS:          7  HIT:          7  MISS:          0  HIT %:        100  MISS %:          0   MPKI: 0
PSCL4 PREFETCH  REQUESTED:          0  ISSUED:          0  USEFUL:          0  USELESS:          0
PSCL4 USEFUL LOAD PREFETCHES:          0 PREFETCH ISSUED TO LOWER LEVEL:          0  ACCURACY: -nan
PSCL4 TIMELY PREFETCHES:          0 LATE PREFETCHES: 0 DROPPED PREFETCHES: 0
PSCL4 PREFETCHES SAME FILL-ORIGIN LEVEL: 0 DIFFERENT FILL-ORIGIN LEVEL: 0

PSCL3 TOTAL     ACCESS:     131222  HIT:     131210  MISS:         12  HIT %:    99.9909  MISS %: 0.00914481   MPKI: 0.00012
PSCL3 LOAD TRANSLATION ACCESS:     131217  HIT:     131205  MISS:         12  HIT %:    99.9909  MISS %: 0.00914516   MPKI: 0.00012
PSCL3 TRANSLATION FROM L1D PREFETCHER ACCESS:          5  HIT:          5  MISS:          0  HIT %:        100  MISS %:          0   MPKI: 0
PSCL3 PREFETCH  REQUESTED:          0  ISSUED:          0  USEFUL:          0  USELESS:          0
PSCL3 USEFUL LOAD PREFETCHES:          0 PREFETCH ISSUED TO LOWER LEVEL:          0  ACCURACY: -nan
PSCL3 TIMELY PREFETCHES:          0 LATE PREFETCHES: 0 DROPPED PREFETCHES: 0
PSCL3 PREFETCHES SAME FILL-ORIGIN LEVEL: 0 DIFFERENT FILL-ORIGIN LEVEL: 0

PSCL2 TOTAL     ACCESS:     131235  HIT:     128364  MISS:       2871  HIT %:    97.8123  MISS %:    2.18768   MPKI: 0.02871
PSCL2 LOAD TRANSLATION ACCESS:     131232  HIT:     128361  MISS:       2871  HIT %:    97.8123  MISS %:    2.18773   MPKI: 0.02871
PSCL2 TRANSLATION FROM L1D PREFETCHER ACCESS:          3  HIT:          3  MISS:          0  HIT %:        100  MISS %:          0   MPKI: 0
PSCL2 PREFETCH  REQUESTED:          0  ISSUED:          0  USEFUL:          0  USELESS:          0
PSCL2 USEFUL LOAD PREFETCHES:          0 PREFETCH ISSUED TO LOWER LEVEL:          0  ACCURACY: -nan
PSCL2 TIMELY PREFETCHES:          0 LATE PREFETCHES: 0 DROPPED PREFETCHES: 0
PSCL2 PREFETCHES SAME FILL-ORIGIN LEVEL: 0 DIFFERENT FILL-ORIGIN LEVEL: 0

LLC TOTAL     ACCESS:    7243491  HIT:      29169  MISS:    7214322  HIT %:   0.402693  MISS %:    99.5973   MPKI: 72.1432
LLC LOAD      ACCESS:     175607  HIT:       1054  MISS:     174553  HIT %:   0.600204  MISS %:    99.3998   MPKI: 1.74553
LLC RFO       ACCESS:        234  HIT:          0  MISS:        234  HIT %:          0  MISS %:        100   MPKI: 0.00234
LLC PREFETCH  ACCESS:    7026509  HIT:      16332  MISS:    7010177  HIT %:   0.232434  MISS %:    99.7676   MPKI: 70.1018
LLC WRITEBACK ACCESS:      11323  HIT:      10695  MISS:        628  HIT %:    94.4538  MISS %:    5.54623   MPKI: 0.00628
LLC LOAD TRANSLATION ACCESS:      29807  HIT:       1087  MISS:      28720  HIT %:    3.64679  MISS %:    96.3532   MPKI: 0.2872
LLC TRANSLATION FROM L1D PREFETCHER ACCESS:         11  HIT:          1  MISS:         10  HIT %:    9.09091  MISS %:    90.9091   MPKI: 0.0001
LLC PREFETCH  REQUESTED:          0  ISSUED:          0  USEFUL:        162  USELESS:    6978405
LLC USEFUL LOAD PREFETCHES:        162 PREFETCH ISSUED TO LOWER LEVEL:    7010180  ACCURACY: 0.00231092
LLC TIMELY PREFETCHES:        162 LATE PREFETCHES: 0 DROPPED PREFETCHES: 0
LLC PREFETCHES SAME FILL-ORIGIN LEVEL: 0 DIFFERENT FILL-ORIGIN LEVEL: 0
LLC AVERAGE MISS LATENCY: 78.3801 cycles
LLC RQ	ACCESS:     205658	FORWARD:          0	MERGED:          0	TO_CACHE:     205658
LLC WQ	ACCESS:      11323	FORWARD:          0	MERGED:          0	TO_CACHE:      11323
LLC PQ	ACCESS:    7026512	FORWARD:          0	MERGED:          0	TO_CACHE:    7026512

LLC Dense regions hint to LLC: 0

RAW hits: 8267
Loads Generated: 35903324
Loads sent to L1D: 35895056
Stores Generated: 1469578
Stores sent to L1D: 1469578
Major fault: 0 Minor fault: 48987
Allocated PAGES: 48987

stream: 
stream:times selected: 11096578
stream:pref_filled: 5201349
stream:pref_useful: 4852137
stream:pref_late: 120204
stream:misses: 6729
stream:misses_by_poll: 0

CS: 
CS:times selected: 6793933
CS:pref_filled: 45544
CS:pref_useful: 44568
CS:pref_late: 15518
CS:misses: 344032
CS:misses_by_poll: 806

CPLX: 
CPLX:times selected: 4297745
CPLX:pref_filled: 1919021
CPLX:pref_useful: 1772442
CPLX:pref_late: 22247
CPLX:misses: 42514
CPLX:misses_by_poll: 19598

NL_L1: 
NL:times selected: 2376
NL:pref_filled: 360
NL:pref_useful: 353
NL:pref_late: 46
NL:misses: 59
NL:misses_by_poll: 0

total selections: 22190632
total_filled: 7157164
total_useful: 6661652
total_late: 163481
total_polluted: 20404
total_misses_after_warmup: 395193
conflicts: 31188
Degree Incremented Times: 218451
Degree Decremented Times: 0

L1 IP Table Write Accesses: 16087892
L1 IP Table Read Accesses: 16056704
L1 RST Write Accesses: 11090815
L1 RST Read Accesses: 22181630
L1 CSPT Write Accesses: 11090815
L1 CSPT Read Accesses: 22954391
L1 RR Filter Tag Write Accesses: 8893659
L1 RR Filter Tag Read Accesses: 2534962035
L1 IP Table Tag Write Accesses: 16230985
L1 IP Table Tag Read Accesses: 16230985
L1 RST Tag Write Accesses: 0
L1 RST Tag Read Accesses: 99966037
L1 RR Filter Write Accesses: 0
L1 RR Filter Read Accesses: 91056328
test: 1432348

DRAM Statistics
 CHANNEL 0
 RQ ROW_BUFFER_HIT:    6691385  ROW_BUFFER_MISS:     522311
 DBUS_CONGESTED:       2020
 WQ ROW_BUFFER_HIT:       2580  ROW_BUFFER_MISS:       8722  FULL:          0

 AVG_CONGESTED_CYCLE: 5
 All warmup complete: 2
Channel 0 Bank busy for read cycles: 0
Channel 0 Bank busy for write cycles: 0
Channel 0
Rank 0
0banks busy for read cycles: 63742209
0banks busy for write cycles: 7352
1banks busy for read cycles: 53903716
1banks busy for write cycles: 2545623
2banks busy for read cycles: 76464113
2banks busy for write cycles: 737531
3banks busy for read cycles: 37804185
3banks busy for write cycles: 232904
4banks busy for read cycles: 7836719
4banks busy for write cycles: 94833
5banks busy for read cycles: 2115918
5banks busy for write cycles: 29613
6banks busy for read cycles: 2365448
6banks busy for write cycles: 10991
7banks busy for read cycles: 4766113
7banks busy for write cycles: 740
8banks busy for read cycles: 400378
8banks busy for write cycles: 0

CPU 0 Branch Prediction Accuracy: 99.7034% MPKI: 1.05722 Average ROB Occupancy at Mispredict: 252.681
Branch types
NOT_BRANCH: 64349938 64.3499%
BRANCH_DIRECT_JUMP: 340935 0.340935%
BRANCH_INDIRECT: 0 0%
BRANCH_CONDITIONAL: 34971407 34.9714%
BRANCH_DIRECT_CALL: 168873 0.168873%
BRANCH_INDIRECT_CALL: 0 0%
BRANCH_RETURN: 168873 0.168873%
BRANCH_OTHER: 0 0%

DRAM PAGES: 1048576
Allocated PAGES: 48987
