Initialize SIGNATURE TABLE
ST_SET: 1
ST_WAY: 256
ST_TAG_BIT: 16
ST_TAG_MASK: ffff

Initialize PATTERN TABLE
PT_SET: 512
PT_WAY: 4
SIG_DELTA_BIT: 7
C_SIG_BIT: 4
C_DELTA_BIT: 4

Initialize PREFETCH FILTER
FILTER_SET: 1024

Initialize PERCEPTRON
PERC_ENTRIES: 4096
PERC_FEATURES: 9

*** ChampSim Multicore Out-of-Order Simulator ***

Warmup Instructions: 50000000
Simulation Instructions: 100000000
Number of CPUs: 1
LLC sets: 2048
LLC ways: 16
Off-chip DRAM Size: 4096 MB Channels: 1 Width: 64-bit Data Rate: 6400 MT/s
CPU 0 runs ../SPEC2017//602.gcc_s-1850B.champsimtrace.xz
.xz
NUM_OF_IPS_IN_CRITICAL_IP_TRAINING: 64
NUM_OF_CRITICAL_IP_TRAINING_TABLE_WAYS: 2
NUM_OF_CRITICAL_IP_TRAINING_TABLE_SETS: 32
WOBBLY_CRITICAL_IP_CACHE_SETS: 32
WOBBLY_CRITICAL_IP_CACHE_WAYS: 4
BTB has LRU replacement policy
ITLB has LRU replacement policy
DTLB has LRU replacement policy
STLB has LRU replacement policy
L1I has LRU replacement policy
L1D has LRU replacement policy
Initialize SRRIP state for L2C
Initialize DRRIP state for LLC
Heartbeat CPU 0 instructions: 10000002 cycles: 3264515 heartbeat IPC: 3.06324 cumulative IPC: 3.06324 (Simulation time: 0 hr 5 min 43 sec) 
Heartbeat CPU 0 instructions: 20000000 cycles: 6529484 heartbeat IPC: 3.06282 cumulative IPC: 3.06303 (Simulation time: 0 hr 10 min 48 sec) 
Heartbeat CPU 0 instructions: 30000000 cycles: 9793224 heartbeat IPC: 3.06397 cumulative IPC: 3.06334 (Simulation time: 0 hr 15 min 28 sec) 
Heartbeat CPU 0 instructions: 40000000 cycles: 13057219 heartbeat IPC: 3.06373 cumulative IPC: 3.06344 (Simulation time: 0 hr 19 min 49 sec) 
Heartbeat CPU 0 instructions: 50000000 cycles: 16322198 heartbeat IPC: 3.06281 cumulative IPC: 3.06331 (Simulation time: 0 hr 23 min 52 sec) 

Warmup complete CPU 0 instructions: 50000004 cycles: 16322199 (Simulation time: 0 hr 23 min 52 sec) 

% increase in all ip prefetch 563.538
% increase in all ip prefetch 0.251664
Heartbeat CPU 0 instructions: 60000003 cycles: 40717829 heartbeat IPC: 0.40991 cumulative IPC: 0.409909 (Simulation time: 0 hr 30 min 30 sec) 
Heartbeat CPU 0 instructions: 70000002 cycles: 65109414 heartbeat IPC: 0.409977 cumulative IPC: 0.409943 (Simulation time: 0 hr 36 min 29 sec) 
Heartbeat CPU 0 instructions: 80000003 cycles: 89489019 heartbeat IPC: 0.410179 cumulative IPC: 0.410022 (Simulation time: 0 hr 41 min 45 sec) 
Heartbeat CPU 0 instructions: 90000001 cycles: 113891759 heartbeat IPC: 0.40979 cumulative IPC: 0.409964 (Simulation time: 0 hr 46 min 45 sec) 
Heartbeat CPU 0 instructions: 100000000 cycles: 138285185 heartbeat IPC: 0.409946 cumulative IPC: 0.40996 (Simulation time: 0 hr 54 min 50 sec) 
Heartbeat CPU 0 instructions: 110000000 cycles: 162747051 heartbeat IPC: 0.4088 cumulative IPC: 0.409766 (Simulation time: 1 hr 3 min 35 sec) 
Heartbeat CPU 0 instructions: 120000003 cycles: 187218119 heartbeat IPC: 0.408646 cumulative IPC: 0.409606 (Simulation time: 1 hr 11 min 23 sec) 
Heartbeat CPU 0 instructions: 130000003 cycles: 211666967 heartbeat IPC: 0.409017 cumulative IPC: 0.409532 (Simulation time: 1 hr 18 min 13 sec) 
Heartbeat CPU 0 instructions: 140000000 cycles: 236058103 heartbeat IPC: 0.409985 cumulative IPC: 0.409583 (Simulation time: 1 hr 24 min 37 sec) 
Heartbeat CPU 0 instructions: 150000000 cycles: 260442151 heartbeat IPC: 0.410104 cumulative IPC: 0.409635 (Simulation time: 1 hr 30 min 26 sec) 
Finished CPU 0 instructions: 100000000 cycles: 244119980 cumulative IPC: 0.409635 (Simulation time: 1 hr 30 min 26 sec) 

ChampSim completed all CPUs

Region of Interest Statistics

CPU 0 cumulative IPC: 0.409635 instructions: 100000000 cycles: 244119980

CPU 0 Average Load ROB stall cycles: 4.92852e+07
CPU 0 Fraction of times ROB stalled by Loads: 35.6158
CPU 0 Percentage of Load stall cycles in Total stall cycles: 5.2379e+08
Issued all: 224739939
Issued LT all: 222086222
rob_not_full_when_issued_lt_all: 10228125
Issued LT one: 186075598
rob_not_full_when_issued_lt_one: 7858662
 Total stall cycles: 218254008
 Total load stall cycles: 1143193229320990
CPU 0 NUM of IPS identified critical: 0
CPU 0 Num of Load IPs stalling ROB: 46
Threshold modification factor: -1
Max PIST entries: 31
Min PIST entries: 0
Avg PIST entries: 11.6467
Trouble in retire width: 0.961782
MaC = Marked as critical.
lt_50_percent_before_Mac: 0
gt_90_percent_before_Mac: 0
gt_75_percent_before_Mac: 0
gt_50_percent_before_Mac: 0
stall_proportion_bin_same_before_after: 0
stall_proportion_bin_lower_before_after: 0
stall_proportion_bin_upper_before_after: 0
average_stall_proportion_before: -nan
average_stall_proportion_after: -nan
Critical IP stalls, total frequency: 0
Non-critical IP stalls, total frequency: 8243023
Total Freq all stalling IPs: 8243023
stat_90_percent_critical_ip_stalls_freq: 7622482
stat_90_percent_non_critical_ip_stalls_freq: 620541
Critical_IP_ROB_Stalls_Bucket_0: 0
Non-critical_IP_ROB_Stalls_Bucket_0: 81811
Critical_IP_ROB_Stalls_Bucket_1: 0
Non-critical_IP_ROB_Stalls_Bucket_1: 47405
Critical_IP_ROB_Stalls_Bucket_2: 0
Non-critical_IP_ROB_Stalls_Bucket_2: 39585
Critical_IP_ROB_Stalls_Bucket_3: 0
Non-critical_IP_ROB_Stalls_Bucket_3: 60267
Critical_IP_ROB_Stalls_Bucket_4: 0
Non-critical_IP_ROB_Stalls_Bucket_4: 29743
Critical_IP_ROB_Stalls_Bucket_5: 0
Non-critical_IP_ROB_Stalls_Bucket_5: 64407
Critical_IP_ROB_Stalls_Bucket_6: 0
Non-critical_IP_ROB_Stalls_Bucket_6: 7938043
0 => IPs accounting for >50 percent of stalls, 1 => 55, 2 => 60, 3 => 65 and so on till 90.
percent50: 55.7615 num IPs:  4
percent55: 55.7615 num IPs: 4
percent60: 68.6904 num IPs: 5
percent65: 68.6904 num IPs: 5
percent70: 81.1689 num IPs: 6
percent75: 81.1689 num IPs: 6
percent80: 81.1689 num IPs: 6
percent85: 92.4719 num IPs: 7
percent90: 92.4719 num IPs: 7
Critical_ROB_Stalls_Percent_0_Bucket_0: 26952
Non-critical_ROB_Stalls_Percent_0_Bucket_0: 54859
Critical_ROB_Stalls_Percent_0_Bucket_1: 24721
Non-critical_ROB_Stalls_Percent_0_Bucket_1: 22684
Critical_ROB_Stalls_Percent_0_Bucket_2: 8730
Non-critical_ROB_Stalls_Percent_0_Bucket_2: 30855
Critical_ROB_Stalls_Percent_0_Bucket_3: 31880
Non-critical_ROB_Stalls_Percent_0_Bucket_3: 28387
Critical_ROB_Stalls_Percent_0_Bucket_4: 14577
Non-critical_ROB_Stalls_Percent_0_Bucket_4: 15166
Critical_ROB_Stalls_Percent_0_Bucket_5: 30851
Non-critical_ROB_Stalls_Percent_0_Bucket_5: 33556
Critical_ROB_Stalls_Percent_0_Bucket_6: 4458719
Non-critical_ROB_Stalls_Percent_0_Bucket_6: 3479324
Critical_ROB_Stalls_Percent_1_Bucket_0: 26952
Non-critical_ROB_Stalls_Percent_1_Bucket_0: 54859
Critical_ROB_Stalls_Percent_1_Bucket_1: 24721
Non-critical_ROB_Stalls_Percent_1_Bucket_1: 22684
Critical_ROB_Stalls_Percent_1_Bucket_2: 8730
Non-critical_ROB_Stalls_Percent_1_Bucket_2: 30855
Critical_ROB_Stalls_Percent_1_Bucket_3: 31880
Non-critical_ROB_Stalls_Percent_1_Bucket_3: 28387
Critical_ROB_Stalls_Percent_1_Bucket_4: 14577
Non-critical_ROB_Stalls_Percent_1_Bucket_4: 15166
Critical_ROB_Stalls_Percent_1_Bucket_5: 30851
Non-critical_ROB_Stalls_Percent_1_Bucket_5: 33556
Critical_ROB_Stalls_Percent_1_Bucket_6: 4458719
Non-critical_ROB_Stalls_Percent_1_Bucket_6: 3479324
Critical_ROB_Stalls_Percent_2_Bucket_0: 34692
Non-critical_ROB_Stalls_Percent_2_Bucket_0: 47119
Critical_ROB_Stalls_Percent_2_Bucket_1: 31815
Non-critical_ROB_Stalls_Percent_2_Bucket_1: 15590
Critical_ROB_Stalls_Percent_2_Bucket_2: 12398
Non-critical_ROB_Stalls_Percent_2_Bucket_2: 27187
Critical_ROB_Stalls_Percent_2_Bucket_3: 42911
Non-critical_ROB_Stalls_Percent_2_Bucket_3: 17356
Critical_ROB_Stalls_Percent_2_Bucket_4: 17366
Non-critical_ROB_Stalls_Percent_2_Bucket_4: 12377
Critical_ROB_Stalls_Percent_2_Bucket_5: 41905
Non-critical_ROB_Stalls_Percent_2_Bucket_5: 22502
Critical_ROB_Stalls_Percent_2_Bucket_6: 5481081
Non-critical_ROB_Stalls_Percent_2_Bucket_6: 2456962
Critical_ROB_Stalls_Percent_3_Bucket_0: 34692
Non-critical_ROB_Stalls_Percent_3_Bucket_0: 47119
Critical_ROB_Stalls_Percent_3_Bucket_1: 31815
Non-critical_ROB_Stalls_Percent_3_Bucket_1: 15590
Critical_ROB_Stalls_Percent_3_Bucket_2: 12398
Non-critical_ROB_Stalls_Percent_3_Bucket_2: 27187
Critical_ROB_Stalls_Percent_3_Bucket_3: 42911
Non-critical_ROB_Stalls_Percent_3_Bucket_3: 17356
Critical_ROB_Stalls_Percent_3_Bucket_4: 17366
Non-critical_ROB_Stalls_Percent_3_Bucket_4: 12377
Critical_ROB_Stalls_Percent_3_Bucket_5: 41905
Non-critical_ROB_Stalls_Percent_3_Bucket_5: 22502
Critical_ROB_Stalls_Percent_3_Bucket_6: 5481081
Non-critical_ROB_Stalls_Percent_3_Bucket_6: 2456962
Critical_ROB_Stalls_Percent_4_Bucket_0: 42175
Non-critical_ROB_Stalls_Percent_4_Bucket_0: 39636
Critical_ROB_Stalls_Percent_4_Bucket_1: 38691
Non-critical_ROB_Stalls_Percent_4_Bucket_1: 8714
Critical_ROB_Stalls_Percent_4_Bucket_2: 19514
Non-critical_ROB_Stalls_Percent_4_Bucket_2: 20071
Critical_ROB_Stalls_Percent_4_Bucket_3: 49878
Non-critical_ROB_Stalls_Percent_4_Bucket_3: 10389
Critical_ROB_Stalls_Percent_4_Bucket_4: 21779
Non-critical_ROB_Stalls_Percent_4_Bucket_4: 7964
Critical_ROB_Stalls_Percent_4_Bucket_5: 51468
Non-critical_ROB_Stalls_Percent_4_Bucket_5: 12939
Critical_ROB_Stalls_Percent_4_Bucket_6: 6467262
Non-critical_ROB_Stalls_Percent_4_Bucket_6: 1470781
Critical_ROB_Stalls_Percent_5_Bucket_0: 42175
Non-critical_ROB_Stalls_Percent_5_Bucket_0: 39636
Critical_ROB_Stalls_Percent_5_Bucket_1: 38691
Non-critical_ROB_Stalls_Percent_5_Bucket_1: 8714
Critical_ROB_Stalls_Percent_5_Bucket_2: 19514
Non-critical_ROB_Stalls_Percent_5_Bucket_2: 20071
Critical_ROB_Stalls_Percent_5_Bucket_3: 49878
Non-critical_ROB_Stalls_Percent_5_Bucket_3: 10389
Critical_ROB_Stalls_Percent_5_Bucket_4: 21779
Non-critical_ROB_Stalls_Percent_5_Bucket_4: 7964
Critical_ROB_Stalls_Percent_5_Bucket_5: 51468
Non-critical_ROB_Stalls_Percent_5_Bucket_5: 12939
Critical_ROB_Stalls_Percent_5_Bucket_6: 6467262
Non-critical_ROB_Stalls_Percent_5_Bucket_6: 1470781
Critical_ROB_Stalls_Percent_6_Bucket_0: 42175
Non-critical_ROB_Stalls_Percent_6_Bucket_0: 39636
Critical_ROB_Stalls_Percent_6_Bucket_1: 38691
Non-critical_ROB_Stalls_Percent_6_Bucket_1: 8714
Critical_ROB_Stalls_Percent_6_Bucket_2: 19514
Non-critical_ROB_Stalls_Percent_6_Bucket_2: 20071
Critical_ROB_Stalls_Percent_6_Bucket_3: 49878
Non-critical_ROB_Stalls_Percent_6_Bucket_3: 10389
Critical_ROB_Stalls_Percent_6_Bucket_4: 21779
Non-critical_ROB_Stalls_Percent_6_Bucket_4: 7964
Critical_ROB_Stalls_Percent_6_Bucket_5: 51468
Non-critical_ROB_Stalls_Percent_6_Bucket_5: 12939
Critical_ROB_Stalls_Percent_6_Bucket_6: 6467262
Non-critical_ROB_Stalls_Percent_6_Bucket_6: 1470781
Critical_ROB_Stalls_Percent_7_Bucket_0: 48925
Non-critical_ROB_Stalls_Percent_7_Bucket_0: 32886
Critical_ROB_Stalls_Percent_7_Bucket_1: 39275
Non-critical_ROB_Stalls_Percent_7_Bucket_1: 8130
Critical_ROB_Stalls_Percent_7_Bucket_2: 32118
Non-critical_ROB_Stalls_Percent_7_Bucket_2: 7467
Critical_ROB_Stalls_Percent_7_Bucket_3: 55798
Non-critical_ROB_Stalls_Percent_7_Bucket_3: 4469
Critical_ROB_Stalls_Percent_7_Bucket_4: 26810
Non-critical_ROB_Stalls_Percent_7_Bucket_4: 2933
Critical_ROB_Stalls_Percent_7_Bucket_5: 59146
Non-critical_ROB_Stalls_Percent_7_Bucket_5: 5261
Critical_ROB_Stalls_Percent_7_Bucket_6: 7360410
Non-critical_ROB_Stalls_Percent_7_Bucket_6: 577633
Critical_ROB_Stalls_Percent_8_Bucket_0: 48925
Non-critical_ROB_Stalls_Percent_8_Bucket_0: 32886
Critical_ROB_Stalls_Percent_8_Bucket_1: 39275
Non-critical_ROB_Stalls_Percent_8_Bucket_1: 8130
Critical_ROB_Stalls_Percent_8_Bucket_2: 32118
Non-critical_ROB_Stalls_Percent_8_Bucket_2: 7467
Critical_ROB_Stalls_Percent_8_Bucket_3: 55798
Non-critical_ROB_Stalls_Percent_8_Bucket_3: 4469
Critical_ROB_Stalls_Percent_8_Bucket_4: 26810
Non-critical_ROB_Stalls_Percent_8_Bucket_4: 2933
Critical_ROB_Stalls_Percent_8_Bucket_5: 59146
Non-critical_ROB_Stalls_Percent_8_Bucket_5: 5261
Critical_ROB_Stalls_Percent_8_Bucket_6: 7360410
Non-critical_ROB_Stalls_Percent_8_Bucket_6: 577633
Average ROB occupancy Load Stall Begin: 341.098
Average ROB occupancy Load Stall End: 343.394
Min ROB occupancy Load Stall Begin: 1
Max ROB occupancy Load Stall Begin: 352
Min ROB occupancy Load Stall End: 1
Max ROB occupancy Load Stall End: 352
Average ROB occupancy Critical Load Stall Begin: -nan
Average ROB occupancy Critical Load Stall End: -nan
Min ROB occupancy Critical Load Stall Begin: 400
Max ROB occupancy Critical Load Stall Begin: 0
Min ROB occupancy Critical Load Stall End: 400
Max ROB occupancy Critical Load Stall End: 0
 ROB Load Stall Begin Bucket Count 0: 88039
 ROB Load Stall End Bucket Count 0: 81811
 ROB Critical Load Stall Begin Bucket Count 0: 0
 ROB Critical Load Stall End Bucket Count 0: 0
 ROB Load Stall Begin Bucket Count 1: 45598
 ROB Load Stall End Bucket Count 1: 47405
 ROB Critical Load Stall Begin Bucket Count 1: 0
 ROB Critical Load Stall End Bucket Count 1: 0
 ROB Load Stall Begin Bucket Count 2: 43865
 ROB Load Stall End Bucket Count 2: 39585
 ROB Critical Load Stall Begin Bucket Count 2: 0
 ROB Critical Load Stall End Bucket Count 2: 0
 ROB Load Stall Begin Bucket Count 3: 59064
 ROB Load Stall End Bucket Count 3: 60267
 ROB Critical Load Stall Begin Bucket Count 3: 0
 ROB Critical Load Stall End Bucket Count 3: 0
 ROB Load Stall Begin Bucket Count 4: 30445
 ROB Load Stall End Bucket Count 4: 29743
 ROB Critical Load Stall Begin Bucket Count 4: 0
 ROB Critical Load Stall End Bucket Count 4: 0
 ROB Load Stall Begin Bucket Count 5: 65525
 ROB Load Stall End Bucket Count 5: 64407
 ROB Critical Load Stall Begin Bucket Count 5: 0
 ROB Critical Load Stall End Bucket Count 5: 0
 ROB Load Stall Begin Bucket Count 6: 7928725
 ROB Load Stall End Bucket Count 6: 7938043
 ROB Critical Load Stall Begin Bucket Count 6: 0
 ROB Critical Load Stall End Bucket Count 6: 0
PIST Tag Read Accesses: 62376
PIST Read Accesses: 31188
PIST Tag Write Accesses: 62376
PIST Write Accesses: 31188
Criticality detector called times: 47361
Max global_stall_cycles_count: 408140
Threshold Modified: 1 times, factor: -1
Sturdy critical IP cache stats: 
 Unused entries: 0
CIC Tag Read Accesses: 0
CIC Read Accesses: 0
CIC Tag Write Accesses: 0
CIC Write Accesses: 0
Wobbly critical IP cache stats: 
 Unused entries: 111
CIC Tag Read Accesses: 217572898
CIC Read Accesses: 0
CIC Tag Write Accesses: 4209903
CIC Write Accesses: 0
ITLB TOTAL     ACCESS:   23281957  HIT:   23281957  MISS:          0  HIT %:        100  MISS %:          0   MPKI: 0
ITLB LOAD TRANSLATION ACCESS:   23281957  HIT:   23281957  MISS:          0  HIT %:        100  MISS %:          0   MPKI: 0
ITLB PREFETCH  REQUESTED:          0  ISSUED:          0  USEFUL:          0  USELESS:          0
ITLB USEFUL LOAD PREFETCHES:          0 PREFETCH ISSUED TO LOWER LEVEL:          0  ACCURACY: -nan
ITLB TIMELY PREFETCHES:          0 LATE PREFETCHES: 0 DROPPED PREFETCHES: 0
ITLB PREFETCHES SAME FILL-ORIGIN LEVEL: 0 DIFFERENT FILL-ORIGIN LEVEL: 0
ITLB AVERAGE MISS LATENCY: -nan cycles
ITLB RQ	ACCESS:   25142595	FORWARD:          0	MERGED:    1860638	TO_CACHE:   23281957

DTLB TOTAL     ACCESS:   27457879  HIT:   27425094  MISS:      32785  HIT %:    99.8806  MISS %:   0.119401   MPKI: 0.32785
DTLB LOAD TRANSLATION ACCESS:   27457879  HIT:   27425094  MISS:      32785  HIT %:    99.8806  MISS %:   0.119401   MPKI: 0.32785
DTLB PREFETCH  REQUESTED:          0  ISSUED:          0  USEFUL:          0  USELESS:          0
DTLB USEFUL LOAD PREFETCHES:          0 PREFETCH ISSUED TO LOWER LEVEL:          0  ACCURACY: -nan
DTLB TIMELY PREFETCHES:          0 LATE PREFETCHES: 0 DROPPED PREFETCHES: 0
DTLB PREFETCHES SAME FILL-ORIGIN LEVEL: 0 DIFFERENT FILL-ORIGIN LEVEL: 0
DTLB AVERAGE MISS LATENCY: 142.48 cycles
DTLB RQ	ACCESS:   28039398	FORWARD:          0	MERGED:     580187	TO_CACHE:   27459211

STLB TOTAL     ACCESS:      32785  HIT:       2438  MISS:      30347  HIT %:    7.43633  MISS %:    92.5637   MPKI: 0.30347
STLB LOAD TRANSLATION ACCESS:      32785  HIT:       2438  MISS:      30347  HIT %:    7.43633  MISS %:    92.5637   MPKI: 0.30347
STLB PREFETCH  REQUESTED:          0  ISSUED:          0  USEFUL:          0  USELESS:          0
STLB USEFUL LOAD PREFETCHES:          0 PREFETCH ISSUED TO LOWER LEVEL:          0  ACCURACY: -nan
STLB TIMELY PREFETCHES:          0 LATE PREFETCHES: 0 DROPPED PREFETCHES: 0
STLB PREFETCHES SAME FILL-ORIGIN LEVEL: 0 DIFFERENT FILL-ORIGIN LEVEL: 0
STLB AVERAGE MISS LATENCY: 144.185 cycles
STLB RQ	ACCESS:      32785	FORWARD:          0	MERGED:          0	TO_CACHE:      32785

STLB Hit, L1D data hit: 0
STLB Hit, L2C data hit: 0
STLB Hit, LLC data hit: 0
STLB Hit, LLC data miss: 0
STLB STLB hints to L2: 0
L1D TOTAL     ACCESS:   27604362  HIT:   25203603  MISS:    2400759  HIT %:     91.303  MISS %:    8.69703   MPKI: 24.0076
L1D LOAD      ACCESS:   18972722  HIT:   16572730  MISS:    2399992  HIT %:    87.3503  MISS %:    12.6497   MPKI: 23.9999
L1D RFO       ACCESS:    8631640  HIT:    8630873  MISS:        767  HIT %:    99.9911  MISS %: 0.00888591   MPKI: 0.00767
L1D PREFETCH  REQUESTED:          0  ISSUED:          0  USEFUL:          0  USELESS:          0
L1D USEFUL LOAD PREFETCHES:          0 PREFETCH ISSUED TO LOWER LEVEL:          0  ACCURACY: -nan
L1D TIMELY PREFETCHES:          0 LATE PREFETCHES: 0 DROPPED PREFETCHES: 0
L1D PREFETCHES SAME FILL-ORIGIN LEVEL: 0 DIFFERENT FILL-ORIGIN LEVEL: 0
L1D AVERAGE MISS LATENCY: 18.0226 cycles
L1D RQ	ACCESS:   27797068	FORWARD:          0	MERGED:    8389278	TO_CACHE:   19407756
L1D WQ	ACCESS:    9705356	FORWARD:         34	MERGED:    1073714	TO_CACHE:    8631642

L1D UNIQUE REGIONS ACCESSED: 0
L1D REGIONS CONFLICTS: 0
L1D Cross Page Prefetch Requests: 0
L1D Same Page Prefetch Requests: 0
L1D ROI Sum of L1D PQ occupancy: 0
L1D PREFETCHES PUSHED FROM L2C: 0
L1I TOTAL     ACCESS:   25142594  HIT:   25142594  MISS:          0  HIT %:        100  MISS %:          0   MPKI: 0
L1I LOAD      ACCESS:   25142594  HIT:   25142594  MISS:          0  HIT %:        100  MISS %:          0   MPKI: 0
L1I PREFETCH  REQUESTED:          0  ISSUED:          0  USEFUL:          0  USELESS:          0
L1I USEFUL LOAD PREFETCHES:          0 PREFETCH ISSUED TO LOWER LEVEL:          0  ACCURACY: -nan
L1I TIMELY PREFETCHES:          0 LATE PREFETCHES: 0 DROPPED PREFETCHES: 0
L1I PREFETCHES SAME FILL-ORIGIN LEVEL: 0 DIFFERENT FILL-ORIGIN LEVEL: 0
L1I AVERAGE MISS LATENCY: -nan cycles
L1I RQ	ACCESS:   39096565	FORWARD:          0	MERGED:   13953970	TO_CACHE:   25142595

BTB TOTAL     ACCESS:   16382938  HIT:   16382909  MISS:         29  HIT %:    99.9998  MISS %: 0.000177013   MPKI: 0.00029
BTB BRANCH_DIRECT_JUMP	ACCESS:    2158979  HIT:    2158970  MISS:          9
BTB BRANCH_INDIRECT	ACCESS:          0  HIT:          0  MISS:          0
BTB BRANCH_CONDITIONAL	ACCESS:   12063628  HIT:   12063614  MISS:         14
BTB BRANCH_DIRECT_CALL	ACCESS:    1080165  HIT:    1080162  MISS:          3
BTB BRANCH_INDIRECT_CALL	ACCESS:          0  HIT:          0  MISS:          0
BTB BRANCH_RETURN	ACCESS:    1080166  HIT:    1080163  MISS:          3
BTB BRANCH_OTHER ACCESS:          0  HIT:          0  MISS:          0

L2C TOTAL     ACCESS:    5180348  HIT:    3362983  MISS:    1817365  HIT %:    64.9181  MISS %:    35.0819   MPKI: 18.1736
L2C LOAD      ACCESS:    2399992  HIT:    2341289  MISS:      58703  HIT %:     97.554  MISS %:    2.44597   MPKI: 0.58703
L2C DATA LOAD MPKI: 0.58703
L2C INSTRUCTION LOAD MPKI: 0
L2C RFO       ACCESS:        767  HIT:        207  MISS:        560  HIT %:    26.9883  MISS %:    73.0117   MPKI: 0.0056
L2C PREFETCH  ACCESS:    2743960  HIT:     991605  MISS:    1752355  HIT %:    36.1377  MISS %:    63.8623   MPKI: 17.5236
L2C DATA PREFETCH MPKI: 17.5236
L2C INSTRUCTION PREFETCH MPKI: 0
L2C WRITEBACK ACCESS:       5146  HIT:       5114  MISS:         32  HIT %:    99.3782  MISS %:   0.621842   MPKI: 0.00032
L2C LOAD TRANSLATION ACCESS:      30483  HIT:      24768  MISS:       5715  HIT %:    81.2518  MISS %:    18.7482   MPKI: 0.05715
L2C PREFETCH  REQUESTED:    2763230  ISSUED:    2763230  USEFUL:    1717687  USELESS:      34689
L2C USEFUL LOAD PREFETCHES:    1717687 PREFETCH ISSUED TO LOWER LEVEL:    1754416  ACCURACY: 97.9065
L2C TIMELY PREFETCHES:    1717687 LATE PREFETCHES: 1548 DROPPED PREFETCHES: 0
L2C PREFETCHES SAME FILL-ORIGIN LEVEL: 1753903 DIFFERENT FILL-ORIGIN LEVEL: 513
L2C AVERAGE MISS LATENCY: 106.458 cycles
L2C RQ	ACCESS:    2431242	FORWARD:          0	MERGED:          0	TO_CACHE:    2431242
L2C WQ	ACCESS:       5146	FORWARD:          0	MERGED:          0	TO_CACHE:       5146
L2C PQ	ACCESS:    2763230	FORWARD:          0	MERGED:       1547	TO_CACHE:    2761683

L2C Instructions Evicting Data 0
L2C Translations Evicting Data 5704
L2C Data Evicting Data 1805911
L2C Instructions Evicting Instructions 0
L2C Translations Evicting Instructions 0
L2C Data Evicting Instructions 0
L2C Instructions Evicting Translations 0
L2C Translations Evicting Translations 11
L2C Data Evicting Translations 5707
L2C Dense regions hint from L2: 0
PSCL5 TOTAL     ACCESS:      30347  HIT:      30347  MISS:          0  HIT %:        100  MISS %:          0   MPKI: 0
PSCL5 LOAD TRANSLATION ACCESS:      30347  HIT:      30347  MISS:          0  HIT %:        100  MISS %:          0   MPKI: 0
PSCL5 PREFETCH  REQUESTED:          0  ISSUED:          0  USEFUL:          0  USELESS:          0
PSCL5 USEFUL LOAD PREFETCHES:          0 PREFETCH ISSUED TO LOWER LEVEL:          0  ACCURACY: -nan
PSCL5 TIMELY PREFETCHES:          0 LATE PREFETCHES: 0 DROPPED PREFETCHES: 0
PSCL5 PREFETCHES SAME FILL-ORIGIN LEVEL: 0 DIFFERENT FILL-ORIGIN LEVEL: 0

PSCL4 TOTAL     ACCESS:      30347  HIT:      30347  MISS:          0  HIT %:        100  MISS %:          0   MPKI: 0
PSCL4 LOAD TRANSLATION ACCESS:      30347  HIT:      30347  MISS:          0  HIT %:        100  MISS %:          0   MPKI: 0
PSCL4 PREFETCH  REQUESTED:          0  ISSUED:          0  USEFUL:          0  USELESS:          0
PSCL4 USEFUL LOAD PREFETCHES:          0 PREFETCH ISSUED TO LOWER LEVEL:          0  ACCURACY: -nan
PSCL4 TIMELY PREFETCHES:          0 LATE PREFETCHES: 0 DROPPED PREFETCHES: 0
PSCL4 PREFETCHES SAME FILL-ORIGIN LEVEL: 0 DIFFERENT FILL-ORIGIN LEVEL: 0

PSCL3 TOTAL     ACCESS:      30347  HIT:      30346  MISS:          1  HIT %:    99.9967  MISS %: 0.00329522   MPKI: 1e-05
PSCL3 LOAD TRANSLATION ACCESS:      30347  HIT:      30346  MISS:          1  HIT %:    99.9967  MISS %: 0.00329522   MPKI: 1e-05
PSCL3 PREFETCH  REQUESTED:          0  ISSUED:          0  USEFUL:          0  USELESS:          0
PSCL3 USEFUL LOAD PREFETCHES:          0 PREFETCH ISSUED TO LOWER LEVEL:          0  ACCURACY: -nan
PSCL3 TIMELY PREFETCHES:          0 LATE PREFETCHES: 0 DROPPED PREFETCHES: 0
PSCL3 PREFETCHES SAME FILL-ORIGIN LEVEL: 0 DIFFERENT FILL-ORIGIN LEVEL: 0

PSCL2 TOTAL     ACCESS:      30347  HIT:      30004  MISS:        343  HIT %:    98.8697  MISS %:    1.13026   MPKI: 0.00343
PSCL2 LOAD TRANSLATION ACCESS:      30347  HIT:      30004  MISS:        343  HIT %:    98.8697  MISS %:    1.13026   MPKI: 0.00343
PSCL2 PREFETCH  REQUESTED:          0  ISSUED:          0  USEFUL:          0  USELESS:          0
PSCL2 USEFUL LOAD PREFETCHES:          0 PREFETCH ISSUED TO LOWER LEVEL:          0  ACCURACY: -nan
PSCL2 TIMELY PREFETCHES:          0 LATE PREFETCHES: 0 DROPPED PREFETCHES: 0
PSCL2 PREFETCHES SAME FILL-ORIGIN LEVEL: 0 DIFFERENT FILL-ORIGIN LEVEL: 0

LLC TOTAL     ACCESS:    1820247  HIT:      12824  MISS:    1807423  HIT %:    0.70452  MISS %:    99.2955   MPKI: 18.0742
LLC LOAD      ACCESS:      57155  HIT:        786  MISS:      56369  HIT %:    1.37521  MISS %:    98.6248   MPKI: 0.56369
LLC RFO       ACCESS:        560  HIT:         48  MISS:        512  HIT %:    8.57143  MISS %:    91.4286   MPKI: 0.00512
LLC PREFETCH  ACCESS:    1754414  HIT:       8975  MISS:    1745439  HIT %:   0.511567  MISS %:    99.4884   MPKI: 17.4544
LLC WRITEBACK ACCESS:       2403  HIT:       2371  MISS:         32  HIT %:    98.6683  MISS %:    1.33167   MPKI: 0.00032
LLC LOAD TRANSLATION ACCESS:       5715  HIT:        644  MISS:       5071  HIT %:    11.2686  MISS %:    88.7314   MPKI: 0.05071
LLC PREFETCH  REQUESTED:          0  ISSUED:          0  USEFUL:        409  USELESS:    1744896
LLC USEFUL LOAD PREFETCHES:        409 PREFETCH ISSUED TO LOWER LEVEL:    1745441  ACCURACY: 0.0234325
LLC TIMELY PREFETCHES:        409 LATE PREFETCHES: 2 DROPPED PREFETCHES: 0
LLC PREFETCHES SAME FILL-ORIGIN LEVEL: 254 DIFFERENT FILL-ORIGIN LEVEL: 0
LLC AVERAGE MISS LATENCY: 76.9687 cycles
LLC RQ	ACCESS:      63430	FORWARD:          0	MERGED:          0	TO_CACHE:      63430
LLC WQ	ACCESS:       2403	FORWARD:          0	MERGED:          0	TO_CACHE:       2403
LLC PQ	ACCESS:    1754416	FORWARD:          0	MERGED:          0	TO_CACHE:    1754416

LLC Dense regions hint to LLC: 0

RAW hits: 796
Loads Generated: 27797864
Loads sent to L1D: 27797068
Stores Generated: 9705357
Stores sent to L1D: 9705356
Major fault: 0 Minor fault: 45705
Allocated PAGES: 45705
------------------
Depth Distribution
------------------
depth 0: 11100
depth 1: 3572
depth 2: 22018
depth 3: 178316
depth 4: 289911
depth 5: 214183
depth 6: 97246
depth 7: 529147
depth 8: 1561615
depth 9: 681090
depth 10: 6057
depth 11: 4798
depth 12: 1047
depth 13: 195
depth 14: 633
depth 15: 22
depth 16: 3
depth 17: 0
depth 18: 2
depth 19: 2
depth 20: 0
depth 21: 2
depth 22: 0
depth 23: 0
depth 24: 3
depth 25: 0
depth 26: 0
depth 27: 1
depth 28: 0
depth 29: 0
Total: 3600963
------------------
ST read accesses: 2369726
ST write accesses: 30266
PT read accesses: 97910224
PT write accesses: 3509196
FILTER read accesses: 21502403
FILTER write accesses: 8534250
GHR read accesses: 9648477
GHR write accesses: 1468851
PERC read accesses: 702836847
PERC write accesses: 24464681
GHR counter read accesses: 4799984
GHR counter write accesses: 7643644
GHR ip read accesses: 15574173
GHR ip write accesses: 9599968
ST tag read accesses: 881589998
ST tag write accesses: 14296978

DRAM Statistics
 CHANNEL 0
 RQ ROW_BUFFER_HIT:    1691559  ROW_BUFFER_MISS:     115832
 DBUS_CONGESTED:         15
 WQ ROW_BUFFER_HIT:        958  ROW_BUFFER_MISS:       1446  FULL:          0

 AVG_CONGESTED_CYCLE: 4
 All warmup complete: 2
Channel 0 Bank busy for read cycles: 0
Channel 0 Bank busy for write cycles: 0
Channel 0
Rank 0
0banks busy for read cycles: 176077311
0banks busy for write cycles: 1724
1banks busy for read cycles: 46302382
1banks busy for write cycles: 256416
2banks busy for read cycles: 15509182
2banks busy for write cycles: 60814
3banks busy for read cycles: 3099655
3banks busy for write cycles: 14568
4banks busy for read cycles: 848385
4banks busy for write cycles: 4044
5banks busy for read cycles: 648699
5banks busy for write cycles: 422
6banks busy for read cycles: 785530
6banks busy for write cycles: 318
7banks busy for read cycles: 101279
7banks busy for write cycles: 0
8banks busy for read cycles: 409252
8banks busy for write cycles: 0

CPU 0 Branch Prediction Accuracy: 99.9623% MPKI: 0.09672 Average ROB Occupancy at Mispredict: 311.242
Branch types
NOT_BRANCH: 74359712 74.3597%
BRANCH_DIRECT_JUMP: 2158979 2.15898%
BRANCH_INDIRECT: 0 0%
BRANCH_CONDITIONAL: 21320980 21.321%
BRANCH_DIRECT_CALL: 1080165 1.08017%
BRANCH_INDIRECT_CALL: 0 0%
BRANCH_RETURN: 1080166 1.08017%
BRANCH_OTHER: 0 0%

DRAM PAGES: 1048576
Allocated PAGES: 45705
