
*** ChampSim Multicore Out-of-Order Simulator ***

Warmup Instructions: 50000000
Simulation Instructions: 100000000
Number of CPUs: 1
LLC sets: 2048
LLC ways: 16
Off-chip DRAM Size: 4096 MB Channels: 1 Width: 64-bit Data Rate: 6400 MT/s
CPU 0 runs ../SPEC2017//602.gcc_s-2226B.champsimtrace.xz
.xz
NUM_OF_IPS_IN_CRITICAL_IP_TRAINING: 64
NUM_OF_CRITICAL_IP_TRAINING_TABLE_WAYS: 2
NUM_OF_CRITICAL_IP_TRAINING_TABLE_SETS: 32
WOBBLY_CRITICAL_IP_CACHE_SETS: 32
WOBBLY_CRITICAL_IP_CACHE_WAYS: 4
BTB has LRU replacement policy
ITLB has LRU replacement policy
DTLB has LRU replacement policy
STLB has LRU replacement policy
L1I has LRU replacement policy
L1D has LRU replacement policy
Bingo PHT WAYS: 16 and PHT_SIZE: 16384
Initialize SRRIP state for L2C
Initialize DRRIP state for LLC
Heartbeat CPU 0 instructions: 10000002 cycles: 3742214 heartbeat IPC: 2.67222 cumulative IPC: 2.67222 (Simulation time: 0 hr 5 min 33 sec) 
Heartbeat CPU 0 instructions: 20000001 cycles: 7485797 heartbeat IPC: 2.67124 cumulative IPC: 2.67173 (Simulation time: 0 hr 10 min 54 sec) 
Heartbeat CPU 0 instructions: 30000001 cycles: 11224442 heartbeat IPC: 2.67477 cumulative IPC: 2.67274 (Simulation time: 0 hr 15 min 38 sec) 
Heartbeat CPU 0 instructions: 40000002 cycles: 14963323 heartbeat IPC: 2.6746 cumulative IPC: 2.6732 (Simulation time: 0 hr 19 min 49 sec) 
Heartbeat CPU 0 instructions: 50000000 cycles: 18706081 heartbeat IPC: 2.67183 cumulative IPC: 2.67293 (Simulation time: 0 hr 23 min 41 sec) 

Warmup complete CPU 0 instructions: 50000004 cycles: 18706082 (Simulation time: 0 hr 23 min 41 sec) 

% increase in all ip prefetch 647.982
% increase in all ip prefetch -1.97252
Heartbeat CPU 0 instructions: 60000002 cycles: 50934525 heartbeat IPC: 0.310285 cumulative IPC: 0.310285 (Simulation time: 0 hr 29 min 38 sec) 
Heartbeat CPU 0 instructions: 70000000 cycles: 82729205 heartbeat IPC: 0.314518 cumulative IPC: 0.312387 (Simulation time: 0 hr 35 min 17 sec) 
Heartbeat CPU 0 instructions: 80000000 cycles: 114651346 heartbeat IPC: 0.313262 cumulative IPC: 0.312678 (Simulation time: 0 hr 40 min 22 sec) 
Heartbeat CPU 0 instructions: 90000001 cycles: 146863813 heartbeat IPC: 0.310439 cumulative IPC: 0.312115 (Simulation time: 0 hr 45 min 6 sec) 
Heartbeat CPU 0 instructions: 100000001 cycles: 178923481 heartbeat IPC: 0.311918 cumulative IPC: 0.312076 (Simulation time: 0 hr 49 min 32 sec) 
Heartbeat CPU 0 instructions: 110000000 cycles: 210701196 heartbeat IPC: 0.314686 cumulative IPC: 0.312508 (Simulation time: 0 hr 57 min 22 sec) 
Heartbeat CPU 0 instructions: 120000000 cycles: 242832845 heartbeat IPC: 0.31122 cumulative IPC: 0.312323 (Simulation time: 1 hr 4 min 39 sec) 
Heartbeat CPU 0 instructions: 130000001 cycles: 275081645 heartbeat IPC: 0.310089 cumulative IPC: 0.312042 (Simulation time: 1 hr 11 min 22 sec) 
Heartbeat CPU 0 instructions: 140000000 cycles: 306986861 heartbeat IPC: 0.313428 cumulative IPC: 0.312196 (Simulation time: 1 hr 17 min 28 sec) 
Heartbeat CPU 0 instructions: 150000001 cycles: 338881579 heartbeat IPC: 0.313532 cumulative IPC: 0.312329 (Simulation time: 1 hr 23 min 10 sec) 
Finished CPU 0 instructions: 100000000 cycles: 320175511 cumulative IPC: 0.312329 (Simulation time: 1 hr 23 min 10 sec) 

ChampSim completed all CPUs

Region of Interest Statistics

CPU 0 cumulative IPC: 0.312329 instructions: 100000000 cycles: 320175511

CPU 0 Average Load ROB stall cycles: 5.53575e+07
CPU 0 Fraction of times ROB stalled by Loads: 30.9473
CPU 0 Percentage of Load stall cycles in Total stall cycles: 5.8425e+08
Issued all: 193365162
Issued LT all: 185399304
rob_not_full_when_issued_lt_all: 24261799
Issued LT one: 161019952
rob_not_full_when_issued_lt_one: 23185294
 Total stall cycles: 301787888
 Total load stall cycles: 1763196381801254
CPU 0 NUM of IPS identified critical: 0
CPU 0 Num of Load IPs stalling ROB: 199
Threshold modification factor: -1
Max PIST entries: 54
Min PIST entries: 0
Avg PIST entries: 14.6733
Trouble in retire width: 0.992915
MaC = Marked as critical.
lt_50_percent_before_Mac: 0
gt_90_percent_before_Mac: 0
gt_75_percent_before_Mac: 0
gt_50_percent_before_Mac: 0
stall_proportion_bin_same_before_after: 0
stall_proportion_bin_lower_before_after: 0
stall_proportion_bin_upper_before_after: 0
average_stall_proportion_before: -nan
average_stall_proportion_after: -nan
Critical IP stalls, total frequency: 0
Non-critical IP stalls, total frequency: 9857059
Total Freq all stalling IPs: 9857059
stat_90_percent_critical_ip_stalls_freq: 8873899
stat_90_percent_non_critical_ip_stalls_freq: 983160
Critical_IP_ROB_Stalls_Bucket_0: 0
Non-critical_IP_ROB_Stalls_Bucket_0: 572045
Critical_IP_ROB_Stalls_Bucket_1: 0
Non-critical_IP_ROB_Stalls_Bucket_1: 1007128
Critical_IP_ROB_Stalls_Bucket_2: 0
Non-critical_IP_ROB_Stalls_Bucket_2: 679968
Critical_IP_ROB_Stalls_Bucket_3: 0
Non-critical_IP_ROB_Stalls_Bucket_3: 691831
Critical_IP_ROB_Stalls_Bucket_4: 0
Non-critical_IP_ROB_Stalls_Bucket_4: 740252
Critical_IP_ROB_Stalls_Bucket_5: 0
Non-critical_IP_ROB_Stalls_Bucket_5: 651993
Critical_IP_ROB_Stalls_Bucket_6: 0
Non-critical_IP_ROB_Stalls_Bucket_6: 5513842
0 => IPs accounting for >50 percent of stalls, 1 => 55, 2 => 60, 3 => 65 and so on till 90.
percent50: 84.9166 num IPs:  1
percent55: 84.9166 num IPs: 1
percent60: 84.9166 num IPs: 1
percent65: 84.9166 num IPs: 1
percent70: 84.9166 num IPs: 1
percent75: 84.9166 num IPs: 1
percent80: 84.9166 num IPs: 1
percent85: 87.0108 num IPs: 2
percent90: 90.0258 num IPs: 4
Critical_ROB_Stalls_Percent_0_Bucket_0: 355487
Non-critical_ROB_Stalls_Percent_0_Bucket_0: 216558
Critical_ROB_Stalls_Percent_0_Bucket_1: 496481
Non-critical_ROB_Stalls_Percent_0_Bucket_1: 510647
Critical_ROB_Stalls_Percent_0_Bucket_2: 585689
Non-critical_ROB_Stalls_Percent_0_Bucket_2: 94279
Critical_ROB_Stalls_Percent_0_Bucket_3: 569125
Non-critical_ROB_Stalls_Percent_0_Bucket_3: 122706
Critical_ROB_Stalls_Percent_0_Bucket_4: 548893
Non-critical_ROB_Stalls_Percent_0_Bucket_4: 191359
Critical_ROB_Stalls_Percent_0_Bucket_5: 609938
Non-critical_ROB_Stalls_Percent_0_Bucket_5: 42055
Critical_ROB_Stalls_Percent_0_Bucket_6: 5204665
Non-critical_ROB_Stalls_Percent_0_Bucket_6: 309177
Critical_ROB_Stalls_Percent_1_Bucket_0: 355487
Non-critical_ROB_Stalls_Percent_1_Bucket_0: 216558
Critical_ROB_Stalls_Percent_1_Bucket_1: 496481
Non-critical_ROB_Stalls_Percent_1_Bucket_1: 510647
Critical_ROB_Stalls_Percent_1_Bucket_2: 585689
Non-critical_ROB_Stalls_Percent_1_Bucket_2: 94279
Critical_ROB_Stalls_Percent_1_Bucket_3: 569125
Non-critical_ROB_Stalls_Percent_1_Bucket_3: 122706
Critical_ROB_Stalls_Percent_1_Bucket_4: 548893
Non-critical_ROB_Stalls_Percent_1_Bucket_4: 191359
Critical_ROB_Stalls_Percent_1_Bucket_5: 609938
Non-critical_ROB_Stalls_Percent_1_Bucket_5: 42055
Critical_ROB_Stalls_Percent_1_Bucket_6: 5204665
Non-critical_ROB_Stalls_Percent_1_Bucket_6: 309177
Critical_ROB_Stalls_Percent_2_Bucket_0: 355487
Non-critical_ROB_Stalls_Percent_2_Bucket_0: 216558
Critical_ROB_Stalls_Percent_2_Bucket_1: 496481
Non-critical_ROB_Stalls_Percent_2_Bucket_1: 510647
Critical_ROB_Stalls_Percent_2_Bucket_2: 585689
Non-critical_ROB_Stalls_Percent_2_Bucket_2: 94279
Critical_ROB_Stalls_Percent_2_Bucket_3: 569125
Non-critical_ROB_Stalls_Percent_2_Bucket_3: 122706
Critical_ROB_Stalls_Percent_2_Bucket_4: 548893
Non-critical_ROB_Stalls_Percent_2_Bucket_4: 191359
Critical_ROB_Stalls_Percent_2_Bucket_5: 609938
Non-critical_ROB_Stalls_Percent_2_Bucket_5: 42055
Critical_ROB_Stalls_Percent_2_Bucket_6: 5204665
Non-critical_ROB_Stalls_Percent_2_Bucket_6: 309177
Critical_ROB_Stalls_Percent_3_Bucket_0: 355487
Non-critical_ROB_Stalls_Percent_3_Bucket_0: 216558
Critical_ROB_Stalls_Percent_3_Bucket_1: 496481
Non-critical_ROB_Stalls_Percent_3_Bucket_1: 510647
Critical_ROB_Stalls_Percent_3_Bucket_2: 585689
Non-critical_ROB_Stalls_Percent_3_Bucket_2: 94279
Critical_ROB_Stalls_Percent_3_Bucket_3: 569125
Non-critical_ROB_Stalls_Percent_3_Bucket_3: 122706
Critical_ROB_Stalls_Percent_3_Bucket_4: 548893
Non-critical_ROB_Stalls_Percent_3_Bucket_4: 191359
Critical_ROB_Stalls_Percent_3_Bucket_5: 609938
Non-critical_ROB_Stalls_Percent_3_Bucket_5: 42055
Critical_ROB_Stalls_Percent_3_Bucket_6: 5204665
Non-critical_ROB_Stalls_Percent_3_Bucket_6: 309177
Critical_ROB_Stalls_Percent_4_Bucket_0: 355487
Non-critical_ROB_Stalls_Percent_4_Bucket_0: 216558
Critical_ROB_Stalls_Percent_4_Bucket_1: 496481
Non-critical_ROB_Stalls_Percent_4_Bucket_1: 510647
Critical_ROB_Stalls_Percent_4_Bucket_2: 585689
Non-critical_ROB_Stalls_Percent_4_Bucket_2: 94279
Critical_ROB_Stalls_Percent_4_Bucket_3: 569125
Non-critical_ROB_Stalls_Percent_4_Bucket_3: 122706
Critical_ROB_Stalls_Percent_4_Bucket_4: 548893
Non-critical_ROB_Stalls_Percent_4_Bucket_4: 191359
Critical_ROB_Stalls_Percent_4_Bucket_5: 609938
Non-critical_ROB_Stalls_Percent_4_Bucket_5: 42055
Critical_ROB_Stalls_Percent_4_Bucket_6: 5204665
Non-critical_ROB_Stalls_Percent_4_Bucket_6: 309177
Critical_ROB_Stalls_Percent_5_Bucket_0: 355487
Non-critical_ROB_Stalls_Percent_5_Bucket_0: 216558
Critical_ROB_Stalls_Percent_5_Bucket_1: 496481
Non-critical_ROB_Stalls_Percent_5_Bucket_1: 510647
Critical_ROB_Stalls_Percent_5_Bucket_2: 585689
Non-critical_ROB_Stalls_Percent_5_Bucket_2: 94279
Critical_ROB_Stalls_Percent_5_Bucket_3: 569125
Non-critical_ROB_Stalls_Percent_5_Bucket_3: 122706
Critical_ROB_Stalls_Percent_5_Bucket_4: 548893
Non-critical_ROB_Stalls_Percent_5_Bucket_4: 191359
Critical_ROB_Stalls_Percent_5_Bucket_5: 609938
Non-critical_ROB_Stalls_Percent_5_Bucket_5: 42055
Critical_ROB_Stalls_Percent_5_Bucket_6: 5204665
Non-critical_ROB_Stalls_Percent_5_Bucket_6: 309177
Critical_ROB_Stalls_Percent_6_Bucket_0: 355487
Non-critical_ROB_Stalls_Percent_6_Bucket_0: 216558
Critical_ROB_Stalls_Percent_6_Bucket_1: 496481
Non-critical_ROB_Stalls_Percent_6_Bucket_1: 510647
Critical_ROB_Stalls_Percent_6_Bucket_2: 585689
Non-critical_ROB_Stalls_Percent_6_Bucket_2: 94279
Critical_ROB_Stalls_Percent_6_Bucket_3: 569125
Non-critical_ROB_Stalls_Percent_6_Bucket_3: 122706
Critical_ROB_Stalls_Percent_6_Bucket_4: 548893
Non-critical_ROB_Stalls_Percent_6_Bucket_4: 191359
Critical_ROB_Stalls_Percent_6_Bucket_5: 609938
Non-critical_ROB_Stalls_Percent_6_Bucket_5: 42055
Critical_ROB_Stalls_Percent_6_Bucket_6: 5204665
Non-critical_ROB_Stalls_Percent_6_Bucket_6: 309177
Critical_ROB_Stalls_Percent_7_Bucket_0: 364163
Non-critical_ROB_Stalls_Percent_7_Bucket_0: 207882
Critical_ROB_Stalls_Percent_7_Bucket_1: 506191
Non-critical_ROB_Stalls_Percent_7_Bucket_1: 500937
Critical_ROB_Stalls_Percent_7_Bucket_2: 601415
Non-critical_ROB_Stalls_Percent_7_Bucket_2: 78553
Critical_ROB_Stalls_Percent_7_Bucket_3: 584855
Non-critical_ROB_Stalls_Percent_7_Bucket_3: 106976
Critical_ROB_Stalls_Percent_7_Bucket_4: 562488
Non-critical_ROB_Stalls_Percent_7_Bucket_4: 177764
Critical_ROB_Stalls_Percent_7_Bucket_5: 624380
Non-critical_ROB_Stalls_Percent_7_Bucket_5: 27613
Critical_ROB_Stalls_Percent_7_Bucket_6: 5333219
Non-critical_ROB_Stalls_Percent_7_Bucket_6: 180623
Critical_ROB_Stalls_Percent_8_Bucket_0: 405901
Non-critical_ROB_Stalls_Percent_8_Bucket_0: 166144
Critical_ROB_Stalls_Percent_8_Bucket_1: 678522
Non-critical_ROB_Stalls_Percent_8_Bucket_1: 328606
Critical_ROB_Stalls_Percent_8_Bucket_2: 611587
Non-critical_ROB_Stalls_Percent_8_Bucket_2: 68381
Critical_ROB_Stalls_Percent_8_Bucket_3: 599433
Non-critical_ROB_Stalls_Percent_8_Bucket_3: 92398
Critical_ROB_Stalls_Percent_8_Bucket_4: 595362
Non-critical_ROB_Stalls_Percent_8_Bucket_4: 144890
Critical_ROB_Stalls_Percent_8_Bucket_5: 632658
Non-critical_ROB_Stalls_Percent_8_Bucket_5: 19335
Critical_ROB_Stalls_Percent_8_Bucket_6: 5350436
Non-critical_ROB_Stalls_Percent_8_Bucket_6: 163406
Average ROB occupancy Load Stall Begin: 255.201
Average ROB occupancy Load Stall End: 259.785
Min ROB occupancy Load Stall Begin: 1
Max ROB occupancy Load Stall Begin: 352
Min ROB occupancy Load Stall End: 1
Max ROB occupancy Load Stall End: 352
Average ROB occupancy Critical Load Stall Begin: -nan
Average ROB occupancy Critical Load Stall End: -nan
Min ROB occupancy Critical Load Stall Begin: 400
Max ROB occupancy Critical Load Stall Begin: 0
Min ROB occupancy Critical Load Stall End: 400
Max ROB occupancy Critical Load Stall End: 0
 ROB Load Stall Begin Bucket Count 0: 734835
 ROB Load Stall End Bucket Count 0: 572045
 ROB Critical Load Stall Begin Bucket Count 0: 0
 ROB Critical Load Stall End Bucket Count 0: 0
 ROB Load Stall Begin Bucket Count 1: 961847
 ROB Load Stall End Bucket Count 1: 1007128
 ROB Critical Load Stall Begin Bucket Count 1: 0
 ROB Critical Load Stall End Bucket Count 1: 0
 ROB Load Stall Begin Bucket Count 2: 676618
 ROB Load Stall End Bucket Count 2: 679968
 ROB Critical Load Stall Begin Bucket Count 2: 0
 ROB Critical Load Stall End Bucket Count 2: 0
 ROB Load Stall Begin Bucket Count 3: 692958
 ROB Load Stall End Bucket Count 3: 691831
 ROB Critical Load Stall Begin Bucket Count 3: 0
 ROB Critical Load Stall End Bucket Count 3: 0
 ROB Load Stall Begin Bucket Count 4: 740929
 ROB Load Stall End Bucket Count 4: 740252
 ROB Critical Load Stall Begin Bucket Count 4: 0
 ROB Critical Load Stall End Bucket Count 4: 0
 ROB Load Stall Begin Bucket Count 5: 647115
 ROB Load Stall End Bucket Count 5: 651993
 ROB Critical Load Stall Begin Bucket Count 5: 0
 ROB Critical Load Stall End Bucket Count 5: 0
 ROB Load Stall Begin Bucket Count 6: 5402757
 ROB Load Stall End Bucket Count 6: 5513842
 ROB Critical Load Stall Begin Bucket Count 6: 0
 ROB Critical Load Stall End Bucket Count 6: 0
PIST Tag Read Accesses: 835998
PIST Read Accesses: 417999
PIST Tag Write Accesses: 835998
PIST Write Accesses: 417999
Criticality detector called times: 528306
Max global_stall_cycles_count: 1094647
Threshold Modified: 1 times, factor: -1
Sturdy critical IP cache stats: 
 Unused entries: 0
CIC Tag Read Accesses: 0
CIC Read Accesses: 0
CIC Tag Write Accesses: 0
CIC Write Accesses: 0
Wobbly critical IP cache stats: 
 Unused entries: 99
CIC Tag Read Accesses: 229389693
CIC Read Accesses: 0
CIC Tag Write Accesses: 156562
CIC Write Accesses: 0
ITLB TOTAL     ACCESS:   21459145  HIT:   21459145  MISS:          0  HIT %:        100  MISS %:          0   MPKI: 0
ITLB LOAD TRANSLATION ACCESS:   21459145  HIT:   21459145  MISS:          0  HIT %:        100  MISS %:          0   MPKI: 0
ITLB PREFETCH  REQUESTED:          0  ISSUED:          0  USEFUL:          0  USELESS:          0
ITLB USEFUL LOAD PREFETCHES:          0 PREFETCH ISSUED TO LOWER LEVEL:          0  ACCURACY: -nan
ITLB TIMELY PREFETCHES:          0 LATE PREFETCHES: 0 DROPPED PREFETCHES: 0
ITLB PREFETCHES SAME FILL-ORIGIN LEVEL: 0 DIFFERENT FILL-ORIGIN LEVEL: 0
ITLB AVERAGE MISS LATENCY: -nan cycles
ITLB RQ	ACCESS:   21805559	FORWARD:          0	MERGED:     346415	TO_CACHE:   21459144

DTLB TOTAL     ACCESS:   15355142  HIT:   15219027  MISS:     136115  HIT %:    99.1136  MISS %:   0.886446   MPKI: 1.36115
DTLB LOAD TRANSLATION ACCESS:   15355142  HIT:   15219027  MISS:     136115  HIT %:    99.1136  MISS %:   0.886446   MPKI: 1.36115
DTLB PREFETCH  REQUESTED:          0  ISSUED:          0  USEFUL:          0  USELESS:          0
DTLB USEFUL LOAD PREFETCHES:          0 PREFETCH ISSUED TO LOWER LEVEL:          0  ACCURACY: -nan
DTLB TIMELY PREFETCHES:          0 LATE PREFETCHES: 0 DROPPED PREFETCHES: 0
DTLB PREFETCHES SAME FILL-ORIGIN LEVEL: 0 DIFFERENT FILL-ORIGIN LEVEL: 0
DTLB AVERAGE MISS LATENCY: 68.9261 cycles
DTLB RQ	ACCESS:   18093543	FORWARD:          0	MERGED:    2737871	TO_CACHE:   15355672

STLB TOTAL     ACCESS:     136115  HIT:       4740  MISS:     131375  HIT %:    3.48235  MISS %:    96.5177   MPKI: 1.31375
STLB LOAD TRANSLATION ACCESS:     136115  HIT:       4740  MISS:     131375  HIT %:    3.48235  MISS %:    96.5177   MPKI: 1.31375
STLB PREFETCH  REQUESTED:          0  ISSUED:          0  USEFUL:          0  USELESS:          0
STLB USEFUL LOAD PREFETCHES:          0 PREFETCH ISSUED TO LOWER LEVEL:          0  ACCURACY: -nan
STLB TIMELY PREFETCHES:          0 LATE PREFETCHES: 0 DROPPED PREFETCHES: 0
STLB PREFETCHES SAME FILL-ORIGIN LEVEL: 0 DIFFERENT FILL-ORIGIN LEVEL: 0
STLB AVERAGE MISS LATENCY: 62.0878 cycles
STLB RQ	ACCESS:     136114	FORWARD:          0	MERGED:          0	TO_CACHE:     136114

STLB Hit, L1D data hit: 0
STLB Hit, L2C data hit: 0
STLB Hit, LLC data hit: 0
STLB Hit, LLC data miss: 0
STLB STLB hints to L2: 0
L1D TOTAL     ACCESS:   15652650  HIT:    8651198  MISS:    7001452  HIT %:    55.2699  MISS %:    44.7301   MPKI: 70.0145
L1D LOAD      ACCESS:   14328501  HIT:    7329802  MISS:    6998699  HIT %:    51.1554  MISS %:    48.8446   MPKI: 69.987
L1D RFO       ACCESS:    1324149  HIT:    1321396  MISS:       2753  HIT %:    99.7921  MISS %:   0.207907   MPKI: 0.02753
L1D PREFETCH  REQUESTED:          0  ISSUED:          0  USEFUL:          0  USELESS:          0
L1D USEFUL LOAD PREFETCHES:          0 PREFETCH ISSUED TO LOWER LEVEL:          0  ACCURACY: -nan
L1D TIMELY PREFETCHES:          0 LATE PREFETCHES: 0 DROPPED PREFETCHES: 0
L1D PREFETCHES SAME FILL-ORIGIN LEVEL: 0 DIFFERENT FILL-ORIGIN LEVEL: 0
L1D AVERAGE MISS LATENCY: 19.6923 cycles
L1D RQ	ACCESS:   35894936	FORWARD:          0	MERGED:   19122452	TO_CACHE:   16769382
L1D WQ	ACCESS:    1469578	FORWARD:       3102	MERGED:     145417	TO_CACHE:    1324161

L1D UNIQUE REGIONS ACCESSED: 0
L1D REGIONS CONFLICTS: 0
L1D Cross Page Prefetch Requests: 0
L1D Same Page Prefetch Requests: 0
L1D ROI Sum of L1D PQ occupancy: 0
L1D PREFETCHES PUSHED FROM L2C: 0
L1I TOTAL     ACCESS:   21805557  HIT:   21805532  MISS:         25  HIT %:    99.9999  MISS %: 0.00011465   MPKI: 0.00025
L1I LOAD      ACCESS:   21805557  HIT:   21805532  MISS:         25  HIT %:    99.9999  MISS %: 0.00011465   MPKI: 0.00025
L1I PREFETCH  REQUESTED:          0  ISSUED:          0  USEFUL:          0  USELESS:          0
L1I USEFUL LOAD PREFETCHES:          0 PREFETCH ISSUED TO LOWER LEVEL:          0  ACCURACY: -nan
L1I TIMELY PREFETCHES:          0 LATE PREFETCHES: 0 DROPPED PREFETCHES: 0
L1I PREFETCHES SAME FILL-ORIGIN LEVEL: 0 DIFFERENT FILL-ORIGIN LEVEL: 0
L1I AVERAGE MISS LATENCY: 214 cycles
L1I RQ	ACCESS:   32260747	FORWARD:          0	MERGED:   10455188	TO_CACHE:   21805559

BTB TOTAL     ACCESS:   23931406  HIT:   23930814  MISS:        592  HIT %:    99.9975  MISS %: 0.00247374   MPKI: 0.00592
BTB BRANCH_DIRECT_JUMP	ACCESS:     340935  HIT:     340899  MISS:         36
BTB BRANCH_INDIRECT	ACCESS:          0  HIT:          0  MISS:          0
BTB BRANCH_CONDITIONAL	ACCESS:   23252725  HIT:   23252648  MISS:         77
BTB BRANCH_DIRECT_CALL	ACCESS:     168873  HIT:     168857  MISS:         16
BTB BRANCH_INDIRECT_CALL	ACCESS:          0  HIT:          0  MISS:          0
BTB BRANCH_RETURN	ACCESS:     168873  HIT:     168410  MISS:        463
BTB BRANCH_OTHER ACCESS:          0  HIT:          0  MISS:          0

L2C TOTAL     ACCESS:   14212153  HIT:    6880191  MISS:    7331962  HIT %:    48.4106  MISS %:    51.5894   MPKI: 73.3196
L2C LOAD      ACCESS:    6998724  HIT:    6715870  MISS:     282854  HIT %:    95.9585  MISS %:    4.04151   MPKI: 2.82854
L2C DATA LOAD MPKI: 2.82829
L2C INSTRUCTION LOAD MPKI: 0.00025
L2C RFO       ACCESS:       2753  HIT:       1135  MISS:       1618  HIT %:    41.2278  MISS %:    58.7722   MPKI: 0.01618
L2C PREFETCH  ACCESS:    7065114  HIT:      50276  MISS:    7014838  HIT %:   0.711609  MISS %:    99.2884   MPKI: 70.1484
L2C DATA PREFETCH MPKI: 70.1484
L2C INSTRUCTION PREFETCH MPKI: 0
L2C WRITEBACK ACCESS:      11211  HIT:      10291  MISS:        920  HIT %:    91.7938  MISS %:    8.20623   MPKI: 0.0092
L2C LOAD TRANSLATION ACCESS:     134351  HIT:     102619  MISS:      31732  HIT %:    76.3813  MISS %:    23.6187   MPKI: 0.31732
L2C PREFETCH  REQUESTED:    7078391  ISSUED:    7078391  USEFUL:    6714152  USELESS:     300748
L2C USEFUL LOAD PREFETCHES:    6714152 PREFETCH ISSUED TO LOWER LEVEL:    7024502  ACCURACY: 95.5819
L2C TIMELY PREFETCHES:    6714152 LATE PREFETCHES: 9664 DROPPED PREFETCHES: 0
L2C PREFETCHES SAME FILL-ORIGIN LEVEL: 7024502 DIFFERENT FILL-ORIGIN LEVEL: 0
L2C AVERAGE MISS LATENCY: 128.857 cycles
L2C RQ	ACCESS:    7135828	FORWARD:          0	MERGED:          0	TO_CACHE:    7135828
L2C WQ	ACCESS:      11211	FORWARD:          0	MERGED:          0	TO_CACHE:      11211
L2C PQ	ACCESS:    7078391	FORWARD:          0	MERGED:          0	TO_CACHE:    7078391

L2C Instructions Evicting Data 25
L2C Translations Evicting Data 31619
L2C Data Evicting Data 7267640
L2C Instructions Evicting Instructions 0
L2C Translations Evicting Instructions 0
L2C Data Evicting Instructions 25
L2C Instructions Evicting Translations 0
L2C Translations Evicting Translations 113
L2C Data Evicting Translations 31620
L2C Dense regions hint from L2: 0
PSCL5 TOTAL     ACCESS:     131374  HIT:     131374  MISS:          0  HIT %:        100  MISS %:          0   MPKI: 0
PSCL5 LOAD TRANSLATION ACCESS:     131374  HIT:     131374  MISS:          0  HIT %:        100  MISS %:          0   MPKI: 0
PSCL5 PREFETCH  REQUESTED:          0  ISSUED:          0  USEFUL:          0  USELESS:          0
PSCL5 USEFUL LOAD PREFETCHES:          0 PREFETCH ISSUED TO LOWER LEVEL:          0  ACCURACY: -nan
PSCL5 TIMELY PREFETCHES:          0 LATE PREFETCHES: 0 DROPPED PREFETCHES: 0
PSCL5 PREFETCHES SAME FILL-ORIGIN LEVEL: 0 DIFFERENT FILL-ORIGIN LEVEL: 0

PSCL4 TOTAL     ACCESS:     131374  HIT:     131374  MISS:          0  HIT %:        100  MISS %:          0   MPKI: 0
PSCL4 LOAD TRANSLATION ACCESS:     131374  HIT:     131374  MISS:          0  HIT %:        100  MISS %:          0   MPKI: 0
PSCL4 PREFETCH  REQUESTED:          0  ISSUED:          0  USEFUL:          0  USELESS:          0
PSCL4 USEFUL LOAD PREFETCHES:          0 PREFETCH ISSUED TO LOWER LEVEL:          0  ACCURACY: -nan
PSCL4 TIMELY PREFETCHES:          0 LATE PREFETCHES: 0 DROPPED PREFETCHES: 0
PSCL4 PREFETCHES SAME FILL-ORIGIN LEVEL: 0 DIFFERENT FILL-ORIGIN LEVEL: 0

PSCL3 TOTAL     ACCESS:     131371  HIT:     131359  MISS:         12  HIT %:    99.9909  MISS %: 0.00913444   MPKI: 0.00012
PSCL3 LOAD TRANSLATION ACCESS:     131371  HIT:     131359  MISS:         12  HIT %:    99.9909  MISS %: 0.00913444   MPKI: 0.00012
PSCL3 PREFETCH  REQUESTED:          0  ISSUED:          0  USEFUL:          0  USELESS:          0
PSCL3 USEFUL LOAD PREFETCHES:          0 PREFETCH ISSUED TO LOWER LEVEL:          0  ACCURACY: -nan
PSCL3 TIMELY PREFETCHES:          0 LATE PREFETCHES: 0 DROPPED PREFETCHES: 0
PSCL3 PREFETCHES SAME FILL-ORIGIN LEVEL: 0 DIFFERENT FILL-ORIGIN LEVEL: 0

PSCL2 TOTAL     ACCESS:     131374  HIT:     128404  MISS:       2970  HIT %:    97.7393  MISS %:    2.26072   MPKI: 0.0297
PSCL2 LOAD TRANSLATION ACCESS:     131374  HIT:     128404  MISS:       2970  HIT %:    97.7393  MISS %:    2.26072   MPKI: 0.0297
PSCL2 PREFETCH  REQUESTED:          0  ISSUED:          0  USEFUL:          0  USELESS:          0
PSCL2 USEFUL LOAD PREFETCHES:          0 PREFETCH ISSUED TO LOWER LEVEL:          0  ACCURACY: -nan
PSCL2 TIMELY PREFETCHES:          0 LATE PREFETCHES: 0 DROPPED PREFETCHES: 0
PSCL2 PREFETCHES SAME FILL-ORIGIN LEVEL: 0 DIFFERENT FILL-ORIGIN LEVEL: 0

LLC TOTAL     ACCESS:    7342235  HIT:      28883  MISS:    7313352  HIT %:   0.393382  MISS %:    99.6066   MPKI: 73.1335
LLC LOAD      ACCESS:     273190  HIT:       2589  MISS:     270601  HIT %:   0.947692  MISS %:    99.0523   MPKI: 2.70601
LLC RFO       ACCESS:       1618  HIT:        105  MISS:       1513  HIT %:    6.48949  MISS %:    93.5105   MPKI: 0.01513
LLC PREFETCH  ACCESS:    7024502  HIT:      12298  MISS:    7012204  HIT %:   0.175073  MISS %:    99.8249   MPKI: 70.122
LLC WRITEBACK ACCESS:      11193  HIT:      11010  MISS:        183  HIT %:     98.365  MISS %:    1.63495   MPKI: 0.00183
LLC LOAD TRANSLATION ACCESS:      31732  HIT:       2881  MISS:      28851  HIT %:    9.07916  MISS %:    90.9208   MPKI: 0.28851
LLC PREFETCH  REQUESTED:          0  ISSUED:          0  USEFUL:       1945  USELESS:    7009944
LLC USEFUL LOAD PREFETCHES:       1945 PREFETCH ISSUED TO LOWER LEVEL:    7012204  ACCURACY: 0.0277374
LLC TIMELY PREFETCHES:       1945 LATE PREFETCHES: 0 DROPPED PREFETCHES: 0
LLC PREFETCHES SAME FILL-ORIGIN LEVEL: 0 DIFFERENT FILL-ORIGIN LEVEL: 0
LLC AVERAGE MISS LATENCY: 99.2872 cycles
LLC RQ	ACCESS:     306540	FORWARD:          0	MERGED:          0	TO_CACHE:     306540
LLC WQ	ACCESS:      11193	FORWARD:          0	MERGED:          0	TO_CACHE:      11193
LLC PQ	ACCESS:    7024502	FORWARD:          0	MERGED:          0	TO_CACHE:    7024502

LLC Dense regions hint to LLC: 0

RAW hits: 8380
Loads Generated: 35903318
Loads sent to L1D: 35894936
Stores Generated: 1469578
Stores sent to L1D: 1469578
Major fault: 0 Minor fault: 48987
Allocated PAGES: 48987
[Bingo] PHT Access: 257712
[Bingo] PHT Hit PC+Addr: 2504
[Bingo] PHT Hit PC+Offs: 253871
[Bingo] PHT Miss: 1337
[Bingo] Prefetch PC+Addr: 0
[Bingo] Prefetch PC+Offs: 0
[Bingo] Useful PC+Addr: 0
[Bingo] Useful PC+Offs: 0
[Bingo] Useless PC+Addr: 0
[Bingo] Useless PC+Offs: 0
[Bingo] L1 Prefetch per Region: 0
[Bingo] L2 Prefetch per Region: 28.6888
[Bingo] L3 Prefetch per Region: 0
[Bingo] No Prefetch per Region: 3.31117
[Bingo] Number of Voters Mean: 15.885
[Bingo] Number of Voters SD: 11.1766
PHT read accesses: 4082998
PHT write accesses: 244500
AT read accesses: 6783417
AT write accesses: 6984961
FT read accesses: 747856
FT write accesses: 257712
PS read accesses: 741496
PS write accesses: 256375
PHT tag read accesses: 11904379
PHT tag write accesses: 247004
AT tag read accesses: 240706547
AT tag write accesses: 7027954
FT tag read accesses: 133875443
FT tag write accesses: 760468
PS tag read accesses: 122226803
PS tag write accesses: 996979

DRAM Statistics
 CHANNEL 0
 RQ ROW_BUFFER_HIT:    7032756  ROW_BUFFER_MISS:     280413
 DBUS_CONGESTED:        620
 WQ ROW_BUFFER_HIT:        362  ROW_BUFFER_MISS:      10841  FULL:          0

 AVG_CONGESTED_CYCLE: 2
 All warmup complete: 2
Channel 0 Bank busy for read cycles: 0
Channel 0 Bank busy for write cycles: 0
Channel 0
Rank 0
0banks busy for read cycles: 249148028
0banks busy for write cycles: 7412
1banks busy for read cycles: 16314468
1banks busy for write cycles: 814373
2banks busy for read cycles: 2505691
2banks busy for write cycles: 241345
3banks busy for read cycles: 1893917
3banks busy for write cycles: 82344
4banks busy for read cycles: 1623100
4banks busy for write cycles: 29496
5banks busy for read cycles: 1352112
5banks busy for write cycles: 9433
6banks busy for read cycles: 1190224
6banks busy for write cycles: 1115
7banks busy for read cycles: 13388699
7banks busy for write cycles: 275
8banks busy for read cycles: 31573480
8banks busy for write cycles: 0

CPU 0 Branch Prediction Accuracy: 99.7034% MPKI: 1.05722 Average ROB Occupancy at Mispredict: 262.263
Branch types
NOT_BRANCH: 64349939 64.3499%
BRANCH_DIRECT_JUMP: 340935 0.340935%
BRANCH_INDIRECT: 0 0%
BRANCH_CONDITIONAL: 34971407 34.9714%
BRANCH_DIRECT_CALL: 168873 0.168873%
BRANCH_INDIRECT_CALL: 0 0%
BRANCH_RETURN: 168873 0.168873%
BRANCH_OTHER: 0 0%

DRAM PAGES: 1048576
Allocated PAGES: 48987
