Initialize SIGNATURE TABLE
ST_SET: 1
ST_WAY: 16
ST_TAG_BIT: 16
ST_TAG_MASK: ffff

Initialize PATTERN TABLE
PT_SET: 16
PT_WAY: 4
SIG_DELTA_BIT: 7
C_SIG_BIT: 4
C_DELTA_BIT: 4

Initialize PREFETCH FILTER
FILTER_SET: 1024

Initialize PERCEPTRON
PERC_ENTRIES: 4096
PERC_FEATURES: 9

*** ChampSim Multicore Out-of-Order Simulator ***

Warmup Instructions: 50000000
Simulation Instructions: 100000000
Number of CPUs: 1
LLC sets: 2048
LLC ways: 16
Off-chip DRAM Size: 4096 MB Channels: 1 Width: 64-bit Data Rate: 6400 MT/s
CPU 0 runs ../SPEC2017//602.gcc_s-2226B.champsimtrace.xz
.xz
BTB has LRU replacement policy
ITLB has LRU replacement policy
DTLB has LRU replacement policy
STLB has LRU replacement policy
L1I has LRU replacement policy
L1D has LRU replacement policy
Initialize SRRIP state for L2C
Initialize DRRIP state for LLC
Heartbeat CPU 0 instructions: 10000002 cycles: 3798720 heartbeat IPC: 2.63247 cumulative IPC: 2.63247 (Simulation time: 0 hr 7 min 23 sec) 
Heartbeat CPU 0 instructions: 20000001 cycles: 7599778 heartbeat IPC: 2.63085 cumulative IPC: 2.63166 (Simulation time: 0 hr 13 min 30 sec) 
Heartbeat CPU 0 instructions: 30000001 cycles: 11396488 heartbeat IPC: 2.63386 cumulative IPC: 2.63239 (Simulation time: 0 hr 19 min 20 sec) 
Heartbeat CPU 0 instructions: 40000002 cycles: 15192916 heartbeat IPC: 2.63406 cumulative IPC: 2.63281 (Simulation time: 0 hr 24 min 39 sec) 
Heartbeat CPU 0 instructions: 50000000 cycles: 18993319 heartbeat IPC: 2.6313 cumulative IPC: 2.6325 (Simulation time: 0 hr 29 min 32 sec) 

Warmup complete CPU 0 instructions: 50000004 cycles: 18993320 (Simulation time: 0 hr 29 min 32 sec) 

Heartbeat CPU 0 instructions: 60000002 cycles: 50763827 heartbeat IPC: 0.314757 cumulative IPC: 0.314757 (Simulation time: 0 hr 38 min 21 sec) 
Heartbeat CPU 0 instructions: 70000000 cycles: 82116139 heartbeat IPC: 0.318956 cumulative IPC: 0.316843 (Simulation time: 0 hr 46 min 1 sec) 
Heartbeat CPU 0 instructions: 80000000 cycles: 113611854 heartbeat IPC: 0.317504 cumulative IPC: 0.317063 (Simulation time: 0 hr 53 min 1 sec) 
Heartbeat CPU 0 instructions: 90000001 cycles: 145296224 heartbeat IPC: 0.315613 cumulative IPC: 0.316699 (Simulation time: 0 hr 59 min 42 sec) 
Heartbeat CPU 0 instructions: 100000001 cycles: 176913889 heartbeat IPC: 0.316279 cumulative IPC: 0.316615 (Simulation time: 1 hr 8 min 3 sec) 
Heartbeat CPU 0 instructions: 110000000 cycles: 208252761 heartbeat IPC: 0.319093 cumulative IPC: 0.317025 (Simulation time: 1 hr 21 min 16 sec) 
Heartbeat CPU 0 instructions: 120000000 cycles: 239861982 heartbeat IPC: 0.316363 cumulative IPC: 0.31693 (Simulation time: 1 hr 31 min 48 sec) 
Heartbeat CPU 0 instructions: 130000001 cycles: 271608345 heartbeat IPC: 0.314997 cumulative IPC: 0.316687 (Simulation time: 1 hr 40 min 29 sec) 
Heartbeat CPU 0 instructions: 140000000 cycles: 303064530 heartbeat IPC: 0.317902 cumulative IPC: 0.316822 (Simulation time: 1 hr 48 min 32 sec) 
Heartbeat CPU 0 instructions: 150000001 cycles: 334522838 heartbeat IPC: 0.317881 cumulative IPC: 0.316928 (Simulation time: 1 hr 56 min 18 sec) 
Finished CPU 0 instructions: 100000000 cycles: 315529532 cumulative IPC: 0.316928 (Simulation time: 1 hr 56 min 18 sec) 

ChampSim completed all CPUs

Region of Interest Statistics

CPU 0 cumulative IPC: 0.316928 instructions: 100000000 cycles: 315529532

CPU 0 Average Load ROB stall cycles: 5.47287e+07
CPU 0 Fraction of times ROB stalled by Loads: 30.9463
CPU 0 Percentage of Load stall cycles in Total stall cycles: 5.86512e+08
Issued all: 190309974
Issued LT all: 182272909
rob_not_full_when_issued_lt_all: 24462448
Issued LT one: 158092636
rob_not_full_when_issued_lt_one: 23396443
FVP critical_dynamic_instances_0: 35348936
FVP unique_critical_ips_0: 102
 Total stall cycles: 297145521
 Total load stall cycles: 1742795096191796
Unique Load IPs: 236
CPU 0 NUM of IPS identified critical: 0
CPU 0 Num of Load IPs stalling ROB: 0
Threshold modification factor: 0
Trouble in retire width: -nan
MaC = Marked as critical.
lt_50_percent_before_Mac: 0
gt_90_percent_before_Mac: 0
gt_75_percent_before_Mac: 0
gt_50_percent_before_Mac: 0
stall_proportion_bin_same_before_after: 0
stall_proportion_bin_lower_before_after: 0
stall_proportion_bin_upper_before_after: 0
average_stall_proportion_before: -nan
average_stall_proportion_after: -nan
Critical IP stalls, total frequency: 0
Non-critical IP stalls, total frequency: 0
Total Freq all stalling IPs: 0
Critical_IP_Detector_Accuracy_70: 0.00980392
Critical_IP_Detector_Accuracy_80: 0.00980392
Critical_IP_Detector_Accuracy_90: 0.00980392
Critical_IP_Detector_Coverage_70: 1
Critical_IP_Detector_Coverage_80: 1
Critical_IP_Detector_Coverage_90: 1
stat_90_percent_critical_ip_stalls_freq: 8373046
stat_90_percent_non_critical_ip_stalls_freq: 18446744073701178570
AVERAGE_ROB_Occupancy_90_Percent_Critical_IP_Stalls: 276.811
AVERAGE_ROB_Occupancy_90_Percent_Non_Critical_IP_Stalls: 1.28328e-11
Critical_IP_ROB_Stalls_Bucket_0: 0
Non-critical_IP_ROB_Stalls_Bucket_0: 572469
Critical_IP_ROB_Stalls_Bucket_1: 0
Non-critical_IP_ROB_Stalls_Bucket_1: 999577
Critical_IP_ROB_Stalls_Bucket_2: 0
Non-critical_IP_ROB_Stalls_Bucket_2: 686384
Critical_IP_ROB_Stalls_Bucket_3: 0
Non-critical_IP_ROB_Stalls_Bucket_3: 707244
Critical_IP_ROB_Stalls_Bucket_4: 0
Non-critical_IP_ROB_Stalls_Bucket_4: 757630
Critical_IP_ROB_Stalls_Bucket_5: 0
Non-critical_IP_ROB_Stalls_Bucket_5: 666566
Critical_IP_ROB_Stalls_Bucket_6: 0
Non-critical_IP_ROB_Stalls_Bucket_6: 5464756
0 => IPs accounting for >50 percent of stalls, 1 => 55, 2 => 60, 3 => 65 and so on till 90.
percent50: inf num IPs:  1
percent55: inf num IPs: 1
percent60: inf num IPs: 1
percent65: inf num IPs: 1
percent70: inf num IPs: 1
percent75: inf num IPs: 1
percent80: inf num IPs: 1
percent85: inf num IPs: 1
percent90: inf num IPs: 1
Critical_ROB_Stalls_Percent_0_Bucket_0: 355653
Non-critical_ROB_Stalls_Percent_0_Bucket_0: 216816
Critical_ROB_Stalls_Percent_0_Bucket_1: 497841
Non-critical_ROB_Stalls_Percent_0_Bucket_1: 501736
Critical_ROB_Stalls_Percent_0_Bucket_2: 593038
Non-critical_ROB_Stalls_Percent_0_Bucket_2: 93346
Critical_ROB_Stalls_Percent_0_Bucket_3: 581414
Non-critical_ROB_Stalls_Percent_0_Bucket_3: 125830
Critical_ROB_Stalls_Percent_0_Bucket_4: 563706
Non-critical_ROB_Stalls_Percent_0_Bucket_4: 193924
Critical_ROB_Stalls_Percent_0_Bucket_5: 625216
Non-critical_ROB_Stalls_Percent_0_Bucket_5: 41350
Critical_ROB_Stalls_Percent_0_Bucket_6: 5156178
Non-critical_ROB_Stalls_Percent_0_Bucket_6: 308578
Critical_ROB_Stalls_Percent_1_Bucket_0: 355653
Non-critical_ROB_Stalls_Percent_1_Bucket_0: 216816
Critical_ROB_Stalls_Percent_1_Bucket_1: 497841
Non-critical_ROB_Stalls_Percent_1_Bucket_1: 501736
Critical_ROB_Stalls_Percent_1_Bucket_2: 593038
Non-critical_ROB_Stalls_Percent_1_Bucket_2: 93346
Critical_ROB_Stalls_Percent_1_Bucket_3: 581414
Non-critical_ROB_Stalls_Percent_1_Bucket_3: 125830
Critical_ROB_Stalls_Percent_1_Bucket_4: 563706
Non-critical_ROB_Stalls_Percent_1_Bucket_4: 193924
Critical_ROB_Stalls_Percent_1_Bucket_5: 625216
Non-critical_ROB_Stalls_Percent_1_Bucket_5: 41350
Critical_ROB_Stalls_Percent_1_Bucket_6: 5156178
Non-critical_ROB_Stalls_Percent_1_Bucket_6: 308578
Critical_ROB_Stalls_Percent_2_Bucket_0: 355653
Non-critical_ROB_Stalls_Percent_2_Bucket_0: 216816
Critical_ROB_Stalls_Percent_2_Bucket_1: 497841
Non-critical_ROB_Stalls_Percent_2_Bucket_1: 501736
Critical_ROB_Stalls_Percent_2_Bucket_2: 593038
Non-critical_ROB_Stalls_Percent_2_Bucket_2: 93346
Critical_ROB_Stalls_Percent_2_Bucket_3: 581414
Non-critical_ROB_Stalls_Percent_2_Bucket_3: 125830
Critical_ROB_Stalls_Percent_2_Bucket_4: 563706
Non-critical_ROB_Stalls_Percent_2_Bucket_4: 193924
Critical_ROB_Stalls_Percent_2_Bucket_5: 625216
Non-critical_ROB_Stalls_Percent_2_Bucket_5: 41350
Critical_ROB_Stalls_Percent_2_Bucket_6: 5156178
Non-critical_ROB_Stalls_Percent_2_Bucket_6: 308578
Critical_ROB_Stalls_Percent_3_Bucket_0: 355653
Non-critical_ROB_Stalls_Percent_3_Bucket_0: 216816
Critical_ROB_Stalls_Percent_3_Bucket_1: 497841
Non-critical_ROB_Stalls_Percent_3_Bucket_1: 501736
Critical_ROB_Stalls_Percent_3_Bucket_2: 593038
Non-critical_ROB_Stalls_Percent_3_Bucket_2: 93346
Critical_ROB_Stalls_Percent_3_Bucket_3: 581414
Non-critical_ROB_Stalls_Percent_3_Bucket_3: 125830
Critical_ROB_Stalls_Percent_3_Bucket_4: 563706
Non-critical_ROB_Stalls_Percent_3_Bucket_4: 193924
Critical_ROB_Stalls_Percent_3_Bucket_5: 625216
Non-critical_ROB_Stalls_Percent_3_Bucket_5: 41350
Critical_ROB_Stalls_Percent_3_Bucket_6: 5156178
Non-critical_ROB_Stalls_Percent_3_Bucket_6: 308578
Critical_ROB_Stalls_Percent_4_Bucket_0: 355653
Non-critical_ROB_Stalls_Percent_4_Bucket_0: 216816
Critical_ROB_Stalls_Percent_4_Bucket_1: 497841
Non-critical_ROB_Stalls_Percent_4_Bucket_1: 501736
Critical_ROB_Stalls_Percent_4_Bucket_2: 593038
Non-critical_ROB_Stalls_Percent_4_Bucket_2: 93346
Critical_ROB_Stalls_Percent_4_Bucket_3: 581414
Non-critical_ROB_Stalls_Percent_4_Bucket_3: 125830
Critical_ROB_Stalls_Percent_4_Bucket_4: 563706
Non-critical_ROB_Stalls_Percent_4_Bucket_4: 193924
Critical_ROB_Stalls_Percent_4_Bucket_5: 625216
Non-critical_ROB_Stalls_Percent_4_Bucket_5: 41350
Critical_ROB_Stalls_Percent_4_Bucket_6: 5156178
Non-critical_ROB_Stalls_Percent_4_Bucket_6: 308578
Critical_ROB_Stalls_Percent_5_Bucket_0: 355653
Non-critical_ROB_Stalls_Percent_5_Bucket_0: 216816
Critical_ROB_Stalls_Percent_5_Bucket_1: 497841
Non-critical_ROB_Stalls_Percent_5_Bucket_1: 501736
Critical_ROB_Stalls_Percent_5_Bucket_2: 593038
Non-critical_ROB_Stalls_Percent_5_Bucket_2: 93346
Critical_ROB_Stalls_Percent_5_Bucket_3: 581414
Non-critical_ROB_Stalls_Percent_5_Bucket_3: 125830
Critical_ROB_Stalls_Percent_5_Bucket_4: 563706
Non-critical_ROB_Stalls_Percent_5_Bucket_4: 193924
Critical_ROB_Stalls_Percent_5_Bucket_5: 625216
Non-critical_ROB_Stalls_Percent_5_Bucket_5: 41350
Critical_ROB_Stalls_Percent_5_Bucket_6: 5156178
Non-critical_ROB_Stalls_Percent_5_Bucket_6: 308578
Critical_ROB_Stalls_Percent_6_Bucket_0: 355653
Non-critical_ROB_Stalls_Percent_6_Bucket_0: 216816
Critical_ROB_Stalls_Percent_6_Bucket_1: 497841
Non-critical_ROB_Stalls_Percent_6_Bucket_1: 501736
Critical_ROB_Stalls_Percent_6_Bucket_2: 593038
Non-critical_ROB_Stalls_Percent_6_Bucket_2: 93346
Critical_ROB_Stalls_Percent_6_Bucket_3: 581414
Non-critical_ROB_Stalls_Percent_6_Bucket_3: 125830
Critical_ROB_Stalls_Percent_6_Bucket_4: 563706
Non-critical_ROB_Stalls_Percent_6_Bucket_4: 193924
Critical_ROB_Stalls_Percent_6_Bucket_5: 625216
Non-critical_ROB_Stalls_Percent_6_Bucket_5: 41350
Critical_ROB_Stalls_Percent_6_Bucket_6: 5156178
Non-critical_ROB_Stalls_Percent_6_Bucket_6: 308578
Critical_ROB_Stalls_Percent_7_Bucket_0: 355653
Non-critical_ROB_Stalls_Percent_7_Bucket_0: 216816
Critical_ROB_Stalls_Percent_7_Bucket_1: 497841
Non-critical_ROB_Stalls_Percent_7_Bucket_1: 501736
Critical_ROB_Stalls_Percent_7_Bucket_2: 593038
Non-critical_ROB_Stalls_Percent_7_Bucket_2: 93346
Critical_ROB_Stalls_Percent_7_Bucket_3: 581414
Non-critical_ROB_Stalls_Percent_7_Bucket_3: 125830
Critical_ROB_Stalls_Percent_7_Bucket_4: 563706
Non-critical_ROB_Stalls_Percent_7_Bucket_4: 193924
Critical_ROB_Stalls_Percent_7_Bucket_5: 625216
Non-critical_ROB_Stalls_Percent_7_Bucket_5: 41350
Critical_ROB_Stalls_Percent_7_Bucket_6: 5156178
Non-critical_ROB_Stalls_Percent_7_Bucket_6: 308578
Critical_ROB_Stalls_Percent_8_Bucket_0: 355653
Non-critical_ROB_Stalls_Percent_8_Bucket_0: 216816
Critical_ROB_Stalls_Percent_8_Bucket_1: 497841
Non-critical_ROB_Stalls_Percent_8_Bucket_1: 501736
Critical_ROB_Stalls_Percent_8_Bucket_2: 593038
Non-critical_ROB_Stalls_Percent_8_Bucket_2: 93346
Critical_ROB_Stalls_Percent_8_Bucket_3: 581414
Non-critical_ROB_Stalls_Percent_8_Bucket_3: 125830
Critical_ROB_Stalls_Percent_8_Bucket_4: 563706
Non-critical_ROB_Stalls_Percent_8_Bucket_4: 193924
Critical_ROB_Stalls_Percent_8_Bucket_5: 625216
Non-critical_ROB_Stalls_Percent_8_Bucket_5: 41350
Critical_ROB_Stalls_Percent_8_Bucket_6: 5156178
Non-critical_ROB_Stalls_Percent_8_Bucket_6: 308578
Average ROB occupancy Load Stall Begin: 254.608
Average ROB occupancy Load Stall End: 259.216
Min ROB occupancy Load Stall Begin: 1
Max ROB occupancy Load Stall Begin: 352
Min ROB occupancy Load Stall End: 1
Max ROB occupancy Load Stall End: 352
Average ROB occupancy Critical Load Stall Begin: -nan
Average ROB occupancy Critical Load Stall End: -nan
Min ROB occupancy Critical Load Stall Begin: 400
Max ROB occupancy Critical Load Stall Begin: 0
Min ROB occupancy Critical Load Stall End: 400
Max ROB occupancy Critical Load Stall End: 0
 ROB Load Stall Begin Bucket Count 0: 735347
 ROB Load Stall End Bucket Count 0: 572469
 ROB Critical Load Stall Begin Bucket Count 0: 0
 ROB Critical Load Stall End Bucket Count 0: 0
 ROB Load Stall Begin Bucket Count 1: 954957
 ROB Load Stall End Bucket Count 1: 999577
 ROB Critical Load Stall Begin Bucket Count 1: 0
 ROB Critical Load Stall End Bucket Count 1: 0
 ROB Load Stall Begin Bucket Count 2: 683495
 ROB Load Stall End Bucket Count 2: 686384
 ROB Critical Load Stall Begin Bucket Count 2: 0
 ROB Critical Load Stall End Bucket Count 2: 0
 ROB Load Stall Begin Bucket Count 3: 708793
 ROB Load Stall End Bucket Count 3: 707244
 ROB Critical Load Stall Begin Bucket Count 3: 0
 ROB Critical Load Stall End Bucket Count 3: 0
 ROB Load Stall Begin Bucket Count 4: 760230
 ROB Load Stall End Bucket Count 4: 757630
 ROB Critical Load Stall Begin Bucket Count 4: 0
 ROB Critical Load Stall End Bucket Count 4: 0
 ROB Load Stall Begin Bucket Count 5: 659563
 ROB Load Stall End Bucket Count 5: 666566
 ROB Critical Load Stall Begin Bucket Count 5: 0
 ROB Critical Load Stall End Bucket Count 5: 0
 ROB Load Stall Begin Bucket Count 6: 5352241
 ROB Load Stall End Bucket Count 6: 5464756
 ROB Critical Load Stall Begin Bucket Count 6: 0
 ROB Critical Load Stall End Bucket Count 6: 0
PIST Tag Read Accesses: 0
PIST Read Accesses: 0
PIST Tag Write Accesses: 0
PIST Write Accesses: 0
Criticality detector called times: 0
Max global_stall_cycles_count: 0
Threshold Modified: 0 times, factor: 0
ITLB TOTAL     ACCESS:   21408077  HIT:   21408077  MISS:          0  HIT %:        100  MISS %:          0   MPKI: 0
ITLB LOAD TRANSLATION ACCESS:   21408077  HIT:   21408077  MISS:          0  HIT %:        100  MISS %:          0   MPKI: 0
ITLB PREFETCH  REQUESTED:          0  ISSUED:          0  USEFUL:          0  USELESS:          0
ITLB USEFUL LOAD PREFETCHES:          0 PREFETCH ISSUED TO LOWER LEVEL:          0  ACCURACY: -nan
ITLB TIMELY PREFETCHES:          0 LATE PREFETCHES: 0 DROPPED PREFETCHES: 0
ITLB PREFETCHES SAME FILL-ORIGIN LEVEL: 0 DIFFERENT FILL-ORIGIN LEVEL: 0
ITLB AVERAGE MISS LATENCY: -nan cycles
ITLB RQ	ACCESS:   21754547	FORWARD:          0	MERGED:     346471	TO_CACHE:   21408076

DTLB TOTAL     ACCESS:   15355576  HIT:   15219463  MISS:     136113  HIT %:    99.1136  MISS %:   0.886408   MPKI: 1.36113
DTLB LOAD TRANSLATION ACCESS:   15355576  HIT:   15219463  MISS:     136113  HIT %:    99.1136  MISS %:   0.886408   MPKI: 1.36113
DTLB PREFETCH  REQUESTED:          0  ISSUED:          0  USEFUL:          0  USELESS:          0
DTLB USEFUL LOAD PREFETCHES:          0 PREFETCH ISSUED TO LOWER LEVEL:          0  ACCURACY: -nan
DTLB TIMELY PREFETCHES:          0 LATE PREFETCHES: 0 DROPPED PREFETCHES: 0
DTLB PREFETCHES SAME FILL-ORIGIN LEVEL: 0 DIFFERENT FILL-ORIGIN LEVEL: 0
DTLB AVERAGE MISS LATENCY: 70.1872 cycles
DTLB RQ	ACCESS:   18093444	FORWARD:          0	MERGED:    2737333	TO_CACHE:   15356111

STLB TOTAL     ACCESS:     136113  HIT:       4738  MISS:     131375  HIT %:    3.48093  MISS %:    96.5191   MPKI: 1.31375
STLB LOAD TRANSLATION ACCESS:     136113  HIT:       4738  MISS:     131375  HIT %:    3.48093  MISS %:    96.5191   MPKI: 1.31375
STLB PREFETCH  REQUESTED:          0  ISSUED:          0  USEFUL:          0  USELESS:          0
STLB USEFUL LOAD PREFETCHES:          0 PREFETCH ISSUED TO LOWER LEVEL:          0  ACCURACY: -nan
STLB TIMELY PREFETCHES:          0 LATE PREFETCHES: 0 DROPPED PREFETCHES: 0
STLB PREFETCHES SAME FILL-ORIGIN LEVEL: 0 DIFFERENT FILL-ORIGIN LEVEL: 0
STLB AVERAGE MISS LATENCY: 63.3934 cycles
STLB RQ	ACCESS:     136113	FORWARD:          0	MERGED:          0	TO_CACHE:     136113

STLB Hit, L1D data hit: 0
STLB Hit, L2C data hit: 0
STLB Hit, LLC data hit: 0
STLB Hit, LLC data miss: 0
STLB STLB hints to L2: 0
L1D TOTAL     ACCESS:   15654039  HIT:    8652588  MISS:    7001451  HIT %:    55.2738  MISS %:    44.7262   MPKI: 70.0145
L1D LOAD      ACCESS:   14329710  HIT:    7331012  MISS:    6998698  HIT %:    51.1595  MISS %:    48.8405   MPKI: 69.987
L1D RFO       ACCESS:    1324329  HIT:    1321576  MISS:       2753  HIT %:    99.7921  MISS %:   0.207879   MPKI: 0.02753
L1D PREFETCH  REQUESTED:          0  ISSUED:          0  USEFUL:          0  USELESS:          0
L1D USEFUL LOAD PREFETCHES:          0 PREFETCH ISSUED TO LOWER LEVEL:          0  ACCURACY: -nan
L1D TIMELY PREFETCHES:          0 LATE PREFETCHES: 0 DROPPED PREFETCHES: 0
L1D PREFETCHES SAME FILL-ORIGIN LEVEL: 0 DIFFERENT FILL-ORIGIN LEVEL: 0
L1D AVERAGE MISS LATENCY: 19.0163 cycles
L1D RQ	ACCESS:   35894946	FORWARD:          0	MERGED:   19122764	TO_CACHE:   16769103
L1D WQ	ACCESS:    1469578	FORWARD:       3079	MERGED:     145237	TO_CACHE:    1324341

L1D UNIQUE REGIONS ACCESSED: 0
L1D REGIONS CONFLICTS: 0
L1D Cross Page Prefetch Requests: 0
L1D Same Page Prefetch Requests: 0
L1D ROI Sum of L1D PQ occupancy: 0
L1D PREFETCHES PUSHED FROM L2C: 0
L1I TOTAL     ACCESS:   21754545  HIT:   21754520  MISS:         25  HIT %:    99.9999  MISS %: 0.000114919   MPKI: 0.00025
L1I LOAD      ACCESS:   21754545  HIT:   21754520  MISS:         25  HIT %:    99.9999  MISS %: 0.000114919   MPKI: 0.00025
L1I PREFETCH  REQUESTED:          0  ISSUED:          0  USEFUL:          0  USELESS:          0
L1I USEFUL LOAD PREFETCHES:          0 PREFETCH ISSUED TO LOWER LEVEL:          0  ACCURACY: -nan
L1I TIMELY PREFETCHES:          0 LATE PREFETCHES: 0 DROPPED PREFETCHES: 0
L1I PREFETCHES SAME FILL-ORIGIN LEVEL: 0 DIFFERENT FILL-ORIGIN LEVEL: 0
L1I AVERAGE MISS LATENCY: 210 cycles
L1I RQ	ACCESS:   32185693	FORWARD:          0	MERGED:   10431146	TO_CACHE:   21754547

BTB TOTAL     ACCESS:   23931406  HIT:   23930814  MISS:        592  HIT %:    99.9975  MISS %: 0.00247374   MPKI: 0.00592
BTB BRANCH_DIRECT_JUMP	ACCESS:     340935  HIT:     340899  MISS:         36
BTB BRANCH_INDIRECT	ACCESS:          0  HIT:          0  MISS:          0
BTB BRANCH_CONDITIONAL	ACCESS:   23252725  HIT:   23252648  MISS:         77
BTB BRANCH_DIRECT_CALL	ACCESS:     168873  HIT:     168857  MISS:         16
BTB BRANCH_INDIRECT_CALL	ACCESS:          0  HIT:          0  MISS:          0
BTB BRANCH_RETURN	ACCESS:     168873  HIT:     168410  MISS:        463
BTB BRANCH_OTHER ACCESS:          0  HIT:          0  MISS:          0

L2C TOTAL     ACCESS:   14894513  HIT:    7646460  MISS:    7248053  HIT %:    51.3374  MISS %:    48.6626   MPKI: 72.4805
L2C LOAD      ACCESS:    6998723  HIT:    6763602  MISS:     235121  HIT %:    96.6405  MISS %:    3.35948   MPKI: 2.35121
L2C DATA LOAD MPKI: 2.35096
L2C INSTRUCTION LOAD MPKI: 0.00025
L2C RFO       ACCESS:       2753  HIT:       2267  MISS:        486  HIT %:    82.3465  MISS %:    17.6535   MPKI: 0.00486
L2C PREFETCH  ACCESS:    7747474  HIT:     767228  MISS:    6980246  HIT %:    9.90294  MISS %:    90.0971   MPKI: 69.8025
L2C DATA PREFETCH MPKI: 69.8025
L2C INSTRUCTION PREFETCH MPKI: 0
L2C WRITEBACK ACCESS:      11211  HIT:      10789  MISS:        422  HIT %:    96.2358  MISS %:    3.76416   MPKI: 0.00422
L2C LOAD TRANSLATION ACCESS:     134352  HIT:     102574  MISS:      31778  HIT %:    76.3472  MISS %:    23.6528   MPKI: 0.31778
L2C PREFETCH  REQUESTED:    7914963  ISSUED:    7914963  USEFUL:    6763061  USELESS:     217052
L2C USEFUL LOAD PREFETCHES:    6763061 PREFETCH ISSUED TO LOWER LEVEL:    6999273  ACCURACY: 96.6252
L2C TIMELY PREFETCHES:    6763061 LATE PREFETCHES: 17377 DROPPED PREFETCHES: 0
L2C PREFETCHES SAME FILL-ORIGIN LEVEL: 6997625 DIFFERENT FILL-ORIGIN LEVEL: 1648
L2C AVERAGE MISS LATENCY: 106.881 cycles
L2C RQ	ACCESS:    7135827	FORWARD:          0	MERGED:          0	TO_CACHE:    7135827
L2C WQ	ACCESS:      11211	FORWARD:          0	MERGED:          0	TO_CACHE:      11211
L2C PQ	ACCESS:    7914963	FORWARD:          0	MERGED:       3001	TO_CACHE:    7911962

L2C Instructions Evicting Data 25
L2C Translations Evicting Data 31646
L2C Data Evicting Data 7184102
L2C Instructions Evicting Instructions 0
L2C Translations Evicting Instructions 0
L2C Data Evicting Instructions 25
L2C Instructions Evicting Translations 0
L2C Translations Evicting Translations 132
L2C Data Evicting Translations 31701
L2C Dense regions hint from L2: 0
PSCL5 TOTAL     ACCESS:     131375  HIT:     131375  MISS:          0  HIT %:        100  MISS %:          0   MPKI: 0
PSCL5 LOAD TRANSLATION ACCESS:     131375  HIT:     131375  MISS:          0  HIT %:        100  MISS %:          0   MPKI: 0
PSCL5 PREFETCH  REQUESTED:          0  ISSUED:          0  USEFUL:          0  USELESS:          0
PSCL5 USEFUL LOAD PREFETCHES:          0 PREFETCH ISSUED TO LOWER LEVEL:          0  ACCURACY: -nan
PSCL5 TIMELY PREFETCHES:          0 LATE PREFETCHES: 0 DROPPED PREFETCHES: 0
PSCL5 PREFETCHES SAME FILL-ORIGIN LEVEL: 0 DIFFERENT FILL-ORIGIN LEVEL: 0

PSCL4 TOTAL     ACCESS:     131375  HIT:     131375  MISS:          0  HIT %:        100  MISS %:          0   MPKI: 0
PSCL4 LOAD TRANSLATION ACCESS:     131375  HIT:     131375  MISS:          0  HIT %:        100  MISS %:          0   MPKI: 0
PSCL4 PREFETCH  REQUESTED:          0  ISSUED:          0  USEFUL:          0  USELESS:          0
PSCL4 USEFUL LOAD PREFETCHES:          0 PREFETCH ISSUED TO LOWER LEVEL:          0  ACCURACY: -nan
PSCL4 TIMELY PREFETCHES:          0 LATE PREFETCHES: 0 DROPPED PREFETCHES: 0
PSCL4 PREFETCHES SAME FILL-ORIGIN LEVEL: 0 DIFFERENT FILL-ORIGIN LEVEL: 0

PSCL3 TOTAL     ACCESS:     131372  HIT:     131360  MISS:         12  HIT %:    99.9909  MISS %: 0.00913437   MPKI: 0.00012
PSCL3 LOAD TRANSLATION ACCESS:     131372  HIT:     131360  MISS:         12  HIT %:    99.9909  MISS %: 0.00913437   MPKI: 0.00012
PSCL3 PREFETCH  REQUESTED:          0  ISSUED:          0  USEFUL:          0  USELESS:          0
PSCL3 USEFUL LOAD PREFETCHES:          0 PREFETCH ISSUED TO LOWER LEVEL:          0  ACCURACY: -nan
PSCL3 TIMELY PREFETCHES:          0 LATE PREFETCHES: 0 DROPPED PREFETCHES: 0
PSCL3 PREFETCHES SAME FILL-ORIGIN LEVEL: 0 DIFFERENT FILL-ORIGIN LEVEL: 0

PSCL2 TOTAL     ACCESS:     131375  HIT:     128405  MISS:       2970  HIT %:    97.7393  MISS %:     2.2607   MPKI: 0.0297
PSCL2 LOAD TRANSLATION ACCESS:     131375  HIT:     128405  MISS:       2970  HIT %:    97.7393  MISS %:     2.2607   MPKI: 0.0297
PSCL2 PREFETCH  REQUESTED:          0  ISSUED:          0  USEFUL:          0  USELESS:          0
PSCL2 USEFUL LOAD PREFETCHES:          0 PREFETCH ISSUED TO LOWER LEVEL:          0  ACCURACY: -nan
PSCL2 TIMELY PREFETCHES:          0 LATE PREFETCHES: 0 DROPPED PREFETCHES: 0
PSCL2 PREFETCHES SAME FILL-ORIGIN LEVEL: 0 DIFFERENT FILL-ORIGIN LEVEL: 0

LLC TOTAL     ACCESS:    7260499  HIT:      21334  MISS:    7239165  HIT %:   0.293837  MISS %:    99.7062   MPKI: 72.3916
LLC LOAD      ACCESS:     217744  HIT:       1335  MISS:     216409  HIT %:   0.613105  MISS %:    99.3869   MPKI: 2.16409
LLC RFO       ACCESS:        486  HIT:        265  MISS:        221  HIT %:    54.5267  MISS %:    45.4733   MPKI: 0.00221
LLC PREFETCH  ACCESS:    6999270  HIT:       5756  MISS:    6993514  HIT %:  0.0822371  MISS %:    99.9178   MPKI: 69.9351
LLC WRITEBACK ACCESS:      11221  HIT:      11052  MISS:        169  HIT %:    98.4939  MISS %:     1.5061   MPKI: 0.00169
LLC LOAD TRANSLATION ACCESS:      31778  HIT:       2926  MISS:      28852  HIT %:    9.20763  MISS %:    90.7924   MPKI: 0.28852
LLC PREFETCH  REQUESTED:          0  ISSUED:          0  USEFUL:        801  USELESS:    6961178
LLC USEFUL LOAD PREFETCHES:        801 PREFETCH ISSUED TO LOWER LEVEL:    6993517  ACCURACY: 0.0114535
LLC TIMELY PREFETCHES:        801 LATE PREFETCHES: 1 DROPPED PREFETCHES: 0
LLC PREFETCHES SAME FILL-ORIGIN LEVEL: 1490 DIFFERENT FILL-ORIGIN LEVEL: 0
LLC AVERAGE MISS LATENCY: 77.3386 cycles
LLC RQ	ACCESS:     250007	FORWARD:          0	MERGED:          0	TO_CACHE:     250007
LLC WQ	ACCESS:      11221	FORWARD:          0	MERGED:          0	TO_CACHE:      11221
LLC PQ	ACCESS:    6999273	FORWARD:          0	MERGED:          0	TO_CACHE:    6999273

LLC Dense regions hint to LLC: 0

RAW hits: 8377
Loads Generated: 35903324
Loads sent to L1D: 35894946
Stores Generated: 1469578
Stores sent to L1D: 1469578
Major fault: 0 Minor fault: 48987
Allocated PAGES: 48987
------------------
Depth Distribution
------------------
depth 0: 413
depth 1: 209
depth 2: 308
depth 3: 798
depth 4: 1412
depth 5: 2065
depth 6: 1562
depth 7: 3057
depth 8: 8503
depth 9: 92481
depth 10: 128104
depth 11: 2099387
depth 12: 2369125
depth 13: 549682
depth 14: 1603261
depth 15: 66184
depth 16: 29249
depth 17: 9635
depth 18: 3452
depth 19: 184
depth 20: 2
depth 21: 0
depth 22: 0
depth 23: 0
depth 24: 0
depth 25: 0
depth 26: 0
depth 27: 0
depth 28: 0
depth 29: 0
Total: 6969073
------------------
ST read accesses: 6836200
ST write accesses: 132790
PT read accesses: 459927474
PT write accesses: 10229540
FILTER read accesses: 89675997
FILTER write accesses: 29099491
GHR read accesses: 50405010
GHR write accesses: 9115975
PERC read accesses: 3317958351
PERC write accesses: 67921129
GHR counter read accesses: 13937980
GHR counter write accesses: 21868415
GHR ip read accesses: 44657244
GHR ip write accesses: 27875960
ST tag read accesses: 175075418
ST tag write accesses: 9526155

DRAM Statistics
 CHANNEL 0
 RQ ROW_BUFFER_HIT:    6812206  ROW_BUFFER_MISS:     426791
 DBUS_CONGESTED:        733
 WQ ROW_BUFFER_HIT:        950  ROW_BUFFER_MISS:      10279  FULL:          0

 AVG_CONGESTED_CYCLE: 4
 All warmup complete: 2
Channel 0 Bank busy for read cycles: 0
Channel 0 Bank busy for write cycles: 0
Channel 0
Rank 0
0banks busy for read cycles: 114904073
0banks busy for write cycles: 6989
1banks busy for read cycles: 98199340
1banks busy for write cycles: 1434575
2banks busy for read cycles: 53498009
2banks busy for write cycles: 385677
3banks busy for read cycles: 25038089
3banks busy for write cycles: 144729
4banks busy for read cycles: 8109866
4banks busy for write cycles: 61779
5banks busy for read cycles: 3777771
5banks busy for write cycles: 21181
6banks busy for read cycles: 2334910
6banks busy for write cycles: 5195
7banks busy for read cycles: 1857649
7banks busy for write cycles: 1450
8banks busy for read cycles: 5747958
8banks busy for write cycles: 293

CPU 0 Branch Prediction Accuracy: 99.7034% MPKI: 1.05722 Average ROB Occupancy at Mispredict: 261.692
Branch types
NOT_BRANCH: 64349939 64.3499%
BRANCH_DIRECT_JUMP: 340935 0.340935%
BRANCH_INDIRECT: 0 0%
BRANCH_CONDITIONAL: 34971407 34.9714%
BRANCH_DIRECT_CALL: 168873 0.168873%
BRANCH_INDIRECT_CALL: 0 0%
BRANCH_RETURN: 168873 0.168873%
BRANCH_OTHER: 0 0%

DRAM PAGES: 1048576
Allocated PAGES: 48987
