
*** ChampSim Multicore Out-of-Order Simulator ***

Warmup Instructions: 50000000
Simulation Instructions: 100000000
Number of CPUs: 1
LLC sets: 2048
LLC ways: 16
Off-chip DRAM Size: 4096 MB Channels: 1 Width: 64-bit Data Rate: 6400 MT/s
CPU 0 runs ../SPEC2017//602.gcc_s-1850B.champsimtrace.xz
.xz
NUM_OF_IPS_IN_CRITICAL_IP_TRAINING: 64
NUM_OF_CRITICAL_IP_TRAINING_TABLE_WAYS: 2
NUM_OF_CRITICAL_IP_TRAINING_TABLE_SETS: 32
WOBBLY_CRITICAL_IP_CACHE_SETS: 32
WOBBLY_CRITICAL_IP_CACHE_WAYS: 4
BTB has LRU replacement policy
ITLB has LRU replacement policy
DTLB has LRU replacement policy
STLB has LRU replacement policy
L1I has LRU replacement policy
IP Table Entries: 64
L1D has LRU replacement policy
Initialize SRRIP state for L2C
Initialize DRRIP state for LLC
Heartbeat CPU 0 instructions: 10000002 cycles: 3277926 heartbeat IPC: 3.05071 cumulative IPC: 3.05071 (Simulation time: 0 hr 4 min 0 sec) 
Heartbeat CPU 0 instructions: 20000000 cycles: 6556180 heartbeat IPC: 3.0504 cumulative IPC: 3.05056 (Simulation time: 0 hr 7 min 23 sec) 
Heartbeat CPU 0 instructions: 30000000 cycles: 9833328 heartbeat IPC: 3.05143 cumulative IPC: 3.05085 (Simulation time: 0 hr 10 min 30 sec) 
Heartbeat CPU 0 instructions: 40000000 cycles: 13110879 heartbeat IPC: 3.05106 cumulative IPC: 3.0509 (Simulation time: 0 hr 13 min 13 sec) 
Heartbeat CPU 0 instructions: 50000000 cycles: 16389219 heartbeat IPC: 3.05032 cumulative IPC: 3.05079 (Simulation time: 0 hr 15 min 33 sec) 

Warmup complete CPU 0 instructions: 50000004 cycles: 16389220 (Simulation time: 0 hr 15 min 33 sec) 

% increase in all ip prefetch 532.769
% increase in all ip prefetch 0.173727
Heartbeat CPU 0 instructions: 60000003 cycles: 39598090 heartbeat IPC: 0.43087 cumulative IPC: 0.43087 (Simulation time: 0 hr 19 min 56 sec) 
Heartbeat CPU 0 instructions: 70000002 cycles: 62809283 heartbeat IPC: 0.430827 cumulative IPC: 0.430848 (Simulation time: 0 hr 24 min 29 sec) 
Heartbeat CPU 0 instructions: 80000003 cycles: 86020752 heartbeat IPC: 0.430822 cumulative IPC: 0.430839 (Simulation time: 0 hr 28 min 49 sec) 
Heartbeat CPU 0 instructions: 90000001 cycles: 109251077 heartbeat IPC: 0.430472 cumulative IPC: 0.430747 (Simulation time: 0 hr 32 min 53 sec) 
Heartbeat CPU 0 instructions: 100000000 cycles: 132467296 heartbeat IPC: 0.430733 cumulative IPC: 0.430745 (Simulation time: 0 hr 36 min 47 sec) 
Heartbeat CPU 0 instructions: 110000000 cycles: 155741121 heartbeat IPC: 0.429667 cumulative IPC: 0.430565 (Simulation time: 0 hr 39 min 54 sec) 
Heartbeat CPU 0 instructions: 120000003 cycles: 179022051 heartbeat IPC: 0.429536 cumulative IPC: 0.430417 (Simulation time: 0 hr 42 min 5 sec) 
Heartbeat CPU 0 instructions: 130000003 cycles: 202290853 heartbeat IPC: 0.42976 cumulative IPC: 0.430335 (Simulation time: 0 hr 43 min 58 sec) 
Heartbeat CPU 0 instructions: 140000000 cycles: 225510781 heartbeat IPC: 0.430664 cumulative IPC: 0.430372 (Simulation time: 0 hr 45 min 35 sec) 
Heartbeat CPU 0 instructions: 150000000 cycles: 248715004 heartbeat IPC: 0.430956 cumulative IPC: 0.43043 (Simulation time: 0 hr 46 min 35 sec) 
Finished CPU 0 instructions: 100000000 cycles: 232325812 cumulative IPC: 0.43043 (Simulation time: 0 hr 46 min 35 sec) 

ChampSim completed all CPUs

Region of Interest Statistics

CPU 0 cumulative IPC: 0.43043 instructions: 100000000 cycles: 232325812

CPU 0 Average Load ROB stall cycles: 4.72111e+07
CPU 0 Fraction of times ROB stalled by Loads: 35.6188
CPU 0 Percentage of Load stall cycles in Total stall cycles: 5.30836e+08
Issued all: 212122743
Issued LT all: 209244766
rob_not_full_when_issued_lt_all: 10946204
Issued LT one: 173898466
rob_not_full_when_issued_lt_one: 8556056
 Total stall cycles: 206408717
 Total load stall cycles: 1095692674928094
Unique Load IPs: 47
CPU 0 NUM of IPS identified critical: 17
CPU 0 Num of Load IPs stalling ROB: 46
Threshold modification factor: -1
Max PIST entries: 31
Min PIST entries: 0
Avg PIST entries: 11.0067
Trouble in retire width: 0.967206
MaC = Marked as critical.
lt_50_percent_before_Mac: 17
gt_90_percent_before_Mac: 0
gt_75_percent_before_Mac: 0
gt_50_percent_before_Mac: 0
stall_proportion_bin_same_before_after: 0
stall_proportion_bin_lower_before_after: 0
stall_proportion_bin_upper_before_after: 0
average_stall_proportion_before: 0.0314715
average_stall_proportion_after: 0.0309039
Critical IP stalls, total frequency: 6073676
Non-critical IP stalls, total frequency: 2174614
Total Freq all stalling IPs: 8248290
Critical_IP_Detector_Accuracy_70: 0.235294
Critical_IP_Detector_Accuracy_80: 0.235294
Critical_IP_Detector_Accuracy_90: 0.294118
Critical_IP_Detector_Coverage_70: 0.666667
Critical_IP_Detector_Coverage_80: 0.666667
Critical_IP_Detector_Coverage_90: 0.714286
stat_90_percent_critical_ip_stalls_freq: 7649789
stat_90_percent_non_critical_ip_stalls_freq: 598501
AVERAGE_ROB_Occupancy_90_Percent_Critical_IP_Stalls: 344.691
AVERAGE_ROB_Occupancy_90_Percent_Non_Critical_IP_Stalls: 335.733
Critical_IP_ROB_Stalls_Bucket_0: 52682
Non-critical_IP_ROB_Stalls_Bucket_0: 34362
Critical_IP_ROB_Stalls_Bucket_1: 23470
Non-critical_IP_ROB_Stalls_Bucket_1: 18251
Critical_IP_ROB_Stalls_Bucket_2: 30727
Non-critical_IP_ROB_Stalls_Bucket_2: 12763
Critical_IP_ROB_Stalls_Bucket_3: 39199
Non-critical_IP_ROB_Stalls_Bucket_3: 20262
Critical_IP_ROB_Stalls_Bucket_4: 22555
Non-critical_IP_ROB_Stalls_Bucket_4: 7199
Critical_IP_ROB_Stalls_Bucket_5: 46430
Non-critical_IP_ROB_Stalls_Bucket_5: 21534
Critical_IP_ROB_Stalls_Bucket_6: 5858613
Non-critical_IP_ROB_Stalls_Bucket_6: 2078496
0 => IPs accounting for >50 percent of stalls, 1 => 55, 2 => 60, 3 => 65 and so on till 90.
percent50: 55.616 num IPs:  4
percent55: 55.616 num IPs: 4
percent60: 68.5745 num IPs: 5
percent65: 68.5745 num IPs: 5
percent70: 81.4063 num IPs: 6
percent75: 81.4063 num IPs: 6
percent80: 81.4063 num IPs: 6
percent85: 92.7439 num IPs: 7
percent90: 92.7439 num IPs: 7
Critical_ROB_Stalls_Percent_0_Bucket_0: 31015
Non-critical_ROB_Stalls_Percent_0_Bucket_0: 56029
Critical_ROB_Stalls_Percent_0_Bucket_1: 20766
Non-critical_ROB_Stalls_Percent_0_Bucket_1: 20955
Critical_ROB_Stalls_Percent_0_Bucket_2: 7478
Non-critical_ROB_Stalls_Percent_0_Bucket_2: 36012
Critical_ROB_Stalls_Percent_0_Bucket_3: 35725
Non-critical_ROB_Stalls_Percent_0_Bucket_3: 23736
Critical_ROB_Stalls_Percent_0_Bucket_4: 10745
Non-critical_ROB_Stalls_Percent_0_Bucket_4: 19009
Critical_ROB_Stalls_Percent_0_Bucket_5: 36845
Non-critical_ROB_Stalls_Percent_0_Bucket_5: 31119
Critical_ROB_Stalls_Percent_0_Bucket_6: 4444793
Non-critical_ROB_Stalls_Percent_0_Bucket_6: 3492316
Critical_ROB_Stalls_Percent_1_Bucket_0: 31015
Non-critical_ROB_Stalls_Percent_1_Bucket_0: 56029
Critical_ROB_Stalls_Percent_1_Bucket_1: 20766
Non-critical_ROB_Stalls_Percent_1_Bucket_1: 20955
Critical_ROB_Stalls_Percent_1_Bucket_2: 7478
Non-critical_ROB_Stalls_Percent_1_Bucket_2: 36012
Critical_ROB_Stalls_Percent_1_Bucket_3: 35725
Non-critical_ROB_Stalls_Percent_1_Bucket_3: 23736
Critical_ROB_Stalls_Percent_1_Bucket_4: 10745
Non-critical_ROB_Stalls_Percent_1_Bucket_4: 19009
Critical_ROB_Stalls_Percent_1_Bucket_5: 36845
Non-critical_ROB_Stalls_Percent_1_Bucket_5: 31119
Critical_ROB_Stalls_Percent_1_Bucket_6: 4444793
Non-critical_ROB_Stalls_Percent_1_Bucket_6: 3492316
Critical_ROB_Stalls_Percent_2_Bucket_0: 38793
Non-critical_ROB_Stalls_Percent_2_Bucket_0: 48251
Critical_ROB_Stalls_Percent_2_Bucket_1: 27873
Non-critical_ROB_Stalls_Percent_2_Bucket_1: 13848
Critical_ROB_Stalls_Percent_2_Bucket_2: 14663
Non-critical_ROB_Stalls_Percent_2_Bucket_2: 28827
Critical_ROB_Stalls_Percent_2_Bucket_3: 43371
Non-critical_ROB_Stalls_Percent_2_Bucket_3: 16090
Critical_ROB_Stalls_Percent_2_Bucket_4: 14936
Non-critical_ROB_Stalls_Percent_2_Bucket_4: 14818
Critical_ROB_Stalls_Percent_2_Bucket_5: 46911
Non-critical_ROB_Stalls_Percent_2_Bucket_5: 21053
Critical_ROB_Stalls_Percent_2_Bucket_6: 5469679
Non-critical_ROB_Stalls_Percent_2_Bucket_6: 2467430
Critical_ROB_Stalls_Percent_3_Bucket_0: 38793
Non-critical_ROB_Stalls_Percent_3_Bucket_0: 48251
Critical_ROB_Stalls_Percent_3_Bucket_1: 27873
Non-critical_ROB_Stalls_Percent_3_Bucket_1: 13848
Critical_ROB_Stalls_Percent_3_Bucket_2: 14663
Non-critical_ROB_Stalls_Percent_3_Bucket_2: 28827
Critical_ROB_Stalls_Percent_3_Bucket_3: 43371
Non-critical_ROB_Stalls_Percent_3_Bucket_3: 16090
Critical_ROB_Stalls_Percent_3_Bucket_4: 14936
Non-critical_ROB_Stalls_Percent_3_Bucket_4: 14818
Critical_ROB_Stalls_Percent_3_Bucket_5: 46911
Non-critical_ROB_Stalls_Percent_3_Bucket_5: 21053
Critical_ROB_Stalls_Percent_3_Bucket_6: 5469679
Non-critical_ROB_Stalls_Percent_3_Bucket_6: 2467430
Critical_ROB_Stalls_Percent_4_Bucket_0: 46496
Non-critical_ROB_Stalls_Percent_4_Bucket_0: 40548
Critical_ROB_Stalls_Percent_4_Bucket_1: 34932
Non-critical_ROB_Stalls_Percent_4_Bucket_1: 6789
Critical_ROB_Stalls_Percent_4_Bucket_2: 22503
Non-critical_ROB_Stalls_Percent_4_Bucket_2: 20987
Critical_ROB_Stalls_Percent_4_Bucket_3: 50097
Non-critical_ROB_Stalls_Percent_4_Bucket_3: 9364
Critical_ROB_Stalls_Percent_4_Bucket_4: 19908
Non-critical_ROB_Stalls_Percent_4_Bucket_4: 9846
Critical_ROB_Stalls_Percent_4_Bucket_5: 56633
Non-critical_ROB_Stalls_Percent_4_Bucket_5: 11331
Critical_ROB_Stalls_Percent_4_Bucket_6: 6484060
Non-critical_ROB_Stalls_Percent_4_Bucket_6: 1453049
Critical_ROB_Stalls_Percent_5_Bucket_0: 46496
Non-critical_ROB_Stalls_Percent_5_Bucket_0: 40548
Critical_ROB_Stalls_Percent_5_Bucket_1: 34932
Non-critical_ROB_Stalls_Percent_5_Bucket_1: 6789
Critical_ROB_Stalls_Percent_5_Bucket_2: 22503
Non-critical_ROB_Stalls_Percent_5_Bucket_2: 20987
Critical_ROB_Stalls_Percent_5_Bucket_3: 50097
Non-critical_ROB_Stalls_Percent_5_Bucket_3: 9364
Critical_ROB_Stalls_Percent_5_Bucket_4: 19908
Non-critical_ROB_Stalls_Percent_5_Bucket_4: 9846
Critical_ROB_Stalls_Percent_5_Bucket_5: 56633
Non-critical_ROB_Stalls_Percent_5_Bucket_5: 11331
Critical_ROB_Stalls_Percent_5_Bucket_6: 6484060
Non-critical_ROB_Stalls_Percent_5_Bucket_6: 1453049
Critical_ROB_Stalls_Percent_6_Bucket_0: 46496
Non-critical_ROB_Stalls_Percent_6_Bucket_0: 40548
Critical_ROB_Stalls_Percent_6_Bucket_1: 34932
Non-critical_ROB_Stalls_Percent_6_Bucket_1: 6789
Critical_ROB_Stalls_Percent_6_Bucket_2: 22503
Non-critical_ROB_Stalls_Percent_6_Bucket_2: 20987
Critical_ROB_Stalls_Percent_6_Bucket_3: 50097
Non-critical_ROB_Stalls_Percent_6_Bucket_3: 9364
Critical_ROB_Stalls_Percent_6_Bucket_4: 19908
Non-critical_ROB_Stalls_Percent_6_Bucket_4: 9846
Critical_ROB_Stalls_Percent_6_Bucket_5: 56633
Non-critical_ROB_Stalls_Percent_6_Bucket_5: 11331
Critical_ROB_Stalls_Percent_6_Bucket_6: 6484060
Non-critical_ROB_Stalls_Percent_6_Bucket_6: 1453049
Critical_ROB_Stalls_Percent_7_Bucket_0: 53297
Non-critical_ROB_Stalls_Percent_7_Bucket_0: 33747
Critical_ROB_Stalls_Percent_7_Bucket_1: 35524
Non-critical_ROB_Stalls_Percent_7_Bucket_1: 6197
Critical_ROB_Stalls_Percent_7_Bucket_2: 35221
Non-critical_ROB_Stalls_Percent_7_Bucket_2: 8269
Critical_ROB_Stalls_Percent_7_Bucket_3: 56039
Non-critical_ROB_Stalls_Percent_7_Bucket_3: 3422
Critical_ROB_Stalls_Percent_7_Bucket_4: 26370
Non-critical_ROB_Stalls_Percent_7_Bucket_4: 3384
Critical_ROB_Stalls_Percent_7_Bucket_5: 63082
Non-critical_ROB_Stalls_Percent_7_Bucket_5: 4882
Critical_ROB_Stalls_Percent_7_Bucket_6: 7380256
Non-critical_ROB_Stalls_Percent_7_Bucket_6: 556853
Critical_ROB_Stalls_Percent_8_Bucket_0: 53297
Non-critical_ROB_Stalls_Percent_8_Bucket_0: 33747
Critical_ROB_Stalls_Percent_8_Bucket_1: 35524
Non-critical_ROB_Stalls_Percent_8_Bucket_1: 6197
Critical_ROB_Stalls_Percent_8_Bucket_2: 35221
Non-critical_ROB_Stalls_Percent_8_Bucket_2: 8269
Critical_ROB_Stalls_Percent_8_Bucket_3: 56039
Non-critical_ROB_Stalls_Percent_8_Bucket_3: 3422
Critical_ROB_Stalls_Percent_8_Bucket_4: 26370
Non-critical_ROB_Stalls_Percent_8_Bucket_4: 3384
Critical_ROB_Stalls_Percent_8_Bucket_5: 63082
Non-critical_ROB_Stalls_Percent_8_Bucket_5: 4882
Critical_ROB_Stalls_Percent_8_Bucket_6: 7380256
Non-critical_ROB_Stalls_Percent_8_Bucket_6: 556853
Average ROB occupancy Load Stall Begin: 340.932
Average ROB occupancy Load Stall End: 343.282
Min ROB occupancy Load Stall Begin: 1
Max ROB occupancy Load Stall Begin: 352
Min ROB occupancy Load Stall End: 1
Max ROB occupancy Load Stall End: 352
Average ROB occupancy Critical Load Stall Begin: 341.605
Average ROB occupancy Critical Load Stall End: 344.381
Min ROB occupancy Critical Load Stall Begin: 1
Max ROB occupancy Critical Load Stall Begin: 352
Min ROB occupancy Critical Load Stall End: 1
Max ROB occupancy Critical Load Stall End: 352
 ROB Load Stall Begin Bucket Count 0: 89314
 ROB Load Stall End Bucket Count 0: 87044
 ROB Critical Load Stall Begin Bucket Count 0: 52775
 ROB Critical Load Stall End Bucket Count 0: 52648
 ROB Load Stall Begin Bucket Count 1: 47422
 ROB Load Stall End Bucket Count 1: 41721
 ROB Critical Load Stall Begin Bucket Count 1: 29134
 ROB Critical Load Stall End Bucket Count 1: 23464
 ROB Load Stall Begin Bucket Count 2: 44167
 ROB Load Stall End Bucket Count 2: 43490
 ROB Critical Load Stall Begin Bucket Count 2: 25972
 ROB Critical Load Stall End Bucket Count 2: 30710
 ROB Load Stall Begin Bucket Count 3: 56650
 ROB Load Stall End Bucket Count 3: 59461
 ROB Critical Load Stall Begin Bucket Count 3: 41903
 ROB Critical Load Stall End Bucket Count 3: 39192
 ROB Load Stall Begin Bucket Count 4: 32692
 ROB Load Stall End Bucket Count 4: 29754
 ROB Critical Load Stall Begin Bucket Count 4: 21087
 ROB Critical Load Stall End Bucket Count 4: 22549
 ROB Load Stall Begin Bucket Count 5: 64137
 ROB Load Stall End Bucket Count 5: 67964
 ROB Critical Load Stall Begin Bucket Count 5: 46441
 ROB Critical Load Stall End Bucket Count 5: 46414
 ROB Load Stall Begin Bucket Count 6: 7932161
 ROB Load Stall End Bucket Count 6: 7937109
 ROB Critical Load Stall Begin Bucket Count 6: 5855328
 ROB Critical Load Stall End Bucket Count 6: 5857663
PIST Tag Read Accesses: 59146
PIST Read Accesses: 29573
PIST Tag Write Accesses: 59146
PIST Write Accesses: 29573
Criticality detector called times: 46741
Max global_stall_cycles_count: 409333
Threshold Modified: 1 times, factor: -1
Sturdy critical IP cache stats: 
 Unused entries: 0
CIC Tag Read Accesses: 0
CIC Read Accesses: 0
CIC Tag Write Accesses: 0
CIC Write Accesses: 0
Wobbly critical IP cache stats: 
 Unused entries: 111
CIC Tag Read Accesses: 217593003
CIC Read Accesses: 0
CIC Tag Write Accesses: 4209707
CIC Write Accesses: 0
ITLB TOTAL     ACCESS:   22851062  HIT:   22851062  MISS:          0  HIT %:        100  MISS %:          0   MPKI: 0
ITLB LOAD TRANSLATION ACCESS:   22851062  HIT:   22851062  MISS:          0  HIT %:        100  MISS %:          0   MPKI: 0
ITLB PREFETCH  REQUESTED:          0  ISSUED:          0  USEFUL:          0  USELESS:          0
ITLB USEFUL LOAD PREFETCHES:          0 PREFETCH ISSUED TO LOWER LEVEL:          0  ACCURACY: -nan
ITLB TIMELY PREFETCHES:          0 LATE PREFETCHES: 0 DROPPED PREFETCHES: 0
ITLB PREFETCHES SAME FILL-ORIGIN LEVEL: 0 DIFFERENT FILL-ORIGIN LEVEL: 0
ITLB AVERAGE MISS LATENCY: -nan cycles
ITLB RQ	ACCESS:   24722488	FORWARD:          0	MERGED:    1871426	TO_CACHE:   22851062

DTLB TOTAL     ACCESS:   27319649  HIT:   27286861  MISS:      32788  HIT %:      99.88  MISS %:   0.120016   MPKI: 0.32788
DTLB LOAD TRANSLATION ACCESS:   27319649  HIT:   27286861  MISS:      32788  HIT %:      99.88  MISS %:   0.120016   MPKI: 0.32788
DTLB PREFETCH  REQUESTED:          0  ISSUED:          0  USEFUL:          0  USELESS:          0
DTLB USEFUL LOAD PREFETCHES:          0 PREFETCH ISSUED TO LOWER LEVEL:          0  ACCURACY: -nan
DTLB TIMELY PREFETCHES:          0 LATE PREFETCHES: 0 DROPPED PREFETCHES: 0
DTLB PREFETCHES SAME FILL-ORIGIN LEVEL: 0 DIFFERENT FILL-ORIGIN LEVEL: 0
DTLB AVERAGE MISS LATENCY: 141.518 cycles
DTLB RQ	ACCESS:   28023490	FORWARD:          0	MERGED:     702498	TO_CACHE:   27320992

STLB TOTAL     ACCESS:    3402259  HIT:    3371997  MISS:      30262  HIT %:    99.1105  MISS %:   0.889468   MPKI: 0.30262
STLB LOAD TRANSLATION ACCESS:      32788  HIT:       2528  MISS:      30260  HIT %:    7.71014  MISS %:    92.2899   MPKI: 0.3026
STLB TRANSLATION FROM L1D PREFETCHER ACCESS:    3369471  HIT:    3369469  MISS:          2  HIT %:    99.9999  MISS %: 5.93565e-05   MPKI: 2e-05
STLB PREFETCH  REQUESTED:          0  ISSUED:          0  USEFUL:          2  USELESS:          0
STLB USEFUL LOAD PREFETCHES:          2 PREFETCH ISSUED TO LOWER LEVEL:          0  ACCURACY: inf
STLB TIMELY PREFETCHES:          2 LATE PREFETCHES: 0 DROPPED PREFETCHES: 0
STLB PREFETCHES SAME FILL-ORIGIN LEVEL: 0 DIFFERENT FILL-ORIGIN LEVEL: 0
STLB AVERAGE MISS LATENCY: 143.57 cycles
STLB RQ	ACCESS:    6652774	FORWARD:          0	MERGED:    3250515	TO_CACHE:    3402259

STLB Hit, L1D data hit: 0
STLB Hit, L2C data hit: 0
STLB Hit, LLC data hit: 0
STLB Hit, LLC data miss: 0
STLB STLB hints to L2: 0
L1D TOTAL     ACCESS:   34561788  HIT:   31858477  MISS:    2703311  HIT %:    92.1783  MISS %:    7.82168   MPKI: 27.0331
L1D LOAD      ACCESS:   19369970  HIT:   19113309  MISS:     256661  HIT %:     98.675  MISS %:    1.32505   MPKI: 2.56661
L1D RFO       ACCESS:    8631640  HIT:    8630874  MISS:        766  HIT %:    99.9911  MISS %: 0.00887433   MPKI: 0.00766
L1D PREFETCH  ACCESS:    6560178  HIT:    4114294  MISS:    2445884  HIT %:    62.7162  MISS %:    37.2838   MPKI: 24.4588
L1D PREFETCH  REQUESTED:   13240008  ISSUED:   13239972  USEFUL:    2080506  USELESS:     365241
L1D USEFUL LOAD PREFETCHES:    2080506 PREFETCH ISSUED TO LOWER LEVEL:    2498016  ACCURACY: 83.2863
L1D TIMELY PREFETCHES:    2080506 LATE PREFETCHES: 52130 DROPPED PREFETCHES: 0
L1D PREFETCHES SAME FILL-ORIGIN LEVEL: 2498016 DIFFERENT FILL-ORIGIN LEVEL: 0
L1D AVERAGE MISS LATENCY: 2.55715e+06 cycles
L1D RQ	ACCESS:   27797286	FORWARD:          0	MERGED:    8405420	TO_CACHE:   19391848
L1D WQ	ACCESS:    9705356	FORWARD:         18	MERGED:    1073714	TO_CACHE:    8631642
L1D PQ	ACCESS:    6619986	FORWARD:          0	MERGED:          0	TO_CACHE:    6619986

L1D UNIQUE REGIONS ACCESSED: 0
L1D REGIONS CONFLICTS: 0
L1D Cross Page Prefetch Requests: 0
L1D Same Page Prefetch Requests: 6629185
L1D ROI Sum of L1D PQ occupancy: 89193245
L1D PREFETCHES PUSHED FROM L2C: 0
L1I TOTAL     ACCESS:   24722487  HIT:   24722487  MISS:          0  HIT %:        100  MISS %:          0   MPKI: 0
L1I LOAD      ACCESS:   24722487  HIT:   24722487  MISS:          0  HIT %:        100  MISS %:          0   MPKI: 0
L1I PREFETCH  REQUESTED:          0  ISSUED:          0  USEFUL:          0  USELESS:          0
L1I USEFUL LOAD PREFETCHES:          0 PREFETCH ISSUED TO LOWER LEVEL:          0  ACCURACY: -nan
L1I TIMELY PREFETCHES:          0 LATE PREFETCHES: 0 DROPPED PREFETCHES: 0
L1I PREFETCHES SAME FILL-ORIGIN LEVEL: 0 DIFFERENT FILL-ORIGIN LEVEL: 0
L1I AVERAGE MISS LATENCY: -nan cycles
L1I RQ	ACCESS:   38430300	FORWARD:          0	MERGED:   13707812	TO_CACHE:   24722488

BTB TOTAL     ACCESS:   16382938  HIT:   16382909  MISS:         29  HIT %:    99.9998  MISS %: 0.000177013   MPKI: 0.00029
BTB BRANCH_DIRECT_JUMP	ACCESS:    2158979  HIT:    2158970  MISS:          9
BTB BRANCH_INDIRECT	ACCESS:          0  HIT:          0  MISS:          0
BTB BRANCH_CONDITIONAL	ACCESS:   12063628  HIT:   12063614  MISS:         14
BTB BRANCH_DIRECT_CALL	ACCESS:    1080165  HIT:    1080162  MISS:          3
BTB BRANCH_INDIRECT_CALL	ACCESS:          0  HIT:          0  MISS:          0
BTB BRANCH_RETURN	ACCESS:    1080166  HIT:    1080163  MISS:          3
BTB BRANCH_OTHER ACCESS:          0  HIT:          0  MISS:          0

L2C TOTAL     ACCESS:    2740142  HIT:     916154  MISS:    1823988  HIT %:    33.4345  MISS %:    66.5655   MPKI: 18.2399
L2C LOAD      ACCESS:     204531  HIT:     158549  MISS:      45982  HIT %:    77.5183  MISS %:    22.4817   MPKI: 0.45982
L2C DATA LOAD MPKI: 0.45982
L2C INSTRUCTION LOAD MPKI: 0
L2C RFO       ACCESS:        765  HIT:         38  MISS:        727  HIT %:    4.96732  MISS %:    95.0327   MPKI: 0.00727
L2C PREFETCH  ACCESS:    2498015  HIT:     725990  MISS:    1772025  HIT %:    29.0627  MISS %:    70.9373   MPKI: 17.7203
L2C DATA PREFETCH MPKI: 17.7203
L2C INSTRUCTION PREFETCH MPKI: 0
L2C WRITEBACK ACCESS:       6450  HIT:       6450  MISS:          0  HIT %:        100  MISS %:          0   MPKI: 0
L2C LOAD TRANSLATION ACCESS:      30379  HIT:      25127  MISS:       5252  HIT %:    82.7117  MISS %:    17.2883   MPKI: 0.05252
L2C TRANSLATION FROM L1D PREFETCHER ACCESS:          2  HIT:          0  MISS:          2  HIT %:          0  MISS %:        100   MPKI: 2e-05
L2C PREFETCH  REQUESTED:          0  ISSUED:          0  USEFUL:       3938  USELESS:    1760484
L2C USEFUL LOAD PREFETCHES:       3938 PREFETCH ISSUED TO LOWER LEVEL:    1772026  ACCURACY: 0.222232
L2C TIMELY PREFETCHES:       3938 LATE PREFETCHES: 0 DROPPED PREFETCHES: 0
L2C PREFETCHES SAME FILL-ORIGIN LEVEL: 0 DIFFERENT FILL-ORIGIN LEVEL: 0
L2C AVERAGE MISS LATENCY: 107.043 cycles
L2C RQ	ACCESS:     235677	FORWARD:          0	MERGED:          0	TO_CACHE:     235677
L2C WQ	ACCESS:       6450	FORWARD:          0	MERGED:          0	TO_CACHE:       6450
L2C PQ	ACCESS:    2498016	FORWARD:          0	MERGED:          0	TO_CACHE:    2498016

L2C Instructions Evicting Data 0
L2C Translations Evicting Data 5235
L2C Data Evicting Data 1813491
L2C Instructions Evicting Instructions 0
L2C Translations Evicting Instructions 0
L2C Data Evicting Instructions 0
L2C Instructions Evicting Translations 0
L2C Translations Evicting Translations 19
L2C Data Evicting Translations 5243
L2C Dense regions hint from L2: 0
PSCL5 TOTAL     ACCESS:      30262  HIT:      30262  MISS:          0  HIT %:        100  MISS %:          0   MPKI: 0
PSCL5 LOAD TRANSLATION ACCESS:      30260  HIT:      30260  MISS:          0  HIT %:        100  MISS %:          0   MPKI: 0
PSCL5 TRANSLATION FROM L1D PREFETCHER ACCESS:          2  HIT:          2  MISS:          0  HIT %:        100  MISS %:          0   MPKI: 0
PSCL5 PREFETCH  REQUESTED:          0  ISSUED:          0  USEFUL:          0  USELESS:          0
PSCL5 USEFUL LOAD PREFETCHES:          0 PREFETCH ISSUED TO LOWER LEVEL:          0  ACCURACY: -nan
PSCL5 TIMELY PREFETCHES:          0 LATE PREFETCHES: 0 DROPPED PREFETCHES: 0
PSCL5 PREFETCHES SAME FILL-ORIGIN LEVEL: 0 DIFFERENT FILL-ORIGIN LEVEL: 0

PSCL4 TOTAL     ACCESS:      30262  HIT:      30262  MISS:          0  HIT %:        100  MISS %:          0   MPKI: 0
PSCL4 LOAD TRANSLATION ACCESS:      30260  HIT:      30260  MISS:          0  HIT %:        100  MISS %:          0   MPKI: 0
PSCL4 TRANSLATION FROM L1D PREFETCHER ACCESS:          2  HIT:          2  MISS:          0  HIT %:        100  MISS %:          0   MPKI: 0
PSCL4 PREFETCH  REQUESTED:          0  ISSUED:          0  USEFUL:          0  USELESS:          0
PSCL4 USEFUL LOAD PREFETCHES:          0 PREFETCH ISSUED TO LOWER LEVEL:          0  ACCURACY: -nan
PSCL4 TIMELY PREFETCHES:          0 LATE PREFETCHES: 0 DROPPED PREFETCHES: 0
PSCL4 PREFETCHES SAME FILL-ORIGIN LEVEL: 0 DIFFERENT FILL-ORIGIN LEVEL: 0

PSCL3 TOTAL     ACCESS:      30262  HIT:      30261  MISS:          1  HIT %:    99.9967  MISS %: 0.00330447   MPKI: 1e-05
PSCL3 LOAD TRANSLATION ACCESS:      30260  HIT:      30259  MISS:          1  HIT %:    99.9967  MISS %: 0.00330469   MPKI: 1e-05
PSCL3 TRANSLATION FROM L1D PREFETCHER ACCESS:          2  HIT:          2  MISS:          0  HIT %:        100  MISS %:          0   MPKI: 0
PSCL3 PREFETCH  REQUESTED:          0  ISSUED:          0  USEFUL:          0  USELESS:          0
PSCL3 USEFUL LOAD PREFETCHES:          0 PREFETCH ISSUED TO LOWER LEVEL:          0  ACCURACY: -nan
PSCL3 TIMELY PREFETCHES:          0 LATE PREFETCHES: 0 DROPPED PREFETCHES: 0
PSCL3 PREFETCHES SAME FILL-ORIGIN LEVEL: 0 DIFFERENT FILL-ORIGIN LEVEL: 0

PSCL2 TOTAL     ACCESS:      30262  HIT:      29936  MISS:        326  HIT %:    98.9227  MISS %:    1.07726   MPKI: 0.00326
PSCL2 LOAD TRANSLATION ACCESS:      30260  HIT:      29934  MISS:        326  HIT %:    98.9227  MISS %:    1.07733   MPKI: 0.00326
PSCL2 TRANSLATION FROM L1D PREFETCHER ACCESS:          2  HIT:          2  MISS:          0  HIT %:        100  MISS %:          0   MPKI: 0
PSCL2 PREFETCH  REQUESTED:          0  ISSUED:          0  USEFUL:          0  USELESS:          0
PSCL2 USEFUL LOAD PREFETCHES:          0 PREFETCH ISSUED TO LOWER LEVEL:          0  ACCURACY: -nan
PSCL2 TIMELY PREFETCHES:          0 LATE PREFETCHES: 0 DROPPED PREFETCHES: 0
PSCL2 PREFETCHES SAME FILL-ORIGIN LEVEL: 0 DIFFERENT FILL-ORIGIN LEVEL: 0

LLC TOTAL     ACCESS:    1826390  HIT:      12405  MISS:    1813985  HIT %:   0.679209  MISS %:    99.3208   MPKI: 18.1398
LLC LOAD      ACCESS:      45982  HIT:        488  MISS:      45494  HIT %:    1.06128  MISS %:    98.9387   MPKI: 0.45494
LLC RFO       ACCESS:        727  HIT:          0  MISS:        727  HIT %:          0  MISS %:        100   MPKI: 0.00727
LLC PREFETCH  ACCESS:    1772026  HIT:       9313  MISS:    1762713  HIT %:   0.525557  MISS %:    99.4744   MPKI: 17.6271
LLC WRITEBACK ACCESS:       2401  HIT:       2343  MISS:         58  HIT %:    97.5843  MISS %:    2.41566   MPKI: 0.00058
LLC LOAD TRANSLATION ACCESS:       5252  HIT:        260  MISS:       4992  HIT %:     4.9505  MISS %:    95.0495   MPKI: 0.04992
LLC TRANSLATION FROM L1D PREFETCHER ACCESS:          2  HIT:          1  MISS:          1  HIT %:         50  MISS %:         50   MPKI: 1e-05
LLC PREFETCH  REQUESTED:          0  ISSUED:          0  USEFUL:         89  USELESS:    1730893
LLC USEFUL LOAD PREFETCHES:         89 PREFETCH ISSUED TO LOWER LEVEL:    1762713  ACCURACY: 0.00504904
LLC TIMELY PREFETCHES:         89 LATE PREFETCHES: 0 DROPPED PREFETCHES: 0
LLC PREFETCHES SAME FILL-ORIGIN LEVEL: 0 DIFFERENT FILL-ORIGIN LEVEL: 0
LLC AVERAGE MISS LATENCY: 77.4357 cycles
LLC RQ	ACCESS:      51963	FORWARD:          0	MERGED:          0	TO_CACHE:      51963
LLC WQ	ACCESS:       2401	FORWARD:          0	MERGED:          0	TO_CACHE:       2401
LLC PQ	ACCESS:    1772026	FORWARD:          0	MERGED:          0	TO_CACHE:    1772026

LLC Dense regions hint to LLC: 0

RAW hits: 578
Loads Generated: 27797864
Loads sent to L1D: 27797286
Stores Generated: 9705357
Stores sent to L1D: 9705356
Major fault: 0 Minor fault: 45705
Allocated PAGES: 45705

stream: 
stream:times selected: 8396528
stream:pref_filled: 1790047
stream:pref_useful: 1531317
stream:pref_late: 10058
stream:misses: 18292
stream:misses_by_poll: 0

CS: 
CS:times selected: 3388398
CS:pref_filled: 212333
CS:pref_useful: 210009
CS:pref_late: 36944
CS:misses: 105909
CS:misses_by_poll: 2505

CPLX: 
CPLX:times selected: 5001492
CPLX:pref_filled: 444138
CPLX:pref_useful: 338840
CPLX:pref_late: 3645
CPLX:misses: 108939
CPLX:misses_by_poll: 3231

NL_L1: 
NL:times selected: 43506
NL:pref_filled: 3185
NL:pref_useful: 2753
NL:pref_late: 183
NL:misses: 2343
NL:misses_by_poll: 3

total selections: 16829924
total_filled: 2445884
total_useful: 2080506
total_late: 52141
total_polluted: 5739
total_misses_after_warmup: 240310
conflicts: 117006
Degree Incremented Times: 267321
Degree Decremented Times: 0

L1 IP Table Write Accesses: 17178164
L1 IP Table Read Accesses: 17061158
L1 RST Write Accesses: 8394463
L1 RST Read Accesses: 16788926
L1 CSPT Write Accesses: 8394463
L1 CSPT Read Accesses: 21787451
L1 RR Filter Tag Write Accesses: 6620022
L1 RR Filter Tag Read Accesses: 1353134404
L1 IP Table Tag Write Accesses: 19321980
L1 IP Table Tag Read Accesses: 19321980
L1 RST Tag Write Accesses: 0
L1 RST Tag Read Accesses: 74731135
L1 RR Filter Write Accesses: 0
L1 RR Filter Read Accesses: 60060025
test: 1628886

DRAM Statistics
 CHANNEL 0
 RQ ROW_BUFFER_HIT:    1693964  ROW_BUFFER_MISS:     119963
 DBUS_CONGESTED:         46
 WQ ROW_BUFFER_HIT:        931  ROW_BUFFER_MISS:       1481  FULL:          0

 AVG_CONGESTED_CYCLE: 4
 All warmup complete: 2
Channel 0 Bank busy for read cycles: 0
Channel 0 Bank busy for write cycles: 0
Channel 0
Rank 0
0banks busy for read cycles: 164874736
0banks busy for write cycles: 1827
1banks busy for read cycles: 43827003
1banks busy for write cycles: 310070
2banks busy for read cycles: 16450498
2banks busy for write cycles: 54201
3banks busy for read cycles: 3865013
3banks busy for write cycles: 13554
4banks busy for read cycles: 1708626
4banks busy for write cycles: 3058
5banks busy for read cycles: 395635
5banks busy for write cycles: 1237
6banks busy for read cycles: 243229
6banks busy for write cycles: 337
7banks busy for read cycles: 515286
7banks busy for write cycles: 131
8banks busy for read cycles: 61372
8banks busy for write cycles: 0

CPU 0 Branch Prediction Accuracy: 99.9623% MPKI: 0.09672 Average ROB Occupancy at Mispredict: 311.323
Branch types
NOT_BRANCH: 74359712 74.3597%
BRANCH_DIRECT_JUMP: 2158979 2.15898%
BRANCH_INDIRECT: 0 0%
BRANCH_CONDITIONAL: 21320980 21.321%
BRANCH_DIRECT_CALL: 1080165 1.08017%
BRANCH_INDIRECT_CALL: 0 0%
BRANCH_RETURN: 1080166 1.08017%
BRANCH_OTHER: 0 0%

DRAM PAGES: 1048576
Allocated PAGES: 45705
