Initialize SIGNATURE TABLE
ST_SET: 1
ST_WAY: 256
ST_TAG_BIT: 16
ST_TAG_MASK: ffff

Initialize PATTERN TABLE
PT_SET: 512
PT_WAY: 4
SIG_DELTA_BIT: 7
C_SIG_BIT: 4
C_DELTA_BIT: 4

Initialize PREFETCH FILTER
FILTER_SET: 1024

Initialize PERCEPTRON
PERC_ENTRIES: 4096
PERC_FEATURES: 9

*** ChampSim Multicore Out-of-Order Simulator ***

Warmup Instructions: 50000000
Simulation Instructions: 100000000
Number of CPUs: 1
LLC sets: 2048
LLC ways: 16
Off-chip DRAM Size: 4096 MB Channels: 1 Width: 64-bit Data Rate: 6400 MT/s
CPU 0 runs ../SPEC2017//602.gcc_s-1850B.champsimtrace.xz
.xz
NUM_OF_IPS_IN_CRITICAL_IP_TRAINING: 128
NUM_OF_CRITICAL_IP_TRAINING_TABLE_WAYS: 8
NUM_OF_CRITICAL_IP_TRAINING_TABLE_SETS: 16
BTB has LRU replacement policy
ITLB has LRU replacement policy
DTLB has LRU replacement policy
STLB has LRU replacement policy
L1I has LRU replacement policy
L1D has LRU replacement policy
Initialize SRRIP state for L2C
Initialize DRRIP state for LLC
Heartbeat CPU 0 instructions: 10000002 cycles: 3264515 heartbeat IPC: 3.06324 cumulative IPC: 3.06324 (Simulation time: 0 hr 7 min 2 sec) 
Heartbeat CPU 0 instructions: 20000000 cycles: 6529484 heartbeat IPC: 3.06282 cumulative IPC: 3.06303 (Simulation time: 0 hr 13 min 22 sec) 
Heartbeat CPU 0 instructions: 30000000 cycles: 9793224 heartbeat IPC: 3.06397 cumulative IPC: 3.06334 (Simulation time: 0 hr 18 min 53 sec) 
Heartbeat CPU 0 instructions: 40000000 cycles: 13057219 heartbeat IPC: 3.06373 cumulative IPC: 3.06344 (Simulation time: 0 hr 24 min 1 sec) 
Heartbeat CPU 0 instructions: 50000000 cycles: 16322198 heartbeat IPC: 3.06281 cumulative IPC: 3.06331 (Simulation time: 0 hr 28 min 53 sec) 

Warmup complete CPU 0 instructions: 50000004 cycles: 16322199 (Simulation time: 0 hr 28 min 53 sec) 

% increase in all ip prefetch 562.707
% increase in all ip prefetch 0.220746
Heartbeat CPU 0 instructions: 60000003 cycles: 40696075 heartbeat IPC: 0.410275 cumulative IPC: 0.410275 (Simulation time: 0 hr 36 min 6 sec) 
Heartbeat CPU 0 instructions: 70000002 cycles: 65047515 heartbeat IPC: 0.410653 cumulative IPC: 0.410464 (Simulation time: 0 hr 42 min 12 sec) 
Heartbeat CPU 0 instructions: 80000003 cycles: 89395360 heartbeat IPC: 0.410714 cumulative IPC: 0.410547 (Simulation time: 0 hr 47 min 36 sec) 
Heartbeat CPU 0 instructions: 90000001 cycles: 113772617 heartbeat IPC: 0.410218 cumulative IPC: 0.410465 (Simulation time: 0 hr 54 min 42 sec) 
Heartbeat CPU 0 instructions: 100000000 cycles: 138139981 heartbeat IPC: 0.410385 cumulative IPC: 0.410449 (Simulation time: 1 hr 5 min 14 sec) 
Heartbeat CPU 0 instructions: 110000000 cycles: 162568969 heartbeat IPC: 0.40935 cumulative IPC: 0.410265 (Simulation time: 1 hr 14 min 26 sec) 
Heartbeat CPU 0 instructions: 120000003 cycles: 187005105 heartbeat IPC: 0.40923 cumulative IPC: 0.410117 (Simulation time: 1 hr 22 min 21 sec) 
Heartbeat CPU 0 instructions: 130000003 cycles: 211425455 heartbeat IPC: 0.409495 cumulative IPC: 0.410039 (Simulation time: 1 hr 29 min 43 sec) 
Heartbeat CPU 0 instructions: 140000000 cycles: 235778921 heartbeat IPC: 0.410619 cumulative IPC: 0.410104 (Simulation time: 1 hr 36 min 24 sec) 
Heartbeat CPU 0 instructions: 150000000 cycles: 260127701 heartbeat IPC: 0.410698 cumulative IPC: 0.410163 (Simulation time: 1 hr 41 min 57 sec) 
Finished CPU 0 instructions: 100000000 cycles: 243805530 cumulative IPC: 0.410163 (Simulation time: 1 hr 41 min 57 sec) 

ChampSim completed all CPUs

Region of Interest Statistics

CPU 0 cumulative IPC: 0.410163 instructions: 100000000 cycles: 243805530

CPU 0 Average Load ROB stall cycles: 3.77589e+06
CPU 0 Fraction of times ROB stalled by Loads: 2.72717
CPU 0 Percentage of Load stall cycles in Total stall cycles: 3.85807e+07
 Total stall cycles: 213015865
 Total load stall cycles: 82182946702253
CPU 0 NUM of IPS identified critical: 14

Threshold modification factor: -1
Max PIST entries: 11
Min PIST entries: 0
Avg PIST entries: 3.94667
Average ROB occupancy Load Stall Begin: 340.478
Average ROB occupancy Load Stall End: 342.764
Min ROB occupancy Load Stall Begin: 2
Max ROB occupancy Load Stall Begin: 351
Min ROB occupancy Load Stall End: 2
Max ROB occupancy Load Stall End: 352
Average ROB occupancy Critical Load Stall Begin: 342.287
Average ROB occupancy Critical Load Stall End: 344.498
Min ROB occupancy Critical Load Stall Begin: 2
Max ROB occupancy Critical Load Stall Begin: 351
Min ROB occupancy Critical Load Stall End: 2
Max ROB occupancy Critical Load Stall End: 352
 ROB Load Stall Begin Bucket Count 0: 10072
 ROB Load Stall End Bucket Count 0: 8609
 ROB Critical Load Stall Begin Bucket Count 0: 7530
 ROB Critical Load Stall End Bucket Count 0: 7490
 ROB Load Stall Begin Bucket Count 1: 2140
 ROB Load Stall End Bucket Count 1: 3543
 ROB Critical Load Stall Begin Bucket Count 1: 1177
 ROB Critical Load Stall End Bucket Count 1: 1170
 ROB Load Stall Begin Bucket Count 2: 3766
 ROB Load Stall End Bucket Count 2: 3623
 ROB Critical Load Stall Begin Bucket Count 2: 3528
 ROB Critical Load Stall End Bucket Count 2: 3440
 ROB Load Stall Begin Bucket Count 3: 1378
 ROB Load Stall End Bucket Count 3: 1521
 ROB Critical Load Stall Begin Bucket Count 3: 1335
 ROB Critical Load Stall End Bucket Count 3: 1449
 ROB Load Stall Begin Bucket Count 4: 1436
 ROB Load Stall End Bucket Count 4: 1229
 ROB Critical Load Stall Begin Bucket Count 4: 1412
 ROB Critical Load Stall End Bucket Count 4: 1216
 ROB Load Stall Begin Bucket Count 5: 3968
 ROB Load Stall End Bucket Count 5: 2258
 ROB Critical Load Stall Begin Bucket Count 5: 3937
 ROB Critical Load Stall End Bucket Count 5: 2228
 ROB Load Stall Begin Bucket Count 6: 570814
 ROB Load Stall End Bucket Count 6: 572791
 ROB Critical Load Stall Begin Bucket Count 6: 565589
 ROB Critical Load Stall End Bucket Count 6: 567515
Threshold Modified: 1 times, factor: -1
ITLB TOTAL     ACCESS:   23278413  HIT:   23278413  MISS:          0  HIT %:        100  MISS %:          0   MPKI: 0
ITLB LOAD TRANSLATION ACCESS:   23278413  HIT:   23278413  MISS:          0  HIT %:        100  MISS %:          0   MPKI: 0
ITLB AVERAGE MISS LATENCY: -nan cycles
ITLB RQ	ACCESS:   25139156	FORWARD:          0	MERGED:    1860743	TO_CACHE:   23278413

DTLB TOTAL     ACCESS:   27457716  HIT:   27424930  MISS:      32786  HIT %:    99.8806  MISS %:   0.119405   MPKI: 0.32786
DTLB LOAD TRANSLATION ACCESS:   27457716  HIT:   27424930  MISS:      32786  HIT %:    99.8806  MISS %:   0.119405   MPKI: 0.32786
DTLB AVERAGE MISS LATENCY: 142.509 cycles
DTLB RQ	ACCESS:   28039294	FORWARD:          0	MERGED:     580246	TO_CACHE:   27459048

STLB TOTAL     ACCESS:      32786  HIT:       2439  MISS:      30347  HIT %:    7.43915  MISS %:    92.5608   MPKI: 0.30347
STLB LOAD TRANSLATION ACCESS:      32786  HIT:       2439  MISS:      30347  HIT %:    7.43915  MISS %:    92.5608   MPKI: 0.30347
STLB AVERAGE MISS LATENCY: 144.215 cycles
STLB RQ	ACCESS:      32786	FORWARD:          0	MERGED:          0	TO_CACHE:      32786

STLB Hit, L1D data hit: 0
STLB Hit, L2C data hit: 0
STLB Hit, LLC data hit: 0
STLB Hit, LLC data miss: 0
STLB STLB hints to L2: 0
L1D TOTAL     ACCESS:   27604268  HIT:   25203497  MISS:    2400771  HIT %:    91.3029  MISS %:     8.6971   MPKI: 24.0077
L1D LOAD      ACCESS:   18972628  HIT:   16572624  MISS:    2400004  HIT %:    87.3502  MISS %:    12.6498   MPKI: 24
L1D RFO       ACCESS:    8631640  HIT:    8630873  MISS:        767  HIT %:    99.9911  MISS %: 0.00888591   MPKI: 0.00767
L1D AVERAGE MISS LATENCY: 17.8358 cycles
L1D RQ	ACCESS:   27797020	FORWARD:          0	MERGED:    8389332	TO_CACHE:   19407652
L1D WQ	ACCESS:    9705356	FORWARD:         36	MERGED:    1073714	TO_CACHE:    8631642

L1D UNIQUE REGIONS ACCESSED: 0
L1D REGIONS CONFLICTS: 0
L1D Cross Page Prefetch Requests: 0
L1D Same Page Prefetch Requests: 0
L1D ROI Sum of L1D PQ occupancy: 0
L1D PREFETCHES PUSHED FROM L2C: 0
L1I TOTAL     ACCESS:   25139155  HIT:   25139155  MISS:          0  HIT %:        100  MISS %:          0   MPKI: 0
L1I LOAD      ACCESS:   25139155  HIT:   25139155  MISS:          0  HIT %:        100  MISS %:          0   MPKI: 0
L1I AVERAGE MISS LATENCY: -nan cycles
L1I RQ	ACCESS:   39091934	FORWARD:          0	MERGED:   13952778	TO_CACHE:   25139156

BTB TOTAL     ACCESS:   16382938  HIT:   16382909  MISS:         29  HIT %:    99.9998  MISS %: 0.000177013   MPKI: 0.00029
BTB BRANCH_DIRECT_JUMP	ACCESS:    2158979  HIT:    2158970  MISS:          9
BTB BRANCH_INDIRECT	ACCESS:          0  HIT:          0  MISS:          0
BTB BRANCH_CONDITIONAL	ACCESS:   12063628  HIT:   12063614  MISS:         14
BTB BRANCH_DIRECT_CALL	ACCESS:    1080165  HIT:    1080162  MISS:          3
BTB BRANCH_INDIRECT_CALL	ACCESS:          0  HIT:          0  MISS:          0
BTB BRANCH_RETURN	ACCESS:    1080166  HIT:    1080163  MISS:          3
BTB BRANCH_OTHER ACCESS:          0  HIT:          0  MISS:          0

L2C TOTAL     ACCESS:    5244015  HIT:    3420059  MISS:    1823956  HIT %:    65.2183  MISS %:    34.7817   MPKI: 18.2396
L2C LOAD      ACCESS:    2400004  HIT:    2343149  MISS:      56855  HIT %:     97.631  MISS %:    2.36895   MPKI: 0.56855
L2C DATA LOAD MPKI: 0.56855
L2C INSTRUCTION LOAD MPKI: 0
L2C RFO       ACCESS:        767  HIT:        444  MISS:        323  HIT %:    57.8879  MISS %:    42.1121   MPKI: 0.00323
L2C PREFETCH  ACCESS:    2807613  HIT:    1046582  MISS:    1761031  HIT %:    37.2766  MISS %:    62.7234   MPKI: 17.6103
L2C DATA PREFETCH MPKI: 17.6103
L2C INSTRUCTION PREFETCH MPKI: 0
L2C WRITEBACK ACCESS:       5148  HIT:       5126  MISS:         22  HIT %:    99.5726  MISS %:    0.42735   MPKI: 0.00022
L2C LOAD TRANSLATION ACCESS:      30483  HIT:      24758  MISS:       5725  HIT %:     81.219  MISS %:     18.781   MPKI: 0.05725
L2C PREFETCH  REQUESTED:    2831887  ISSUED:    2831887  USEFUL:    1719585  USELESS:      41436
L2C USEFUL LOAD PREFETCHES:    1719585 PREFETCH ISSUED TO LOWER LEVEL:    1766613  ACCURACY: 97.338
L2C TIMELY PREFETCHES:    1719585 LATE PREFETCHES: 1613 DROPPED PREFETCHES: 0
L2C PREFETCHES SAME FILL-ORIGIN LEVEL: 1762645 DIFFERENT FILL-ORIGIN LEVEL: 3968
L2C AVERAGE MISS LATENCY: 106.581 cycles
L2C RQ	ACCESS:    2431254	FORWARD:          0	MERGED:          0	TO_CACHE:    2431254
L2C WQ	ACCESS:       5148	FORWARD:          0	MERGED:          0	TO_CACHE:       5148
L2C PQ	ACCESS:    2831887	FORWARD:          0	MERGED:       2190	TO_CACHE:    2829697

L2C Instructions Evicting Data0
L2C Translations Evicting Data5714
L2C Data Evicting Data1812493
L2C Instructions Evicting Instructions0
L2C Translations Evicting Instructions0
L2C Data Evicting Instructions0
L2C Instructions Evicting Translations0
L2C Translations Evicting Translations11
L2C Data Evicting Translations5716
L2C Dense regions hint from L2: 0
PSCL5 TOTAL     ACCESS:      30347  HIT:      30347  MISS:          0  HIT %:        100  MISS %:          0   MPKI: 0
PSCL5 LOAD TRANSLATION ACCESS:      30347  HIT:      30347  MISS:          0  HIT %:        100  MISS %:          0   MPKI: 0

PSCL4 TOTAL     ACCESS:      30347  HIT:      30347  MISS:          0  HIT %:        100  MISS %:          0   MPKI: 0
PSCL4 LOAD TRANSLATION ACCESS:      30347  HIT:      30347  MISS:          0  HIT %:        100  MISS %:          0   MPKI: 0

PSCL3 TOTAL     ACCESS:      30347  HIT:      30346  MISS:          1  HIT %:    99.9967  MISS %: 0.00329522   MPKI: 1e-05
PSCL3 LOAD TRANSLATION ACCESS:      30347  HIT:      30346  MISS:          1  HIT %:    99.9967  MISS %: 0.00329522   MPKI: 1e-05

PSCL2 TOTAL     ACCESS:      30347  HIT:      30004  MISS:        343  HIT %:    98.8697  MISS %:    1.13026   MPKI: 0.00343
PSCL2 LOAD TRANSLATION ACCESS:      30347  HIT:      30004  MISS:        343  HIT %:    98.8697  MISS %:    1.13026   MPKI: 0.00343

LLC TOTAL     ACCESS:    1830301  HIT:      17272  MISS:    1813029  HIT %:    0.94367  MISS %:    99.0563   MPKI: 18.1303
LLC LOAD      ACCESS:      55312  HIT:       1298  MISS:      54014  HIT %:    2.34669  MISS %:    97.6533   MPKI: 0.54014
LLC RFO       ACCESS:        253  HIT:         38  MISS:        215  HIT %:    15.0198  MISS %:    84.9802   MPKI: 0.00215
LLC PREFETCH  ACCESS:    1766608  HIT:      12899  MISS:    1753709  HIT %:   0.730156  MISS %:    99.2698   MPKI: 17.5371
LLC WRITEBACK ACCESS:       2403  HIT:       2369  MISS:         34  HIT %:    98.5851  MISS %:     1.4149   MPKI: 0.00034
LLC LOAD TRANSLATION ACCESS:       5725  HIT:        668  MISS:       5057  HIT %:    11.6681  MISS %:    88.3319   MPKI: 0.05057
LLC AVERAGE MISS LATENCY: 77.2891 cycles
LLC RQ	ACCESS:      61290	FORWARD:          0	MERGED:          0	TO_CACHE:      61290
LLC WQ	ACCESS:       2403	FORWARD:          0	MERGED:          0	TO_CACHE:       2403
LLC PQ	ACCESS:    1766613	FORWARD:          0	MERGED:          0	TO_CACHE:    1766613

LLC Dense regions hint to LLC: 0

RAW hits: 844
Loads Generated: 27797864
Loads sent to L1D: 27797020
Stores Generated: 9705357
Stores sent to L1D: 9705356
Major fault: 0 Minor fault: 45705
Allocated PAGES: 45705
------------------
Depth Distribution
------------------
depth 0: 18640
depth 1: 5075
depth 2: 20654
depth 3: 160025
depth 4: 273630
depth 5: 218051
depth 6: 91299
depth 7: 282085
depth 8: 1489599
depth 9: 1020796
depth 10: 12026
depth 11: 7185
depth 12: 1047
depth 13: 195
depth 14: 633
depth 15: 22
depth 16: 3
depth 17: 0
depth 18: 2
depth 19: 2
depth 20: 0
depth 21: 2
depth 22: 0
depth 23: 0
depth 24: 3
depth 25: 0
depth 26: 0
depth 27: 1
depth 28: 0
depth 29: 0
Total: 3600975
------------------
ST read accesses: 2369738
ST write accesses: 30266
PT read accesses: 101414274
PT write accesses: 3509227
FILTER read accesses: 22067433
FILTER write accesses: 8638449
GHR read accesses: 10306238
GHR write accesses: 1579929
PERC read accesses: 728293761
PERC write accesses: 24864462
GHR counter read accesses: 4800008
GHR counter write accesses: 7549153
GHR ip read accesses: 15826923
GHR ip write accesses: 9600016
ST tag read accesses: 881607481
ST tag write accesses: 14297302

DRAM Statistics
 CHANNEL 0
 RQ ROW_BUFFER_HIT:    1692352  ROW_BUFFER_MISS:     120643
 DBUS_CONGESTED:         21
 WQ ROW_BUFFER_HIT:        951  ROW_BUFFER_MISS:       1453  FULL:          0

 AVG_CONGESTED_CYCLE: 5
 All warmup complete: 2
Channel 0 Bank busy for read cycles: 0
Channel 0 Bank busy for write cycles: 0
Channel 0
Rank 0
0banks busy for read cycles: 176298828
0banks busy for write cycles: 1765
1banks busy for read cycles: 45377469
1banks busy for write cycles: 267953
2banks busy for read cycles: 15418956
2banks busy for write cycles: 54731
3banks busy for read cycles: 3359141
3banks busy for write cycles: 14582
4banks busy for read cycles: 910833
4banks busy for write cycles: 2900
5banks busy for read cycles: 760206
5banks busy for write cycles: 1253
6banks busy for read cycles: 807156
6banks busy for write cycles: 289
7banks busy for read cycles: 101569
7banks busy for write cycles: 0
8banks busy for read cycles: 427900
8banks busy for write cycles: 0

CPU 0 Branch Prediction Accuracy: 99.9623% MPKI: 0.09672 Average ROB Occupancy at Mispredict: 311.22
Branch types
NOT_BRANCH: 74359712 74.3597%
BRANCH_DIRECT_JUMP: 2158979 2.15898%
BRANCH_INDIRECT: 0 0%
BRANCH_CONDITIONAL: 21320980 21.321%
BRANCH_DIRECT_CALL: 1080165 1.08017%
BRANCH_INDIRECT_CALL: 0 0%
BRANCH_RETURN: 1080166 1.08017%
BRANCH_OTHER: 0 0%

DRAM PAGES: 1048576
Allocated PAGES: 45705
