
*** ChampSim Multicore Out-of-Order Simulator ***

Warmup Instructions: 50000000
Simulation Instructions: 100000000
Number of CPUs: 1
LLC sets: 2048
LLC ways: 16
Off-chip DRAM Size: 4096 MB Channels: 1 Width: 64-bit Data Rate: 6400 MT/s
CPU 0 runs ../SPEC2017//602.gcc_s-734B.champsimtrace.xz
.xz
NUM_OF_IPS_IN_CRITICAL_IP_TRAINING: 64
NUM_OF_CRITICAL_IP_TRAINING_TABLE_WAYS: 2
NUM_OF_CRITICAL_IP_TRAINING_TABLE_SETS: 32
WOBBLY_CRITICAL_IP_CACHE_SETS: 32
WOBBLY_CRITICAL_IP_CACHE_WAYS: 4
BTB has LRU replacement policy
ITLB has LRU replacement policy
DTLB has LRU replacement policy
STLB has LRU replacement policy
L1I has LRU replacement policy
L1D has LRU replacement policy
Bingo PHT WAYS: 16 and PHT_SIZE: 16384
Initialize SRRIP state for L2C
Initialize DRRIP state for LLC
Heartbeat CPU 0 instructions: 10000000 cycles: 3226432 heartbeat IPC: 3.0994 cumulative IPC: 3.0994 (Simulation time: 0 hr 6 min 22 sec) 
Heartbeat CPU 0 instructions: 20000002 cycles: 6467670 heartbeat IPC: 3.08524 cumulative IPC: 3.0923 (Simulation time: 0 hr 12 min 20 sec) 
Heartbeat CPU 0 instructions: 30000000 cycles: 9685879 heartbeat IPC: 3.10732 cumulative IPC: 3.09729 (Simulation time: 0 hr 17 min 20 sec) 
Heartbeat CPU 0 instructions: 40000000 cycles: 12932479 heartbeat IPC: 3.08015 cumulative IPC: 3.09299 (Simulation time: 0 hr 21 min 44 sec) 
Heartbeat CPU 0 instructions: 50000000 cycles: 16153087 heartbeat IPC: 3.105 cumulative IPC: 3.09538 (Simulation time: 0 hr 25 min 45 sec) 

Warmup complete CPU 0 instructions: 50000001 cycles: 16153088 (Simulation time: 0 hr 25 min 45 sec) 

Heartbeat CPU 0 instructions: 60000000 cycles: 40140149 heartbeat IPC: 0.416891 cumulative IPC: 0.416891 (Simulation time: 0 hr 32 min 17 sec) 
Heartbeat CPU 0 instructions: 70000002 cycles: 65214655 heartbeat IPC: 0.398812 cumulative IPC: 0.407651 (Simulation time: 0 hr 38 min 11 sec) 
Heartbeat CPU 0 instructions: 80000000 cycles: 88909182 heartbeat IPC: 0.422038 cumulative IPC: 0.412337 (Simulation time: 0 hr 43 min 18 sec) 
Heartbeat CPU 0 instructions: 90000000 cycles: 112753760 heartbeat IPC: 0.419383 cumulative IPC: 0.414076 (Simulation time: 0 hr 47 min 39 sec) 
Heartbeat CPU 0 instructions: 100000000 cycles: 141986226 heartbeat IPC: 0.342085 cumulative IPC: 0.397352 (Simulation time: 0 hr 52 min 2 sec) 
Heartbeat CPU 0 instructions: 110000000 cycles: 165584433 heartbeat IPC: 0.423761 cumulative IPC: 0.401522 (Simulation time: 0 hr 58 min 33 sec) 
Heartbeat CPU 0 instructions: 120000000 cycles: 189355160 heartbeat IPC: 0.420685 cumulative IPC: 0.404152 (Simulation time: 1 hr 3 min 23 sec) 
Heartbeat CPU 0 instructions: 130000001 cycles: 215243477 heartbeat IPC: 0.386275 cumulative IPC: 0.401828 (Simulation time: 1 hr 7 min 20 sec) 
Heartbeat CPU 0 instructions: 140000001 cycles: 238931193 heartbeat IPC: 0.42216 cumulative IPC: 0.403989 (Simulation time: 1 hr 10 min 53 sec) 
Heartbeat CPU 0 instructions: 150000000 cycles: 262813746 heartbeat IPC: 0.418716 cumulative IPC: 0.405415 (Simulation time: 1 hr 13 min 26 sec) 
Finished CPU 0 instructions: 100000001 cycles: 246660659 cumulative IPC: 0.405415 (Simulation time: 1 hr 13 min 26 sec) 

ChampSim completed all CPUs

Region of Interest Statistics

CPU 0 cumulative IPC: 0.405415 instructions: 100000001 cycles: 246660659

CPU 0 Average Load ROB stall cycles: 5.05586e+07
CPU 0 Fraction of times ROB stalled by Loads: 36.039
CPU 0 Percentage of Load stall cycles in Total stall cycles: 5.2938e+08
Issued all: 225340943
Issued LT all: 222694069
rob_not_full_when_issued_lt_all: 7223061
Issued LT one: 187397175
rob_not_full_when_issued_lt_one: 4862984
 Total stall cycles: 219424409
 Total load stall cycles: 1161590009393295
CPU 0 NUM of IPS identified critical: 0
CPU 0 Num of Load IPs stalling ROB: 430
Threshold modification factor: 0
Max PIST entries: 64
Min PIST entries: 0
Avg PIST entries: 17.52
Trouble in retire width: 0.998797
MaC = Marked as critical.
lt_50_percent_before_Mac: 0
gt_90_percent_before_Mac: 0
gt_75_percent_before_Mac: 0
gt_50_percent_before_Mac: 0
stall_proportion_bin_same_before_after: 0
stall_proportion_bin_lower_before_after: 0
stall_proportion_bin_upper_before_after: 0
average_stall_proportion_before: -nan
average_stall_proportion_after: -nan
Critical IP stalls, total frequency: 0
Non-critical IP stalls, total frequency: 8279999
Total Freq all stalling IPs: 8279999
stat_90_percent_critical_ip_stalls_freq: 7490491
stat_90_percent_non_critical_ip_stalls_freq: 789508
Critical_IP_ROB_Stalls_Bucket_0: 0
Non-critical_IP_ROB_Stalls_Bucket_0: 313929
Critical_IP_ROB_Stalls_Bucket_1: 0
Non-critical_IP_ROB_Stalls_Bucket_1: 137685
Critical_IP_ROB_Stalls_Bucket_2: 0
Non-critical_IP_ROB_Stalls_Bucket_2: 36574
Critical_IP_ROB_Stalls_Bucket_3: 0
Non-critical_IP_ROB_Stalls_Bucket_3: 39213
Critical_IP_ROB_Stalls_Bucket_4: 0
Non-critical_IP_ROB_Stalls_Bucket_4: 27353
Critical_IP_ROB_Stalls_Bucket_5: 0
Non-critical_IP_ROB_Stalls_Bucket_5: 27796
Critical_IP_ROB_Stalls_Bucket_6: 0
Non-critical_IP_ROB_Stalls_Bucket_6: 7697449
0 => IPs accounting for >50 percent of stalls, 1 => 55, 2 => 60, 3 => 65 and so on till 90.
percent50: 55.7345 num IPs:  4
percent55: 55.7345 num IPs: 4
percent60: 68.9639 num IPs: 5
percent65: 68.9639 num IPs: 5
percent70: 81.0627 num IPs: 6
percent75: 81.0627 num IPs: 6
percent80: 81.0627 num IPs: 6
percent85: 86.7763 num IPs: 8
percent90: 90.4649 num IPs: 10
Critical_ROB_Stalls_Percent_0_Bucket_0: 8506
Non-critical_ROB_Stalls_Percent_0_Bucket_0: 305423
Critical_ROB_Stalls_Percent_0_Bucket_1: 8545
Non-critical_ROB_Stalls_Percent_0_Bucket_1: 129140
Critical_ROB_Stalls_Percent_0_Bucket_2: 1577
Non-critical_ROB_Stalls_Percent_0_Bucket_2: 34997
Critical_ROB_Stalls_Percent_0_Bucket_3: 6628
Non-critical_ROB_Stalls_Percent_0_Bucket_3: 32585
Critical_ROB_Stalls_Percent_0_Bucket_4: 3532
Non-critical_ROB_Stalls_Percent_0_Bucket_4: 23821
Critical_ROB_Stalls_Percent_0_Bucket_5: 3452
Non-critical_ROB_Stalls_Percent_0_Bucket_5: 24344
Critical_ROB_Stalls_Percent_0_Bucket_6: 4582572
Non-critical_ROB_Stalls_Percent_0_Bucket_6: 3114877
Critical_ROB_Stalls_Percent_1_Bucket_0: 8506
Non-critical_ROB_Stalls_Percent_1_Bucket_0: 305423
Critical_ROB_Stalls_Percent_1_Bucket_1: 8545
Non-critical_ROB_Stalls_Percent_1_Bucket_1: 129140
Critical_ROB_Stalls_Percent_1_Bucket_2: 1577
Non-critical_ROB_Stalls_Percent_1_Bucket_2: 34997
Critical_ROB_Stalls_Percent_1_Bucket_3: 6628
Non-critical_ROB_Stalls_Percent_1_Bucket_3: 32585
Critical_ROB_Stalls_Percent_1_Bucket_4: 3532
Non-critical_ROB_Stalls_Percent_1_Bucket_4: 23821
Critical_ROB_Stalls_Percent_1_Bucket_5: 3452
Non-critical_ROB_Stalls_Percent_1_Bucket_5: 24344
Critical_ROB_Stalls_Percent_1_Bucket_6: 4582572
Non-critical_ROB_Stalls_Percent_1_Bucket_6: 3114877
Critical_ROB_Stalls_Percent_2_Bucket_0: 10495
Non-critical_ROB_Stalls_Percent_2_Bucket_0: 303434
Critical_ROB_Stalls_Percent_2_Bucket_1: 10808
Non-critical_ROB_Stalls_Percent_2_Bucket_1: 126877
Critical_ROB_Stalls_Percent_2_Bucket_2: 1806
Non-critical_ROB_Stalls_Percent_2_Bucket_2: 34768
Critical_ROB_Stalls_Percent_2_Bucket_3: 8237
Non-critical_ROB_Stalls_Percent_2_Bucket_3: 30976
Critical_ROB_Stalls_Percent_2_Bucket_4: 3749
Non-critical_ROB_Stalls_Percent_2_Bucket_4: 23604
Critical_ROB_Stalls_Percent_2_Bucket_5: 4900
Non-critical_ROB_Stalls_Percent_2_Bucket_5: 22896
Critical_ROB_Stalls_Percent_2_Bucket_6: 5670217
Non-critical_ROB_Stalls_Percent_2_Bucket_6: 2027232
Critical_ROB_Stalls_Percent_3_Bucket_0: 10495
Non-critical_ROB_Stalls_Percent_3_Bucket_0: 303434
Critical_ROB_Stalls_Percent_3_Bucket_1: 10808
Non-critical_ROB_Stalls_Percent_3_Bucket_1: 126877
Critical_ROB_Stalls_Percent_3_Bucket_2: 1806
Non-critical_ROB_Stalls_Percent_3_Bucket_2: 34768
Critical_ROB_Stalls_Percent_3_Bucket_3: 8237
Non-critical_ROB_Stalls_Percent_3_Bucket_3: 30976
Critical_ROB_Stalls_Percent_3_Bucket_4: 3749
Non-critical_ROB_Stalls_Percent_3_Bucket_4: 23604
Critical_ROB_Stalls_Percent_3_Bucket_5: 4900
Non-critical_ROB_Stalls_Percent_3_Bucket_5: 22896
Critical_ROB_Stalls_Percent_3_Bucket_6: 5670217
Non-critical_ROB_Stalls_Percent_3_Bucket_6: 2027232
Critical_ROB_Stalls_Percent_4_Bucket_0: 12175
Non-critical_ROB_Stalls_Percent_4_Bucket_0: 301754
Critical_ROB_Stalls_Percent_4_Bucket_1: 12379
Non-critical_ROB_Stalls_Percent_4_Bucket_1: 125306
Critical_ROB_Stalls_Percent_4_Bucket_2: 2066
Non-critical_ROB_Stalls_Percent_4_Bucket_2: 34508
Critical_ROB_Stalls_Percent_4_Bucket_3: 9673
Non-critical_ROB_Stalls_Percent_4_Bucket_3: 29540
Critical_ROB_Stalls_Percent_4_Bucket_4: 3939
Non-critical_ROB_Stalls_Percent_4_Bucket_4: 23414
Critical_ROB_Stalls_Percent_4_Bucket_5: 6204
Non-critical_ROB_Stalls_Percent_4_Bucket_5: 21592
Critical_ROB_Stalls_Percent_4_Bucket_6: 6665553
Non-critical_ROB_Stalls_Percent_4_Bucket_6: 1031896
Critical_ROB_Stalls_Percent_5_Bucket_0: 12175
Non-critical_ROB_Stalls_Percent_5_Bucket_0: 301754
Critical_ROB_Stalls_Percent_5_Bucket_1: 12379
Non-critical_ROB_Stalls_Percent_5_Bucket_1: 125306
Critical_ROB_Stalls_Percent_5_Bucket_2: 2066
Non-critical_ROB_Stalls_Percent_5_Bucket_2: 34508
Critical_ROB_Stalls_Percent_5_Bucket_3: 9673
Non-critical_ROB_Stalls_Percent_5_Bucket_3: 29540
Critical_ROB_Stalls_Percent_5_Bucket_4: 3939
Non-critical_ROB_Stalls_Percent_5_Bucket_4: 23414
Critical_ROB_Stalls_Percent_5_Bucket_5: 6204
Non-critical_ROB_Stalls_Percent_5_Bucket_5: 21592
Critical_ROB_Stalls_Percent_5_Bucket_6: 6665553
Non-critical_ROB_Stalls_Percent_5_Bucket_6: 1031896
Critical_ROB_Stalls_Percent_6_Bucket_0: 12175
Non-critical_ROB_Stalls_Percent_6_Bucket_0: 301754
Critical_ROB_Stalls_Percent_6_Bucket_1: 12379
Non-critical_ROB_Stalls_Percent_6_Bucket_1: 125306
Critical_ROB_Stalls_Percent_6_Bucket_2: 2066
Non-critical_ROB_Stalls_Percent_6_Bucket_2: 34508
Critical_ROB_Stalls_Percent_6_Bucket_3: 9673
Non-critical_ROB_Stalls_Percent_6_Bucket_3: 29540
Critical_ROB_Stalls_Percent_6_Bucket_4: 3939
Non-critical_ROB_Stalls_Percent_6_Bucket_4: 23414
Critical_ROB_Stalls_Percent_6_Bucket_5: 6204
Non-critical_ROB_Stalls_Percent_6_Bucket_5: 21592
Critical_ROB_Stalls_Percent_6_Bucket_6: 6665553
Non-critical_ROB_Stalls_Percent_6_Bucket_6: 1031896
Critical_ROB_Stalls_Percent_7_Bucket_0: 29020
Non-critical_ROB_Stalls_Percent_7_Bucket_0: 284909
Critical_ROB_Stalls_Percent_7_Bucket_1: 31775
Non-critical_ROB_Stalls_Percent_7_Bucket_1: 105910
Critical_ROB_Stalls_Percent_7_Bucket_2: 20209
Non-critical_ROB_Stalls_Percent_7_Bucket_2: 16365
Critical_ROB_Stalls_Percent_7_Bucket_3: 26785
Non-critical_ROB_Stalls_Percent_7_Bucket_3: 12428
Critical_ROB_Stalls_Percent_7_Bucket_4: 19961
Non-critical_ROB_Stalls_Percent_7_Bucket_4: 7392
Critical_ROB_Stalls_Percent_7_Bucket_5: 21569
Non-critical_ROB_Stalls_Percent_7_Bucket_5: 6227
Critical_ROB_Stalls_Percent_7_Bucket_6: 7035757
Non-critical_ROB_Stalls_Percent_7_Bucket_6: 661692
Critical_ROB_Stalls_Percent_8_Bucket_0: 29709
Non-critical_ROB_Stalls_Percent_8_Bucket_0: 284220
Critical_ROB_Stalls_Percent_8_Bucket_1: 33008
Non-critical_ROB_Stalls_Percent_8_Bucket_1: 104677
Critical_ROB_Stalls_Percent_8_Bucket_2: 20628
Non-critical_ROB_Stalls_Percent_8_Bucket_2: 15946
Critical_ROB_Stalls_Percent_8_Bucket_3: 27124
Non-critical_ROB_Stalls_Percent_8_Bucket_3: 12089
Critical_ROB_Stalls_Percent_8_Bucket_4: 19972
Non-critical_ROB_Stalls_Percent_8_Bucket_4: 7381
Critical_ROB_Stalls_Percent_8_Bucket_5: 22034
Non-critical_ROB_Stalls_Percent_8_Bucket_5: 5762
Critical_ROB_Stalls_Percent_8_Bucket_6: 7338016
Non-critical_ROB_Stalls_Percent_8_Bucket_6: 359433
Average ROB occupancy Load Stall Begin: 329.99
Average ROB occupancy Load Stall End: 332.148
Min ROB occupancy Load Stall Begin: 1
Max ROB occupancy Load Stall Begin: 352
Min ROB occupancy Load Stall End: 1
Max ROB occupancy Load Stall End: 352
Average ROB occupancy Critical Load Stall Begin: -nan
Average ROB occupancy Critical Load Stall End: -nan
Min ROB occupancy Critical Load Stall Begin: 400
Max ROB occupancy Critical Load Stall Begin: 0
Min ROB occupancy Critical Load Stall End: 400
Max ROB occupancy Critical Load Stall End: 0
 ROB Load Stall Begin Bucket Count 0: 334069
 ROB Load Stall End Bucket Count 0: 313929
 ROB Critical Load Stall Begin Bucket Count 0: 0
 ROB Critical Load Stall End Bucket Count 0: 0
 ROB Load Stall Begin Bucket Count 1: 125133
 ROB Load Stall End Bucket Count 1: 137685
 ROB Critical Load Stall Begin Bucket Count 1: 0
 ROB Critical Load Stall End Bucket Count 1: 0
 ROB Load Stall Begin Bucket Count 2: 34678
 ROB Load Stall End Bucket Count 2: 36574
 ROB Critical Load Stall Begin Bucket Count 2: 0
 ROB Critical Load Stall End Bucket Count 2: 0
 ROB Load Stall Begin Bucket Count 3: 38030
 ROB Load Stall End Bucket Count 3: 39213
 ROB Critical Load Stall Begin Bucket Count 3: 0
 ROB Critical Load Stall End Bucket Count 3: 0
 ROB Load Stall Begin Bucket Count 4: 27030
 ROB Load Stall End Bucket Count 4: 27353
 ROB Critical Load Stall Begin Bucket Count 4: 0
 ROB Critical Load Stall End Bucket Count 4: 0
 ROB Load Stall Begin Bucket Count 5: 27529
 ROB Load Stall End Bucket Count 5: 27796
 ROB Critical Load Stall Begin Bucket Count 5: 0
 ROB Critical Load Stall End Bucket Count 5: 0
 ROB Load Stall Begin Bucket Count 6: 7693530
 ROB Load Stall End Bucket Count 6: 7697449
 ROB Critical Load Stall Begin Bucket Count 6: 0
 ROB Critical Load Stall End Bucket Count 6: 0
PIST Tag Read Accesses: 124224
PIST Read Accesses: 62112
PIST Tag Write Accesses: 124224
PIST Write Accesses: 62112
Criticality detector called times: 244875
Max global_stall_cycles_count: 1251942
Threshold Modified: 0 times, factor: 0
Sturdy critical IP cache stats: 
 Unused entries: 0
CIC Tag Read Accesses: 0
CIC Read Accesses: 0
CIC Tag Write Accesses: 0
CIC Write Accesses: 0
Wobbly critical IP cache stats: 
 Unused entries: 55
CIC Tag Read Accesses: 297724725
CIC Read Accesses: 0
CIC Tag Write Accesses: 4669036
CIC Write Accesses: 0
ITLB TOTAL     ACCESS:   23676830  HIT:   23676820  MISS:         10  HIT %:        100  MISS %: 4.22354e-05   MPKI: 0.0001
ITLB LOAD TRANSLATION ACCESS:   23676830  HIT:   23676820  MISS:         10  HIT %:        100  MISS %: 4.22354e-05   MPKI: 0.0001
ITLB PREFETCH  REQUESTED:          0  ISSUED:          0  USEFUL:          0  USELESS:          0
ITLB USEFUL LOAD PREFETCHES:          0 PREFETCH ISSUED TO LOWER LEVEL:          0  ACCURACY: -nan
ITLB TIMELY PREFETCHES:          0 LATE PREFETCHES: 0 DROPPED PREFETCHES: 0
ITLB PREFETCHES SAME FILL-ORIGIN LEVEL: 0 DIFFERENT FILL-ORIGIN LEVEL: 0
ITLB AVERAGE MISS LATENCY: 324.4 cycles
ITLB RQ	ACCESS:   26059701	FORWARD:          0	MERGED:    2382868	TO_CACHE:   23676833

DTLB TOTAL     ACCESS:   29274155  HIT:   29122362  MISS:     151793  HIT %:    99.4815  MISS %:   0.518522   MPKI: 1.51793
DTLB LOAD TRANSLATION ACCESS:   29274155  HIT:   29122362  MISS:     151793  HIT %:    99.4815  MISS %:   0.518522   MPKI: 1.51793
DTLB PREFETCH  REQUESTED:          0  ISSUED:          0  USEFUL:          0  USELESS:          0
DTLB USEFUL LOAD PREFETCHES:          0 PREFETCH ISSUED TO LOWER LEVEL:          0  ACCURACY: -nan
DTLB TIMELY PREFETCHES:          0 LATE PREFETCHES: 0 DROPPED PREFETCHES: 0
DTLB PREFETCHES SAME FILL-ORIGIN LEVEL: 0 DIFFERENT FILL-ORIGIN LEVEL: 0
DTLB AVERAGE MISS LATENCY: 28.6749 cycles
DTLB RQ	ACCESS:   29754403	FORWARD:          0	MERGED:     478398	TO_CACHE:   29276005

STLB TOTAL     ACCESS:     151803  HIT:     122600  MISS:      29203  HIT %:    80.7626  MISS %:    19.2374   MPKI: 0.29203
STLB LOAD TRANSLATION ACCESS:     151803  HIT:     122600  MISS:      29203  HIT %:    80.7626  MISS %:    19.2374   MPKI: 0.29203
STLB PREFETCH  REQUESTED:          0  ISSUED:          0  USEFUL:          0  USELESS:          0
STLB USEFUL LOAD PREFETCHES:          0 PREFETCH ISSUED TO LOWER LEVEL:          0  ACCURACY: -nan
STLB TIMELY PREFETCHES:          0 LATE PREFETCHES: 0 DROPPED PREFETCHES: 0
STLB PREFETCHES SAME FILL-ORIGIN LEVEL: 0 DIFFERENT FILL-ORIGIN LEVEL: 0
STLB AVERAGE MISS LATENCY: 102.361 cycles
STLB RQ	ACCESS:     151803	FORWARD:          0	MERGED:          0	TO_CACHE:     151803

STLB Hit, L1D data hit: 0
STLB Hit, L2C data hit: 0
STLB Hit, LLC data hit: 0
STLB Hit, LLC data miss: 0
STLB STLB hints to L2: 0
L1D TOTAL     ACCESS:   29617833  HIT:   27831070  MISS:    1786763  HIT %:    93.9673  MISS %:    6.03273   MPKI: 17.8676
L1D LOAD      ACCESS:   19898333  HIT:   18114470  MISS:    1783863  HIT %:    91.0351  MISS %:    8.96489   MPKI: 17.8386
L1D RFO       ACCESS:    9719500  HIT:    9716600  MISS:       2900  HIT %:    99.9702  MISS %:  0.0298369   MPKI: 0.029
L1D PREFETCH  REQUESTED:          0  ISSUED:          0  USEFUL:          0  USELESS:          0
L1D USEFUL LOAD PREFETCHES:          0 PREFETCH ISSUED TO LOWER LEVEL:          0  ACCURACY: -nan
L1D TIMELY PREFETCHES:          0 LATE PREFETCHES: 0 DROPPED PREFETCHES: 0
L1D PREFETCHES SAME FILL-ORIGIN LEVEL: 0 DIFFERENT FILL-ORIGIN LEVEL: 0
L1D AVERAGE MISS LATENCY: 21.1815 cycles
L1D RQ	ACCESS:   26440725	FORWARD:          0	MERGED:    6399985	TO_CACHE:   20028301
L1D WQ	ACCESS:   10905528	FORWARD:      12439	MERGED:    1179426	TO_CACHE:    9726102

L1D UNIQUE REGIONS ACCESSED: 0
L1D REGIONS CONFLICTS: 0
L1D Cross Page Prefetch Requests: 0
L1D Same Page Prefetch Requests: 0
L1D ROI Sum of L1D PQ occupancy: 0
L1D PREFETCHES PUSHED FROM L2C: 0
L1I TOTAL     ACCESS:   26059692  HIT:   26059603  MISS:         89  HIT %:    99.9997  MISS %: 0.000341524   MPKI: 0.00089
L1I LOAD      ACCESS:   26059692  HIT:   26059603  MISS:         89  HIT %:    99.9997  MISS %: 0.000341524   MPKI: 0.00089
L1I PREFETCH  REQUESTED:          0  ISSUED:          0  USEFUL:          0  USELESS:          0
L1I USEFUL LOAD PREFETCHES:          0 PREFETCH ISSUED TO LOWER LEVEL:          0  ACCURACY: -nan
L1I TIMELY PREFETCHES:          0 LATE PREFETCHES: 0 DROPPED PREFETCHES: 0
L1I PREFETCHES SAME FILL-ORIGIN LEVEL: 0 DIFFERENT FILL-ORIGIN LEVEL: 0
L1I AVERAGE MISS LATENCY: 190.697 cycles
L1I RQ	ACCESS:   41007456	FORWARD:          0	MERGED:   14947755	TO_CACHE:   26059701

BTB TOTAL     ACCESS:   18809925  HIT:   18778914  MISS:      31011  HIT %:    99.8351  MISS %:   0.164865   MPKI: 0.31011
BTB BRANCH_DIRECT_JUMP	ACCESS:    2403863  HIT:    2403787  MISS:         76
BTB BRANCH_INDIRECT	ACCESS:          0  HIT:          0  MISS:          0
BTB BRANCH_CONDITIONAL	ACCESS:   13964073  HIT:   13963903  MISS:        170
BTB BRANCH_DIRECT_CALL	ACCESS:    1220971  HIT:    1220928  MISS:         43
BTB BRANCH_INDIRECT_CALL	ACCESS:         23  HIT:         22  MISS:          1
BTB BRANCH_RETURN	ACCESS:    1220995  HIT:    1190274  MISS:      30721
BTB BRANCH_OTHER ACCESS:          0  HIT:          0  MISS:          0

L2C TOTAL     ACCESS:    2908449  HIT:    1850898  MISS:    1057551  HIT %:    63.6387  MISS %:    36.3613   MPKI: 10.5755
L2C LOAD      ACCESS:    1783952  HIT:    1699247  MISS:      84705  HIT %:    95.2518  MISS %:    4.74817   MPKI: 0.84705
L2C DATA LOAD MPKI: 0.84616
L2C INSTRUCTION LOAD MPKI: 0.00089
L2C RFO       ACCESS:       2900  HIT:        398  MISS:       2502  HIT %:    13.7241  MISS %:    86.2759   MPKI: 0.02502
L2C PREFETCH  ACCESS:    1068646  HIT:     111163  MISS:     957483  HIT %:    10.4022  MISS %:    89.5978   MPKI: 9.57483
L2C DATA PREFETCH MPKI: 9.57483
L2C INSTRUCTION PREFETCH MPKI: 0
L2C WRITEBACK ACCESS:      21306  HIT:      20978  MISS:        328  HIT %:    98.4605  MISS %:    1.53947   MPKI: 0.00328
L2C LOAD TRANSLATION ACCESS:      31645  HIT:      19112  MISS:      12533  HIT %:     60.395  MISS %:     39.605   MPKI: 0.12533
L2C PREFETCH  REQUESTED:    1070171  ISSUED:    1070171  USEFUL:     865692  USELESS:      90952
L2C USEFUL LOAD PREFETCHES:     865692 PREFETCH ISSUED TO LOWER LEVEL:     958173  ACCURACY: 90.3482
L2C TIMELY PREFETCHES:     865692 LATE PREFETCHES: 690 DROPPED PREFETCHES: 0
L2C PREFETCHES SAME FILL-ORIGIN LEVEL: 958173 DIFFERENT FILL-ORIGIN LEVEL: 0
L2C AVERAGE MISS LATENCY: 128.055 cycles
L2C RQ	ACCESS:    1818497	FORWARD:          0	MERGED:          0	TO_CACHE:    1818497
L2C WQ	ACCESS:      21306	FORWARD:          0	MERGED:          0	TO_CACHE:      21306
L2C PQ	ACCESS:    1070171	FORWARD:          0	MERGED:          0	TO_CACHE:    1070171

L2C Instructions Evicting Data 82
L2C Translations Evicting Data 12340
L2C Data Evicting Data 1032142
L2C Instructions Evicting Instructions 0
L2C Translations Evicting Instructions 2
L2C Data Evicting Instructions 86
L2C Instructions Evicting Translations 7
L2C Translations Evicting Translations 191
L2C Data Evicting Translations 12373
L2C Dense regions hint from L2: 0
PSCL5 TOTAL     ACCESS:      29203  HIT:      29203  MISS:          0  HIT %:        100  MISS %:          0   MPKI: 0
PSCL5 LOAD TRANSLATION ACCESS:      29203  HIT:      29203  MISS:          0  HIT %:        100  MISS %:          0   MPKI: 0
PSCL5 PREFETCH  REQUESTED:          0  ISSUED:          0  USEFUL:          0  USELESS:          0
PSCL5 USEFUL LOAD PREFETCHES:          0 PREFETCH ISSUED TO LOWER LEVEL:          0  ACCURACY: -nan
PSCL5 TIMELY PREFETCHES:          0 LATE PREFETCHES: 0 DROPPED PREFETCHES: 0
PSCL5 PREFETCHES SAME FILL-ORIGIN LEVEL: 0 DIFFERENT FILL-ORIGIN LEVEL: 0

PSCL4 TOTAL     ACCESS:      29203  HIT:      29203  MISS:          0  HIT %:        100  MISS %:          0   MPKI: 0
PSCL4 LOAD TRANSLATION ACCESS:      29203  HIT:      29203  MISS:          0  HIT %:        100  MISS %:          0   MPKI: 0
PSCL4 PREFETCH  REQUESTED:          0  ISSUED:          0  USEFUL:          0  USELESS:          0
PSCL4 USEFUL LOAD PREFETCHES:          0 PREFETCH ISSUED TO LOWER LEVEL:          0  ACCURACY: -nan
PSCL4 TIMELY PREFETCHES:          0 LATE PREFETCHES: 0 DROPPED PREFETCHES: 0
PSCL4 PREFETCHES SAME FILL-ORIGIN LEVEL: 0 DIFFERENT FILL-ORIGIN LEVEL: 0

PSCL3 TOTAL     ACCESS:      29203  HIT:      29203  MISS:          0  HIT %:        100  MISS %:          0   MPKI: 0
PSCL3 LOAD TRANSLATION ACCESS:      29203  HIT:      29203  MISS:          0  HIT %:        100  MISS %:          0   MPKI: 0
PSCL3 PREFETCH  REQUESTED:          0  ISSUED:          0  USEFUL:          0  USELESS:          0
PSCL3 USEFUL LOAD PREFETCHES:          0 PREFETCH ISSUED TO LOWER LEVEL:          0  ACCURACY: -nan
PSCL3 TIMELY PREFETCHES:          0 LATE PREFETCHES: 0 DROPPED PREFETCHES: 0
PSCL3 PREFETCHES SAME FILL-ORIGIN LEVEL: 0 DIFFERENT FILL-ORIGIN LEVEL: 0

PSCL2 TOTAL     ACCESS:      29203  HIT:      26724  MISS:       2479  HIT %:    91.5111  MISS %:    8.48885   MPKI: 0.02479
PSCL2 LOAD TRANSLATION ACCESS:      29203  HIT:      26724  MISS:       2479  HIT %:    91.5111  MISS %:    8.48885   MPKI: 0.02479
PSCL2 PREFETCH  REQUESTED:          0  ISSUED:          0  USEFUL:          0  USELESS:          0
PSCL2 USEFUL LOAD PREFETCHES:          0 PREFETCH ISSUED TO LOWER LEVEL:          0  ACCURACY: -nan
PSCL2 TIMELY PREFETCHES:          0 LATE PREFETCHES: 0 DROPPED PREFETCHES: 0
PSCL2 PREFETCHES SAME FILL-ORIGIN LEVEL: 0 DIFFERENT FILL-ORIGIN LEVEL: 0

LLC TOTAL     ACCESS:    1069940  HIT:      68417  MISS:    1001523  HIT %:    6.39447  MISS %:    93.6055   MPKI: 10.0152
LLC LOAD      ACCESS:      84020  HIT:      10428  MISS:      73592  HIT %:    12.4113  MISS %:    87.5887   MPKI: 0.73592
LLC RFO       ACCESS:       2497  HIT:         48  MISS:       2449  HIT %:    1.92231  MISS %:    98.0777   MPKI: 0.02449
LLC PREFETCH  ACCESS:     958173  HIT:      49747  MISS:     908426  HIT %:    5.19186  MISS %:    94.8081   MPKI: 9.08426
LLC WRITEBACK ACCESS:      12717  HIT:       5697  MISS:       7020  HIT %:    44.7983  MISS %:    55.2017   MPKI: 0.0702
LLC LOAD TRANSLATION ACCESS:      12533  HIT:       2497  MISS:      10036  HIT %:    19.9234  MISS %:    80.0766   MPKI: 0.10036
LLC PREFETCH  REQUESTED:          0  ISSUED:          0  USEFUL:       1077  USELESS:     880379
LLC USEFUL LOAD PREFETCHES:       1077 PREFETCH ISSUED TO LOWER LEVEL:     908426  ACCURACY: 0.118557
LLC TIMELY PREFETCHES:       1077 LATE PREFETCHES: 0 DROPPED PREFETCHES: 0
LLC PREFETCHES SAME FILL-ORIGIN LEVEL: 0 DIFFERENT FILL-ORIGIN LEVEL: 0
LLC AVERAGE MISS LATENCY: 103.558 cycles
LLC RQ	ACCESS:      99050	FORWARD:          0	MERGED:          0	TO_CACHE:      99050
LLC WQ	ACCESS:      12717	FORWARD:          0	MERGED:          0	TO_CACHE:      12717
LLC PQ	ACCESS:     958173	FORWARD:          0	MERGED:          0	TO_CACHE:     958173

LLC Dense regions hint to LLC: 0

RAW hits: 38240
Loads Generated: 26478965
Loads sent to L1D: 26440725
Stores Generated: 10905527
Stores sent to L1D: 10905528
Major fault: 0 Minor fault: 9295
Allocated PAGES: 9295
[Bingo] PHT Access: 55532
[Bingo] PHT Hit PC+Addr: 7266
[Bingo] PHT Hit PC+Offs: 45012
[Bingo] PHT Miss: 3254
[Bingo] Prefetch PC+Addr: 0
[Bingo] Prefetch PC+Offs: 0
[Bingo] Useful PC+Addr: 0
[Bingo] Useful PC+Offs: 0
[Bingo] Useless PC+Addr: 0
[Bingo] Useless PC+Offs: 0
[Bingo] L1 Prefetch per Region: 0
[Bingo] L2 Prefetch per Region: 21.7122
[Bingo] L3 Prefetch per Region: 0
[Bingo] No Prefetch per Region: 10.2878
[Bingo] Number of Voters Mean: 13.486
[Bingo] Number of Voters SD: 4.72649
PHT read accesses: 721025
PHT write accesses: 41736
AT read accesses: 1672178
AT write accesses: 1704744
FT read accesses: 162156
FT write accesses: 55532
PS read accesses: 137173
PS write accesses: 52278
PHT tag read accesses: 2027335
PHT tag write accesses: 49002
AT tag read accesses: 46595028
AT tag write accesses: 1714042
FT tag read accesses: 20607133
FT tag write accesses: 160656
PS tag read accesses: 29748354
PS tag write accesses: 188453

DRAM Statistics
 CHANNEL 0
 RQ ROW_BUFFER_HIT:     900094  ROW_BUFFER_MISS:      94409
 DBUS_CONGESTED:         40
 WQ ROW_BUFFER_HIT:        281  ROW_BUFFER_MISS:       8337  FULL:          0

 AVG_CONGESTED_CYCLE: 3
 All warmup complete: 2
Channel 0 Bank busy for read cycles: 0
Channel 0 Bank busy for write cycles: 0
Channel 0
Rank 0
0banks busy for read cycles: 230345360
0banks busy for write cycles: 6982
1banks busy for read cycles: 6792461
1banks busy for write cycles: 1103547
2banks busy for read cycles: 1066587
2banks busy for write cycles: 109533
3banks busy for read cycles: 450359
3banks busy for write cycles: 33633
4banks busy for read cycles: 347671
4banks busy for write cycles: 11695
5banks busy for read cycles: 325511
5banks busy for write cycles: 5413
6banks busy for read cycles: 395878
6banks busy for write cycles: 2523
7banks busy for read cycles: 1800912
7banks busy for write cycles: 1129
8banks busy for read cycles: 3861323
8banks busy for write cycles: 143

CPU 0 Branch Prediction Accuracy: 99.8712% MPKI: 0.30966 Average ROB Occupancy at Mispredict: 64.3755
Branch types
NOT_BRANCH: 75957065 75.9571%
BRANCH_DIRECT_JUMP: 2403863 2.40386%
BRANCH_INDIRECT: 0 0%
BRANCH_CONDITIONAL: 19196725 19.1967%
BRANCH_DIRECT_CALL: 1220971 1.22097%
BRANCH_INDIRECT_CALL: 23 2.3e-05%
BRANCH_RETURN: 1220995 1.22099%
BRANCH_OTHER: 0 0%

DRAM PAGES: 1048576
Allocated PAGES: 9295
