
*** ChampSim Multicore Out-of-Order Simulator ***

Warmup Instructions: 50000000
Simulation Instructions: 100000000
Number of CPUs: 1
LLC sets: 2048
LLC ways: 16
Off-chip DRAM Size: 4096 MB Channels: 1 Width: 64-bit Data Rate: 6400 MT/s
CPU 0 runs ../SPEC2017//602.gcc_s-1850B.champsimtrace.xz
.xz
BTB has LRU replacement policy
ITLB has LRU replacement policy
DTLB has LRU replacement policy
STLB has LRU replacement policy
L1I has LRU replacement policy
IP Table Entries: 64
L1D has LRU replacement policy
Initialize SRRIP state for L2C
Initialize DRRIP state for LLC
Heartbeat CPU 0 instructions: 10000002 cycles: 3277918 heartbeat IPC: 3.05072 cumulative IPC: 3.05072 (Simulation time: 0 hr 4 min 47 sec) 
Heartbeat CPU 0 instructions: 20000000 cycles: 6556162 heartbeat IPC: 3.05041 cumulative IPC: 3.05057 (Simulation time: 0 hr 8 min 39 sec) 
Heartbeat CPU 0 instructions: 30000000 cycles: 9833275 heartbeat IPC: 3.05147 cumulative IPC: 3.05087 (Simulation time: 0 hr 12 min 32 sec) 
Heartbeat CPU 0 instructions: 40000000 cycles: 13110787 heartbeat IPC: 3.05109 cumulative IPC: 3.05092 (Simulation time: 0 hr 16 min 23 sec) 
Heartbeat CPU 0 instructions: 50000000 cycles: 16389115 heartbeat IPC: 3.05034 cumulative IPC: 3.05081 (Simulation time: 0 hr 19 min 43 sec) 

Warmup complete CPU 0 instructions: 50000004 cycles: 16389116 (Simulation time: 0 hr 19 min 43 sec) 

Heartbeat CPU 0 instructions: 60000003 cycles: 55979055 heartbeat IPC: 0.252589 cumulative IPC: 0.252589 (Simulation time: 0 hr 26 min 27 sec) 
Heartbeat CPU 0 instructions: 70000002 cycles: 95552622 heartbeat IPC: 0.252694 cumulative IPC: 0.252642 (Simulation time: 0 hr 33 min 26 sec) 
Heartbeat CPU 0 instructions: 80000003 cycles: 135122037 heartbeat IPC: 0.25272 cumulative IPC: 0.252668 (Simulation time: 0 hr 39 min 52 sec) 
Heartbeat CPU 0 instructions: 90000001 cycles: 174740280 heartbeat IPC: 0.252409 cumulative IPC: 0.252603 (Simulation time: 0 hr 46 min 11 sec) 
Heartbeat CPU 0 instructions: 100000000 cycles: 214374763 heartbeat IPC: 0.252306 cumulative IPC: 0.252544 (Simulation time: 0 hr 52 min 33 sec) 
Heartbeat CPU 0 instructions: 110000000 cycles: 253984553 heartbeat IPC: 0.252463 cumulative IPC: 0.25253 (Simulation time: 0 hr 57 min 31 sec) 
Heartbeat CPU 0 instructions: 120000003 cycles: 293559251 heartbeat IPC: 0.252687 cumulative IPC: 0.252552 (Simulation time: 1 hr 0 min 47 sec) 
Heartbeat CPU 0 instructions: 130000003 cycles: 333162415 heartbeat IPC: 0.252505 cumulative IPC: 0.252547 (Simulation time: 1 hr 3 min 40 sec) 
Heartbeat CPU 0 instructions: 140000000 cycles: 372750086 heartbeat IPC: 0.252604 cumulative IPC: 0.252553 (Simulation time: 1 hr 6 min 0 sec) 
Heartbeat CPU 0 instructions: 150000000 cycles: 412353589 heartbeat IPC: 0.252503 cumulative IPC: 0.252548 (Simulation time: 1 hr 7 min 30 sec) 
Finished CPU 0 instructions: 100000000 cycles: 395964501 cumulative IPC: 0.252548 (Simulation time: 1 hr 7 min 30 sec) 

ChampSim completed all CPUs

Region of Interest Statistics

CPU 0 cumulative IPC: 0.252548 instructions: 100000000 cycles: 395964501

CPU 0 Average Load ROB stall cycles: 7.523e+07
CPU 0 Fraction of times ROB stalled by Loads: 35.0931
CPU 0 Percentage of Load stall cycles in Total stall cycles: 4.8426e+08
Issued all: 374760391
Issued LT all: 372369234
rob_not_full_when_issued_lt_all: 9076189
Issued LT one: 335706928
rob_not_full_when_issued_lt_one: 7003236
HPCA_2009 critical_dynamic_instances_0: 9703513
HPCA_2009 unique_critical_ips_0: 68
multiple_destinations_0: 0
load_to_same_dest_0: 0
low_issue_rate_0: 37497588
total_issue_rate_checked_count_0: 37497588
 Total stall cycles: 370723654
 Total load stall cycles: 1795266444488252
Unique Load IPs: 47
CPU 0 NUM of IPS identified critical: 0
CPU 0 Num of Load IPs stalling ROB: 0
Threshold modification factor: 0
Trouble in retire width: -nan
MaC = Marked as critical.
lt_50_percent_before_Mac: 0
gt_90_percent_before_Mac: 0
gt_75_percent_before_Mac: 0
gt_50_percent_before_Mac: 0
stall_proportion_bin_same_before_after: 0
stall_proportion_bin_lower_before_after: 0
stall_proportion_bin_upper_before_after: 0
average_stall_proportion_before: -nan
average_stall_proportion_after: -nan
Critical IP stalls, total frequency: 0
Non-critical IP stalls, total frequency: 0
Total Freq all stalling IPs: 0
Critical_IP_Detector_Accuracy_70: 0.0147059
Critical_IP_Detector_Accuracy_80: 0.0147059
Critical_IP_Detector_Accuracy_90: 0.0147059
Critical_IP_Detector_Coverage_70: 1
Critical_IP_Detector_Coverage_80: 1
Critical_IP_Detector_Coverage_90: 1
stat_90_percent_critical_ip_stalls_freq: 1762462
stat_90_percent_non_critical_ip_stalls_freq: 18446744073707789154
AVERAGE_ROB_Occupancy_90_Percent_Critical_IP_Stalls: 348.93
AVERAGE_ROB_Occupancy_90_Percent_Non_Critical_IP_Stalls: 1.22942e-10
Critical_IP_ROB_Stalls_Bucket_0: 0
Non-critical_IP_ROB_Stalls_Bucket_0: 81856
Critical_IP_ROB_Stalls_Bucket_1: 0
Non-critical_IP_ROB_Stalls_Bucket_1: 42998
Critical_IP_ROB_Stalls_Bucket_2: 0
Non-critical_IP_ROB_Stalls_Bucket_2: 27559
Critical_IP_ROB_Stalls_Bucket_3: 0
Non-critical_IP_ROB_Stalls_Bucket_3: 53475
Critical_IP_ROB_Stalls_Bucket_4: 0
Non-critical_IP_ROB_Stalls_Bucket_4: 25558
Critical_IP_ROB_Stalls_Bucket_5: 0
Non-critical_IP_ROB_Stalls_Bucket_5: 57753
Critical_IP_ROB_Stalls_Bucket_6: 0
Non-critical_IP_ROB_Stalls_Bucket_6: 8085306
0 => IPs accounting for >50 percent of stalls, 1 => 55, 2 => 60, 3 => 65 and so on till 90.
percent50: inf num IPs:  1
percent55: inf num IPs: 1
percent60: inf num IPs: 1
percent65: inf num IPs: 1
percent70: inf num IPs: 1
percent75: inf num IPs: 1
percent80: inf num IPs: 1
percent85: inf num IPs: 1
percent90: inf num IPs: 1
Critical_ROB_Stalls_Percent_0_Bucket_0: 4988
Non-critical_ROB_Stalls_Percent_0_Bucket_0: 76868
Critical_ROB_Stalls_Percent_0_Bucket_1: 2613
Non-critical_ROB_Stalls_Percent_0_Bucket_1: 40385
Critical_ROB_Stalls_Percent_0_Bucket_2: 4009
Non-critical_ROB_Stalls_Percent_0_Bucket_2: 23550
Critical_ROB_Stalls_Percent_0_Bucket_3: 6684
Non-critical_ROB_Stalls_Percent_0_Bucket_3: 46791
Critical_ROB_Stalls_Percent_0_Bucket_4: 3545
Non-critical_ROB_Stalls_Percent_0_Bucket_4: 22013
Critical_ROB_Stalls_Percent_0_Bucket_5: 4112
Non-critical_ROB_Stalls_Percent_0_Bucket_5: 53641
Critical_ROB_Stalls_Percent_0_Bucket_6: 1736511
Non-critical_ROB_Stalls_Percent_0_Bucket_6: 6348795
Critical_ROB_Stalls_Percent_1_Bucket_0: 4988
Non-critical_ROB_Stalls_Percent_1_Bucket_0: 76868
Critical_ROB_Stalls_Percent_1_Bucket_1: 2613
Non-critical_ROB_Stalls_Percent_1_Bucket_1: 40385
Critical_ROB_Stalls_Percent_1_Bucket_2: 4009
Non-critical_ROB_Stalls_Percent_1_Bucket_2: 23550
Critical_ROB_Stalls_Percent_1_Bucket_3: 6684
Non-critical_ROB_Stalls_Percent_1_Bucket_3: 46791
Critical_ROB_Stalls_Percent_1_Bucket_4: 3545
Non-critical_ROB_Stalls_Percent_1_Bucket_4: 22013
Critical_ROB_Stalls_Percent_1_Bucket_5: 4112
Non-critical_ROB_Stalls_Percent_1_Bucket_5: 53641
Critical_ROB_Stalls_Percent_1_Bucket_6: 1736511
Non-critical_ROB_Stalls_Percent_1_Bucket_6: 6348795
Critical_ROB_Stalls_Percent_2_Bucket_0: 4988
Non-critical_ROB_Stalls_Percent_2_Bucket_0: 76868
Critical_ROB_Stalls_Percent_2_Bucket_1: 2613
Non-critical_ROB_Stalls_Percent_2_Bucket_1: 40385
Critical_ROB_Stalls_Percent_2_Bucket_2: 4009
Non-critical_ROB_Stalls_Percent_2_Bucket_2: 23550
Critical_ROB_Stalls_Percent_2_Bucket_3: 6684
Non-critical_ROB_Stalls_Percent_2_Bucket_3: 46791
Critical_ROB_Stalls_Percent_2_Bucket_4: 3545
Non-critical_ROB_Stalls_Percent_2_Bucket_4: 22013
Critical_ROB_Stalls_Percent_2_Bucket_5: 4112
Non-critical_ROB_Stalls_Percent_2_Bucket_5: 53641
Critical_ROB_Stalls_Percent_2_Bucket_6: 1736511
Non-critical_ROB_Stalls_Percent_2_Bucket_6: 6348795
Critical_ROB_Stalls_Percent_3_Bucket_0: 4988
Non-critical_ROB_Stalls_Percent_3_Bucket_0: 76868
Critical_ROB_Stalls_Percent_3_Bucket_1: 2613
Non-critical_ROB_Stalls_Percent_3_Bucket_1: 40385
Critical_ROB_Stalls_Percent_3_Bucket_2: 4009
Non-critical_ROB_Stalls_Percent_3_Bucket_2: 23550
Critical_ROB_Stalls_Percent_3_Bucket_3: 6684
Non-critical_ROB_Stalls_Percent_3_Bucket_3: 46791
Critical_ROB_Stalls_Percent_3_Bucket_4: 3545
Non-critical_ROB_Stalls_Percent_3_Bucket_4: 22013
Critical_ROB_Stalls_Percent_3_Bucket_5: 4112
Non-critical_ROB_Stalls_Percent_3_Bucket_5: 53641
Critical_ROB_Stalls_Percent_3_Bucket_6: 1736511
Non-critical_ROB_Stalls_Percent_3_Bucket_6: 6348795
Critical_ROB_Stalls_Percent_4_Bucket_0: 4988
Non-critical_ROB_Stalls_Percent_4_Bucket_0: 76868
Critical_ROB_Stalls_Percent_4_Bucket_1: 2613
Non-critical_ROB_Stalls_Percent_4_Bucket_1: 40385
Critical_ROB_Stalls_Percent_4_Bucket_2: 4009
Non-critical_ROB_Stalls_Percent_4_Bucket_2: 23550
Critical_ROB_Stalls_Percent_4_Bucket_3: 6684
Non-critical_ROB_Stalls_Percent_4_Bucket_3: 46791
Critical_ROB_Stalls_Percent_4_Bucket_4: 3545
Non-critical_ROB_Stalls_Percent_4_Bucket_4: 22013
Critical_ROB_Stalls_Percent_4_Bucket_5: 4112
Non-critical_ROB_Stalls_Percent_4_Bucket_5: 53641
Critical_ROB_Stalls_Percent_4_Bucket_6: 1736511
Non-critical_ROB_Stalls_Percent_4_Bucket_6: 6348795
Critical_ROB_Stalls_Percent_5_Bucket_0: 4988
Non-critical_ROB_Stalls_Percent_5_Bucket_0: 76868
Critical_ROB_Stalls_Percent_5_Bucket_1: 2613
Non-critical_ROB_Stalls_Percent_5_Bucket_1: 40385
Critical_ROB_Stalls_Percent_5_Bucket_2: 4009
Non-critical_ROB_Stalls_Percent_5_Bucket_2: 23550
Critical_ROB_Stalls_Percent_5_Bucket_3: 6684
Non-critical_ROB_Stalls_Percent_5_Bucket_3: 46791
Critical_ROB_Stalls_Percent_5_Bucket_4: 3545
Non-critical_ROB_Stalls_Percent_5_Bucket_4: 22013
Critical_ROB_Stalls_Percent_5_Bucket_5: 4112
Non-critical_ROB_Stalls_Percent_5_Bucket_5: 53641
Critical_ROB_Stalls_Percent_5_Bucket_6: 1736511
Non-critical_ROB_Stalls_Percent_5_Bucket_6: 6348795
Critical_ROB_Stalls_Percent_6_Bucket_0: 4988
Non-critical_ROB_Stalls_Percent_6_Bucket_0: 76868
Critical_ROB_Stalls_Percent_6_Bucket_1: 2613
Non-critical_ROB_Stalls_Percent_6_Bucket_1: 40385
Critical_ROB_Stalls_Percent_6_Bucket_2: 4009
Non-critical_ROB_Stalls_Percent_6_Bucket_2: 23550
Critical_ROB_Stalls_Percent_6_Bucket_3: 6684
Non-critical_ROB_Stalls_Percent_6_Bucket_3: 46791
Critical_ROB_Stalls_Percent_6_Bucket_4: 3545
Non-critical_ROB_Stalls_Percent_6_Bucket_4: 22013
Critical_ROB_Stalls_Percent_6_Bucket_5: 4112
Non-critical_ROB_Stalls_Percent_6_Bucket_5: 53641
Critical_ROB_Stalls_Percent_6_Bucket_6: 1736511
Non-critical_ROB_Stalls_Percent_6_Bucket_6: 6348795
Critical_ROB_Stalls_Percent_7_Bucket_0: 4988
Non-critical_ROB_Stalls_Percent_7_Bucket_0: 76868
Critical_ROB_Stalls_Percent_7_Bucket_1: 2613
Non-critical_ROB_Stalls_Percent_7_Bucket_1: 40385
Critical_ROB_Stalls_Percent_7_Bucket_2: 4009
Non-critical_ROB_Stalls_Percent_7_Bucket_2: 23550
Critical_ROB_Stalls_Percent_7_Bucket_3: 6684
Non-critical_ROB_Stalls_Percent_7_Bucket_3: 46791
Critical_ROB_Stalls_Percent_7_Bucket_4: 3545
Non-critical_ROB_Stalls_Percent_7_Bucket_4: 22013
Critical_ROB_Stalls_Percent_7_Bucket_5: 4112
Non-critical_ROB_Stalls_Percent_7_Bucket_5: 53641
Critical_ROB_Stalls_Percent_7_Bucket_6: 1736511
Non-critical_ROB_Stalls_Percent_7_Bucket_6: 6348795
Critical_ROB_Stalls_Percent_8_Bucket_0: 4988
Non-critical_ROB_Stalls_Percent_8_Bucket_0: 76868
Critical_ROB_Stalls_Percent_8_Bucket_1: 2613
Non-critical_ROB_Stalls_Percent_8_Bucket_1: 40385
Critical_ROB_Stalls_Percent_8_Bucket_2: 4009
Non-critical_ROB_Stalls_Percent_8_Bucket_2: 23550
Critical_ROB_Stalls_Percent_8_Bucket_3: 6684
Non-critical_ROB_Stalls_Percent_8_Bucket_3: 46791
Critical_ROB_Stalls_Percent_8_Bucket_4: 3545
Non-critical_ROB_Stalls_Percent_8_Bucket_4: 22013
Critical_ROB_Stalls_Percent_8_Bucket_5: 4112
Non-critical_ROB_Stalls_Percent_8_Bucket_5: 53641
Critical_ROB_Stalls_Percent_8_Bucket_6: 1736511
Non-critical_ROB_Stalls_Percent_8_Bucket_6: 6348795
Average ROB occupancy Load Stall Begin: 342.095
Average ROB occupancy Load Stall End: 344.243
Min ROB occupancy Load Stall Begin: 1
Max ROB occupancy Load Stall Begin: 352
Min ROB occupancy Load Stall End: 1
Max ROB occupancy Load Stall End: 352
Average ROB occupancy Critical Load Stall Begin: -nan
Average ROB occupancy Critical Load Stall End: -nan
Min ROB occupancy Critical Load Stall Begin: 400
Max ROB occupancy Critical Load Stall Begin: 0
Min ROB occupancy Critical Load Stall End: 400
Max ROB occupancy Critical Load Stall End: 0
 ROB Load Stall Begin Bucket Count 0: 88082
 ROB Load Stall End Bucket Count 0: 81856
 ROB Critical Load Stall Begin Bucket Count 0: 0
 ROB Critical Load Stall End Bucket Count 0: 0
 ROB Load Stall Begin Bucket Count 1: 45151
 ROB Load Stall End Bucket Count 1: 42998
 ROB Critical Load Stall Begin Bucket Count 1: 0
 ROB Critical Load Stall End Bucket Count 1: 0
 ROB Load Stall Begin Bucket Count 2: 27741
 ROB Load Stall End Bucket Count 2: 27559
 ROB Critical Load Stall Begin Bucket Count 2: 0
 ROB Critical Load Stall End Bucket Count 2: 0
 ROB Load Stall Begin Bucket Count 3: 49849
 ROB Load Stall End Bucket Count 3: 53475
 ROB Critical Load Stall Begin Bucket Count 3: 0
 ROB Critical Load Stall End Bucket Count 3: 0
 ROB Load Stall Begin Bucket Count 4: 29297
 ROB Load Stall End Bucket Count 4: 25558
 ROB Critical Load Stall Begin Bucket Count 4: 0
 ROB Critical Load Stall End Bucket Count 4: 0
 ROB Load Stall Begin Bucket Count 5: 57891
 ROB Load Stall End Bucket Count 5: 57753
 ROB Critical Load Stall Begin Bucket Count 5: 0
 ROB Critical Load Stall End Bucket Count 5: 0
 ROB Load Stall Begin Bucket Count 6: 8076494
 ROB Load Stall End Bucket Count 6: 8085306
 ROB Critical Load Stall Begin Bucket Count 6: 0
 ROB Critical Load Stall End Bucket Count 6: 0
PIST Tag Read Accesses: 0
PIST Read Accesses: 0
PIST Tag Write Accesses: 0
PIST Write Accesses: 0
Criticality detector called times: 0
Max global_stall_cycles_count: 0
Threshold Modified: 0 times, factor: 0
ITLB TOTAL     ACCESS:   23943174  HIT:   23943174  MISS:          0  HIT %:        100  MISS %:          0   MPKI: 0
ITLB LOAD TRANSLATION ACCESS:   23943174  HIT:   23943174  MISS:          0  HIT %:        100  MISS %:          0   MPKI: 0
ITLB PREFETCH  REQUESTED:          0  ISSUED:          0  USEFUL:          0  USELESS:          0
ITLB USEFUL LOAD PREFETCHES:          0 PREFETCH ISSUED TO LOWER LEVEL:          0  ACCURACY: -nan
ITLB TIMELY PREFETCHES:          0 LATE PREFETCHES: 0 DROPPED PREFETCHES: 0
ITLB PREFETCHES SAME FILL-ORIGIN LEVEL: 0 DIFFERENT FILL-ORIGIN LEVEL: 0
ITLB AVERAGE MISS LATENCY: -nan cycles
ITLB RQ	ACCESS:   25809276	FORWARD:          0	MERGED:    1866102	TO_CACHE:   23943174

DTLB TOTAL     ACCESS:   27327337  HIT:   27294554  MISS:      32783  HIT %:      99.88  MISS %:   0.119964   MPKI: 0.32783
DTLB LOAD TRANSLATION ACCESS:   27327337  HIT:   27294554  MISS:      32783  HIT %:      99.88  MISS %:   0.119964   MPKI: 0.32783
DTLB PREFETCH  REQUESTED:          0  ISSUED:          0  USEFUL:          0  USELESS:          0
DTLB USEFUL LOAD PREFETCHES:          0 PREFETCH ISSUED TO LOWER LEVEL:          0  ACCURACY: -nan
DTLB TIMELY PREFETCHES:          0 LATE PREFETCHES: 0 DROPPED PREFETCHES: 0
DTLB PREFETCHES SAME FILL-ORIGIN LEVEL: 0 DIFFERENT FILL-ORIGIN LEVEL: 0
DTLB AVERAGE MISS LATENCY: 141.928 cycles
DTLB RQ	ACCESS:   27998363	FORWARD:          0	MERGED:     669701	TO_CACHE:   27328662

STLB TOTAL     ACCESS:      33020  HIT:       2672  MISS:      30348  HIT %:    8.09207  MISS %:    91.9079   MPKI: 0.30348
STLB LOAD TRANSLATION ACCESS:      32783  HIT:       2436  MISS:      30347  HIT %:    7.43068  MISS %:    92.5693   MPKI: 0.30347
STLB TRANSLATION FROM L1D PREFETCHER ACCESS:        237  HIT:        236  MISS:          1  HIT %:    99.5781  MISS %:   0.421941   MPKI: 1e-05
STLB PREFETCH  REQUESTED:          0  ISSUED:          0  USEFUL:          1  USELESS:          2
STLB USEFUL LOAD PREFETCHES:          1 PREFETCH ISSUED TO LOWER LEVEL:          0  ACCURACY: inf
STLB TIMELY PREFETCHES:          1 LATE PREFETCHES: 0 DROPPED PREFETCHES: 0
STLB PREFETCHES SAME FILL-ORIGIN LEVEL: 0 DIFFERENT FILL-ORIGIN LEVEL: 0
STLB AVERAGE MISS LATENCY: 143.58 cycles
STLB RQ	ACCESS:      33391	FORWARD:          0	MERGED:        371	TO_CACHE:      33020

STLB Hit, L1D data hit: 0
STLB Hit, L2C data hit: 0
STLB Hit, LLC data hit: 0
STLB Hit, LLC data miss: 0
STLB STLB hints to L2: 0
L1D TOTAL     ACCESS:   27482058  HIT:   25081063  MISS:    2400995  HIT %:    91.2634  MISS %:    8.73659   MPKI: 24.0099
L1D LOAD      ACCESS:   18849816  HIT:   16449982  MISS:    2399834  HIT %:    87.2687  MISS %:    12.7313   MPKI: 23.9983
L1D RFO       ACCESS:    8631640  HIT:    8630873  MISS:        767  HIT %:    99.9911  MISS %: 0.00888591   MPKI: 0.00767
L1D PREFETCH  ACCESS:        602  HIT:        208  MISS:        394  HIT %:    34.5515  MISS %:    65.4485   MPKI: 0.00394
L1D PREFETCH  REQUESTED:       1216  ISSUED:       1216  USEFUL:        145  USELESS:        249
L1D USEFUL LOAD PREFETCHES:        145 PREFETCH ISSUED TO LOWER LEVEL:        398  ACCURACY: 36.4322
L1D TIMELY PREFETCHES:        145 LATE PREFETCHES: 3 DROPPED PREFETCHES: 0
L1D PREFETCHES SAME FILL-ORIGIN LEVEL: 398 DIFFERENT FILL-ORIGIN LEVEL: 0
L1D AVERAGE MISS LATENCY: 121.011 cycles
L1D RQ	ACCESS:   27792232	FORWARD:          0	MERGED:    8425331	TO_CACHE:   19366721
L1D WQ	ACCESS:    9705356	FORWARD:        180	MERGED:    1073714	TO_CACHE:    8631642
L1D PQ	ACCESS:        608	FORWARD:          0	MERGED:          0	TO_CACHE:        608

L1D UNIQUE REGIONS ACCESSED: 0
L1D REGIONS CONFLICTS: 0
L1D Cross Page Prefetch Requests: 0
L1D Same Page Prefetch Requests: 3348
L1D ROI Sum of L1D PQ occupancy: 8699
L1D PREFETCHES PUSHED FROM L2C: 0
L1I TOTAL     ACCESS:   25809275  HIT:   25809275  MISS:          0  HIT %:        100  MISS %:          0   MPKI: 0
L1I LOAD      ACCESS:   25809275  HIT:   25809275  MISS:          0  HIT %:        100  MISS %:          0   MPKI: 0
L1I PREFETCH  REQUESTED:          0  ISSUED:          0  USEFUL:          0  USELESS:          0
L1I USEFUL LOAD PREFETCHES:          0 PREFETCH ISSUED TO LOWER LEVEL:          0  ACCURACY: -nan
L1I TIMELY PREFETCHES:          0 LATE PREFETCHES: 0 DROPPED PREFETCHES: 0
L1I PREFETCHES SAME FILL-ORIGIN LEVEL: 0 DIFFERENT FILL-ORIGIN LEVEL: 0
L1I AVERAGE MISS LATENCY: -nan cycles
L1I RQ	ACCESS:   40680294	FORWARD:          0	MERGED:   14871018	TO_CACHE:   25809276

BTB TOTAL     ACCESS:   16382938  HIT:   16382909  MISS:         29  HIT %:    99.9998  MISS %: 0.000177013   MPKI: 0.00029
BTB BRANCH_DIRECT_JUMP	ACCESS:    2158979  HIT:    2158970  MISS:          9
BTB BRANCH_INDIRECT	ACCESS:          0  HIT:          0  MISS:          0
BTB BRANCH_CONDITIONAL	ACCESS:   12063628  HIT:   12063614  MISS:         14
BTB BRANCH_DIRECT_CALL	ACCESS:    1080165  HIT:    1080162  MISS:          3
BTB BRANCH_INDIRECT_CALL	ACCESS:          0  HIT:          0  MISS:          0
BTB BRANCH_RETURN	ACCESS:    1080166  HIT:    1080163  MISS:          3
BTB BRANCH_OTHER ACCESS:          0  HIT:          0  MISS:          0

L2C TOTAL     ACCESS:    2436623  HIT:     654267  MISS:    1782356  HIT %:    26.8514  MISS %:    73.1486   MPKI: 17.8236
L2C LOAD      ACCESS:    2399831  HIT:     623934  MISS:    1775897  HIT %:    25.9991  MISS %:    74.0009   MPKI: 17.759
L2C DATA LOAD MPKI: 17.759
L2C INSTRUCTION LOAD MPKI: 0
L2C RFO       ACCESS:        766  HIT:          2  MISS:        764  HIT %:   0.261097  MISS %:    99.7389   MPKI: 0.00764
L2C PREFETCH  ACCESS:        398  HIT:         37  MISS:        361  HIT %:    9.29648  MISS %:    90.7035   MPKI: 0.00361
L2C DATA PREFETCH MPKI: 0.00361
L2C INSTRUCTION PREFETCH MPKI: 0
L2C WRITEBACK ACCESS:       5144  HIT:       5144  MISS:          0  HIT %:        100  MISS %:          0   MPKI: 0
L2C LOAD TRANSLATION ACCESS:      30483  HIT:      25150  MISS:       5333  HIT %:     82.505  MISS %:     17.495   MPKI: 0.05333
L2C TRANSLATION FROM L1D PREFETCHER ACCESS:          1  HIT:          0  MISS:          1  HIT %:          0  MISS %:        100   MPKI: 1e-05
L2C PREFETCH  REQUESTED:          0  ISSUED:          0  USEFUL:         83  USELESS:        286
L2C USEFUL LOAD PREFETCHES:         83 PREFETCH ISSUED TO LOWER LEVEL:        361  ACCURACY: 22.9917
L2C TIMELY PREFETCHES:         83 LATE PREFETCHES: 0 DROPPED PREFETCHES: 0
L2C PREFETCHES SAME FILL-ORIGIN LEVEL: 0 DIFFERENT FILL-ORIGIN LEVEL: 0
L2C AVERAGE MISS LATENCY: 106.397 cycles
L2C RQ	ACCESS:    2431082	FORWARD:          0	MERGED:          0	TO_CACHE:    2431082
L2C WQ	ACCESS:       5144	FORWARD:          0	MERGED:          0	TO_CACHE:       5144
L2C PQ	ACCESS:        398	FORWARD:          0	MERGED:          0	TO_CACHE:        398

L2C Instructions Evicting Data 0
L2C Translations Evicting Data 5320
L2C Data Evicting Data 1771703
L2C Instructions Evicting Instructions 0
L2C Translations Evicting Instructions 0
L2C Data Evicting Instructions 0
L2C Instructions Evicting Translations 0
L2C Translations Evicting Translations 14
L2C Data Evicting Translations 5319
L2C Dense regions hint from L2: 0
PSCL5 TOTAL     ACCESS:      30348  HIT:      30348  MISS:          0  HIT %:        100  MISS %:          0   MPKI: 0
PSCL5 LOAD TRANSLATION ACCESS:      30347  HIT:      30347  MISS:          0  HIT %:        100  MISS %:          0   MPKI: 0
PSCL5 TRANSLATION FROM L1D PREFETCHER ACCESS:          1  HIT:          1  MISS:          0  HIT %:        100  MISS %:          0   MPKI: 0
PSCL5 PREFETCH  REQUESTED:          0  ISSUED:          0  USEFUL:          0  USELESS:          0
PSCL5 USEFUL LOAD PREFETCHES:          0 PREFETCH ISSUED TO LOWER LEVEL:          0  ACCURACY: -nan
PSCL5 TIMELY PREFETCHES:          0 LATE PREFETCHES: 0 DROPPED PREFETCHES: 0
PSCL5 PREFETCHES SAME FILL-ORIGIN LEVEL: 0 DIFFERENT FILL-ORIGIN LEVEL: 0

PSCL4 TOTAL     ACCESS:      30348  HIT:      30348  MISS:          0  HIT %:        100  MISS %:          0   MPKI: 0
PSCL4 LOAD TRANSLATION ACCESS:      30347  HIT:      30347  MISS:          0  HIT %:        100  MISS %:          0   MPKI: 0
PSCL4 TRANSLATION FROM L1D PREFETCHER ACCESS:          1  HIT:          1  MISS:          0  HIT %:        100  MISS %:          0   MPKI: 0
PSCL4 PREFETCH  REQUESTED:          0  ISSUED:          0  USEFUL:          0  USELESS:          0
PSCL4 USEFUL LOAD PREFETCHES:          0 PREFETCH ISSUED TO LOWER LEVEL:          0  ACCURACY: -nan
PSCL4 TIMELY PREFETCHES:          0 LATE PREFETCHES: 0 DROPPED PREFETCHES: 0
PSCL4 PREFETCHES SAME FILL-ORIGIN LEVEL: 0 DIFFERENT FILL-ORIGIN LEVEL: 0

PSCL3 TOTAL     ACCESS:      30348  HIT:      30347  MISS:          1  HIT %:    99.9967  MISS %: 0.00329511   MPKI: 1e-05
PSCL3 LOAD TRANSLATION ACCESS:      30347  HIT:      30346  MISS:          1  HIT %:    99.9967  MISS %: 0.00329522   MPKI: 1e-05
PSCL3 TRANSLATION FROM L1D PREFETCHER ACCESS:          1  HIT:          1  MISS:          0  HIT %:        100  MISS %:          0   MPKI: 0
PSCL3 PREFETCH  REQUESTED:          0  ISSUED:          0  USEFUL:          0  USELESS:          0
PSCL3 USEFUL LOAD PREFETCHES:          0 PREFETCH ISSUED TO LOWER LEVEL:          0  ACCURACY: -nan
PSCL3 TIMELY PREFETCHES:          0 LATE PREFETCHES: 0 DROPPED PREFETCHES: 0
PSCL3 PREFETCHES SAME FILL-ORIGIN LEVEL: 0 DIFFERENT FILL-ORIGIN LEVEL: 0

PSCL2 TOTAL     ACCESS:      30348  HIT:      30005  MISS:        343  HIT %:    98.8698  MISS %:    1.13022   MPKI: 0.00343
PSCL2 LOAD TRANSLATION ACCESS:      30347  HIT:      30004  MISS:        343  HIT %:    98.8697  MISS %:    1.13026   MPKI: 0.00343
PSCL2 TRANSLATION FROM L1D PREFETCHER ACCESS:          1  HIT:          1  MISS:          0  HIT %:        100  MISS %:          0   MPKI: 0
PSCL2 PREFETCH  REQUESTED:          0  ISSUED:          0  USEFUL:          0  USELESS:          0
PSCL2 USEFUL LOAD PREFETCHES:          0 PREFETCH ISSUED TO LOWER LEVEL:          0  ACCURACY: -nan
PSCL2 TIMELY PREFETCHES:          0 LATE PREFETCHES: 0 DROPPED PREFETCHES: 0
PSCL2 PREFETCHES SAME FILL-ORIGIN LEVEL: 0 DIFFERENT FILL-ORIGIN LEVEL: 0

LLC TOTAL     ACCESS:    1784757  HIT:       2973  MISS:    1781784  HIT %:   0.166577  MISS %:    99.8334   MPKI: 17.8178
LLC LOAD      ACCESS:    1775897  HIT:        355  MISS:    1775542  HIT %:  0.0199899  MISS %:      99.98   MPKI: 17.7554
LLC RFO       ACCESS:        764  HIT:          0  MISS:        764  HIT %:          0  MISS %:        100   MPKI: 0.00764
LLC PREFETCH  ACCESS:        361  HIT:          7  MISS:        354  HIT %:    1.93906  MISS %:    98.0609   MPKI: 0.00354
LLC WRITEBACK ACCESS:       2401  HIT:       2335  MISS:         66  HIT %:    97.2511  MISS %:    2.74885   MPKI: 0.00066
LLC LOAD TRANSLATION ACCESS:       5333  HIT:        275  MISS:       5058  HIT %:    5.15657  MISS %:    94.8434   MPKI: 0.05058
LLC TRANSLATION FROM L1D PREFETCHER ACCESS:          1  HIT:          1  MISS:          0  HIT %:        100  MISS %:          0   MPKI: 0
LLC PREFETCH  REQUESTED:          0  ISSUED:          0  USEFUL:          0  USELESS:        404
LLC USEFUL LOAD PREFETCHES:          0 PREFETCH ISSUED TO LOWER LEVEL:        354  ACCURACY: 0
LLC TIMELY PREFETCHES:          0 LATE PREFETCHES: 0 DROPPED PREFETCHES: 0
LLC PREFETCHES SAME FILL-ORIGIN LEVEL: 0 DIFFERENT FILL-ORIGIN LEVEL: 0
LLC AVERAGE MISS LATENCY: 76.4082 cycles
LLC RQ	ACCESS:    1781996	FORWARD:          0	MERGED:          0	TO_CACHE:    1781996
LLC WQ	ACCESS:       2401	FORWARD:          0	MERGED:          0	TO_CACHE:       2401
LLC PQ	ACCESS:        361	FORWARD:          0	MERGED:          0	TO_CACHE:        361

LLC Dense regions hint to LLC: 0

RAW hits: 5630
Loads Generated: 27797862
Loads sent to L1D: 27792232
Stores Generated: 9705357
Stores sent to L1D: 9705356
Major fault: 0 Minor fault: 45705
Allocated PAGES: 45705

stream: 
stream:times selected: 1036
stream:pref_filled: 1597
stream:pref_useful: 1213
stream:pref_late: 69
stream:misses: 172
stream:misses_by_poll: 0

CS: 
CS:times selected: 98
CS:pref_filled: 39
CS:pref_useful: 28
CS:pref_late: 2
CS:misses: 61
CS:misses_by_poll: 0

CPLX: 
CPLX:times selected: 803
CPLX:pref_filled: 16
CPLX:pref_useful: 5
CPLX:pref_late: 0
CPLX:misses: 271
CPLX:misses_by_poll: 0

NL_L1: 
NL:times selected: 11
NL:pref_filled: 6
NL:pref_useful: 6
NL:pref_late: 0
NL:misses: 4
NL:misses_by_poll: 0

total selections: 1948
total_filled: 394
total_useful: 145
total_late: 71
total_polluted: 0
total_misses_after_warmup: 728
conflicts: 26
Degree Incremented Times: 1
Degree Decremented Times: 0

L1 IP Table Write Accesses: 1115
L1 IP Table Read Accesses: 1089
L1 RST Write Accesses: 357
L1 RST Read Accesses: 714
L1 CSPT Write Accesses: 357
L1 CSPT Read Accesses: 1009
L1 RR Filter Tag Write Accesses: 608
L1 RR Filter Tag Read Accesses: 61016
L1 IP Table Tag Write Accesses: 1131
L1 IP Table Tag Read Accesses: 1131
L1 RST Tag Write Accesses: 0
L1 RST Tag Read Accesses: 3202
L1 RR Filter Write Accesses: 0
L1 RR Filter Read Accesses: 2303
test: 514

DRAM Statistics
 CHANNEL 0
 RQ ROW_BUFFER_HIT:    1667955  ROW_BUFFER_MISS:     113763
 DBUS_CONGESTED:          3
 WQ ROW_BUFFER_HIT:        278  ROW_BUFFER_MISS:       2130  FULL:          0

 AVG_CONGESTED_CYCLE: 2
 All warmup complete: 2
Channel 0 Bank busy for read cycles: 0
Channel 0 Bank busy for write cycles: 0
Channel 0
Rank 0
0banks busy for read cycles: 297031770
0banks busy for write cycles: 2004
1banks busy for read cycles: 96283330
1banks busy for write cycles: 459965
2banks busy for read cycles: 2071081
2banks busy for write cycles: 79502
3banks busy for read cycles: 5616
3banks busy for write cycles: 23117
4banks busy for read cycles: 1225
4banks busy for write cycles: 2825
5banks busy for read cycles: 343
5banks busy for write cycles: 1015
6banks busy for read cycles: 1785
6banks busy for write cycles: 556
7banks busy for read cycles: 368
7banks busy for write cycles: 0
8banks busy for read cycles: 0
8banks busy for write cycles: 0

CPU 0 Branch Prediction Accuracy: 99.9623% MPKI: 0.09672 Average ROB Occupancy at Mispredict: 310.084
Branch types
NOT_BRANCH: 74359712 74.3597%
BRANCH_DIRECT_JUMP: 2158979 2.15898%
BRANCH_INDIRECT: 0 0%
BRANCH_CONDITIONAL: 21320980 21.321%
BRANCH_DIRECT_CALL: 1080165 1.08017%
BRANCH_INDIRECT_CALL: 0 0%
BRANCH_RETURN: 1080166 1.08017%
BRANCH_OTHER: 0 0%

DRAM PAGES: 1048576
Allocated PAGES: 45705
