Initialize SIGNATURE TABLE
ST_SET: 1
ST_WAY: 256
ST_TAG_BIT: 16
ST_TAG_MASK: ffff

Initialize PATTERN TABLE
PT_SET: 512
PT_WAY: 4
SIG_DELTA_BIT: 7
C_SIG_BIT: 4
C_DELTA_BIT: 4

Initialize PREFETCH FILTER
FILTER_SET: 1024

*** ChampSim Multicore Out-of-Order Simulator ***

Warmup Instructions: 50000000
Simulation Instructions: 100000000
Number of CPUs: 1
LLC sets: 2048
LLC ways: 16
Off-chip DRAM Size: 4096 MB Channels: 1 Width: 64-bit Data Rate: 6400 MT/s
CPU 0 runs ../SPEC2017//602.gcc_s-1850B.champsimtrace.xz
.xz
NUM_OF_IPS_IN_CRITICAL_IP_TRAINING: 64
NUM_OF_CRITICAL_IP_TRAINING_TABLE_WAYS: 2
NUM_OF_CRITICAL_IP_TRAINING_TABLE_SETS: 32
WOBBLY_CRITICAL_IP_CACHE_SETS: 32
WOBBLY_CRITICAL_IP_CACHE_WAYS: 4
BTB has LRU replacement policy
ITLB has LRU replacement policy
DTLB has LRU replacement policy
STLB has LRU replacement policy
L1I has LRU replacement policy
L1D has LRU replacement policy
Initialize SRRIP state for L2C
Initialize DRRIP state for LLC
Heartbeat CPU 0 instructions: 10000002 cycles: 3277916 heartbeat IPC: 3.05072 cumulative IPC: 3.05072 (Simulation time: 0 hr 6 min 58 sec) 
Heartbeat CPU 0 instructions: 20000000 cycles: 6556182 heartbeat IPC: 3.05039 cumulative IPC: 3.05056 (Simulation time: 0 hr 12 min 33 sec) 
Heartbeat CPU 0 instructions: 30000000 cycles: 9833311 heartbeat IPC: 3.05145 cumulative IPC: 3.05085 (Simulation time: 0 hr 17 min 24 sec) 
Heartbeat CPU 0 instructions: 40000000 cycles: 13110827 heartbeat IPC: 3.05109 cumulative IPC: 3.05091 (Simulation time: 0 hr 21 min 50 sec) 
Heartbeat CPU 0 instructions: 50000000 cycles: 16389162 heartbeat IPC: 3.05033 cumulative IPC: 3.0508 (Simulation time: 0 hr 25 min 54 sec) 

Warmup complete CPU 0 instructions: 50000004 cycles: 16389163 (Simulation time: 0 hr 25 min 54 sec) 

Heartbeat CPU 0 instructions: 60000003 cycles: 42145918 heartbeat IPC: 0.388248 cumulative IPC: 0.388248 (Simulation time: 0 hr 32 min 49 sec) 
Heartbeat CPU 0 instructions: 70000002 cycles: 67868670 heartbeat IPC: 0.388761 cumulative IPC: 0.388504 (Simulation time: 0 hr 38 min 58 sec) 
Heartbeat CPU 0 instructions: 80000003 cycles: 93585861 heartbeat IPC: 0.388845 cumulative IPC: 0.388618 (Simulation time: 0 hr 44 min 27 sec) 
Heartbeat CPU 0 instructions: 90000001 cycles: 119316522 heartbeat IPC: 0.388641 cumulative IPC: 0.388624 (Simulation time: 0 hr 49 min 27 sec) 
Heartbeat CPU 0 instructions: 100000000 cycles: 145050072 heartbeat IPC: 0.388598 cumulative IPC: 0.388618 (Simulation time: 0 hr 57 min 17 sec) 
Heartbeat CPU 0 instructions: 110000000 cycles: 170861647 heartbeat IPC: 0.387423 cumulative IPC: 0.388419 (Simulation time: 1 hr 6 min 35 sec) 
Heartbeat CPU 0 instructions: 120000003 cycles: 196688725 heartbeat IPC: 0.387191 cumulative IPC: 0.388243 (Simulation time: 1 hr 14 min 38 sec) 
Heartbeat CPU 0 instructions: 130000003 cycles: 222478773 heartbeat IPC: 0.387746 cumulative IPC: 0.388181 (Simulation time: 1 hr 21 min 55 sec) 
Heartbeat CPU 0 instructions: 140000000 cycles: 248204204 heartbeat IPC: 0.38872 cumulative IPC: 0.388241 (Simulation time: 1 hr 28 min 26 sec) 
Heartbeat CPU 0 instructions: 150000000 cycles: 273901888 heartbeat IPC: 0.38914 cumulative IPC: 0.38833 (Simulation time: 1 hr 34 min 3 sec) 
Finished CPU 0 instructions: 100000000 cycles: 257512753 cumulative IPC: 0.38833 (Simulation time: 1 hr 34 min 3 sec) 

ChampSim completed all CPUs

Region of Interest Statistics

CPU 0 cumulative IPC: 0.38833 instructions: 100000000 cycles: 257512753

CPU 0 Average Load ROB stall cycles: 5.18247e+07
CPU 0 Fraction of times ROB stalled by Loads: 35.7016
CPU 0 Percentage of Load stall cycles in Total stall cycles: 5.23202e+08
Issued all: 238007302
Issued LT all: 235383464
rob_not_full_when_issued_lt_all: 10055225
Issued LT one: 199234232
rob_not_full_when_issued_lt_one: 7718613
 Total stall cycles: 231641342
 Total load stall cycles: 1211952151893901
CPU 0 NUM of IPS identified critical: 0
CPU 0 Num of Load IPs stalling ROB: 46
Threshold modification factor: 0
Max PIST entries: 31
Min PIST entries: 0
Avg PIST entries: 11.34
Trouble in retire width: 0.962293
MaC = Marked as critical.
lt_50_percent_before_Mac: 0
gt_90_percent_before_Mac: 0
gt_75_percent_before_Mac: 0
gt_50_percent_before_Mac: 0
stall_proportion_bin_same_before_after: 0
stall_proportion_bin_lower_before_after: 0
stall_proportion_bin_upper_before_after: 0
average_stall_proportion_before: -nan
average_stall_proportion_after: -nan
Critical IP stalls, total frequency: 0
Non-critical IP stalls, total frequency: 8330815
Total Freq all stalling IPs: 8330815
stat_90_percent_critical_ip_stalls_freq: 7706850
stat_90_percent_non_critical_ip_stalls_freq: 623965
Critical_IP_ROB_Stalls_Bucket_0: 0
Non-critical_IP_ROB_Stalls_Bucket_0: 82180
Critical_IP_ROB_Stalls_Bucket_1: 0
Non-critical_IP_ROB_Stalls_Bucket_1: 47118
Critical_IP_ROB_Stalls_Bucket_2: 0
Non-critical_IP_ROB_Stalls_Bucket_2: 38680
Critical_IP_ROB_Stalls_Bucket_3: 0
Non-critical_IP_ROB_Stalls_Bucket_3: 61204
Critical_IP_ROB_Stalls_Bucket_4: 0
Non-critical_IP_ROB_Stalls_Bucket_4: 30853
Critical_IP_ROB_Stalls_Bucket_5: 0
Non-critical_IP_ROB_Stalls_Bucket_5: 62781
Critical_IP_ROB_Stalls_Bucket_6: 0
Non-critical_IP_ROB_Stalls_Bucket_6: 8026230
0 => IPs accounting for >50 percent of stalls, 1 => 55, 2 => 60, 3 => 65 and so on till 90.
percent50: 56.3114 num IPs:  4
percent55: 56.3114 num IPs: 4
percent60: 69.0172 num IPs: 5
percent65: 69.0172 num IPs: 5
percent70: 81.3541 num IPs: 6
percent75: 81.3541 num IPs: 6
percent80: 81.3541 num IPs: 6
percent85: 92.5102 num IPs: 7
percent90: 92.5102 num IPs: 7
Critical_ROB_Stalls_Percent_0_Bucket_0: 27449
Non-critical_ROB_Stalls_Percent_0_Bucket_0: 54731
Critical_ROB_Stalls_Percent_0_Bucket_1: 24213
Non-critical_ROB_Stalls_Percent_0_Bucket_1: 22905
Critical_ROB_Stalls_Percent_0_Bucket_2: 9970
Non-critical_ROB_Stalls_Percent_0_Bucket_2: 28710
Critical_ROB_Stalls_Percent_0_Bucket_3: 30987
Non-critical_ROB_Stalls_Percent_0_Bucket_3: 30217
Critical_ROB_Stalls_Percent_0_Bucket_4: 16754
Non-critical_ROB_Stalls_Percent_0_Bucket_4: 14099
Critical_ROB_Stalls_Percent_0_Bucket_5: 30279
Non-critical_ROB_Stalls_Percent_0_Bucket_5: 32502
Critical_ROB_Stalls_Percent_0_Bucket_6: 4551543
Non-critical_ROB_Stalls_Percent_0_Bucket_6: 3474687
Critical_ROB_Stalls_Percent_1_Bucket_0: 27449
Non-critical_ROB_Stalls_Percent_1_Bucket_0: 54731
Critical_ROB_Stalls_Percent_1_Bucket_1: 24213
Non-critical_ROB_Stalls_Percent_1_Bucket_1: 22905
Critical_ROB_Stalls_Percent_1_Bucket_2: 9970
Non-critical_ROB_Stalls_Percent_1_Bucket_2: 28710
Critical_ROB_Stalls_Percent_1_Bucket_3: 30987
Non-critical_ROB_Stalls_Percent_1_Bucket_3: 30217
Critical_ROB_Stalls_Percent_1_Bucket_4: 16754
Non-critical_ROB_Stalls_Percent_1_Bucket_4: 14099
Critical_ROB_Stalls_Percent_1_Bucket_5: 30279
Non-critical_ROB_Stalls_Percent_1_Bucket_5: 32502
Critical_ROB_Stalls_Percent_1_Bucket_6: 4551543
Non-critical_ROB_Stalls_Percent_1_Bucket_6: 3474687
Critical_ROB_Stalls_Percent_2_Bucket_0: 35120
Non-critical_ROB_Stalls_Percent_2_Bucket_0: 47060
Critical_ROB_Stalls_Percent_2_Bucket_1: 31273
Non-critical_ROB_Stalls_Percent_2_Bucket_1: 15845
Critical_ROB_Stalls_Percent_2_Bucket_2: 13630
Non-critical_ROB_Stalls_Percent_2_Bucket_2: 25050
Critical_ROB_Stalls_Percent_2_Bucket_3: 41803
Non-critical_ROB_Stalls_Percent_2_Bucket_3: 19401
Critical_ROB_Stalls_Percent_2_Bucket_4: 19624
Non-critical_ROB_Stalls_Percent_2_Bucket_4: 11229
Critical_ROB_Stalls_Percent_2_Bucket_5: 40544
Non-critical_ROB_Stalls_Percent_2_Bucket_5: 22237
Critical_ROB_Stalls_Percent_2_Bucket_6: 5567702
Non-critical_ROB_Stalls_Percent_2_Bucket_6: 2458528
Critical_ROB_Stalls_Percent_3_Bucket_0: 35120
Non-critical_ROB_Stalls_Percent_3_Bucket_0: 47060
Critical_ROB_Stalls_Percent_3_Bucket_1: 31273
Non-critical_ROB_Stalls_Percent_3_Bucket_1: 15845
Critical_ROB_Stalls_Percent_3_Bucket_2: 13630
Non-critical_ROB_Stalls_Percent_3_Bucket_2: 25050
Critical_ROB_Stalls_Percent_3_Bucket_3: 41803
Non-critical_ROB_Stalls_Percent_3_Bucket_3: 19401
Critical_ROB_Stalls_Percent_3_Bucket_4: 19624
Non-critical_ROB_Stalls_Percent_3_Bucket_4: 11229
Critical_ROB_Stalls_Percent_3_Bucket_5: 40544
Non-critical_ROB_Stalls_Percent_3_Bucket_5: 22237
Critical_ROB_Stalls_Percent_3_Bucket_6: 5567702
Non-critical_ROB_Stalls_Percent_3_Bucket_6: 2458528
Critical_ROB_Stalls_Percent_4_Bucket_0: 42581
Non-critical_ROB_Stalls_Percent_4_Bucket_0: 39599
Critical_ROB_Stalls_Percent_4_Bucket_1: 38148
Non-critical_ROB_Stalls_Percent_4_Bucket_1: 8970
Critical_ROB_Stalls_Percent_4_Bucket_2: 19758
Non-critical_ROB_Stalls_Percent_4_Bucket_2: 18922
Critical_ROB_Stalls_Percent_4_Bucket_3: 49692
Non-critical_ROB_Stalls_Percent_4_Bucket_3: 11512
Critical_ROB_Stalls_Percent_4_Bucket_4: 23578
Non-critical_ROB_Stalls_Percent_4_Bucket_4: 7275
Critical_ROB_Stalls_Percent_4_Bucket_5: 49883
Non-critical_ROB_Stalls_Percent_4_Bucket_5: 12898
Critical_ROB_Stalls_Percent_4_Bucket_6: 6553823
Non-critical_ROB_Stalls_Percent_4_Bucket_6: 1472407
Critical_ROB_Stalls_Percent_5_Bucket_0: 42581
Non-critical_ROB_Stalls_Percent_5_Bucket_0: 39599
Critical_ROB_Stalls_Percent_5_Bucket_1: 38148
Non-critical_ROB_Stalls_Percent_5_Bucket_1: 8970
Critical_ROB_Stalls_Percent_5_Bucket_2: 19758
Non-critical_ROB_Stalls_Percent_5_Bucket_2: 18922
Critical_ROB_Stalls_Percent_5_Bucket_3: 49692
Non-critical_ROB_Stalls_Percent_5_Bucket_3: 11512
Critical_ROB_Stalls_Percent_5_Bucket_4: 23578
Non-critical_ROB_Stalls_Percent_5_Bucket_4: 7275
Critical_ROB_Stalls_Percent_5_Bucket_5: 49883
Non-critical_ROB_Stalls_Percent_5_Bucket_5: 12898
Critical_ROB_Stalls_Percent_5_Bucket_6: 6553823
Non-critical_ROB_Stalls_Percent_5_Bucket_6: 1472407
Critical_ROB_Stalls_Percent_6_Bucket_0: 42581
Non-critical_ROB_Stalls_Percent_6_Bucket_0: 39599
Critical_ROB_Stalls_Percent_6_Bucket_1: 38148
Non-critical_ROB_Stalls_Percent_6_Bucket_1: 8970
Critical_ROB_Stalls_Percent_6_Bucket_2: 19758
Non-critical_ROB_Stalls_Percent_6_Bucket_2: 18922
Critical_ROB_Stalls_Percent_6_Bucket_3: 49692
Non-critical_ROB_Stalls_Percent_6_Bucket_3: 11512
Critical_ROB_Stalls_Percent_6_Bucket_4: 23578
Non-critical_ROB_Stalls_Percent_6_Bucket_4: 7275
Critical_ROB_Stalls_Percent_6_Bucket_5: 49883
Non-critical_ROB_Stalls_Percent_6_Bucket_5: 12898
Critical_ROB_Stalls_Percent_6_Bucket_6: 6553823
Non-critical_ROB_Stalls_Percent_6_Bucket_6: 1472407
Critical_ROB_Stalls_Percent_7_Bucket_0: 49298
Non-critical_ROB_Stalls_Percent_7_Bucket_0: 32882
Critical_ROB_Stalls_Percent_7_Bucket_1: 38730
Non-critical_ROB_Stalls_Percent_7_Bucket_1: 8388
Critical_ROB_Stalls_Percent_7_Bucket_2: 31086
Non-critical_ROB_Stalls_Percent_7_Bucket_2: 7594
Critical_ROB_Stalls_Percent_7_Bucket_3: 56552
Non-critical_ROB_Stalls_Percent_7_Bucket_3: 4652
Critical_ROB_Stalls_Percent_7_Bucket_4: 27957
Non-critical_ROB_Stalls_Percent_7_Bucket_4: 2896
Critical_ROB_Stalls_Percent_7_Bucket_5: 57661
Non-critical_ROB_Stalls_Percent_7_Bucket_5: 5120
Critical_ROB_Stalls_Percent_7_Bucket_6: 7445566
Non-critical_ROB_Stalls_Percent_7_Bucket_6: 580664
Critical_ROB_Stalls_Percent_8_Bucket_0: 49298
Non-critical_ROB_Stalls_Percent_8_Bucket_0: 32882
Critical_ROB_Stalls_Percent_8_Bucket_1: 38730
Non-critical_ROB_Stalls_Percent_8_Bucket_1: 8388
Critical_ROB_Stalls_Percent_8_Bucket_2: 31086
Non-critical_ROB_Stalls_Percent_8_Bucket_2: 7594
Critical_ROB_Stalls_Percent_8_Bucket_3: 56552
Non-critical_ROB_Stalls_Percent_8_Bucket_3: 4652
Critical_ROB_Stalls_Percent_8_Bucket_4: 27957
Non-critical_ROB_Stalls_Percent_8_Bucket_4: 2896
Critical_ROB_Stalls_Percent_8_Bucket_5: 57661
Non-critical_ROB_Stalls_Percent_8_Bucket_5: 5120
Critical_ROB_Stalls_Percent_8_Bucket_6: 7445566
Non-critical_ROB_Stalls_Percent_8_Bucket_6: 580664
Average ROB occupancy Load Stall Begin: 341.192
Average ROB occupancy Load Stall End: 343.471
Min ROB occupancy Load Stall Begin: 1
Max ROB occupancy Load Stall Begin: 352
Min ROB occupancy Load Stall End: 1
Max ROB occupancy Load Stall End: 352
Average ROB occupancy Critical Load Stall Begin: -nan
Average ROB occupancy Critical Load Stall End: -nan
Min ROB occupancy Critical Load Stall Begin: 400
Max ROB occupancy Critical Load Stall Begin: 0
Min ROB occupancy Critical Load Stall End: 400
Max ROB occupancy Critical Load Stall End: 0
 ROB Load Stall Begin Bucket Count 0: 88409
 ROB Load Stall End Bucket Count 0: 82180
 ROB Critical Load Stall Begin Bucket Count 0: 0
 ROB Critical Load Stall End Bucket Count 0: 0
 ROB Load Stall Begin Bucket Count 1: 46397
 ROB Load Stall End Bucket Count 1: 47118
 ROB Critical Load Stall Begin Bucket Count 1: 0
 ROB Critical Load Stall End Bucket Count 1: 0
 ROB Load Stall Begin Bucket Count 2: 41725
 ROB Load Stall End Bucket Count 2: 38680
 ROB Critical Load Stall Begin Bucket Count 2: 0
 ROB Critical Load Stall End Bucket Count 2: 0
 ROB Load Stall Begin Bucket Count 3: 60453
 ROB Load Stall End Bucket Count 3: 61204
 ROB Critical Load Stall Begin Bucket Count 3: 0
 ROB Critical Load Stall End Bucket Count 3: 0
 ROB Load Stall Begin Bucket Count 4: 31520
 ROB Load Stall End Bucket Count 4: 30853
 ROB Critical Load Stall Begin Bucket Count 4: 0
 ROB Critical Load Stall End Bucket Count 4: 0
 ROB Load Stall Begin Bucket Count 5: 63356
 ROB Load Stall End Bucket Count 5: 62781
 ROB Critical Load Stall Begin Bucket Count 5: 0
 ROB Critical Load Stall End Bucket Count 5: 0
 ROB Load Stall Begin Bucket Count 6: 8017186
 ROB Load Stall End Bucket Count 6: 8026230
 ROB Critical Load Stall Begin Bucket Count 6: 0
 ROB Critical Load Stall End Bucket Count 6: 0
PIST Tag Read Accesses: 59900
PIST Read Accesses: 29950
PIST Tag Write Accesses: 59900
PIST Write Accesses: 29950
Criticality detector called times: 47316
Max global_stall_cycles_count: 411459
Threshold Modified: 0 times, factor: 0
Sturdy critical IP cache stats: 
 Unused entries: 0
CIC Tag Read Accesses: 0
CIC Read Accesses: 0
CIC Tag Write Accesses: 0
CIC Write Accesses: 0
Wobbly critical IP cache stats: 
 Unused entries: 111
CIC Tag Read Accesses: 296559296
CIC Read Accesses: 0
CIC Tag Write Accesses: 4277761
CIC Write Accesses: 0
ITLB TOTAL     ACCESS:   23547318  HIT:   23547318  MISS:          0  HIT %:        100  MISS %:          0   MPKI: 0
ITLB LOAD TRANSLATION ACCESS:   23547318  HIT:   23547318  MISS:          0  HIT %:        100  MISS %:          0   MPKI: 0
ITLB PREFETCH  REQUESTED:          0  ISSUED:          0  USEFUL:          0  USELESS:          0
ITLB USEFUL LOAD PREFETCHES:          0 PREFETCH ISSUED TO LOWER LEVEL:          0  ACCURACY: -nan
ITLB TIMELY PREFETCHES:          0 LATE PREFETCHES: 0 DROPPED PREFETCHES: 0
ITLB PREFETCHES SAME FILL-ORIGIN LEVEL: 0 DIFFERENT FILL-ORIGIN LEVEL: 0
ITLB AVERAGE MISS LATENCY: -nan cycles
ITLB RQ	ACCESS:   25406260	FORWARD:          0	MERGED:    1858942	TO_CACHE:   23547318

DTLB TOTAL     ACCESS:   27455806  HIT:   27423021  MISS:      32785  HIT %:    99.8806  MISS %:    0.11941   MPKI: 0.32785
DTLB LOAD TRANSLATION ACCESS:   27455806  HIT:   27423021  MISS:      32785  HIT %:    99.8806  MISS %:    0.11941   MPKI: 0.32785
DTLB PREFETCH  REQUESTED:          0  ISSUED:          0  USEFUL:          0  USELESS:          0
DTLB USEFUL LOAD PREFETCHES:          0 PREFETCH ISSUED TO LOWER LEVEL:          0  ACCURACY: -nan
DTLB TIMELY PREFETCHES:          0 LATE PREFETCHES: 0 DROPPED PREFETCHES: 0
DTLB PREFETCHES SAME FILL-ORIGIN LEVEL: 0 DIFFERENT FILL-ORIGIN LEVEL: 0
DTLB AVERAGE MISS LATENCY: 143.481 cycles
DTLB RQ	ACCESS:   28038883	FORWARD:          0	MERGED:     581745	TO_CACHE:   27457138

STLB TOTAL     ACCESS:      32785  HIT:       2438  MISS:      30347  HIT %:    7.43633  MISS %:    92.5637   MPKI: 0.30347
STLB LOAD TRANSLATION ACCESS:      32785  HIT:       2438  MISS:      30347  HIT %:    7.43633  MISS %:    92.5637   MPKI: 0.30347
STLB PREFETCH  REQUESTED:          0  ISSUED:          0  USEFUL:          0  USELESS:          0
STLB USEFUL LOAD PREFETCHES:          0 PREFETCH ISSUED TO LOWER LEVEL:          0  ACCURACY: -nan
STLB TIMELY PREFETCHES:          0 LATE PREFETCHES: 0 DROPPED PREFETCHES: 0
STLB PREFETCHES SAME FILL-ORIGIN LEVEL: 0 DIFFERENT FILL-ORIGIN LEVEL: 0
STLB AVERAGE MISS LATENCY: 145.266 cycles
STLB RQ	ACCESS:      32785	FORWARD:          0	MERGED:          0	TO_CACHE:      32785

STLB Hit, L1D data hit: 0
STLB Hit, L2C data hit: 0
STLB Hit, LLC data hit: 0
STLB Hit, LLC data miss: 0
STLB STLB hints to L2: 0
L1D TOTAL     ACCESS:   27590100  HIT:   25189360  MISS:    2400740  HIT %:    91.2985  MISS %:    8.70145   MPKI: 24.0074
L1D LOAD      ACCESS:   18958460  HIT:   16558487  MISS:    2399973  HIT %:    87.3409  MISS %:    12.6591   MPKI: 23.9997
L1D RFO       ACCESS:    8631640  HIT:    8630873  MISS:        767  HIT %:    99.9911  MISS %: 0.00888591   MPKI: 0.00767
L1D PREFETCH  REQUESTED:          0  ISSUED:          0  USEFUL:          0  USELESS:          0
L1D USEFUL LOAD PREFETCHES:          0 PREFETCH ISSUED TO LOWER LEVEL:          0  ACCURACY: -nan
L1D TIMELY PREFETCHES:          0 LATE PREFETCHES: 0 DROPPED PREFETCHES: 0
L1D PREFETCHES SAME FILL-ORIGIN LEVEL: 0 DIFFERENT FILL-ORIGIN LEVEL: 0
L1D AVERAGE MISS LATENCY: 25.0361 cycles
L1D RQ	ACCESS:   27797096	FORWARD:          0	MERGED:    8389825	TO_CACHE:   19407241
L1D WQ	ACCESS:    9705356	FORWARD:         30	MERGED:    1073714	TO_CACHE:    8631642

L1D UNIQUE REGIONS ACCESSED: 0
L1D REGIONS CONFLICTS: 0
L1D Cross Page Prefetch Requests: 0
L1D Same Page Prefetch Requests: 0
L1D ROI Sum of L1D PQ occupancy: 0
L1D PREFETCHES PUSHED FROM L2C: 0
L1I TOTAL     ACCESS:   25406259  HIT:   25406259  MISS:          0  HIT %:        100  MISS %:          0   MPKI: 0
L1I LOAD      ACCESS:   25406259  HIT:   25406259  MISS:          0  HIT %:        100  MISS %:          0   MPKI: 0
L1I PREFETCH  REQUESTED:          0  ISSUED:          0  USEFUL:          0  USELESS:          0
L1I USEFUL LOAD PREFETCHES:          0 PREFETCH ISSUED TO LOWER LEVEL:          0  ACCURACY: -nan
L1I TIMELY PREFETCHES:          0 LATE PREFETCHES: 0 DROPPED PREFETCHES: 0
L1I PREFETCHES SAME FILL-ORIGIN LEVEL: 0 DIFFERENT FILL-ORIGIN LEVEL: 0
L1I AVERAGE MISS LATENCY: -nan cycles
L1I RQ	ACCESS:   39577657	FORWARD:          0	MERGED:   14171397	TO_CACHE:   25406260

BTB TOTAL     ACCESS:   16382938  HIT:   16382909  MISS:         29  HIT %:    99.9998  MISS %: 0.000177013   MPKI: 0.00029
BTB BRANCH_DIRECT_JUMP	ACCESS:    2158979  HIT:    2158970  MISS:          9
BTB BRANCH_INDIRECT	ACCESS:          0  HIT:          0  MISS:          0
BTB BRANCH_CONDITIONAL	ACCESS:   12063628  HIT:   12063614  MISS:         14
BTB BRANCH_DIRECT_CALL	ACCESS:    1080165  HIT:    1080162  MISS:          3
BTB BRANCH_INDIRECT_CALL	ACCESS:          0  HIT:          0  MISS:          0
BTB BRANCH_RETURN	ACCESS:    1080166  HIT:    1080163  MISS:          3
BTB BRANCH_OTHER ACCESS:          0  HIT:          0  MISS:          0

L2C TOTAL     ACCESS:    4725552  HIT:    2941247  MISS:    1784305  HIT %:    62.2413  MISS %:    37.7587   MPKI: 17.8431
L2C LOAD      ACCESS:    2399973  HIT:    1564709  MISS:     835264  HIT %:    65.1969  MISS %:    34.8031   MPKI: 8.35264
L2C DATA LOAD MPKI: 8.35264
L2C INSTRUCTION LOAD MPKI: 0
L2C RFO       ACCESS:        767  HIT:         19  MISS:        748  HIT %:    2.47718  MISS %:    97.5228   MPKI: 0.00748
L2C PREFETCH  ACCESS:    2289183  HIT:    1346463  MISS:     942720  HIT %:    58.8185  MISS %:    41.1815   MPKI: 9.4272
L2C DATA PREFETCH MPKI: 9.4272
L2C INSTRUCTION PREFETCH MPKI: 0
L2C WRITEBACK ACCESS:       5146  HIT:       5130  MISS:         16  HIT %:    99.6891  MISS %:   0.310921   MPKI: 0.00016
L2C LOAD TRANSLATION ACCESS:      30483  HIT:      24926  MISS:       5557  HIT %:    81.7702  MISS %:    18.2298   MPKI: 0.05557
L2C PREFETCH  REQUESTED:   17995289  ISSUED:   17987585  USEFUL:     940961  USELESS:       1728
L2C USEFUL LOAD PREFETCHES:     940961 PREFETCH ISSUED TO LOWER LEVEL:   16459497  ACCURACY: 5.71683
L2C TIMELY PREFETCHES:     940961 LATE PREFETCHES: 306750 DROPPED PREFETCHES: 0
L2C PREFETCHES SAME FILL-ORIGIN LEVEL: 1249470 DIFFERENT FILL-ORIGIN LEVEL: 15210027
L2C AVERAGE MISS LATENCY: 32.3492 cycles
L2C RQ	ACCESS:    2431223	FORWARD:          0	MERGED:          0	TO_CACHE:    2431223
L2C WQ	ACCESS:       5146	FORWARD:          0	MERGED:          0	TO_CACHE:       5146
L2C PQ	ACCESS:   17987585	FORWARD:          0	MERGED:     171184	TO_CACHE:   17816401

L2C Instructions Evicting Data 0
L2C Translations Evicting Data 5549
L2C Data Evicting Data 1773159
L2C Instructions Evicting Instructions 0
L2C Translations Evicting Instructions 0
L2C Data Evicting Instructions 0
L2C Instructions Evicting Translations 0
L2C Translations Evicting Translations 8
L2C Data Evicting Translations 5573
L2C Dense regions hint from L2: 0
PSCL5 TOTAL     ACCESS:      30347  HIT:      30347  MISS:          0  HIT %:        100  MISS %:          0   MPKI: 0
PSCL5 LOAD TRANSLATION ACCESS:      30347  HIT:      30347  MISS:          0  HIT %:        100  MISS %:          0   MPKI: 0
PSCL5 PREFETCH  REQUESTED:          0  ISSUED:          0  USEFUL:          0  USELESS:          0
PSCL5 USEFUL LOAD PREFETCHES:          0 PREFETCH ISSUED TO LOWER LEVEL:          0  ACCURACY: -nan
PSCL5 TIMELY PREFETCHES:          0 LATE PREFETCHES: 0 DROPPED PREFETCHES: 0
PSCL5 PREFETCHES SAME FILL-ORIGIN LEVEL: 0 DIFFERENT FILL-ORIGIN LEVEL: 0

PSCL4 TOTAL     ACCESS:      30347  HIT:      30347  MISS:          0  HIT %:        100  MISS %:          0   MPKI: 0
PSCL4 LOAD TRANSLATION ACCESS:      30347  HIT:      30347  MISS:          0  HIT %:        100  MISS %:          0   MPKI: 0
PSCL4 PREFETCH  REQUESTED:          0  ISSUED:          0  USEFUL:          0  USELESS:          0
PSCL4 USEFUL LOAD PREFETCHES:          0 PREFETCH ISSUED TO LOWER LEVEL:          0  ACCURACY: -nan
PSCL4 TIMELY PREFETCHES:          0 LATE PREFETCHES: 0 DROPPED PREFETCHES: 0
PSCL4 PREFETCHES SAME FILL-ORIGIN LEVEL: 0 DIFFERENT FILL-ORIGIN LEVEL: 0

PSCL3 TOTAL     ACCESS:      30347  HIT:      30346  MISS:          1  HIT %:    99.9967  MISS %: 0.00329522   MPKI: 1e-05
PSCL3 LOAD TRANSLATION ACCESS:      30347  HIT:      30346  MISS:          1  HIT %:    99.9967  MISS %: 0.00329522   MPKI: 1e-05
PSCL3 PREFETCH  REQUESTED:          0  ISSUED:          0  USEFUL:          0  USELESS:          0
PSCL3 USEFUL LOAD PREFETCHES:          0 PREFETCH ISSUED TO LOWER LEVEL:          0  ACCURACY: -nan
PSCL3 TIMELY PREFETCHES:          0 LATE PREFETCHES: 0 DROPPED PREFETCHES: 0
PSCL3 PREFETCHES SAME FILL-ORIGIN LEVEL: 0 DIFFERENT FILL-ORIGIN LEVEL: 0

PSCL2 TOTAL     ACCESS:      30347  HIT:      30004  MISS:        343  HIT %:    98.8697  MISS %:    1.13026   MPKI: 0.00343
PSCL2 LOAD TRANSLATION ACCESS:      30347  HIT:      30004  MISS:        343  HIT %:    98.8697  MISS %:    1.13026   MPKI: 0.00343
PSCL2 PREFETCH  REQUESTED:          0  ISSUED:          0  USEFUL:          0  USELESS:          0
PSCL2 USEFUL LOAD PREFETCHES:          0 PREFETCH ISSUED TO LOWER LEVEL:          0  ACCURACY: -nan
PSCL2 TIMELY PREFETCHES:          0 LATE PREFETCHES: 0 DROPPED PREFETCHES: 0
PSCL2 PREFETCHES SAME FILL-ORIGIN LEVEL: 0 DIFFERENT FILL-ORIGIN LEVEL: 0

LLC TOTAL     ACCESS:   16146116  HIT:   14339135  MISS:    1806981  HIT %:    88.8086  MISS %:    11.1914   MPKI: 18.0698
LLC LOAD      ACCESS:     528514  HIT:     474328  MISS:      54186  HIT %:    89.7475  MISS %:    10.2525   MPKI: 0.54186
LLC RFO       ACCESS:        748  HIT:        178  MISS:        570  HIT %:    23.7968  MISS %:    76.2032   MPKI: 0.0057
LLC PREFETCH  ACCESS:   15608882  HIT:   13862626  MISS:    1746256  HIT %:    88.8124  MISS %:    11.1876   MPKI: 17.4626
LLC WRITEBACK ACCESS:       2415  HIT:       1745  MISS:        670  HIT %:    72.2567  MISS %:    27.7433   MPKI: 0.0067
LLC LOAD TRANSLATION ACCESS:       5557  HIT:        258  MISS:       5299  HIT %:    4.64279  MISS %:    95.3572   MPKI: 0.05299
LLC PREFETCH  REQUESTED:          0  ISSUED:          0  USEFUL:     474206  USELESS:    1248787
LLC USEFUL LOAD PREFETCHES:     474206 PREFETCH ISSUED TO LOWER LEVEL:    1746496  ACCURACY: 27.1519
LLC TIMELY PREFETCHES:     474206 LATE PREFETCHES: 239 DROPPED PREFETCHES: 0
LLC PREFETCHES SAME FILL-ORIGIN LEVEL: 1725963 DIFFERENT FILL-ORIGIN LEVEL: 0
LLC AVERAGE MISS LATENCY: 79.1025 cycles
LLC RQ	ACCESS:     534819	FORWARD:          0	MERGED:          0	TO_CACHE:     534819
LLC WQ	ACCESS:       2415	FORWARD:          0	MERGED:          0	TO_CACHE:       2415
LLC PQ	ACCESS:   16459497	FORWARD:          0	MERGED:     246290	TO_CACHE:   16213207

LLC Dense regions hint to LLC: 0

RAW hits: 768
Loads Generated: 27797864
Loads sent to L1D: 27797096
Stores Generated: 9705357
Stores sent to L1D: 9705356
Major fault: 0 Minor fault: 45705
Allocated PAGES: 45705
 All Calls: 3600906
 Critical Calls: 2367774
------------------
Depth Distribution
------------------
depth 0: 0
depth 1: 2345574
depth 2: 2062599
depth 3: 1863341
depth 4: 1755928
depth 5: 1680626
depth 6: 1622872
depth 7: 1569364
depth 8: 1440489
depth 9: 1238983
depth 10: 1031446
depth 11: 736006
depth 12: 440908
depth 13: 195068
depth 14: 2219
depth 15: 2162
depth 16: 0
depth 17: 0
depth 18: 0
depth 19: 0
depth 20: 0
depth 21: 0
depth 22: 0
depth 23: 0
depth 24: 0
depth 25: 0
depth 26: 0
depth 27: 0
depth 28: 0
depth 29: 0
Total: 17987585
-----------------------------
-----------------------------
	Captured at Filter
-----------------------------
depth 0: 0
depth 1: 46112
depth 2: 38723
depth 3: 32095
depth 4: 25117
depth 5: 24044
depth 6: 18729
depth 7: 15273
depth 8: 11439
depth 9: 10213
depth 10: 7683
depth 11: 5642
depth 12: 3044
depth 13: 1316
depth 14: 19
depth 15: 15
depth 16: 0
depth 17: 0
depth 18: 0
depth 19: 0
depth 20: 0
depth 21: 0
depth 22: 0
depth 23: 0
depth 24: 0
depth 25: 0
depth 26: 0
depth 27: 0
depth 28: 0
depth 29: 0
-----------------------------
-----------------------------
		Lost at Page
-----------------------------
depth 0: 0
depth 1: 55739
depth 2: 70142
depth 3: 101545
depth 4: 130684
depth 5: 156681
depth 6: 179086
depth 7: 200987
depth 8: 211575
depth 9: 207588
depth 10: 194678
depth 11: 154744
depth 12: 102906
depth 13: 50311
depth 14: 577
depth 15: 625
depth 16: 0
depth 17: 0
depth 18: 0
depth 19: 0
depth 20: 0
depth 21: 0
depth 22: 0
depth 23: 0
depth 24: 0
depth 25: 0
depth 26: 0
depth 27: 0
depth 28: 0
depth 29: 0
-----------------------------
-----------------------------
	Lost due to PQ Size
-----------------------------
7704
-----------------------------
ST read accesses: 2337954
ST write accesses: 29820
PT read accesses: 112470691
PT write accesses: 3482838
FILTER read accesses: 22386776
FILTER write accesses: 4376720
GHR read accesses: 11247801
GHR write accesses: 1817868
GHR counter read accesses: 93887220
GHR counter write accesses: 4967378
ST tag read accesses: 882654114
ST tag write accesses: 12870710

DRAM Statistics
 CHANNEL 0
 RQ ROW_BUFFER_HIT:    1695529  ROW_BUFFER_MISS:     110782
 DBUS_CONGESTED:         82
 WQ ROW_BUFFER_HIT:        603  ROW_BUFFER_MISS:       1864  FULL:          0

 AVG_CONGESTED_CYCLE: 3
 All warmup complete: 2
Channel 0 Bank busy for read cycles: 0
Channel 0 Bank busy for write cycles: 0
Channel 0
Rank 0
0banks busy for read cycles: 205707506
0banks busy for write cycles: 1906
1banks busy for read cycles: 21929512
1banks busy for write cycles: 287413
2banks busy for read cycles: 20782169
2banks busy for write cycles: 44529
3banks busy for read cycles: 4587706
3banks busy for write cycles: 8710
4banks busy for read cycles: 1698926
4banks busy for write cycles: 4264
5banks busy for read cycles: 489699
5banks busy for write cycles: 1588
6banks busy for read cycles: 294413
6banks busy for write cycles: 392
7banks busy for read cycles: 265266
7banks busy for write cycles: 44
8banks busy for read cycles: 1408711
8banks busy for write cycles: 0

CPU 0 Branch Prediction Accuracy: 99.9623% MPKI: 0.09672 Average ROB Occupancy at Mispredict: 311.273
Branch types
NOT_BRANCH: 74359712 74.3597%
BRANCH_DIRECT_JUMP: 2158979 2.15898%
BRANCH_INDIRECT: 0 0%
BRANCH_CONDITIONAL: 21320980 21.321%
BRANCH_DIRECT_CALL: 1080165 1.08017%
BRANCH_INDIRECT_CALL: 0 0%
BRANCH_RETURN: 1080166 1.08017%
BRANCH_OTHER: 0 0%

DRAM PAGES: 1048576
Allocated PAGES: 45705
