
*** ChampSim Multicore Out-of-Order Simulator ***

Warmup Instructions: 50000000
Simulation Instructions: 100000000
Number of CPUs: 1
LLC sets: 2048
LLC ways: 16
Off-chip DRAM Size: 4096 MB Channels: 1 Width: 64-bit Data Rate: 6400 MT/s
CPU 0 runs ../SPEC2017//602.gcc_s-2226B.champsimtrace.xz
.xz
NUM_OF_IPS_IN_CRITICAL_IP_TRAINING: 64
NUM_OF_CRITICAL_IP_TRAINING_TABLE_WAYS: 2
NUM_OF_CRITICAL_IP_TRAINING_TABLE_SETS: 32
WOBBLY_CRITICAL_IP_CACHE_SETS: 32
WOBBLY_CRITICAL_IP_CACHE_WAYS: 4
BTB has LRU replacement policy
ITLB has LRU replacement policy
DTLB has LRU replacement policy
STLB has LRU replacement policy
L1I has LRU replacement policy
IP Table Entries: 64
L1D has LRU replacement policy
Initialize SRRIP state for L2C
Initialize DRRIP state for LLC
Heartbeat CPU 0 instructions: 10000002 cycles: 3733784 heartbeat IPC: 2.67825 cumulative IPC: 2.67825 (Simulation time: 0 hr 8 min 12 sec) 
Heartbeat CPU 0 instructions: 20000001 cycles: 7468870 heartbeat IPC: 2.67731 cumulative IPC: 2.67778 (Simulation time: 0 hr 15 min 17 sec) 
Heartbeat CPU 0 instructions: 30000001 cycles: 11198970 heartbeat IPC: 2.68089 cumulative IPC: 2.67882 (Simulation time: 0 hr 21 min 12 sec) 
Heartbeat CPU 0 instructions: 40000002 cycles: 14929739 heartbeat IPC: 2.68041 cumulative IPC: 2.67922 (Simulation time: 0 hr 27 min 3 sec) 
Heartbeat CPU 0 instructions: 50000000 cycles: 18664651 heartbeat IPC: 2.67744 cumulative IPC: 2.67886 (Simulation time: 0 hr 32 min 29 sec) 

Warmup complete CPU 0 instructions: 50000004 cycles: 18664652 (Simulation time: 0 hr 32 min 29 sec) 

% increase in all ip prefetch 509.48
% increase in all ip prefetch -0.828773
Heartbeat CPU 0 instructions: 60000001 cycles: 44021745 heartbeat IPC: 0.394367 cumulative IPC: 0.394367 (Simulation time: 0 hr 37 min 48 sec) 
Heartbeat CPU 0 instructions: 70000000 cycles: 69046609 heartbeat IPC: 0.399603 cumulative IPC: 0.396967 (Simulation time: 0 hr 42 min 31 sec) 
Heartbeat CPU 0 instructions: 80000000 cycles: 94214445 heartbeat IPC: 0.397333 cumulative IPC: 0.397089 (Simulation time: 0 hr 46 min 50 sec) 
Heartbeat CPU 0 instructions: 90000001 cycles: 119497566 heartbeat IPC: 0.395521 cumulative IPC: 0.396696 (Simulation time: 0 hr 50 min 56 sec) 
Heartbeat CPU 0 instructions: 100000001 cycles: 144729284 heartbeat IPC: 0.396327 cumulative IPC: 0.396622 (Simulation time: 0 hr 54 min 30 sec) 
Heartbeat CPU 0 instructions: 110000000 cycles: 169736977 heartbeat IPC: 0.399877 cumulative IPC: 0.397161 (Simulation time: 1 hr 2 min 11 sec) 
Heartbeat CPU 0 instructions: 120000000 cycles: 195110158 heartbeat IPC: 0.394117 cumulative IPC: 0.396723 (Simulation time: 1 hr 10 min 1 sec) 
Heartbeat CPU 0 instructions: 130000001 cycles: 220403158 heartbeat IPC: 0.395366 cumulative IPC: 0.396553 (Simulation time: 1 hr 16 min 20 sec) 
Heartbeat CPU 0 instructions: 140000000 cycles: 245563661 heartbeat IPC: 0.397448 cumulative IPC: 0.396652 (Simulation time: 1 hr 22 min 28 sec) 
Heartbeat CPU 0 instructions: 150000001 cycles: 270671675 heartbeat IPC: 0.398279 cumulative IPC: 0.396814 (Simulation time: 1 hr 28 min 25 sec) 
Finished CPU 0 instructions: 100000000 cycles: 252007037 cumulative IPC: 0.396814 (Simulation time: 1 hr 28 min 25 sec) 

ChampSim completed all CPUs

Region of Interest Statistics

CPU 0 cumulative IPC: 0.396814 instructions: 100000000 cycles: 252007037

CPU 0 Average Load ROB stall cycles: 1.11409e+07
CPU 0 Fraction of times ROB stalled by Loads: 7.69972
CPU 0 Percentage of Load stall cycles in Total stall cycles: 1.74979e+08
 Total stall cycles: 229850049
 Total load stall cycles: 402190072104535
CPU 0 NUM of IPS identified critical: 5
CPU 0 Num of Load IPs stalling ROB: 68
Threshold modification factor: -1
Max PIST entries: 38
Min PIST entries: 0
Avg PIST entries: 11.24
Trouble in retire width: 0.992978
MaC = Marked as critical.
lt_50_percent_before_Mac: 4
gt_90_percent_before_Mac: 0
gt_75_percent_before_Mac: 0
gt_50_percent_before_Mac: 1
stall_proportion_bin_same_before_after: 0
stall_proportion_bin_lower_before_after: 0
stall_proportion_bin_upper_before_after: 0
average_stall_proportion_before: 0.110713
average_stall_proportion_after: 0.137423
Critical IP stalls, total frequency: 2752823
Non-critical IP stalls, total frequency: 26626
Critical_IP_ROB_Stalls_Bucket_0: 116533
Non-critical_IP_ROB_Stalls_Bucket_0: 6298
Critical_IP_ROB_Stalls_Bucket_1: 266161
Non-critical_IP_ROB_Stalls_Bucket_1: 9440
Critical_IP_ROB_Stalls_Bucket_2: 267027
Non-critical_IP_ROB_Stalls_Bucket_2: 1712
Critical_IP_ROB_Stalls_Bucket_3: 245622
Non-critical_IP_ROB_Stalls_Bucket_3: 2245
Critical_IP_ROB_Stalls_Bucket_4: 243957
Non-critical_IP_ROB_Stalls_Bucket_4: 2227
Critical_IP_ROB_Stalls_Bucket_5: 228316
Non-critical_IP_ROB_Stalls_Bucket_5: 1668
Critical_IP_ROB_Stalls_Bucket_6: 1385207
Non-critical_IP_ROB_Stalls_Bucket_6: 3201
0 => IPs accounting for >50 percent of stalls, 1 => 55, 2 => 60, 3 => 65 and so on till 90.
percent50: 94.5278 num IPs:1
percent55: 94.5278 num IPs:1
percent60: 94.5278 num IPs:1
percent65: 94.5278 num IPs:1
percent70: 94.5278 num IPs:1
percent75: 94.5278 num IPs:1
percent80: 94.5278 num IPs:1
percent85: 94.5278 num IPs:1
percent90: 94.5278 num IPs:1
Critical_ROB_Stalls_Percent_0_Bucket_0: 109438
Non-critical_ROB_Stalls_Percent_0_Bucket_0: 13393
Critical_ROB_Stalls_Percent_0_Bucket_1: 252921
Non-critical_ROB_Stalls_Percent_0_Bucket_1: 22680
Critical_ROB_Stalls_Percent_0_Bucket_2: 254620
Non-critical_ROB_Stalls_Percent_0_Bucket_2: 14119
Critical_ROB_Stalls_Percent_0_Bucket_3: 234682
Non-critical_ROB_Stalls_Percent_0_Bucket_3: 13185
Critical_ROB_Stalls_Percent_0_Bucket_4: 233100
Non-critical_ROB_Stalls_Percent_0_Bucket_4: 13084
Critical_ROB_Stalls_Percent_0_Bucket_5: 218677
Non-critical_ROB_Stalls_Percent_0_Bucket_5: 11307
Critical_ROB_Stalls_Percent_0_Bucket_6: 1323915
Non-critical_ROB_Stalls_Percent_0_Bucket_6: 64493
Critical_ROB_Stalls_Percent_1_Bucket_0: 109438
Non-critical_ROB_Stalls_Percent_1_Bucket_0: 13393
Critical_ROB_Stalls_Percent_1_Bucket_1: 252921
Non-critical_ROB_Stalls_Percent_1_Bucket_1: 22680
Critical_ROB_Stalls_Percent_1_Bucket_2: 254620
Non-critical_ROB_Stalls_Percent_1_Bucket_2: 14119
Critical_ROB_Stalls_Percent_1_Bucket_3: 234682
Non-critical_ROB_Stalls_Percent_1_Bucket_3: 13185
Critical_ROB_Stalls_Percent_1_Bucket_4: 233100
Non-critical_ROB_Stalls_Percent_1_Bucket_4: 13084
Critical_ROB_Stalls_Percent_1_Bucket_5: 218677
Non-critical_ROB_Stalls_Percent_1_Bucket_5: 11307
Critical_ROB_Stalls_Percent_1_Bucket_6: 1323915
Non-critical_ROB_Stalls_Percent_1_Bucket_6: 64493
Critical_ROB_Stalls_Percent_2_Bucket_0: 109438
Non-critical_ROB_Stalls_Percent_2_Bucket_0: 13393
Critical_ROB_Stalls_Percent_2_Bucket_1: 252921
Non-critical_ROB_Stalls_Percent_2_Bucket_1: 22680
Critical_ROB_Stalls_Percent_2_Bucket_2: 254620
Non-critical_ROB_Stalls_Percent_2_Bucket_2: 14119
Critical_ROB_Stalls_Percent_2_Bucket_3: 234682
Non-critical_ROB_Stalls_Percent_2_Bucket_3: 13185
Critical_ROB_Stalls_Percent_2_Bucket_4: 233100
Non-critical_ROB_Stalls_Percent_2_Bucket_4: 13084
Critical_ROB_Stalls_Percent_2_Bucket_5: 218677
Non-critical_ROB_Stalls_Percent_2_Bucket_5: 11307
Critical_ROB_Stalls_Percent_2_Bucket_6: 1323915
Non-critical_ROB_Stalls_Percent_2_Bucket_6: 64493
Critical_ROB_Stalls_Percent_3_Bucket_0: 109438
Non-critical_ROB_Stalls_Percent_3_Bucket_0: 13393
Critical_ROB_Stalls_Percent_3_Bucket_1: 252921
Non-critical_ROB_Stalls_Percent_3_Bucket_1: 22680
Critical_ROB_Stalls_Percent_3_Bucket_2: 254620
Non-critical_ROB_Stalls_Percent_3_Bucket_2: 14119
Critical_ROB_Stalls_Percent_3_Bucket_3: 234682
Non-critical_ROB_Stalls_Percent_3_Bucket_3: 13185
Critical_ROB_Stalls_Percent_3_Bucket_4: 233100
Non-critical_ROB_Stalls_Percent_3_Bucket_4: 13084
Critical_ROB_Stalls_Percent_3_Bucket_5: 218677
Non-critical_ROB_Stalls_Percent_3_Bucket_5: 11307
Critical_ROB_Stalls_Percent_3_Bucket_6: 1323915
Non-critical_ROB_Stalls_Percent_3_Bucket_6: 64493
Critical_ROB_Stalls_Percent_4_Bucket_0: 109438
Non-critical_ROB_Stalls_Percent_4_Bucket_0: 13393
Critical_ROB_Stalls_Percent_4_Bucket_1: 252921
Non-critical_ROB_Stalls_Percent_4_Bucket_1: 22680
Critical_ROB_Stalls_Percent_4_Bucket_2: 254620
Non-critical_ROB_Stalls_Percent_4_Bucket_2: 14119
Critical_ROB_Stalls_Percent_4_Bucket_3: 234682
Non-critical_ROB_Stalls_Percent_4_Bucket_3: 13185
Critical_ROB_Stalls_Percent_4_Bucket_4: 233100
Non-critical_ROB_Stalls_Percent_4_Bucket_4: 13084
Critical_ROB_Stalls_Percent_4_Bucket_5: 218677
Non-critical_ROB_Stalls_Percent_4_Bucket_5: 11307
Critical_ROB_Stalls_Percent_4_Bucket_6: 1323915
Non-critical_ROB_Stalls_Percent_4_Bucket_6: 64493
Critical_ROB_Stalls_Percent_5_Bucket_0: 109438
Non-critical_ROB_Stalls_Percent_5_Bucket_0: 13393
Critical_ROB_Stalls_Percent_5_Bucket_1: 252921
Non-critical_ROB_Stalls_Percent_5_Bucket_1: 22680
Critical_ROB_Stalls_Percent_5_Bucket_2: 254620
Non-critical_ROB_Stalls_Percent_5_Bucket_2: 14119
Critical_ROB_Stalls_Percent_5_Bucket_3: 234682
Non-critical_ROB_Stalls_Percent_5_Bucket_3: 13185
Critical_ROB_Stalls_Percent_5_Bucket_4: 233100
Non-critical_ROB_Stalls_Percent_5_Bucket_4: 13084
Critical_ROB_Stalls_Percent_5_Bucket_5: 218677
Non-critical_ROB_Stalls_Percent_5_Bucket_5: 11307
Critical_ROB_Stalls_Percent_5_Bucket_6: 1323915
Non-critical_ROB_Stalls_Percent_5_Bucket_6: 64493
Critical_ROB_Stalls_Percent_6_Bucket_0: 109438
Non-critical_ROB_Stalls_Percent_6_Bucket_0: 13393
Critical_ROB_Stalls_Percent_6_Bucket_1: 252921
Non-critical_ROB_Stalls_Percent_6_Bucket_1: 22680
Critical_ROB_Stalls_Percent_6_Bucket_2: 254620
Non-critical_ROB_Stalls_Percent_6_Bucket_2: 14119
Critical_ROB_Stalls_Percent_6_Bucket_3: 234682
Non-critical_ROB_Stalls_Percent_6_Bucket_3: 13185
Critical_ROB_Stalls_Percent_6_Bucket_4: 233100
Non-critical_ROB_Stalls_Percent_6_Bucket_4: 13084
Critical_ROB_Stalls_Percent_6_Bucket_5: 218677
Non-critical_ROB_Stalls_Percent_6_Bucket_5: 11307
Critical_ROB_Stalls_Percent_6_Bucket_6: 1323915
Non-critical_ROB_Stalls_Percent_6_Bucket_6: 64493
Critical_ROB_Stalls_Percent_7_Bucket_0: 109438
Non-critical_ROB_Stalls_Percent_7_Bucket_0: 13393
Critical_ROB_Stalls_Percent_7_Bucket_1: 252921
Non-critical_ROB_Stalls_Percent_7_Bucket_1: 22680
Critical_ROB_Stalls_Percent_7_Bucket_2: 254620
Non-critical_ROB_Stalls_Percent_7_Bucket_2: 14119
Critical_ROB_Stalls_Percent_7_Bucket_3: 234682
Non-critical_ROB_Stalls_Percent_7_Bucket_3: 13185
Critical_ROB_Stalls_Percent_7_Bucket_4: 233100
Non-critical_ROB_Stalls_Percent_7_Bucket_4: 13084
Critical_ROB_Stalls_Percent_7_Bucket_5: 218677
Non-critical_ROB_Stalls_Percent_7_Bucket_5: 11307
Critical_ROB_Stalls_Percent_7_Bucket_6: 1323915
Non-critical_ROB_Stalls_Percent_7_Bucket_6: 64493
Critical_ROB_Stalls_Percent_8_Bucket_0: 109438
Non-critical_ROB_Stalls_Percent_8_Bucket_0: 13393
Critical_ROB_Stalls_Percent_8_Bucket_1: 252921
Non-critical_ROB_Stalls_Percent_8_Bucket_1: 22680
Critical_ROB_Stalls_Percent_8_Bucket_2: 254620
Non-critical_ROB_Stalls_Percent_8_Bucket_2: 14119
Critical_ROB_Stalls_Percent_8_Bucket_3: 234682
Non-critical_ROB_Stalls_Percent_8_Bucket_3: 13185
Critical_ROB_Stalls_Percent_8_Bucket_4: 233100
Non-critical_ROB_Stalls_Percent_8_Bucket_4: 13084
Critical_ROB_Stalls_Percent_8_Bucket_5: 218677
Non-critical_ROB_Stalls_Percent_8_Bucket_5: 11307
Critical_ROB_Stalls_Percent_8_Bucket_6: 1323915
Non-critical_ROB_Stalls_Percent_8_Bucket_6: 64493
Average ROB occupancy Load Stall Begin: 249.858
Average ROB occupancy Load Stall End: 252.49
Min ROB occupancy Load Stall Begin: 2
Max ROB occupancy Load Stall Begin: 351
Min ROB occupancy Load Stall End: 2
Max ROB occupancy Load Stall End: 352
Average ROB occupancy Critical Load Stall Begin: 251.437
Average ROB occupancy Critical Load Stall End: 254.01
Min ROB occupancy Critical Load Stall Begin: 2
Max ROB occupancy Critical Load Stall Begin: 351
Min ROB occupancy Critical Load Stall End: 2
Max ROB occupancy Critical Load Stall End: 352
 ROB Load Stall Begin Bucket Count 0: 127281
 ROB Load Stall End Bucket Count 0: 122831
 ROB Critical Load Stall Begin Bucket Count 0: 115317
 ROB Critical Load Stall End Bucket Count 0: 115153
 ROB Load Stall Begin Bucket Count 1: 287103
 ROB Load Stall End Bucket Count 1: 275601
 ROB Critical Load Stall Begin Bucket Count 1: 278533
 ROB Critical Load Stall End Bucket Count 1: 263571
 ROB Load Stall Begin Bucket Count 2: 268885
 ROB Load Stall End Bucket Count 2: 268739
 ROB Critical Load Stall Begin Bucket Count 2: 267668
 ROB Critical Load Stall End Bucket Count 2: 266973
 ROB Load Stall Begin Bucket Count 3: 248283
 ROB Load Stall End Bucket Count 3: 247867
 ROB Critical Load Stall Begin Bucket Count 3: 245024
 ROB Critical Load Stall End Bucket Count 3: 245145
 ROB Load Stall Begin Bucket Count 4: 248774
 ROB Load Stall End Bucket Count 4: 246184
 ROB Critical Load Stall Begin Bucket Count 4: 246296
 ROB Critical Load Stall End Bucket Count 4: 243507
 ROB Load Stall Begin Bucket Count 5: 224965
 ROB Load Stall End Bucket Count 5: 229984
 ROB Critical Load Stall Begin Bucket Count 5: 223125
 ROB Critical Load Stall End Bucket Count 5: 227817
 ROB Load Stall Begin Bucket Count 6: 1374323
 ROB Load Stall End Bucket Count 6: 1388408
 ROB Critical Load Stall Begin Bucket Count 6: 1370738
 ROB Critical Load Stall End Bucket Count 6: 1384535
PIST Tag Read Accesses: 38992
PIST Read Accesses: 19496
PIST Tag Write Accesses: 38992
PIST Write Accesses: 19496
Criticality detector called times: 20576
Max global_stall_cycles_count: 129515
Threshold Modified: 1 times, factor: -1
ITLB TOTAL     ACCESS:   18791417  HIT:   18791417  MISS:          0  HIT %:        100  MISS %:          0   MPKI: 0
ITLB LOAD TRANSLATION ACCESS:   18791417  HIT:   18791417  MISS:          0  HIT %:        100  MISS %:          0   MPKI: 0
ITLB PREFETCH  REQUESTED:          0  ISSUED:          0  USEFUL:          0  USELESS:          0
ITLB USEFUL LOAD PREFETCHES:          0 PREFETCH ISSUED TO LOWER LEVEL:          0  ACCURACY: -nan
ITLB TIMELY PREFETCHES:          0 LATE PREFETCHES: 0 DROPPED PREFETCHES: 0
ITLB PREFETCHES SAME FILL-ORIGIN LEVEL: 0 DIFFERENT FILL-ORIGIN LEVEL: 0
ITLB AVERAGE MISS LATENCY: -nan cycles
ITLB RQ	ACCESS:   19137872	FORWARD:          0	MERGED:     346456	TO_CACHE:   18791416

DTLB TOTAL     ACCESS:   15356766  HIT:   15220653  MISS:     136113  HIT %:    99.1137  MISS %:   0.886339   MPKI: 1.36113
DTLB LOAD TRANSLATION ACCESS:   15356766  HIT:   15220653  MISS:     136113  HIT %:    99.1137  MISS %:   0.886339   MPKI: 1.36113
DTLB PREFETCH  REQUESTED:          0  ISSUED:          0  USEFUL:          0  USELESS:          0
DTLB USEFUL LOAD PREFETCHES:          0 PREFETCH ISSUED TO LOWER LEVEL:          0  ACCURACY: -nan
DTLB TIMELY PREFETCHES:          0 LATE PREFETCHES: 0 DROPPED PREFETCHES: 0
DTLB PREFETCHES SAME FILL-ORIGIN LEVEL: 0 DIFFERENT FILL-ORIGIN LEVEL: 0
DTLB AVERAGE MISS LATENCY: 69.3073 cycles
DTLB RQ	ACCESS:   18092585	FORWARD:          0	MERGED:    2735243	TO_CACHE:   15357342

STLB TOTAL     ACCESS:    6054534  HIT:    5923303  MISS:     131231  HIT %:    97.8325  MISS %:    2.16748   MPKI: 1.31231
STLB LOAD TRANSLATION ACCESS:     136113  HIT:       4886  MISS:     131227  HIT %:    3.58966  MISS %:    96.4103   MPKI: 1.31227
STLB TRANSLATION FROM L1D PREFETCHER ACCESS:    5918421  HIT:    5918417  MISS:          4  HIT %:    99.9999  MISS %: 6.75856e-05   MPKI: 4e-05
STLB PREFETCH  REQUESTED:          0  ISSUED:          0  USEFUL:          4  USELESS:          0
STLB USEFUL LOAD PREFETCHES:          4 PREFETCH ISSUED TO LOWER LEVEL:          0  ACCURACY: inf
STLB TIMELY PREFETCHES:          4 LATE PREFETCHES: 0 DROPPED PREFETCHES: 0
STLB PREFETCHES SAME FILL-ORIGIN LEVEL: 0 DIFFERENT FILL-ORIGIN LEVEL: 0
STLB AVERAGE MISS LATENCY: 62.5599 cycles
STLB RQ	ACCESS:    9966972	FORWARD:          0	MERGED:    3912439	TO_CACHE:    6054533

STLB Hit, L1D data hit: 0
STLB Hit, L2C data hit: 0
STLB Hit, LLC data hit: 0
STLB Hit, LLC data miss: 0
STLB STLB hints to L2: 0
L1D TOTAL     ACCESS:   27677235  HIT:   20083537  MISS:    7593698  HIT %:    72.5634  MISS %:    27.4366   MPKI: 75.937
L1D LOAD      ACCESS:   16694780  HIT:   16323759  MISS:     371021  HIT %:    97.7776  MISS %:    2.22238   MPKI: 3.71021
L1D RFO       ACCESS:    1324009  HIT:    1322916  MISS:       1093  HIT %:    99.9174  MISS %:  0.0825523   MPKI: 0.01093
L1D PREFETCH  ACCESS:    9658446  HIT:    2436862  MISS:    7221584  HIT %:    25.2304  MISS %:    74.7696   MPKI: 72.2158
L1D PREFETCH  REQUESTED:   19661800  ISSUED:   19661720  USEFUL:    6662767  USELESS:     558803
L1D USEFUL LOAD PREFETCHES:    6662767 PREFETCH ISSUED TO LOWER LEVEL:    7388013  ACCURACY: 90.1835
L1D TIMELY PREFETCHES:    6662767 LATE PREFETCHES: 165615 DROPPED PREFETCHES: 0
L1D PREFETCHES SAME FILL-ORIGIN LEVEL: 7388013 DIFFERENT FILL-ORIGIN LEVEL: 0
L1D AVERAGE MISS LATENCY: 3.1828e+06 cycles
L1D RQ	ACCESS:   35895038	FORWARD:          0	MERGED:   19123358	TO_CACHE:   16768562
L1D WQ	ACCESS:    1469578	FORWARD:       3118	MERGED:     145555	TO_CACHE:    1324023
L1D PQ	ACCESS:    9830860	FORWARD:          0	MERGED:          0	TO_CACHE:    9830860

L1D UNIQUE REGIONS ACCESSED: 0
L1D REGIONS CONFLICTS: 0
L1D Cross Page Prefetch Requests: 0
L1D Same Page Prefetch Requests: 14663882
L1D ROI Sum of L1D PQ occupancy: 129353474
L1D PREFETCHES PUSHED FROM L2C: 0
L1I TOTAL     ACCESS:   19137870  HIT:   19137845  MISS:         25  HIT %:    99.9999  MISS %: 0.000130631   MPKI: 0.00025
L1I LOAD      ACCESS:   19137870  HIT:   19137845  MISS:         25  HIT %:    99.9999  MISS %: 0.000130631   MPKI: 0.00025
L1I PREFETCH  REQUESTED:          0  ISSUED:          0  USEFUL:          0  USELESS:          0
L1I USEFUL LOAD PREFETCHES:          0 PREFETCH ISSUED TO LOWER LEVEL:          0  ACCURACY: -nan
L1I TIMELY PREFETCHES:          0 LATE PREFETCHES: 0 DROPPED PREFETCHES: 0
L1I PREFETCHES SAME FILL-ORIGIN LEVEL: 0 DIFFERENT FILL-ORIGIN LEVEL: 0
L1I AVERAGE MISS LATENCY: 214 cycles
L1I RQ	ACCESS:   28761451	FORWARD:          0	MERGED:    9623579	TO_CACHE:   19137872

BTB TOTAL     ACCESS:   23931406  HIT:   23930814  MISS:        592  HIT %:    99.9975  MISS %: 0.00247374   MPKI: 0.00592
BTB BRANCH_DIRECT_JUMP	ACCESS:     340935  HIT:     340899  MISS:         36
BTB BRANCH_INDIRECT	ACCESS:          0  HIT:          0  MISS:          0
BTB BRANCH_CONDITIONAL	ACCESS:   23252725  HIT:   23252648  MISS:         77
BTB BRANCH_DIRECT_CALL	ACCESS:     168873  HIT:     168857  MISS:         16
BTB BRANCH_INDIRECT_CALL	ACCESS:          0  HIT:          0  MISS:          0
BTB BRANCH_RETURN	ACCESS:     168873  HIT:     168410  MISS:        463
BTB BRANCH_OTHER ACCESS:          0  HIT:          0  MISS:          0

L2C TOTAL     ACCESS:    7739821  HIT:     445745  MISS:    7294076  HIT %:    5.75911  MISS %:    94.2409   MPKI: 72.9408
L2C LOAD      ACCESS:     205413  HIT:      39363  MISS:     166050  HIT %:    19.1629  MISS %:    80.8371   MPKI: 1.6605
L2C DATA LOAD MPKI: 1.66025
L2C INSTRUCTION LOAD MPKI: 0.00025
L2C RFO       ACCESS:        284  HIT:        170  MISS:        114  HIT %:    59.8592  MISS %:    40.1408   MPKI: 0.00114
L2C PREFETCH  ACCESS:    7388008  HIT:     290063  MISS:    7097945  HIT %:    3.92613  MISS %:    96.0739   MPKI: 70.9794
L2C DATA PREFETCH MPKI: 70.9794
L2C INSTRUCTION PREFETCH MPKI: 0
L2C WRITEBACK ACCESS:      12009  HIT:      11879  MISS:        130  HIT %:    98.9175  MISS %:    1.08252   MPKI: 0.0013
L2C LOAD TRANSLATION ACCESS:     134099  HIT:     104268  MISS:      29831  HIT %:    77.7545  MISS %:    22.2455   MPKI: 0.29831
L2C TRANSLATION FROM L1D PREFETCHER ACCESS:          8  HIT:          2  MISS:          6  HIT %:         25  MISS %:         75   MPKI: 6e-05
L2C PREFETCH  REQUESTED:          0  ISSUED:          0  USEFUL:       9812  USELESS:    7088123
L2C USEFUL LOAD PREFETCHES:       9812 PREFETCH ISSUED TO LOWER LEVEL:    7097949  ACCURACY: 0.138237
L2C TIMELY PREFETCHES:       9812 LATE PREFETCHES: 0 DROPPED PREFETCHES: 0
L2C PREFETCHES SAME FILL-ORIGIN LEVEL: 0 DIFFERENT FILL-ORIGIN LEVEL: 0
L2C AVERAGE MISS LATENCY: 108.703 cycles
L2C RQ	ACCESS:     339822	FORWARD:          0	MERGED:          0	TO_CACHE:     339804
L2C WQ	ACCESS:      12009	FORWARD:         18	MERGED:          0	TO_CACHE:      12009
L2C PQ	ACCESS:    7388013	FORWARD:          0	MERGED:          0	TO_CACHE:    7388013

L2C Instructions Evicting Data 25
L2C Translations Evicting Data 29728
L2C Data Evicting Data 7234338
L2C Instructions Evicting Instructions 0
L2C Translations Evicting Instructions 0
L2C Data Evicting Instructions 25
L2C Instructions Evicting Translations 0
L2C Translations Evicting Translations 109
L2C Data Evicting Translations 29721
L2C Dense regions hint from L2: 0
PSCL5 TOTAL     ACCESS:     131230  HIT:     131230  MISS:          0  HIT %:        100  MISS %:          0   MPKI: 0
PSCL5 LOAD TRANSLATION ACCESS:     131226  HIT:     131226  MISS:          0  HIT %:        100  MISS %:          0   MPKI: 0
PSCL5 TRANSLATION FROM L1D PREFETCHER ACCESS:          4  HIT:          4  MISS:          0  HIT %:        100  MISS %:          0   MPKI: 0
PSCL5 PREFETCH  REQUESTED:          0  ISSUED:          0  USEFUL:          0  USELESS:          0
PSCL5 USEFUL LOAD PREFETCHES:          0 PREFETCH ISSUED TO LOWER LEVEL:          0  ACCURACY: -nan
PSCL5 TIMELY PREFETCHES:          0 LATE PREFETCHES: 0 DROPPED PREFETCHES: 0
PSCL5 PREFETCHES SAME FILL-ORIGIN LEVEL: 0 DIFFERENT FILL-ORIGIN LEVEL: 0

PSCL4 TOTAL     ACCESS:     131230  HIT:     131230  MISS:          0  HIT %:        100  MISS %:          0   MPKI: 0
PSCL4 LOAD TRANSLATION ACCESS:     131226  HIT:     131226  MISS:          0  HIT %:        100  MISS %:          0   MPKI: 0
PSCL4 TRANSLATION FROM L1D PREFETCHER ACCESS:          4  HIT:          4  MISS:          0  HIT %:        100  MISS %:          0   MPKI: 0
PSCL4 PREFETCH  REQUESTED:          0  ISSUED:          0  USEFUL:          0  USELESS:          0
PSCL4 USEFUL LOAD PREFETCHES:          0 PREFETCH ISSUED TO LOWER LEVEL:          0  ACCURACY: -nan
PSCL4 TIMELY PREFETCHES:          0 LATE PREFETCHES: 0 DROPPED PREFETCHES: 0
PSCL4 PREFETCHES SAME FILL-ORIGIN LEVEL: 0 DIFFERENT FILL-ORIGIN LEVEL: 0

PSCL3 TOTAL     ACCESS:     131226  HIT:     131214  MISS:         12  HIT %:    99.9909  MISS %: 0.00914453   MPKI: 0.00012
PSCL3 LOAD TRANSLATION ACCESS:     131224  HIT:     131212  MISS:         12  HIT %:    99.9909  MISS %: 0.00914467   MPKI: 0.00012
PSCL3 TRANSLATION FROM L1D PREFETCHER ACCESS:          2  HIT:          2  MISS:          0  HIT %:        100  MISS %:          0   MPKI: 0
PSCL3 PREFETCH  REQUESTED:          0  ISSUED:          0  USEFUL:          0  USELESS:          0
PSCL3 USEFUL LOAD PREFETCHES:          0 PREFETCH ISSUED TO LOWER LEVEL:          0  ACCURACY: -nan
PSCL3 TIMELY PREFETCHES:          0 LATE PREFETCHES: 0 DROPPED PREFETCHES: 0
PSCL3 PREFETCHES SAME FILL-ORIGIN LEVEL: 0 DIFFERENT FILL-ORIGIN LEVEL: 0

PSCL2 TOTAL     ACCESS:     131230  HIT:     128360  MISS:       2870  HIT %:     97.813  MISS %:      2.187   MPKI: 0.0287
PSCL2 LOAD TRANSLATION ACCESS:     131228  HIT:     128358  MISS:       2870  HIT %:     97.813  MISS %:    2.18703   MPKI: 0.0287
PSCL2 TRANSLATION FROM L1D PREFETCHER ACCESS:          2  HIT:          2  MISS:          0  HIT %:        100  MISS %:          0   MPKI: 0
PSCL2 PREFETCH  REQUESTED:          0  ISSUED:          0  USEFUL:          0  USELESS:          0
PSCL2 USEFUL LOAD PREFETCHES:          0 PREFETCH ISSUED TO LOWER LEVEL:          0  ACCURACY: -nan
PSCL2 TIMELY PREFETCHES:          0 LATE PREFETCHES: 0 DROPPED PREFETCHES: 0
PSCL2 PREFETCHES SAME FILL-ORIGIN LEVEL: 0 DIFFERENT FILL-ORIGIN LEVEL: 0

LLC TOTAL     ACCESS:    7305261  HIT:      30979  MISS:    7274282  HIT %:   0.424064  MISS %:    99.5759   MPKI: 72.7428
LLC LOAD      ACCESS:     166050  HIT:       1269  MISS:     164781  HIT %:   0.764228  MISS %:    99.2358   MPKI: 1.64781
LLC RFO       ACCESS:        114  HIT:          0  MISS:        114  HIT %:          0  MISS %:        100   MPKI: 0.00114
LLC PREFETCH  ACCESS:    7097945  HIT:      17910  MISS:    7080035  HIT %:   0.252327  MISS %:    99.7477   MPKI: 70.8003
LLC WRITEBACK ACCESS:      11315  HIT:      10694  MISS:        621  HIT %:    94.5117  MISS %:    5.48829   MPKI: 0.00621
LLC LOAD TRANSLATION ACCESS:      29831  HIT:       1106  MISS:      28725  HIT %:    3.70755  MISS %:    96.2924   MPKI: 0.28725
LLC TRANSLATION FROM L1D PREFETCHER ACCESS:          6  HIT:          0  MISS:          6  HIT %:          0  MISS %:        100   MPKI: 6e-05
LLC PREFETCH  REQUESTED:          0  ISSUED:          0  USEFUL:        187  USELESS:    7079791
LLC USEFUL LOAD PREFETCHES:        187 PREFETCH ISSUED TO LOWER LEVEL:    7080039  ACCURACY: 0.00264123
LLC TIMELY PREFETCHES:        187 LATE PREFETCHES: 0 DROPPED PREFETCHES: 0
LLC PREFETCHES SAME FILL-ORIGIN LEVEL: 0 DIFFERENT FILL-ORIGIN LEVEL: 0
LLC AVERAGE MISS LATENCY: 78.917 cycles
LLC RQ	ACCESS:     196001	FORWARD:          0	MERGED:          0	TO_CACHE:     196001
LLC WQ	ACCESS:      11315	FORWARD:          0	MERGED:          0	TO_CACHE:      11315
LLC PQ	ACCESS:    7097949	FORWARD:          0	MERGED:          0	TO_CACHE:    7097949

LLC Dense regions hint to LLC: 0

RAW hits: 8278
Loads Generated: 35903318
Loads sent to L1D: 35895038
Stores Generated: 1469578
Stores sent to L1D: 1469578
Major fault: 0 Minor fault: 48987
Allocated PAGES: 48987

stream: 
stream:times selected: 20920113
stream:pref_filled: 8769343
stream:pref_useful: 8149856
stream:pref_late: 130967
stream:misses: 12952
stream:misses_by_poll: 0

CS: 
CS:times selected: 15196480
CS:pref_filled: 84573
CS:pref_useful: 82247
CS:pref_late: 18598
CS:misses: 466237
CS:misses_by_poll: 867

CPLX: 
CPLX:times selected: 5717298
CPLX:pref_filled: 2044303
CPLX:pref_useful: 1821692
CPLX:pref_late: 23184
CPLX:misses: 78240
CPLX:misses_by_poll: 19577

NL_L1: 
NL:times selected: 2820
NL:pref_filled: 468
NL:pref_useful: 444
NL:pref_late: 49
NL:misses: 81
NL:misses_by_poll: 0

total selections: 41836711
total_filled: 7221584
total_useful: 6662767
total_late: 178273
total_polluted: 20444
total_misses_after_warmup: 444804
conflicts: 59489
Degree Incremented Times: 292111
Degree Decremented Times: 0

L1 IP Table Write Accesses: 16389979
L1 IP Table Read Accesses: 16330490
L1 RST Write Accesses: 11256418
L1 RST Read Accesses: 22512836
L1 CSPT Write Accesses: 11256418
L1 CSPT Read Accesses: 23485990
L1 RR Filter Tag Write Accesses: 9830940
L1 RR Filter Tag Read Accesses: 2552603475
L1 IP Table Tag Write Accesses: 16768563
L1 IP Table Tag Read Accesses: 16768563
L1 RST Tag Write Accesses: 0
L1 RST Tag Read Accesses: 102193575
L1 RR Filter Write Accesses: 0
L1 RR Filter Read Accesses: 92261829
test: 2384132

DRAM Statistics
 CHANNEL 0
 RQ ROW_BUFFER_HIT:    6716524  ROW_BUFFER_MISS:     557139
 DBUS_CONGESTED:       2094
 WQ ROW_BUFFER_HIT:       2522  ROW_BUFFER_MISS:       8779  FULL:          0

 AVG_CONGESTED_CYCLE: 4
 All warmup complete: 2
Channel 0 Bank busy for read cycles: 0
Channel 0 Bank busy for write cycles: 0
Channel 0
Rank 0
0banks busy for read cycles: 62758236
0banks busy for write cycles: 7341
1banks busy for read cycles: 52123978
1banks busy for write cycles: 2622300
2banks busy for read cycles: 76625595
2banks busy for write cycles: 755143
3banks busy for read cycles: 37980268
3banks busy for write cycles: 256572
4banks busy for read cycles: 8155775
4banks busy for write cycles: 93634
5banks busy for read cycles: 2323706
5banks busy for write cycles: 24182
6banks busy for read cycles: 2532230
6banks busy for write cycles: 8560
7banks busy for read cycles: 5241897
7banks busy for write cycles: 1770
8banks busy for read cycles: 495851
8banks busy for write cycles: 0

CPU 0 Branch Prediction Accuracy: 99.7034% MPKI: 1.05722 Average ROB Occupancy at Mispredict: 252.753
Branch types
NOT_BRANCH: 64349938 64.3499%
BRANCH_DIRECT_JUMP: 340935 0.340935%
BRANCH_INDIRECT: 0 0%
BRANCH_CONDITIONAL: 34971407 34.9714%
BRANCH_DIRECT_CALL: 168873 0.168873%
BRANCH_INDIRECT_CALL: 0 0%
BRANCH_RETURN: 168873 0.168873%
BRANCH_OTHER: 0 0%

DRAM PAGES: 1048576
Allocated PAGES: 48987
