
*** ChampSim Multicore Out-of-Order Simulator ***

Warmup Instructions: 50000000
Simulation Instructions: 100000000
Number of CPUs: 1
LLC sets: 2048
LLC ways: 16
Off-chip DRAM Size: 4096 MB Channels: 1 Width: 64-bit Data Rate: 6400 MT/s
CPU 0 runs ../SPEC2017//603.bwaves_s-2609B.champsimtrace.xz
.xz
NUM_OF_IPS_IN_CRITICAL_IP_TRAINING: 64
NUM_OF_CRITICAL_IP_TRAINING_TABLE_WAYS: 2
NUM_OF_CRITICAL_IP_TRAINING_TABLE_SETS: 32
WOBBLY_CRITICAL_IP_CACHE_SETS: 32
WOBBLY_CRITICAL_IP_CACHE_WAYS: 4
BTB has LRU replacement policy
ITLB has LRU replacement policy
DTLB has LRU replacement policy
STLB has LRU replacement policy
L1I has LRU replacement policy
L1D has LRU replacement policy
Bingo PHT WAYS: 16 and PHT_SIZE: 16384
Initialize SRRIP state for L2C
Initialize DRRIP state for LLC
Heartbeat CPU 0 instructions: 10000001 cycles: 3316983 heartbeat IPC: 3.01479 cumulative IPC: 3.01479 (Simulation time: 0 hr 5 min 15 sec) 
Heartbeat CPU 0 instructions: 20000003 cycles: 6634005 heartbeat IPC: 3.01475 cumulative IPC: 3.01477 (Simulation time: 0 hr 10 min 11 sec) 
Heartbeat CPU 0 instructions: 30000001 cycles: 9951370 heartbeat IPC: 3.01444 cumulative IPC: 3.01466 (Simulation time: 0 hr 14 min 35 sec) 
Heartbeat CPU 0 instructions: 40000002 cycles: 13268271 heartbeat IPC: 3.01486 cumulative IPC: 3.01471 (Simulation time: 0 hr 18 min 27 sec) 
Heartbeat CPU 0 instructions: 50000003 cycles: 16584917 heartbeat IPC: 3.01509 cumulative IPC: 3.01479 (Simulation time: 0 hr 22 min 2 sec) 

Warmup complete CPU 0 instructions: 50000003 cycles: 16584917 (Simulation time: 0 hr 22 min 2 sec) 

Heartbeat CPU 0 instructions: 60000000 cycles: 26727592 heartbeat IPC: 0.985933 cumulative IPC: 0.985933 (Simulation time: 0 hr 25 min 46 sec) 
Heartbeat CPU 0 instructions: 70000001 cycles: 36736590 heartbeat IPC: 0.999101 cumulative IPC: 0.992473 (Simulation time: 0 hr 29 min 16 sec) 
Heartbeat CPU 0 instructions: 80000003 cycles: 46753362 heartbeat IPC: 0.998326 cumulative IPC: 0.994417 (Simulation time: 0 hr 32 min 38 sec) 
Heartbeat CPU 0 instructions: 90000003 cycles: 56761545 heartbeat IPC: 0.999182 cumulative IPC: 0.995604 (Simulation time: 0 hr 35 min 56 sec) 
Heartbeat CPU 0 instructions: 100000001 cycles: 66780303 heartbeat IPC: 0.998128 cumulative IPC: 0.996107 (Simulation time: 0 hr 38 min 54 sec) 
Heartbeat CPU 0 instructions: 110000000 cycles: 76785488 heartbeat IPC: 0.999482 cumulative IPC: 0.996668 (Simulation time: 0 hr 41 min 43 sec) 
Heartbeat CPU 0 instructions: 120000000 cycles: 86790326 heartbeat IPC: 0.999516 cumulative IPC: 0.997074 (Simulation time: 0 hr 44 min 10 sec) 
Heartbeat CPU 0 instructions: 130000002 cycles: 96798475 heartbeat IPC: 0.999186 cumulative IPC: 0.997338 (Simulation time: 0 hr 46 min 31 sec) 
Heartbeat CPU 0 instructions: 140000000 cycles: 106805306 heartbeat IPC: 0.999317 cumulative IPC: 0.997557 (Simulation time: 0 hr 48 min 45 sec) 
Heartbeat CPU 0 instructions: 150000001 cycles: 116814453 heartbeat IPC: 0.999086 cumulative IPC: 0.99771 (Simulation time: 0 hr 50 min 51 sec) 
Finished CPU 0 instructions: 100000002 cycles: 100229537 cumulative IPC: 0.99771 (Simulation time: 0 hr 50 min 51 sec) 

ChampSim completed all CPUs

Region of Interest Statistics

CPU 0 cumulative IPC: 0.99771 instructions: 100000002 cycles: 100229537

CPU 0 Average Load ROB stall cycles: 3.39409e+07
CPU 0 Fraction of times ROB stalled by Loads: 50.7709
CPU 0 Percentage of Load stall cycles in Total stall cycles: 6.07371e+08
Issued all: 54575572
Issued LT all: 41314267
rob_not_full_when_issued_lt_all: 35109864
Issued LT one: 35918587
rob_not_full_when_issued_lt_one: 30143988
 Total stall cycles: 76425659
 Total load stall cycles: 464187300881297
CPU 0 NUM of IPS identified critical: 0
CPU 0 Num of Load IPs stalling ROB: 88
Threshold modification factor: 0
Max PIST entries: 49
Min PIST entries: 0
Avg PIST entries: 22.8533
Trouble in retire width: 0.833829
MaC = Marked as critical.
lt_50_percent_before_Mac: 0
gt_90_percent_before_Mac: 0
gt_75_percent_before_Mac: 0
gt_50_percent_before_Mac: 0
stall_proportion_bin_same_before_after: 0
stall_proportion_bin_lower_before_after: 0
stall_proportion_bin_upper_before_after: 0
average_stall_proportion_before: -nan
average_stall_proportion_after: -nan
Critical IP stalls, total frequency: 0
Non-critical IP stalls, total frequency: 6943614
Total Freq all stalling IPs: 6943614
stat_90_percent_critical_ip_stalls_freq: 6264053
stat_90_percent_non_critical_ip_stalls_freq: 679561
Critical_IP_ROB_Stalls_Bucket_0: 0
Non-critical_IP_ROB_Stalls_Bucket_0: 5059395
Critical_IP_ROB_Stalls_Bucket_1: 0
Non-critical_IP_ROB_Stalls_Bucket_1: 1232764
Critical_IP_ROB_Stalls_Bucket_2: 0
Non-critical_IP_ROB_Stalls_Bucket_2: 103941
Critical_IP_ROB_Stalls_Bucket_3: 0
Non-critical_IP_ROB_Stalls_Bucket_3: 119417
Critical_IP_ROB_Stalls_Bucket_4: 0
Non-critical_IP_ROB_Stalls_Bucket_4: 99312
Critical_IP_ROB_Stalls_Bucket_5: 0
Non-critical_IP_ROB_Stalls_Bucket_5: 92889
Critical_IP_ROB_Stalls_Bucket_6: 0
Non-critical_IP_ROB_Stalls_Bucket_6: 235896
0 => IPs accounting for >50 percent of stalls, 1 => 55, 2 => 60, 3 => 65 and so on till 90.
percent50: 54.1049 num IPs:  3
percent55: 66.1923 num IPs: 4
percent60: 66.1923 num IPs: 4
percent65: 66.1923 num IPs: 4
percent70: 73.6441 num IPs: 5
percent75: 77.885 num IPs: 6
percent80: 80.104 num IPs: 7
percent85: 85.6677 num IPs: 10
percent90: 90.2132 num IPs: 14
Critical_ROB_Stalls_Percent_0_Bucket_0: 3025403
Non-critical_ROB_Stalls_Percent_0_Bucket_0: 2033992
Critical_ROB_Stalls_Percent_0_Bucket_1: 565180
Non-critical_ROB_Stalls_Percent_0_Bucket_1: 667584
Critical_ROB_Stalls_Percent_0_Bucket_2: 34960
Non-critical_ROB_Stalls_Percent_0_Bucket_2: 68981
Critical_ROB_Stalls_Percent_0_Bucket_3: 35534
Non-critical_ROB_Stalls_Percent_0_Bucket_3: 83883
Critical_ROB_Stalls_Percent_0_Bucket_4: 30388
Non-critical_ROB_Stalls_Percent_0_Bucket_4: 68924
Critical_ROB_Stalls_Percent_0_Bucket_5: 23734
Non-critical_ROB_Stalls_Percent_0_Bucket_5: 69155
Critical_ROB_Stalls_Percent_0_Bucket_6: 41634
Non-critical_ROB_Stalls_Percent_0_Bucket_6: 194262
Critical_ROB_Stalls_Percent_1_Bucket_0: 3547926
Non-critical_ROB_Stalls_Percent_1_Bucket_0: 1511469
Critical_ROB_Stalls_Percent_1_Bucket_1: 840765
Non-critical_ROB_Stalls_Percent_1_Bucket_1: 391999
Critical_ROB_Stalls_Percent_1_Bucket_2: 43605
Non-critical_ROB_Stalls_Percent_1_Bucket_2: 60336
Critical_ROB_Stalls_Percent_1_Bucket_3: 44506
Non-critical_ROB_Stalls_Percent_1_Bucket_3: 74911
Critical_ROB_Stalls_Percent_1_Bucket_4: 36811
Non-critical_ROB_Stalls_Percent_1_Bucket_4: 62501
Critical_ROB_Stalls_Percent_1_Bucket_5: 28247
Non-critical_ROB_Stalls_Percent_1_Bucket_5: 64642
Critical_ROB_Stalls_Percent_1_Bucket_6: 54281
Non-critical_ROB_Stalls_Percent_1_Bucket_6: 181615
Critical_ROB_Stalls_Percent_2_Bucket_0: 3547926
Non-critical_ROB_Stalls_Percent_2_Bucket_0: 1511469
Critical_ROB_Stalls_Percent_2_Bucket_1: 840765
Non-critical_ROB_Stalls_Percent_2_Bucket_1: 391999
Critical_ROB_Stalls_Percent_2_Bucket_2: 43605
Non-critical_ROB_Stalls_Percent_2_Bucket_2: 60336
Critical_ROB_Stalls_Percent_2_Bucket_3: 44506
Non-critical_ROB_Stalls_Percent_2_Bucket_3: 74911
Critical_ROB_Stalls_Percent_2_Bucket_4: 36811
Non-critical_ROB_Stalls_Percent_2_Bucket_4: 62501
Critical_ROB_Stalls_Percent_2_Bucket_5: 28247
Non-critical_ROB_Stalls_Percent_2_Bucket_5: 64642
Critical_ROB_Stalls_Percent_2_Bucket_6: 54281
Non-critical_ROB_Stalls_Percent_2_Bucket_6: 181615
Critical_ROB_Stalls_Percent_3_Bucket_0: 3547926
Non-critical_ROB_Stalls_Percent_3_Bucket_0: 1511469
Critical_ROB_Stalls_Percent_3_Bucket_1: 840765
Non-critical_ROB_Stalls_Percent_3_Bucket_1: 391999
Critical_ROB_Stalls_Percent_3_Bucket_2: 43605
Non-critical_ROB_Stalls_Percent_3_Bucket_2: 60336
Critical_ROB_Stalls_Percent_3_Bucket_3: 44506
Non-critical_ROB_Stalls_Percent_3_Bucket_3: 74911
Critical_ROB_Stalls_Percent_3_Bucket_4: 36811
Non-critical_ROB_Stalls_Percent_3_Bucket_4: 62501
Critical_ROB_Stalls_Percent_3_Bucket_5: 28247
Non-critical_ROB_Stalls_Percent_3_Bucket_5: 64642
Critical_ROB_Stalls_Percent_3_Bucket_6: 54281
Non-critical_ROB_Stalls_Percent_3_Bucket_6: 181615
Critical_ROB_Stalls_Percent_4_Bucket_0: 3909906
Non-critical_ROB_Stalls_Percent_4_Bucket_0: 1149489
Critical_ROB_Stalls_Percent_4_Bucket_1: 953287
Non-critical_ROB_Stalls_Percent_4_Bucket_1: 279477
Critical_ROB_Stalls_Percent_4_Bucket_2: 52323
Non-critical_ROB_Stalls_Percent_4_Bucket_2: 51618
Critical_ROB_Stalls_Percent_4_Bucket_3: 52110
Non-critical_ROB_Stalls_Percent_4_Bucket_3: 67307
Critical_ROB_Stalls_Percent_4_Bucket_4: 43570
Non-critical_ROB_Stalls_Percent_4_Bucket_4: 55742
Critical_ROB_Stalls_Percent_4_Bucket_5: 35339
Non-critical_ROB_Stalls_Percent_4_Bucket_5: 57550
Critical_ROB_Stalls_Percent_4_Bucket_6: 67026
Non-critical_ROB_Stalls_Percent_4_Bucket_6: 168870
Critical_ROB_Stalls_Percent_5_Bucket_0: 4128543
Non-critical_ROB_Stalls_Percent_5_Bucket_0: 930852
Critical_ROB_Stalls_Percent_5_Bucket_1: 994891
Non-critical_ROB_Stalls_Percent_5_Bucket_1: 237873
Critical_ROB_Stalls_Percent_5_Bucket_2: 59389
Non-critical_ROB_Stalls_Percent_5_Bucket_2: 44552
Critical_ROB_Stalls_Percent_5_Bucket_3: 60638
Non-critical_ROB_Stalls_Percent_5_Bucket_3: 58779
Critical_ROB_Stalls_Percent_5_Bucket_4: 48365
Non-critical_ROB_Stalls_Percent_5_Bucket_4: 50947
Critical_ROB_Stalls_Percent_5_Bucket_5: 40767
Non-critical_ROB_Stalls_Percent_5_Bucket_5: 52122
Critical_ROB_Stalls_Percent_5_Bucket_6: 75442
Non-critical_ROB_Stalls_Percent_5_Bucket_6: 160454
Critical_ROB_Stalls_Percent_6_Bucket_0: 4136914
Non-critical_ROB_Stalls_Percent_6_Bucket_0: 922481
Critical_ROB_Stalls_Percent_6_Bucket_1: 1031423
Non-critical_ROB_Stalls_Percent_6_Bucket_1: 201341
Critical_ROB_Stalls_Percent_6_Bucket_2: 72424
Non-critical_ROB_Stalls_Percent_6_Bucket_2: 31517
Critical_ROB_Stalls_Percent_6_Bucket_3: 79337
Non-critical_ROB_Stalls_Percent_6_Bucket_3: 40080
Critical_ROB_Stalls_Percent_6_Bucket_4: 66890
Non-critical_ROB_Stalls_Percent_6_Bucket_4: 32422
Critical_ROB_Stalls_Percent_6_Bucket_5: 56042
Non-critical_ROB_Stalls_Percent_6_Bucket_5: 36847
Critical_ROB_Stalls_Percent_6_Bucket_6: 119080
Non-critical_ROB_Stalls_Percent_6_Bucket_6: 116816
Critical_ROB_Stalls_Percent_7_Bucket_0: 4522112
Non-critical_ROB_Stalls_Percent_7_Bucket_0: 537283
Critical_ROB_Stalls_Percent_7_Bucket_1: 1031649
Non-critical_ROB_Stalls_Percent_7_Bucket_1: 201115
Critical_ROB_Stalls_Percent_7_Bucket_2: 72580
Non-critical_ROB_Stalls_Percent_7_Bucket_2: 31361
Critical_ROB_Stalls_Percent_7_Bucket_3: 79589
Non-critical_ROB_Stalls_Percent_7_Bucket_3: 39828
Critical_ROB_Stalls_Percent_7_Bucket_4: 67058
Non-critical_ROB_Stalls_Percent_7_Bucket_4: 32254
Critical_ROB_Stalls_Percent_7_Bucket_5: 56167
Non-critical_ROB_Stalls_Percent_7_Bucket_5: 36722
Critical_ROB_Stalls_Percent_7_Bucket_6: 119280
Non-critical_ROB_Stalls_Percent_7_Bucket_6: 116616
Critical_ROB_Stalls_Percent_8_Bucket_0: 4651049
Non-critical_ROB_Stalls_Percent_8_Bucket_0: 408346
Critical_ROB_Stalls_Percent_8_Bucket_1: 1135804
Non-critical_ROB_Stalls_Percent_8_Bucket_1: 96960
Critical_ROB_Stalls_Percent_8_Bucket_2: 85422
Non-critical_ROB_Stalls_Percent_8_Bucket_2: 18519
Critical_ROB_Stalls_Percent_8_Bucket_3: 93515
Non-critical_ROB_Stalls_Percent_8_Bucket_3: 25902
Critical_ROB_Stalls_Percent_8_Bucket_4: 79918
Non-critical_ROB_Stalls_Percent_8_Bucket_4: 19394
Critical_ROB_Stalls_Percent_8_Bucket_5: 68711
Non-critical_ROB_Stalls_Percent_8_Bucket_5: 24178
Critical_ROB_Stalls_Percent_8_Bucket_6: 149634
Non-critical_ROB_Stalls_Percent_8_Bucket_6: 86262
Average ROB occupancy Load Stall Begin: 52.4752
Average ROB occupancy Load Stall End: 61.5391
Min ROB occupancy Load Stall Begin: 2
Max ROB occupancy Load Stall Begin: 352
Min ROB occupancy Load Stall End: 2
Max ROB occupancy Load Stall End: 352
Average ROB occupancy Critical Load Stall Begin: -nan
Average ROB occupancy Critical Load Stall End: -nan
Min ROB occupancy Critical Load Stall Begin: 400
Max ROB occupancy Critical Load Stall Begin: 0
Min ROB occupancy Critical Load Stall End: 400
Max ROB occupancy Critical Load Stall End: 0
 ROB Load Stall Begin Bucket Count 0: 5670083
 ROB Load Stall End Bucket Count 0: 5059395
 ROB Critical Load Stall Begin Bucket Count 0: 0
 ROB Critical Load Stall End Bucket Count 0: 0
 ROB Load Stall Begin Bucket Count 1: 684713
 ROB Load Stall End Bucket Count 1: 1232764
 ROB Critical Load Stall Begin Bucket Count 1: 0
 ROB Critical Load Stall End Bucket Count 1: 0
 ROB Load Stall Begin Bucket Count 2: 99196
 ROB Load Stall End Bucket Count 2: 103941
 ROB Critical Load Stall Begin Bucket Count 2: 0
 ROB Critical Load Stall End Bucket Count 2: 0
 ROB Load Stall Begin Bucket Count 3: 119976
 ROB Load Stall End Bucket Count 3: 119417
 ROB Critical Load Stall Begin Bucket Count 3: 0
 ROB Critical Load Stall End Bucket Count 3: 0
 ROB Load Stall Begin Bucket Count 4: 88584
 ROB Load Stall End Bucket Count 4: 99312
 ROB Critical Load Stall Begin Bucket Count 4: 0
 ROB Critical Load Stall End Bucket Count 4: 0
 ROB Load Stall Begin Bucket Count 5: 97197
 ROB Load Stall End Bucket Count 5: 92889
 ROB Critical Load Stall Begin Bucket Count 5: 0
 ROB Critical Load Stall End Bucket Count 5: 0
 ROB Load Stall Begin Bucket Count 6: 183865
 ROB Load Stall End Bucket Count 6: 235896
 ROB Critical Load Stall Begin Bucket Count 6: 0
 ROB Critical Load Stall End Bucket Count 6: 0
PIST Tag Read Accesses: 122872
PIST Read Accesses: 61436
PIST Tag Write Accesses: 122872
PIST Write Accesses: 61436
Criticality detector called times: 864183
Max global_stall_cycles_count: 517050
Threshold Modified: 0 times, factor: 0
Sturdy critical IP cache stats: 
 Unused entries: 0
CIC Tag Read Accesses: 0
CIC Read Accesses: 0
CIC Tag Write Accesses: 0
CIC Write Accesses: 0
Wobbly critical IP cache stats: 
 Unused entries: 111
CIC Tag Read Accesses: 350497373
CIC Read Accesses: 0
CIC Tag Write Accesses: 317509
CIC Write Accesses: 0
ITLB TOTAL     ACCESS:   12753062  HIT:   12753062  MISS:          0  HIT %:        100  MISS %:          0   MPKI: 0
ITLB LOAD TRANSLATION ACCESS:   12753062  HIT:   12753062  MISS:          0  HIT %:        100  MISS %:          0   MPKI: 0
ITLB PREFETCH  REQUESTED:          0  ISSUED:          0  USEFUL:          0  USELESS:          0
ITLB USEFUL LOAD PREFETCHES:          0 PREFETCH ISSUED TO LOWER LEVEL:          0  ACCURACY: -nan
ITLB TIMELY PREFETCHES:          0 LATE PREFETCHES: 0 DROPPED PREFETCHES: 0
ITLB PREFETCHES SAME FILL-ORIGIN LEVEL: 0 DIFFERENT FILL-ORIGIN LEVEL: 0
ITLB AVERAGE MISS LATENCY: -nan cycles
ITLB RQ	ACCESS:   17264415	FORWARD:          0	MERGED:    4511353	TO_CACHE:   12753062

DTLB TOTAL     ACCESS:   32084265  HIT:   32014910  MISS:      69355  HIT %:    99.7838  MISS %:   0.216165   MPKI: 0.69355
DTLB LOAD TRANSLATION ACCESS:   32084265  HIT:   32014910  MISS:      69355  HIT %:    99.7838  MISS %:   0.216165   MPKI: 0.69355
DTLB PREFETCH  REQUESTED:          0  ISSUED:          0  USEFUL:          0  USELESS:          0
DTLB USEFUL LOAD PREFETCHES:          0 PREFETCH ISSUED TO LOWER LEVEL:          0  ACCURACY: -nan
DTLB TIMELY PREFETCHES:          0 LATE PREFETCHES: 0 DROPPED PREFETCHES: 0
DTLB PREFETCHES SAME FILL-ORIGIN LEVEL: 0 DIFFERENT FILL-ORIGIN LEVEL: 0
DTLB AVERAGE MISS LATENCY: 221.432 cycles
DTLB RQ	ACCESS:   38025257	FORWARD:          0	MERGED:    5929622	TO_CACHE:   32095635

STLB TOTAL     ACCESS:      69355  HIT:      39661  MISS:      29694  HIT %:    57.1855  MISS %:    42.8145   MPKI: 0.29694
STLB LOAD TRANSLATION ACCESS:      69355  HIT:      39661  MISS:      29694  HIT %:    57.1855  MISS %:    42.8145   MPKI: 0.29694
STLB PREFETCH  REQUESTED:          0  ISSUED:          0  USEFUL:          0  USELESS:          0
STLB USEFUL LOAD PREFETCHES:          0 PREFETCH ISSUED TO LOWER LEVEL:          0  ACCURACY: -nan
STLB TIMELY PREFETCHES:          0 LATE PREFETCHES: 0 DROPPED PREFETCHES: 0
STLB PREFETCHES SAME FILL-ORIGIN LEVEL: 0 DIFFERENT FILL-ORIGIN LEVEL: 0
STLB AVERAGE MISS LATENCY: 469.873 cycles
STLB RQ	ACCESS:      69355	FORWARD:          0	MERGED:          0	TO_CACHE:      69355

STLB Hit, L1D data hit: 0
STLB Hit, L2C data hit: 0
STLB Hit, LLC data hit: 0
STLB Hit, LLC data miss: 0
STLB STLB hints to L2: 0
L1D TOTAL     ACCESS:   37904023  HIT:   35904828  MISS:    1999195  HIT %:    94.7256  MISS %:    5.27436   MPKI: 19.9919
L1D LOAD      ACCESS:   32297591  HIT:   30347120  MISS:    1950471  HIT %:    93.9609  MISS %:    6.03906   MPKI: 19.5047
L1D RFO       ACCESS:    5606432  HIT:    5557708  MISS:      48724  HIT %:    99.1309  MISS %:   0.869073   MPKI: 0.48724
L1D PREFETCH  REQUESTED:          0  ISSUED:          0  USEFUL:          0  USELESS:          0
L1D USEFUL LOAD PREFETCHES:          0 PREFETCH ISSUED TO LOWER LEVEL:          0  ACCURACY: -nan
L1D TIMELY PREFETCHES:          0 LATE PREFETCHES: 0 DROPPED PREFETCHES: 0
L1D PREFETCHES SAME FILL-ORIGIN LEVEL: 0 DIFFERENT FILL-ORIGIN LEVEL: 0
L1D AVERAGE MISS LATENCY: 48.4943 cycles
L1D RQ	ACCESS:   42580890	FORWARD:          0	MERGED:    9979475	TO_CACHE:   32391907
L1D WQ	ACCESS:    5633425	FORWARD:     209508	MERGED:         75	TO_CACHE:    5633350

L1D UNIQUE REGIONS ACCESSED: 0
L1D REGIONS CONFLICTS: 0
L1D Cross Page Prefetch Requests: 0
L1D Same Page Prefetch Requests: 0
L1D ROI Sum of L1D PQ occupancy: 0
L1D PREFETCHES PUSHED FROM L2C: 0
L1I TOTAL     ACCESS:   17264414  HIT:   17264414  MISS:          0  HIT %:        100  MISS %:          0   MPKI: 0
L1I LOAD      ACCESS:   17264414  HIT:   17264414  MISS:          0  HIT %:        100  MISS %:          0   MPKI: 0
L1I PREFETCH  REQUESTED:          0  ISSUED:          0  USEFUL:          0  USELESS:          0
L1I USEFUL LOAD PREFETCHES:          0 PREFETCH ISSUED TO LOWER LEVEL:          0  ACCURACY: -nan
L1I TIMELY PREFETCHES:          0 LATE PREFETCHES: 0 DROPPED PREFETCHES: 0
L1I PREFETCHES SAME FILL-ORIGIN LEVEL: 0 DIFFERENT FILL-ORIGIN LEVEL: 0
L1I AVERAGE MISS LATENCY: -nan cycles
L1I RQ	ACCESS:   23023985	FORWARD:          0	MERGED:    5759570	TO_CACHE:   17264415

BTB TOTAL     ACCESS:    2417447  HIT:    2417442  MISS:          5  HIT %:    99.9998  MISS %: 0.00020683   MPKI: 5e-05
BTB BRANCH_DIRECT_JUMP	ACCESS:          0  HIT:          0  MISS:          0
BTB BRANCH_INDIRECT	ACCESS:          0  HIT:          0  MISS:          0
BTB BRANCH_CONDITIONAL	ACCESS:    2417447  HIT:    2417442  MISS:          5
BTB BRANCH_DIRECT_CALL	ACCESS:          0  HIT:          0  MISS:          0
BTB BRANCH_INDIRECT_CALL	ACCESS:          0  HIT:          0  MISS:          0
BTB BRANCH_RETURN	ACCESS:          0  HIT:          0  MISS:          0
BTB BRANCH_OTHER ACCESS:          0  HIT:          0  MISS:          0

L2C TOTAL     ACCESS:    3771187  HIT:    1850905  MISS:    1920282  HIT %:    49.0802  MISS %:    50.9198   MPKI: 19.2028
L2C LOAD      ACCESS:    1950471  HIT:    1713991  MISS:     236480  HIT %:    87.8757  MISS %:    12.1243   MPKI: 2.3648
L2C DATA LOAD MPKI: 2.3648
L2C INSTRUCTION LOAD MPKI: 0
L2C RFO       ACCESS:      48724  HIT:          0  MISS:      48724  HIT %:          0  MISS %:        100   MPKI: 0.48724
L2C PREFETCH  ACCESS:    1692835  HIT:      65542  MISS:    1627293  HIT %:    3.87173  MISS %:    96.1283   MPKI: 16.2729
L2C DATA PREFETCH MPKI: 16.2729
L2C INSTRUCTION PREFETCH MPKI: 0
L2C WRITEBACK ACCESS:      49460  HIT:      45815  MISS:       3645  HIT %:    92.6304  MISS %:    7.36959   MPKI: 0.03645
L2C LOAD TRANSLATION ACCESS:      29697  HIT:      25557  MISS:       4140  HIT %:    86.0592  MISS %:    13.9408   MPKI: 0.0414
L2C PREFETCH  REQUESTED:    1735327  ISSUED:    1735327  USEFUL:    1615620  USELESS:      11568
L2C USEFUL LOAD PREFETCHES:    1615620 PREFETCH ISSUED TO LOWER LEVEL:    1658405  ACCURACY: 97.4201
L2C TIMELY PREFETCHES:    1615620 LATE PREFETCHES: 31112 DROPPED PREFETCHES: 0
L2C PREFETCHES SAME FILL-ORIGIN LEVEL: 1658405 DIFFERENT FILL-ORIGIN LEVEL: 0
L2C AVERAGE MISS LATENCY: 188.298 cycles
L2C RQ	ACCESS:    2028892	FORWARD:          0	MERGED:          0	TO_CACHE:    2028892
L2C WQ	ACCESS:      49460	FORWARD:          0	MERGED:          0	TO_CACHE:      49460
L2C PQ	ACCESS:    1735327	FORWARD:          0	MERGED:          0	TO_CACHE:    1735327

L2C Instructions Evicting Data 0
L2C Translations Evicting Data 4135
L2C Data Evicting Data 1908356
L2C Instructions Evicting Instructions 0
L2C Translations Evicting Instructions 0
L2C Data Evicting Instructions 0
L2C Instructions Evicting Translations 0
L2C Translations Evicting Translations 5
L2C Data Evicting Translations 4141
L2C Dense regions hint from L2: 0
PSCL5 TOTAL     ACCESS:      29694  HIT:      29694  MISS:          0  HIT %:        100  MISS %:          0   MPKI: 0
PSCL5 LOAD TRANSLATION ACCESS:      29694  HIT:      29694  MISS:          0  HIT %:        100  MISS %:          0   MPKI: 0
PSCL5 PREFETCH  REQUESTED:          0  ISSUED:          0  USEFUL:          0  USELESS:          0
PSCL5 USEFUL LOAD PREFETCHES:          0 PREFETCH ISSUED TO LOWER LEVEL:          0  ACCURACY: -nan
PSCL5 TIMELY PREFETCHES:          0 LATE PREFETCHES: 0 DROPPED PREFETCHES: 0
PSCL5 PREFETCHES SAME FILL-ORIGIN LEVEL: 0 DIFFERENT FILL-ORIGIN LEVEL: 0

PSCL4 TOTAL     ACCESS:      29694  HIT:      29694  MISS:          0  HIT %:        100  MISS %:          0   MPKI: 0
PSCL4 LOAD TRANSLATION ACCESS:      29694  HIT:      29694  MISS:          0  HIT %:        100  MISS %:          0   MPKI: 0
PSCL4 PREFETCH  REQUESTED:          0  ISSUED:          0  USEFUL:          0  USELESS:          0
PSCL4 USEFUL LOAD PREFETCHES:          0 PREFETCH ISSUED TO LOWER LEVEL:          0  ACCURACY: -nan
PSCL4 TIMELY PREFETCHES:          0 LATE PREFETCHES: 0 DROPPED PREFETCHES: 0
PSCL4 PREFETCHES SAME FILL-ORIGIN LEVEL: 0 DIFFERENT FILL-ORIGIN LEVEL: 0

PSCL3 TOTAL     ACCESS:      29694  HIT:      29694  MISS:          0  HIT %:        100  MISS %:          0   MPKI: 0
PSCL3 LOAD TRANSLATION ACCESS:      29694  HIT:      29694  MISS:          0  HIT %:        100  MISS %:          0   MPKI: 0
PSCL3 PREFETCH  REQUESTED:          0  ISSUED:          0  USEFUL:          0  USELESS:          0
PSCL3 USEFUL LOAD PREFETCHES:          0 PREFETCH ISSUED TO LOWER LEVEL:          0  ACCURACY: -nan
PSCL3 TIMELY PREFETCHES:          0 LATE PREFETCHES: 0 DROPPED PREFETCHES: 0
PSCL3 PREFETCHES SAME FILL-ORIGIN LEVEL: 0 DIFFERENT FILL-ORIGIN LEVEL: 0

PSCL2 TOTAL     ACCESS:      29694  HIT:      29635  MISS:         59  HIT %:    99.8013  MISS %:   0.198693   MPKI: 0.00059
PSCL2 LOAD TRANSLATION ACCESS:      29694  HIT:      29635  MISS:         59  HIT %:    99.8013  MISS %:   0.198693   MPKI: 0.00059
PSCL2 PREFETCH  REQUESTED:          0  ISSUED:          0  USEFUL:          0  USELESS:          0
PSCL2 USEFUL LOAD PREFETCHES:          0 PREFETCH ISSUED TO LOWER LEVEL:          0  ACCURACY: -nan
PSCL2 TIMELY PREFETCHES:          0 LATE PREFETCHES: 0 DROPPED PREFETCHES: 0
PSCL2 PREFETCHES SAME FILL-ORIGIN LEVEL: 0 DIFFERENT FILL-ORIGIN LEVEL: 0

LLC TOTAL     ACCESS:    1965744  HIT:      60880  MISS:    1904864  HIT %:    3.09705  MISS %:     96.903   MPKI: 19.0486
LLC LOAD      ACCESS:     205368  HIT:       1127  MISS:     204241  HIT %:   0.548771  MISS %:    99.4512   MPKI: 2.04241
LLC RFO       ACCESS:      48724  HIT:          0  MISS:      48724  HIT %:          0  MISS %:        100   MPKI: 0.48724
LLC PREFETCH  ACCESS:    1658405  HIT:      11047  MISS:    1647358  HIT %:   0.666122  MISS %:    99.3339   MPKI: 16.4736
LLC WRITEBACK ACCESS:      49107  HIT:      48341  MISS:        766  HIT %:    98.4401  MISS %:    1.55986   MPKI: 0.00766
LLC LOAD TRANSLATION ACCESS:       4140  HIT:        365  MISS:       3775  HIT %:    8.81643  MISS %:    91.1836   MPKI: 0.03775
LLC PREFETCH  REQUESTED:          0  ISSUED:          0  USEFUL:       1101  USELESS:    1618121
LLC USEFUL LOAD PREFETCHES:       1101 PREFETCH ISSUED TO LOWER LEVEL:    1647358  ACCURACY: 0.0668343
LLC TIMELY PREFETCHES:       1101 LATE PREFETCHES: 0 DROPPED PREFETCHES: 0
LLC PREFETCHES SAME FILL-ORIGIN LEVEL: 0 DIFFERENT FILL-ORIGIN LEVEL: 0
LLC AVERAGE MISS LATENCY: 157.581 cycles
LLC RQ	ACCESS:     258232	FORWARD:          0	MERGED:          0	TO_CACHE:     258232
LLC WQ	ACCESS:      49107	FORWARD:          0	MERGED:          0	TO_CACHE:      49107
LLC PQ	ACCESS:    1658405	FORWARD:          0	MERGED:          0	TO_CACHE:    1658405

LLC Dense regions hint to LLC: 0

RAW hits: 399208
Loads Generated: 42980104
Loads sent to L1D: 42580890
Stores Generated: 5633426
Stores sent to L1D: 5633425
Major fault: 0 Minor fault: 42652
Allocated PAGES: 42652
[Bingo] PHT Access: 62195
[Bingo] PHT Hit PC+Addr: 236
[Bingo] PHT Hit PC+Offs: 61498
[Bingo] PHT Miss: 461
[Bingo] Prefetch PC+Addr: 0
[Bingo] Prefetch PC+Offs: 0
[Bingo] Useful PC+Addr: 0
[Bingo] Useful PC+Offs: 0
[Bingo] Useless PC+Addr: 0
[Bingo] Useless PC+Offs: 0
[Bingo] L1 Prefetch per Region: 0
[Bingo] L2 Prefetch per Region: 31.43
[Bingo] L3 Prefetch per Region: 0
[Bingo] No Prefetch per Region: 0.569994
[Bingo] Number of Voters Mean: 15.6734
[Bingo] Number of Voters SD: 1.89944
PHT read accesses: 967276
PHT write accesses: 61283
AT read accesses: 1923331
AT write accesses: 1947270
FT read accesses: 185004
FT write accesses: 62195
PS read accesses: 562748
PS write accesses: 61734
PHT tag read accesses: 2931045
PHT tag write accesses: 61519
AT tag read accesses: 64549483
AT tag write accesses: 1984736
FT tag read accesses: 34757362
FT tag write accesses: 185794
PS tag read accesses: 33195687
PS tag write accesses: 623500

DRAM Statistics
 CHANNEL 0
 RQ ROW_BUFFER_HIT:    1583776  ROW_BUFFER_MISS:     320322
 DBUS_CONGESTED:        312
 WQ ROW_BUFFER_HIT:       9715  ROW_BUFFER_MISS:      39247  FULL:          0

 AVG_CONGESTED_CYCLE: 4
 All warmup complete: 2
Channel 0 Bank busy for read cycles: 0
Channel 0 Bank busy for write cycles: 0
Channel 0
Rank 0
0banks busy for read cycles: 67847701
0banks busy for write cycles: 12855
1banks busy for read cycles: 10336908
1banks busy for write cycles: 1075955
2banks busy for read cycles: 2795440
2banks busy for write cycles: 424118
3banks busy for read cycles: 1624126
3banks busy for write cycles: 279156
4banks busy for read cycles: 1257973
4banks busy for write cycles: 187761
5banks busy for read cycles: 1361725
5banks busy for write cycles: 145695
6banks busy for read cycles: 1298853
6banks busy for write cycles: 115416
7banks busy for read cycles: 2324824
7banks busy for write cycles: 122876
8banks busy for read cycles: 8819702
8banks busy for write cycles: 198454

CPU 0 Branch Prediction Accuracy: 99.9706% MPKI: 0.00734 Average ROB Occupancy at Mispredict: 58.8161
Branch types
NOT_BRANCH: 97503611 97.5036%
BRANCH_DIRECT_JUMP: 0 0%
BRANCH_INDIRECT: 0 0%
BRANCH_CONDITIONAL: 2496135 2.49613%
BRANCH_DIRECT_CALL: 0 0%
BRANCH_INDIRECT_CALL: 0 0%
BRANCH_RETURN: 0 0%
BRANCH_OTHER: 0 0%

DRAM PAGES: 1048576
Allocated PAGES: 42652
