
*** ChampSim Multicore Out-of-Order Simulator ***

Warmup Instructions: 50000000
Simulation Instructions: 100000000
Number of CPUs: 1
LLC sets: 2048
LLC ways: 16
Off-chip DRAM Size: 4096 MB Channels: 1 Width: 64-bit Data Rate: 6400 MT/s
CPU 0 runs ../SPEC2017//603.bwaves_s-2609B.champsimtrace.xz
.xz
NUM_OF_IPS_IN_CRITICAL_IP_TRAINING: 64
NUM_OF_CRITICAL_IP_TRAINING_TABLE_WAYS: 2
NUM_OF_CRITICAL_IP_TRAINING_TABLE_SETS: 32
WOBBLY_CRITICAL_IP_CACHE_SETS: 32
WOBBLY_CRITICAL_IP_CACHE_WAYS: 4
BTB has LRU replacement policy
ITLB has LRU replacement policy
DTLB has LRU replacement policy
STLB has LRU replacement policy
L1I has LRU replacement policy
IP Table Entries: 64
L1D has LRU replacement policy
IP_Table L2 entries: 64
Initialize SRRIP state for L2C
Initialize DRRIP state for LLC
Heartbeat CPU 0 instructions: 10000002 cycles: 3308688 heartbeat IPC: 3.02235 cumulative IPC: 3.02235 (Simulation time: 0 hr 8 min 25 sec) 
Heartbeat CPU 0 instructions: 20000003 cycles: 6617461 heartbeat IPC: 3.02227 cumulative IPC: 3.02231 (Simulation time: 0 hr 15 min 50 sec) 
Heartbeat CPU 0 instructions: 30000001 cycles: 9927622 heartbeat IPC: 3.021 cumulative IPC: 3.02187 (Simulation time: 0 hr 21 min 59 sec) 
Heartbeat CPU 0 instructions: 40000002 cycles: 13237197 heartbeat IPC: 3.02154 cumulative IPC: 3.02179 (Simulation time: 0 hr 27 min 56 sec) 
Heartbeat CPU 0 instructions: 50000003 cycles: 16545871 heartbeat IPC: 3.02236 cumulative IPC: 3.0219 (Simulation time: 0 hr 33 min 29 sec) 

Warmup complete CPU 0 instructions: 50000003 cycles: 16545871 (Simulation time: 0 hr 33 min 29 sec) 

% increase in all ip prefetch 179.292
% increase in all ip prefetch 0.0669915
Heartbeat CPU 0 instructions: 60000000 cycles: 26128124 heartbeat IPC: 1.0436 cumulative IPC: 1.0436 (Simulation time: 0 hr 37 min 17 sec) 
Heartbeat CPU 0 instructions: 70000000 cycles: 35710088 heartbeat IPC: 1.04363 cumulative IPC: 1.04361 (Simulation time: 0 hr 40 min 36 sec) 
Heartbeat CPU 0 instructions: 80000003 cycles: 45293975 heartbeat IPC: 1.04342 cumulative IPC: 1.04355 (Simulation time: 0 hr 43 min 34 sec) 
Heartbeat CPU 0 instructions: 90000003 cycles: 54874954 heartbeat IPC: 1.04373 cumulative IPC: 1.04359 (Simulation time: 0 hr 46 min 26 sec) 
Heartbeat CPU 0 instructions: 100000001 cycles: 64458690 heartbeat IPC: 1.04343 cumulative IPC: 1.04356 (Simulation time: 0 hr 49 min 5 sec) 
Heartbeat CPU 0 instructions: 110000000 cycles: 74038745 heartbeat IPC: 1.04384 cumulative IPC: 1.04361 (Simulation time: 0 hr 51 min 42 sec) 
Heartbeat CPU 0 instructions: 120000000 cycles: 83620684 heartbeat IPC: 1.04363 cumulative IPC: 1.04361 (Simulation time: 0 hr 54 min 8 sec) 
Heartbeat CPU 0 instructions: 130000002 cycles: 93204252 heartbeat IPC: 1.04345 cumulative IPC: 1.04359 (Simulation time: 0 hr 57 min 6 sec) 
Heartbeat CPU 0 instructions: 140000000 cycles: 102783803 heartbeat IPC: 1.04389 cumulative IPC: 1.04362 (Simulation time: 1 hr 3 min 4 sec) 
Heartbeat CPU 0 instructions: 150000001 cycles: 112365272 heartbeat IPC: 1.04368 cumulative IPC: 1.04363 (Simulation time: 1 hr 8 min 36 sec) 
Finished CPU 0 instructions: 100000002 cycles: 95819402 cumulative IPC: 1.04363 (Simulation time: 1 hr 8 min 36 sec) 

ChampSim completed all CPUs

Region of Interest Statistics

CPU 0 cumulative IPC: 1.04363 instructions: 100000002 cycles: 95819402

CPU 0 Average Load ROB stall cycles: 1.91275e+07
CPU 0 Fraction of times ROB stalled by Loads: 29.6746
CPU 0 Percentage of Load stall cycles in Total stall cycles: 4.16089e+08
 Total stall cycles: 63247961
 Total load stall cycles: 263167666842107
CPU 0 NUM of IPS identified critical: 6
CPU 0 Num of Load IPs stalling ROB: 55
Threshold modification factor: -1
Max PIST entries: 32
Min PIST entries: 0
Avg PIST entries: 17.8
Trouble in retire width: 0.853376
MaC = Marked as critical.
lt_50_percent_before_Mac: 6
gt_90_percent_before_Mac: 0
gt_75_percent_before_Mac: 0
gt_50_percent_before_Mac: 0
stall_proportion_bin_same_before_after: 0
stall_proportion_bin_lower_before_after: 0
stall_proportion_bin_upper_before_after: 0
average_stall_proportion_before: 0.189777
average_stall_proportion_after: 0.18973
Critical IP stalls, total frequency: 3639192
Non-critical IP stalls, total frequency: 442077
Critical_IP_ROB_Stalls_Bucket_0: 3584301
Non-critical_IP_ROB_Stalls_Bucket_0: 361062
Critical_IP_ROB_Stalls_Bucket_1: 41160
Non-critical_IP_ROB_Stalls_Bucket_1: 68468
Critical_IP_ROB_Stalls_Bucket_2: 2906
Non-critical_IP_ROB_Stalls_Bucket_2: 2691
Critical_IP_ROB_Stalls_Bucket_3: 3341
Non-critical_IP_ROB_Stalls_Bucket_3: 2470
Critical_IP_ROB_Stalls_Bucket_4: 2151
Non-critical_IP_ROB_Stalls_Bucket_4: 2515
Critical_IP_ROB_Stalls_Bucket_5: 2308
Non-critical_IP_ROB_Stalls_Bucket_5: 3021
Critical_IP_ROB_Stalls_Bucket_6: 3025
Non-critical_IP_ROB_Stalls_Bucket_6: 3379
0 => IPs accounting for >50 percent of stalls, 1 => 55, 2 => 60, 3 => 65 and so on till 90.
percent50: 70.7022 num IPs:2
percent55: 70.7022 num IPs:2
percent60: 70.7022 num IPs:2
percent65: 70.7022 num IPs:2
percent70: 70.7022 num IPs:2
percent75: 84.53 num IPs:3
percent80: 84.53 num IPs:3
percent85: 87.844 num IPs:4
percent90: 90.2572 num IPs:5
Critical_ROB_Stalls_Percent_0_Bucket_0: 2873530
Non-critical_ROB_Stalls_Percent_0_Bucket_0: 1071833
Critical_ROB_Stalls_Percent_0_Bucket_1: 10056
Non-critical_ROB_Stalls_Percent_0_Bucket_1: 99572
Critical_ROB_Stalls_Percent_0_Bucket_2: 465
Non-critical_ROB_Stalls_Percent_0_Bucket_2: 5132
Critical_ROB_Stalls_Percent_0_Bucket_3: 831
Non-critical_ROB_Stalls_Percent_0_Bucket_3: 4980
Critical_ROB_Stalls_Percent_0_Bucket_4: 378
Non-critical_ROB_Stalls_Percent_0_Bucket_4: 4288
Critical_ROB_Stalls_Percent_0_Bucket_5: 222
Non-critical_ROB_Stalls_Percent_0_Bucket_5: 5107
Critical_ROB_Stalls_Percent_0_Bucket_6: 66
Non-critical_ROB_Stalls_Percent_0_Bucket_6: 6338
Critical_ROB_Stalls_Percent_1_Bucket_0: 2873530
Non-critical_ROB_Stalls_Percent_1_Bucket_0: 1071833
Critical_ROB_Stalls_Percent_1_Bucket_1: 10056
Non-critical_ROB_Stalls_Percent_1_Bucket_1: 99572
Critical_ROB_Stalls_Percent_1_Bucket_2: 465
Non-critical_ROB_Stalls_Percent_1_Bucket_2: 5132
Critical_ROB_Stalls_Percent_1_Bucket_3: 831
Non-critical_ROB_Stalls_Percent_1_Bucket_3: 4980
Critical_ROB_Stalls_Percent_1_Bucket_4: 378
Non-critical_ROB_Stalls_Percent_1_Bucket_4: 4288
Critical_ROB_Stalls_Percent_1_Bucket_5: 222
Non-critical_ROB_Stalls_Percent_1_Bucket_5: 5107
Critical_ROB_Stalls_Percent_1_Bucket_6: 66
Non-critical_ROB_Stalls_Percent_1_Bucket_6: 6338
Critical_ROB_Stalls_Percent_2_Bucket_0: 2873530
Non-critical_ROB_Stalls_Percent_2_Bucket_0: 1071833
Critical_ROB_Stalls_Percent_2_Bucket_1: 10056
Non-critical_ROB_Stalls_Percent_2_Bucket_1: 99572
Critical_ROB_Stalls_Percent_2_Bucket_2: 465
Non-critical_ROB_Stalls_Percent_2_Bucket_2: 5132
Critical_ROB_Stalls_Percent_2_Bucket_3: 831
Non-critical_ROB_Stalls_Percent_2_Bucket_3: 4980
Critical_ROB_Stalls_Percent_2_Bucket_4: 378
Non-critical_ROB_Stalls_Percent_2_Bucket_4: 4288
Critical_ROB_Stalls_Percent_2_Bucket_5: 222
Non-critical_ROB_Stalls_Percent_2_Bucket_5: 5107
Critical_ROB_Stalls_Percent_2_Bucket_6: 66
Non-critical_ROB_Stalls_Percent_2_Bucket_6: 6338
Critical_ROB_Stalls_Percent_3_Bucket_0: 2873530
Non-critical_ROB_Stalls_Percent_3_Bucket_0: 1071833
Critical_ROB_Stalls_Percent_3_Bucket_1: 10056
Non-critical_ROB_Stalls_Percent_3_Bucket_1: 99572
Critical_ROB_Stalls_Percent_3_Bucket_2: 465
Non-critical_ROB_Stalls_Percent_3_Bucket_2: 5132
Critical_ROB_Stalls_Percent_3_Bucket_3: 831
Non-critical_ROB_Stalls_Percent_3_Bucket_3: 4980
Critical_ROB_Stalls_Percent_3_Bucket_4: 378
Non-critical_ROB_Stalls_Percent_3_Bucket_4: 4288
Critical_ROB_Stalls_Percent_3_Bucket_5: 222
Non-critical_ROB_Stalls_Percent_3_Bucket_5: 5107
Critical_ROB_Stalls_Percent_3_Bucket_6: 66
Non-critical_ROB_Stalls_Percent_3_Bucket_6: 6338
Critical_ROB_Stalls_Percent_4_Bucket_0: 2873530
Non-critical_ROB_Stalls_Percent_4_Bucket_0: 1071833
Critical_ROB_Stalls_Percent_4_Bucket_1: 10056
Non-critical_ROB_Stalls_Percent_4_Bucket_1: 99572
Critical_ROB_Stalls_Percent_4_Bucket_2: 465
Non-critical_ROB_Stalls_Percent_4_Bucket_2: 5132
Critical_ROB_Stalls_Percent_4_Bucket_3: 831
Non-critical_ROB_Stalls_Percent_4_Bucket_3: 4980
Critical_ROB_Stalls_Percent_4_Bucket_4: 378
Non-critical_ROB_Stalls_Percent_4_Bucket_4: 4288
Critical_ROB_Stalls_Percent_4_Bucket_5: 222
Non-critical_ROB_Stalls_Percent_4_Bucket_5: 5107
Critical_ROB_Stalls_Percent_4_Bucket_6: 66
Non-critical_ROB_Stalls_Percent_4_Bucket_6: 6338
Critical_ROB_Stalls_Percent_5_Bucket_0: 3432837
Non-critical_ROB_Stalls_Percent_5_Bucket_0: 512526
Critical_ROB_Stalls_Percent_5_Bucket_1: 12973
Non-critical_ROB_Stalls_Percent_5_Bucket_1: 96655
Critical_ROB_Stalls_Percent_5_Bucket_2: 1215
Non-critical_ROB_Stalls_Percent_5_Bucket_2: 4382
Critical_ROB_Stalls_Percent_5_Bucket_3: 1449
Non-critical_ROB_Stalls_Percent_5_Bucket_3: 4362
Critical_ROB_Stalls_Percent_5_Bucket_4: 860
Non-critical_ROB_Stalls_Percent_5_Bucket_4: 3806
Critical_ROB_Stalls_Percent_5_Bucket_5: 446
Non-critical_ROB_Stalls_Percent_5_Bucket_5: 4883
Critical_ROB_Stalls_Percent_5_Bucket_6: 118
Non-critical_ROB_Stalls_Percent_5_Bucket_6: 6286
Critical_ROB_Stalls_Percent_6_Bucket_0: 3432837
Non-critical_ROB_Stalls_Percent_6_Bucket_0: 512526
Critical_ROB_Stalls_Percent_6_Bucket_1: 12973
Non-critical_ROB_Stalls_Percent_6_Bucket_1: 96655
Critical_ROB_Stalls_Percent_6_Bucket_2: 1215
Non-critical_ROB_Stalls_Percent_6_Bucket_2: 4382
Critical_ROB_Stalls_Percent_6_Bucket_3: 1449
Non-critical_ROB_Stalls_Percent_6_Bucket_3: 4362
Critical_ROB_Stalls_Percent_6_Bucket_4: 860
Non-critical_ROB_Stalls_Percent_6_Bucket_4: 3806
Critical_ROB_Stalls_Percent_6_Bucket_5: 446
Non-critical_ROB_Stalls_Percent_6_Bucket_5: 4883
Critical_ROB_Stalls_Percent_6_Bucket_6: 118
Non-critical_ROB_Stalls_Percent_6_Bucket_6: 6286
Critical_ROB_Stalls_Percent_7_Bucket_0: 3542104
Non-critical_ROB_Stalls_Percent_7_Bucket_0: 403259
Critical_ROB_Stalls_Percent_7_Bucket_1: 34835
Non-critical_ROB_Stalls_Percent_7_Bucket_1: 74793
Critical_ROB_Stalls_Percent_7_Bucket_2: 2433
Non-critical_ROB_Stalls_Percent_7_Bucket_2: 3164
Critical_ROB_Stalls_Percent_7_Bucket_3: 2827
Non-critical_ROB_Stalls_Percent_7_Bucket_3: 2984
Critical_ROB_Stalls_Percent_7_Bucket_4: 1785
Non-critical_ROB_Stalls_Percent_7_Bucket_4: 2881
Critical_ROB_Stalls_Percent_7_Bucket_5: 844
Non-critical_ROB_Stalls_Percent_7_Bucket_5: 4485
Critical_ROB_Stalls_Percent_7_Bucket_6: 321
Non-critical_ROB_Stalls_Percent_7_Bucket_6: 6083
Critical_ROB_Stalls_Percent_8_Bucket_0: 3635733
Non-critical_ROB_Stalls_Percent_8_Bucket_0: 309630
Critical_ROB_Stalls_Percent_8_Bucket_1: 38640
Non-critical_ROB_Stalls_Percent_8_Bucket_1: 70988
Critical_ROB_Stalls_Percent_8_Bucket_2: 2739
Non-critical_ROB_Stalls_Percent_8_Bucket_2: 2858
Critical_ROB_Stalls_Percent_8_Bucket_3: 3130
Non-critical_ROB_Stalls_Percent_8_Bucket_3: 2681
Critical_ROB_Stalls_Percent_8_Bucket_4: 1902
Non-critical_ROB_Stalls_Percent_8_Bucket_4: 2764
Critical_ROB_Stalls_Percent_8_Bucket_5: 1011
Non-critical_ROB_Stalls_Percent_8_Bucket_5: 4318
Critical_ROB_Stalls_Percent_8_Bucket_6: 484
Non-critical_ROB_Stalls_Percent_8_Bucket_6: 5920
Average ROB occupancy Load Stall Begin: 38.7427
Average ROB occupancy Load Stall End: 42.727
Min ROB occupancy Load Stall Begin: 6
Max ROB occupancy Load Stall Begin: 351
Min ROB occupancy Load Stall End: 10
Max ROB occupancy Load Stall End: 352
Average ROB occupancy Critical Load Stall Begin: 39.7986
Average ROB occupancy Critical Load Stall End: 43.49
Min ROB occupancy Critical Load Stall Begin: 21
Max ROB occupancy Critical Load Stall Begin: 351
Min ROB occupancy Critical Load Stall End: 25
Max ROB occupancy Critical Load Stall End: 352
 ROB Load Stall Begin Bucket Count 0: 3987802
 ROB Load Stall End Bucket Count 0: 3945363
 ROB Critical Load Stall Begin Bucket Count 0: 3487362
 ROB Critical Load Stall End Bucket Count 0: 3472064
 ROB Load Stall Begin Bucket Count 1: 68327
 ROB Load Stall End Bucket Count 1: 109628
 ROB Critical Load Stall Begin Bucket Count 1: 25019
 ROB Critical Load Stall End Bucket Count 1: 39940
 ROB Load Stall Begin Bucket Count 2: 6325
 ROB Load Stall End Bucket Count 2: 5597
 ROB Critical Load Stall Begin Bucket Count 2: 3029
 ROB Critical Load Stall End Bucket Count 2: 2784
 ROB Load Stall Begin Bucket Count 3: 7354
 ROB Load Stall End Bucket Count 3: 5811
 ROB Critical Load Stall Begin Bucket Count 3: 2879
 ROB Critical Load Stall End Bucket Count 3: 3210
 ROB Load Stall Begin Bucket Count 4: 3830
 ROB Load Stall End Bucket Count 4: 4666
 ROB Critical Load Stall Begin Bucket Count 4: 2033
 ROB Critical Load Stall End Bucket Count 4: 2071
 ROB Load Stall Begin Bucket Count 5: 4303
 ROB Load Stall End Bucket Count 5: 5329
 ROB Critical Load Stall Begin Bucket Count 5: 2746
 ROB Critical Load Stall End Bucket Count 5: 2223
 ROB Load Stall Begin Bucket Count 6: 4857
 ROB Load Stall End Bucket Count 6: 6404
 ROB Critical Load Stall Begin Bucket Count 6: 2131
 ROB Critical Load Stall End Bucket Count 6: 2907
PIST Tag Read Accesses: 150464
PIST Read Accesses: 75232
PIST Tag Write Accesses: 150464
PIST Write Accesses: 75232
Criticality detector called times: 327648
Max global_stall_cycles_count: 159692
Threshold Modified: 1 times, factor: -1
ITLB TOTAL     ACCESS:   12645258  HIT:   12645258  MISS:          0  HIT %:        100  MISS %:          0   MPKI: 0
ITLB LOAD TRANSLATION ACCESS:   12645258  HIT:   12645258  MISS:          0  HIT %:        100  MISS %:          0   MPKI: 0
ITLB PREFETCH  REQUESTED:          0  ISSUED:          0  USEFUL:          0  USELESS:          0
ITLB USEFUL LOAD PREFETCHES:          0 PREFETCH ISSUED TO LOWER LEVEL:          0  ACCURACY: -nan
ITLB TIMELY PREFETCHES:          0 LATE PREFETCHES: 0 DROPPED PREFETCHES: 0
ITLB PREFETCHES SAME FILL-ORIGIN LEVEL: 0 DIFFERENT FILL-ORIGIN LEVEL: 0
ITLB AVERAGE MISS LATENCY: -nan cycles
ITLB RQ	ACCESS:   17166269	FORWARD:          0	MERGED:    4521011	TO_CACHE:   12645258

DTLB TOTAL     ACCESS:   33732513  HIT:   33661034  MISS:      71479  HIT %:    99.7881  MISS %:   0.211899   MPKI: 0.71479
DTLB LOAD TRANSLATION ACCESS:   33732513  HIT:   33661034  MISS:      71479  HIT %:    99.7881  MISS %:   0.211899   MPKI: 0.71479
DTLB PREFETCH  REQUESTED:          0  ISSUED:          0  USEFUL:          0  USELESS:          0
DTLB USEFUL LOAD PREFETCHES:          0 PREFETCH ISSUED TO LOWER LEVEL:          0  ACCURACY: -nan
DTLB TIMELY PREFETCHES:          0 LATE PREFETCHES: 0 DROPPED PREFETCHES: 0
DTLB PREFETCHES SAME FILL-ORIGIN LEVEL: 0 DIFFERENT FILL-ORIGIN LEVEL: 0
DTLB AVERAGE MISS LATENCY: 215.15 cycles
DTLB RQ	ACCESS:   39478363	FORWARD:          0	MERGED:    5735989	TO_CACHE:   33742374

STLB TOTAL     ACCESS:    7105674  HIT:    7075980  MISS:      29694  HIT %:    99.5821  MISS %:   0.417891   MPKI: 0.29694
STLB LOAD TRANSLATION ACCESS:      71479  HIT:      41785  MISS:      29694  HIT %:    58.4577  MISS %:    41.5423   MPKI: 0.29694
STLB TRANSLATION FROM L1D PREFETCHER ACCESS:    7034195  HIT:    7034195  MISS:          0  HIT %:        100  MISS %:          0   MPKI: 0
STLB PREFETCH  REQUESTED:          0  ISSUED:          0  USEFUL:          0  USELESS:          0
STLB USEFUL LOAD PREFETCHES:          0 PREFETCH ISSUED TO LOWER LEVEL:          0  ACCURACY: -nan
STLB TIMELY PREFETCHES:          0 LATE PREFETCHES: 0 DROPPED PREFETCHES: 0
STLB PREFETCHES SAME FILL-ORIGIN LEVEL: 0 DIFFERENT FILL-ORIGIN LEVEL: 0
STLB AVERAGE MISS LATENCY: 469.412 cycles
STLB RQ	ACCESS:   33463143	FORWARD:          0	MERGED:   26357469	TO_CACHE:    7105674

STLB Hit, L1D data hit: 0
STLB Hit, L2C data hit: 0
STLB Hit, LLC data hit: 0
STLB Hit, LLC data miss: 0
STLB STLB hints to L2: 0
L1D TOTAL     ACCESS:   72775373  HIT:   70765141  MISS:    2010232  HIT %:    97.2378  MISS %:    2.76224   MPKI: 20.1023
L1D LOAD      ACCESS:   33839312  HIT:   33737670  MISS:     101642  HIT %:    99.6996  MISS %:   0.300367   MPKI: 1.01642
L1D RFO       ACCESS:    5590961  HIT:    5542237  MISS:      48724  HIT %:    99.1285  MISS %:   0.871478   MPKI: 0.48724
L1D PREFETCH  ACCESS:   33345100  HIT:   31485234  MISS:    1859866  HIT %:    94.4224  MISS %:    5.57763   MPKI: 18.5987
L1D PREFETCH  REQUESTED:   93487816  ISSUED:   66840233  USEFUL:    1848829  USELESS:      11031
L1D USEFUL LOAD PREFETCHES:    1848829 PREFETCH ISSUED TO LOWER LEVEL:    1937723  ACCURACY: 95.4125
L1D TIMELY PREFETCHES:    1848829 LATE PREFETCHES: 3907 DROPPED PREFETCHES: 0
L1D PREFETCHES SAME FILL-ORIGIN LEVEL: 1937723 DIFFERENT FILL-ORIGIN LEVEL: 0
L1D AVERAGE MISS LATENCY: 125591 cycles
L1D RQ	ACCESS:   42743243	FORWARD:          0	MERGED:    8686829	TO_CACHE:   33845030
L1D WQ	ACCESS:    5633425	FORWARD:     211384	MERGED:         92	TO_CACHE:    5633333
L1D PQ	ACCESS:   33448569	FORWARD:          0	MERGED:      56905	TO_CACHE:   33391664

L1D UNIQUE REGIONS ACCESSED: 0
L1D REGIONS CONFLICTS: 0
L1D Cross Page Prefetch Requests: 0
L1D Same Page Prefetch Requests: 46993547
L1D ROI Sum of L1D PQ occupancy: 505145571
L1D PREFETCHES PUSHED FROM L2C: 0
L1I TOTAL     ACCESS:   17166268  HIT:   17166268  MISS:          0  HIT %:        100  MISS %:          0   MPKI: 0
L1I LOAD      ACCESS:   17166268  HIT:   17166268  MISS:          0  HIT %:        100  MISS %:          0   MPKI: 0
L1I PREFETCH  REQUESTED:          0  ISSUED:          0  USEFUL:          0  USELESS:          0
L1I USEFUL LOAD PREFETCHES:          0 PREFETCH ISSUED TO LOWER LEVEL:          0  ACCURACY: -nan
L1I TIMELY PREFETCHES:          0 LATE PREFETCHES: 0 DROPPED PREFETCHES: 0
L1I PREFETCHES SAME FILL-ORIGIN LEVEL: 0 DIFFERENT FILL-ORIGIN LEVEL: 0
L1I AVERAGE MISS LATENCY: -nan cycles
L1I RQ	ACCESS:   22873414	FORWARD:          0	MERGED:    5707145	TO_CACHE:   17166269

BTB TOTAL     ACCESS:    2417447  HIT:    2417442  MISS:          5  HIT %:    99.9998  MISS %: 0.00020683   MPKI: 5e-05
BTB BRANCH_DIRECT_JUMP	ACCESS:          0  HIT:          0  MISS:          0
BTB BRANCH_INDIRECT	ACCESS:          0  HIT:          0  MISS:          0
BTB BRANCH_CONDITIONAL	ACCESS:    2417447  HIT:    2417442  MISS:          5
BTB BRANCH_DIRECT_CALL	ACCESS:          0  HIT:          0  MISS:          0
BTB BRANCH_INDIRECT_CALL	ACCESS:          0  HIT:          0  MISS:          0
BTB BRANCH_RETURN	ACCESS:          0  HIT:          0  MISS:          0
BTB BRANCH_OTHER ACCESS:          0  HIT:          0  MISS:          0

L2C TOTAL     ACCESS:    8045049  HIT:    6134881  MISS:    1910168  HIT %:    76.2566  MISS %:    23.7434   MPKI: 19.1017
L2C LOAD      ACCESS:      97735  HIT:      58008  MISS:      39727  HIT %:    59.3523  MISS %:    40.6477   MPKI: 0.39727
L2C DATA LOAD MPKI: 0.39727
L2C INSTRUCTION LOAD MPKI: 0
L2C RFO       ACCESS:      48724  HIT:          0  MISS:      48724  HIT %:          0  MISS %:        100   MPKI: 0.48724
L2C PREFETCH  ACCESS:    7819427  HIT:    6005694  MISS:    1813733  HIT %:    76.8048  MISS %:    23.1952   MPKI: 18.1373
L2C DATA PREFETCH MPKI: 18.1373
L2C INSTRUCTION PREFETCH MPKI: 0
L2C WRITEBACK ACCESS:      49466  HIT:      45616  MISS:       3850  HIT %:    92.2169  MISS %:    7.78312   MPKI: 0.0385
L2C LOAD TRANSLATION ACCESS:      29697  HIT:      25563  MISS:       4134  HIT %:    86.0794  MISS %:    13.9206   MPKI: 0.04134
L2C PREFETCH  REQUESTED:    9781106  ISSUED:    9068590  USEFUL:      55057  USELESS:    1758926
L2C USEFUL LOAD PREFETCHES:      55057 PREFETCH ISSUED TO LOWER LEVEL:    1814770  ACCURACY: 3.03383
L2C TIMELY PREFETCHES:      55057 LATE PREFETCHES: 1027 DROPPED PREFETCHES: 0
L2C PREFETCHES SAME FILL-ORIGIN LEVEL: 1628949 DIFFERENT FILL-ORIGIN LEVEL: 0
L2C AVERAGE MISS LATENCY: 176.333 cycles
L2C RQ	ACCESS:     176156	FORWARD:          0	MERGED:          0	TO_CACHE:     176156
L2C WQ	ACCESS:      49466	FORWARD:          0	MERGED:          0	TO_CACHE:      49466
L2C PQ	ACCESS:   10932365	FORWARD:          0	MERGED:    2679384	TO_CACHE:    8252981

L2C Instructions Evicting Data 0
L2C Translations Evicting Data 4131
L2C Data Evicting Data 1898066
L2C Instructions Evicting Instructions 0
L2C Translations Evicting Instructions 0
L2C Data Evicting Instructions 0
L2C Instructions Evicting Translations 0
L2C Translations Evicting Translations 3
L2C Data Evicting Translations 4118
L2C Dense regions hint from L2: 0
PSCL5 TOTAL     ACCESS:      29694  HIT:      29694  MISS:          0  HIT %:        100  MISS %:          0   MPKI: 0
PSCL5 LOAD TRANSLATION ACCESS:      29694  HIT:      29694  MISS:          0  HIT %:        100  MISS %:          0   MPKI: 0
PSCL5 PREFETCH  REQUESTED:          0  ISSUED:          0  USEFUL:          0  USELESS:          0
PSCL5 USEFUL LOAD PREFETCHES:          0 PREFETCH ISSUED TO LOWER LEVEL:          0  ACCURACY: -nan
PSCL5 TIMELY PREFETCHES:          0 LATE PREFETCHES: 0 DROPPED PREFETCHES: 0
PSCL5 PREFETCHES SAME FILL-ORIGIN LEVEL: 0 DIFFERENT FILL-ORIGIN LEVEL: 0

PSCL4 TOTAL     ACCESS:      29694  HIT:      29694  MISS:          0  HIT %:        100  MISS %:          0   MPKI: 0
PSCL4 LOAD TRANSLATION ACCESS:      29694  HIT:      29694  MISS:          0  HIT %:        100  MISS %:          0   MPKI: 0
PSCL4 PREFETCH  REQUESTED:          0  ISSUED:          0  USEFUL:          0  USELESS:          0
PSCL4 USEFUL LOAD PREFETCHES:          0 PREFETCH ISSUED TO LOWER LEVEL:          0  ACCURACY: -nan
PSCL4 TIMELY PREFETCHES:          0 LATE PREFETCHES: 0 DROPPED PREFETCHES: 0
PSCL4 PREFETCHES SAME FILL-ORIGIN LEVEL: 0 DIFFERENT FILL-ORIGIN LEVEL: 0

PSCL3 TOTAL     ACCESS:      29694  HIT:      29694  MISS:          0  HIT %:        100  MISS %:          0   MPKI: 0
PSCL3 LOAD TRANSLATION ACCESS:      29694  HIT:      29694  MISS:          0  HIT %:        100  MISS %:          0   MPKI: 0
PSCL3 PREFETCH  REQUESTED:          0  ISSUED:          0  USEFUL:          0  USELESS:          0
PSCL3 USEFUL LOAD PREFETCHES:          0 PREFETCH ISSUED TO LOWER LEVEL:          0  ACCURACY: -nan
PSCL3 TIMELY PREFETCHES:          0 LATE PREFETCHES: 0 DROPPED PREFETCHES: 0
PSCL3 PREFETCHES SAME FILL-ORIGIN LEVEL: 0 DIFFERENT FILL-ORIGIN LEVEL: 0

PSCL2 TOTAL     ACCESS:      29694  HIT:      29635  MISS:         59  HIT %:    99.8013  MISS %:   0.198693   MPKI: 0.00059
PSCL2 LOAD TRANSLATION ACCESS:      29694  HIT:      29635  MISS:         59  HIT %:    99.8013  MISS %:   0.198693   MPKI: 0.00059
PSCL2 PREFETCH  REQUESTED:          0  ISSUED:          0  USEFUL:          0  USELESS:          0
PSCL2 USEFUL LOAD PREFETCHES:          0 PREFETCH ISSUED TO LOWER LEVEL:          0  ACCURACY: -nan
PSCL2 TIMELY PREFETCHES:          0 LATE PREFETCHES: 0 DROPPED PREFETCHES: 0
PSCL2 PREFETCHES SAME FILL-ORIGIN LEVEL: 0 DIFFERENT FILL-ORIGIN LEVEL: 0

LLC TOTAL     ACCESS:    1955035  HIT:      50321  MISS:    1904714  HIT %:    2.57392  MISS %:    97.4261   MPKI: 19.0471
LLC LOAD      ACCESS:      38700  HIT:          0  MISS:      38700  HIT %:          0  MISS %:        100   MPKI: 0.387
LLC RFO       ACCESS:      48724  HIT:          0  MISS:      48724  HIT %:          0  MISS %:        100   MPKI: 0.48724
LLC PREFETCH  ACCESS:    1814762  HIT:       1985  MISS:    1812777  HIT %:   0.109381  MISS %:    99.8906   MPKI: 18.1278
LLC WRITEBACK ACCESS:      48715  HIT:      47973  MISS:        742  HIT %:    98.4769  MISS %:    1.52314   MPKI: 0.00742
LLC LOAD TRANSLATION ACCESS:       4134  HIT:        363  MISS:       3771  HIT %:    8.78084  MISS %:    91.2192   MPKI: 0.03771
LLC PREFETCH  REQUESTED:          0  ISSUED:          0  USEFUL:          0  USELESS:    1812861
LLC USEFUL LOAD PREFETCHES:          0 PREFETCH ISSUED TO LOWER LEVEL:    1812784  ACCURACY: 0
LLC TIMELY PREFETCHES:          0 LATE PREFETCHES: 0 DROPPED PREFETCHES: 0
LLC PREFETCHES SAME FILL-ORIGIN LEVEL: 0 DIFFERENT FILL-ORIGIN LEVEL: 0
LLC AVERAGE MISS LATENCY: 145.017 cycles
LLC RQ	ACCESS:      91558	FORWARD:          0	MERGED:          0	TO_CACHE:      91558
LLC WQ	ACCESS:      48715	FORWARD:          0	MERGED:          0	TO_CACHE:      48715
LLC PQ	ACCESS:    1814770	FORWARD:          0	MERGED:          0	TO_CACHE:    1814770

LLC Dense regions hint to LLC: 0

RAW hits: 236855
Loads Generated: 42980104
Loads sent to L1D: 42743243
Stores Generated: 5633426
Stores sent to L1D: 5633425
Major fault: 0 Minor fault: 42652
Allocated PAGES: 42652

stream: 
stream:times selected: 16103590
stream:pref_filled: 2753840
stream:pref_useful: 2753487
stream:pref_late: 5428
stream:misses: 467
stream:misses_by_poll: 0

CS: 
CS:times selected: 14586538
CS:pref_filled: 13255
CS:pref_useful: 13255
CS:pref_late: 95
CS:misses: 113163
CS:misses_by_poll: 54

CPLX: 
CPLX:times selected: 1516912
CPLX:pref_filled: 47954
CPLX:pref_useful: 32790
CPLX:pref_late: 26
CPLX:misses: 4715
CPLX:misses_by_poll: 106

NL_L1: 
NL:times selected: 4922
NL:pref_filled: 61
NL:pref_useful: 61
NL:pref_late: 4
NL:misses: 24
NL:misses_by_poll: 0

total selections: 32211962
total_filled: 1859866
total_useful: 1848829
total_late: 6084
total_polluted: 160
total_misses_after_warmup: 107359
conflicts: 203898
Degree Incremented Times: 308716
Degree Decremented Times: 0

L1 IP Table Write Accesses: 30968569
L1 IP Table Read Accesses: 30764671
L1 RST Write Accesses: 10799168
L1 RST Read Accesses: 21598336
L1 CSPT Write Accesses: 10799168
L1 CSPT Read Accesses: 13257462
L1 RR Filter Tag Write Accesses: 60096152
L1 RR Filter Tag Read Accesses: 2760047554
L1 IP Table Tag Write Accesses: 33845029
L1 IP Table Tag Read Accesses: 33845029
L1 RST Tag Write Accesses: 0
L1 RST Tag Read Accesses: 97200776
L1 RR Filter Write Accesses: 0
L1 RR Filter Read Accesses: 92029513
test: 315376
L2 IP Table Read Accesses: 3543678
L2 IP Table Write Accesses: 3447224
L2 IP Table Tag Read Accesses: 1773109
L2 IP Table Tag Write Accesses: 1773109

DRAM Statistics
 CHANNEL 0
 RQ ROW_BUFFER_HIT:    1321745  ROW_BUFFER_MISS:     582227
 DBUS_CONGESTED:        917
 WQ ROW_BUFFER_HIT:       6878  ROW_BUFFER_MISS:      41756  FULL:          0

 AVG_CONGESTED_CYCLE: 4
 All warmup complete: 2
Channel 0 Bank busy for read cycles: 0
Channel 0 Bank busy for write cycles: 0
Channel 0
Rank 0
0banks busy for read cycles: 37959743
0banks busy for write cycles: 17382
1banks busy for read cycles: 17753223
1banks busy for write cycles: 1891962
2banks busy for read cycles: 10980738
2banks busy for write cycles: 820872
3banks busy for read cycles: 8832065
3banks busy for write cycles: 563816
4banks busy for read cycles: 5733556
4banks busy for write cycles: 287951
5banks busy for read cycles: 3761632
5banks busy for write cycles: 209560
6banks busy for read cycles: 2589596
6banks busy for write cycles: 151575
7banks busy for read cycles: 2477482
7banks busy for write cycles: 109617
8banks busy for read cycles: 1575950
8banks busy for write cycles: 102683

CPU 0 Branch Prediction Accuracy: 99.9706% MPKI: 0.00734 Average ROB Occupancy at Mispredict: 40.4877
Branch types
NOT_BRANCH: 97503611 97.5036%
BRANCH_DIRECT_JUMP: 0 0%
BRANCH_INDIRECT: 0 0%
BRANCH_CONDITIONAL: 2496135 2.49613%
BRANCH_DIRECT_CALL: 0 0%
BRANCH_INDIRECT_CALL: 0 0%
BRANCH_RETURN: 0 0%
BRANCH_OTHER: 0 0%

DRAM PAGES: 1048576
Allocated PAGES: 42652
