
*** ChampSim Multicore Out-of-Order Simulator ***

Warmup Instructions: 50000000
Simulation Instructions: 100000000
Number of CPUs: 1
LLC sets: 2048
LLC ways: 16
Off-chip DRAM Size: 4096 MB Channels: 1 Width: 64-bit Data Rate: 6400 MT/s
CPU 0 runs ../SPEC2017//603.bwaves_s-2931B.champsimtrace.xz
.xz
NUM_OF_IPS_IN_CRITICAL_IP_TRAINING: 64
NUM_OF_CRITICAL_IP_TRAINING_TABLE_WAYS: 2
NUM_OF_CRITICAL_IP_TRAINING_TABLE_SETS: 32
WOBBLY_CRITICAL_IP_CACHE_SETS: 32
WOBBLY_CRITICAL_IP_CACHE_WAYS: 4
BTB has LRU replacement policy
ITLB has LRU replacement policy
DTLB has LRU replacement policy
STLB has LRU replacement policy
L1I has LRU replacement policy
L1D has LRU replacement policy
Bingo PHT WAYS: 16 and PHT_SIZE: 16384
Initialize SRRIP state for L2C
Initialize DRRIP state for LLC
Heartbeat CPU 0 instructions: 10000003 cycles: 2947861 heartbeat IPC: 3.39229 cumulative IPC: 3.39229 (Simulation time: 0 hr 4 min 42 sec) 
Heartbeat CPU 0 instructions: 20000003 cycles: 5895185 heartbeat IPC: 3.39291 cumulative IPC: 3.3926 (Simulation time: 0 hr 9 min 19 sec) 
Heartbeat CPU 0 instructions: 30000003 cycles: 8842489 heartbeat IPC: 3.39293 cumulative IPC: 3.39271 (Simulation time: 0 hr 13 min 35 sec) 
Heartbeat CPU 0 instructions: 40000002 cycles: 11789921 heartbeat IPC: 3.39278 cumulative IPC: 3.39273 (Simulation time: 0 hr 17 min 17 sec) 
Heartbeat CPU 0 instructions: 50000003 cycles: 14737388 heartbeat IPC: 3.39274 cumulative IPC: 3.39273 (Simulation time: 0 hr 20 min 42 sec) 

Warmup complete CPU 0 instructions: 50000003 cycles: 14737388 (Simulation time: 0 hr 20 min 42 sec) 

% increase in all ip prefetch 174.685
% increase in all ip prefetch -0.416643
Heartbeat CPU 0 instructions: 60000000 cycles: 23184186 heartbeat IPC: 1.18388 cumulative IPC: 1.18388 (Simulation time: 0 hr 24 min 26 sec) 
Heartbeat CPU 0 instructions: 70000002 cycles: 31648948 heartbeat IPC: 1.18137 cumulative IPC: 1.18262 (Simulation time: 0 hr 28 min 4 sec) 
Heartbeat CPU 0 instructions: 80000003 cycles: 40120331 heartbeat IPC: 1.18044 cumulative IPC: 1.1819 (Simulation time: 0 hr 31 min 33 sec) 
Heartbeat CPU 0 instructions: 90000003 cycles: 48579146 heartbeat IPC: 1.1822 cumulative IPC: 1.18197 (Simulation time: 0 hr 34 min 42 sec) 
Heartbeat CPU 0 instructions: 100000000 cycles: 57030027 heartbeat IPC: 1.18331 cumulative IPC: 1.18224 (Simulation time: 0 hr 37 min 46 sec) 
Heartbeat CPU 0 instructions: 110000000 cycles: 65501213 heartbeat IPC: 1.18047 cumulative IPC: 1.18194 (Simulation time: 0 hr 40 min 45 sec) 
Heartbeat CPU 0 instructions: 120000000 cycles: 73981309 heartbeat IPC: 1.17923 cumulative IPC: 1.18156 (Simulation time: 0 hr 43 min 33 sec) 
Heartbeat CPU 0 instructions: 130000000 cycles: 82491830 heartbeat IPC: 1.17502 cumulative IPC: 1.18073 (Simulation time: 0 hr 46 min 12 sec) 
Heartbeat CPU 0 instructions: 140000002 cycles: 90975528 heartbeat IPC: 1.17873 cumulative IPC: 1.18051 (Simulation time: 0 hr 48 min 42 sec) 
Heartbeat CPU 0 instructions: 150000003 cycles: 99465092 heartbeat IPC: 1.17792 cumulative IPC: 1.18025 (Simulation time: 0 hr 52 min 40 sec) 
Finished CPU 0 instructions: 100000000 cycles: 84727704 cumulative IPC: 1.18025 (Simulation time: 0 hr 52 min 40 sec) 

ChampSim completed all CPUs

Region of Interest Statistics

CPU 0 cumulative IPC: 1.18025 instructions: 100000000 cycles: 84727704

CPU 0 Average Load ROB stall cycles: 1.55049e+07
CPU 0 Fraction of times ROB stalled by Loads: 27.1877
CPU 0 Percentage of Load stall cycles in Total stall cycles: 2.98303e+08
Issued all: 46663079
Issued LT all: 31936208
rob_not_full_when_issued_lt_all: 29584537
Issued LT one: 28526286
rob_not_full_when_issued_lt_one: 26370319
 Total stall cycles: 61701842
 Total load stall cycles: 184058628345565
CPU 0 NUM of IPS identified critical: 0
CPU 0 Num of Load IPs stalling ROB: 140
Threshold modification factor: -1
Max PIST entries: 58
Min PIST entries: 0
Avg PIST entries: 36.2533
Trouble in retire width: 0.795877
MaC = Marked as critical.
lt_50_percent_before_Mac: 0
gt_90_percent_before_Mac: 0
gt_75_percent_before_Mac: 0
gt_50_percent_before_Mac: 0
stall_proportion_bin_same_before_after: 0
stall_proportion_bin_lower_before_after: 0
stall_proportion_bin_upper_before_after: 0
average_stall_proportion_before: -nan
average_stall_proportion_after: -nan
Critical IP stalls, total frequency: 0
Non-critical IP stalls, total frequency: 3227439
Total Freq all stalling IPs: 3227439
stat_90_percent_critical_ip_stalls_freq: 2916329
stat_90_percent_non_critical_ip_stalls_freq: 311110
Critical_IP_ROB_Stalls_Bucket_0: 0
Non-critical_IP_ROB_Stalls_Bucket_0: 1321140
Critical_IP_ROB_Stalls_Bucket_1: 0
Non-critical_IP_ROB_Stalls_Bucket_1: 1514356
Critical_IP_ROB_Stalls_Bucket_2: 0
Non-critical_IP_ROB_Stalls_Bucket_2: 176294
Critical_IP_ROB_Stalls_Bucket_3: 0
Non-critical_IP_ROB_Stalls_Bucket_3: 48236
Critical_IP_ROB_Stalls_Bucket_4: 0
Non-critical_IP_ROB_Stalls_Bucket_4: 51794
Critical_IP_ROB_Stalls_Bucket_5: 0
Non-critical_IP_ROB_Stalls_Bucket_5: 41738
Critical_IP_ROB_Stalls_Bucket_6: 0
Non-critical_IP_ROB_Stalls_Bucket_6: 73881
0 => IPs accounting for >50 percent of stalls, 1 => 55, 2 => 60, 3 => 65 and so on till 90.
percent50: 50.9993 num IPs:  3
percent55: 58.3579 num IPs: 4
percent60: 64.4258 num IPs: 5
percent65: 68.8499 num IPs: 6
percent70: 72.6346 num IPs: 7
percent75: 76.1131 num IPs: 8
percent80: 81.9561 num IPs: 10
percent85: 85.6122 num IPs: 13
percent90: 90.3605 num IPs: 19
Critical_ROB_Stalls_Percent_0_Bucket_0: 492703
Non-critical_ROB_Stalls_Percent_0_Bucket_0: 828437
Critical_ROB_Stalls_Percent_0_Bucket_1: 979469
Non-critical_ROB_Stalls_Percent_0_Bucket_1: 534887
Critical_ROB_Stalls_Percent_0_Bucket_2: 69530
Non-critical_ROB_Stalls_Percent_0_Bucket_2: 106764
Critical_ROB_Stalls_Percent_0_Bucket_3: 28385
Non-critical_ROB_Stalls_Percent_0_Bucket_3: 19851
Critical_ROB_Stalls_Percent_0_Bucket_4: 29094
Non-critical_ROB_Stalls_Percent_0_Bucket_4: 22700
Critical_ROB_Stalls_Percent_0_Bucket_5: 21066
Non-critical_ROB_Stalls_Percent_0_Bucket_5: 20672
Critical_ROB_Stalls_Percent_0_Bucket_6: 25725
Non-critical_ROB_Stalls_Percent_0_Bucket_6: 48156
Critical_ROB_Stalls_Percent_1_Bucket_0: 498730
Non-critical_ROB_Stalls_Percent_1_Bucket_0: 822410
Critical_ROB_Stalls_Percent_1_Bucket_1: 1186572
Non-critical_ROB_Stalls_Percent_1_Bucket_1: 327784
Critical_ROB_Stalls_Percent_1_Bucket_2: 80809
Non-critical_ROB_Stalls_Percent_1_Bucket_2: 95485
Critical_ROB_Stalls_Percent_1_Bucket_3: 30897
Non-critical_ROB_Stalls_Percent_1_Bucket_3: 17339
Critical_ROB_Stalls_Percent_1_Bucket_4: 31277
Non-critical_ROB_Stalls_Percent_1_Bucket_4: 20517
Critical_ROB_Stalls_Percent_1_Bucket_5: 22315
Non-critical_ROB_Stalls_Percent_1_Bucket_5: 19423
Critical_ROB_Stalls_Percent_1_Bucket_6: 32865
Non-critical_ROB_Stalls_Percent_1_Bucket_6: 41016
Critical_ROB_Stalls_Percent_2_Bucket_0: 650692
Non-critical_ROB_Stalls_Percent_2_Bucket_0: 670448
Critical_ROB_Stalls_Percent_2_Bucket_1: 1219599
Non-critical_ROB_Stalls_Percent_2_Bucket_1: 294757
Critical_ROB_Stalls_Percent_2_Bucket_2: 85032
Non-critical_ROB_Stalls_Percent_2_Bucket_2: 91262
Critical_ROB_Stalls_Percent_2_Bucket_3: 31454
Non-critical_ROB_Stalls_Percent_2_Bucket_3: 16782
Critical_ROB_Stalls_Percent_2_Bucket_4: 33379
Non-critical_ROB_Stalls_Percent_2_Bucket_4: 18415
Critical_ROB_Stalls_Percent_2_Bucket_5: 23018
Non-critical_ROB_Stalls_Percent_2_Bucket_5: 18720
Critical_ROB_Stalls_Percent_2_Bucket_6: 36130
Non-critical_ROB_Stalls_Percent_2_Bucket_6: 37751
Critical_ROB_Stalls_Percent_3_Bucket_0: 782950
Non-critical_ROB_Stalls_Percent_3_Bucket_0: 538190
Critical_ROB_Stalls_Percent_3_Bucket_1: 1228072
Non-critical_ROB_Stalls_Percent_3_Bucket_1: 286284
Critical_ROB_Stalls_Percent_3_Bucket_2: 85467
Non-critical_ROB_Stalls_Percent_3_Bucket_2: 90827
Critical_ROB_Stalls_Percent_3_Bucket_3: 31932
Non-critical_ROB_Stalls_Percent_3_Bucket_3: 16304
Critical_ROB_Stalls_Percent_3_Bucket_4: 33942
Non-critical_ROB_Stalls_Percent_3_Bucket_4: 17852
Critical_ROB_Stalls_Percent_3_Bucket_5: 23266
Non-critical_ROB_Stalls_Percent_3_Bucket_5: 18472
Critical_ROB_Stalls_Percent_3_Bucket_6: 36458
Non-critical_ROB_Stalls_Percent_3_Bucket_6: 37423
Critical_ROB_Stalls_Percent_4_Bucket_0: 850912
Non-critical_ROB_Stalls_Percent_4_Bucket_0: 470228
Critical_ROB_Stalls_Percent_4_Bucket_1: 1270074
Non-critical_ROB_Stalls_Percent_4_Bucket_1: 244282
Critical_ROB_Stalls_Percent_4_Bucket_2: 87251
Non-critical_ROB_Stalls_Percent_4_Bucket_2: 89043
Critical_ROB_Stalls_Percent_4_Bucket_3: 34113
Non-critical_ROB_Stalls_Percent_4_Bucket_3: 14123
Critical_ROB_Stalls_Percent_4_Bucket_4: 36091
Non-critical_ROB_Stalls_Percent_4_Bucket_4: 15703
Critical_ROB_Stalls_Percent_4_Bucket_5: 26008
Non-critical_ROB_Stalls_Percent_4_Bucket_5: 15730
Critical_ROB_Stalls_Percent_4_Bucket_6: 39788
Non-critical_ROB_Stalls_Percent_4_Bucket_6: 34093
Critical_ROB_Stalls_Percent_5_Bucket_0: 961611
Non-critical_ROB_Stalls_Percent_5_Bucket_0: 359529
Critical_ROB_Stalls_Percent_5_Bucket_1: 1270475
Non-critical_ROB_Stalls_Percent_5_Bucket_1: 243881
Critical_ROB_Stalls_Percent_5_Bucket_2: 87477
Non-critical_ROB_Stalls_Percent_5_Bucket_2: 88817
Critical_ROB_Stalls_Percent_5_Bucket_3: 34651
Non-critical_ROB_Stalls_Percent_5_Bucket_3: 13585
Critical_ROB_Stalls_Percent_5_Bucket_4: 36332
Non-critical_ROB_Stalls_Percent_5_Bucket_4: 15462
Critical_ROB_Stalls_Percent_5_Bucket_5: 26142
Non-critical_ROB_Stalls_Percent_5_Bucket_5: 15596
Critical_ROB_Stalls_Percent_5_Bucket_6: 39816
Non-critical_ROB_Stalls_Percent_5_Bucket_6: 34065
Critical_ROB_Stalls_Percent_6_Bucket_0: 1069260
Non-critical_ROB_Stalls_Percent_6_Bucket_0: 251880
Critical_ROB_Stalls_Percent_6_Bucket_1: 1324438
Non-critical_ROB_Stalls_Percent_6_Bucket_1: 189918
Critical_ROB_Stalls_Percent_6_Bucket_2: 100875
Non-critical_ROB_Stalls_Percent_6_Bucket_2: 75419
Critical_ROB_Stalls_Percent_6_Bucket_3: 36937
Non-critical_ROB_Stalls_Percent_6_Bucket_3: 11299
Critical_ROB_Stalls_Percent_6_Bucket_4: 39537
Non-critical_ROB_Stalls_Percent_6_Bucket_4: 12257
Critical_ROB_Stalls_Percent_6_Bucket_5: 28671
Non-critical_ROB_Stalls_Percent_6_Bucket_5: 13067
Critical_ROB_Stalls_Percent_6_Bucket_6: 45364
Non-critical_ROB_Stalls_Percent_6_Bucket_6: 28517
Critical_ROB_Stalls_Percent_7_Bucket_0: 1121443
Non-critical_ROB_Stalls_Percent_7_Bucket_0: 199697
Critical_ROB_Stalls_Percent_7_Bucket_1: 1355615
Non-critical_ROB_Stalls_Percent_7_Bucket_1: 158741
Critical_ROB_Stalls_Percent_7_Bucket_2: 120395
Non-critical_ROB_Stalls_Percent_7_Bucket_2: 55899
Critical_ROB_Stalls_Percent_7_Bucket_3: 39432
Non-critical_ROB_Stalls_Percent_7_Bucket_3: 8804
Critical_ROB_Stalls_Percent_7_Bucket_4: 41322
Non-critical_ROB_Stalls_Percent_7_Bucket_4: 10472
Critical_ROB_Stalls_Percent_7_Bucket_5: 30645
Non-critical_ROB_Stalls_Percent_7_Bucket_5: 11093
Critical_ROB_Stalls_Percent_7_Bucket_6: 54230
Non-critical_ROB_Stalls_Percent_7_Bucket_6: 19651
Critical_ROB_Stalls_Percent_8_Bucket_0: 1199111
Non-critical_ROB_Stalls_Percent_8_Bucket_0: 122029
Critical_ROB_Stalls_Percent_8_Bucket_1: 1374828
Non-critical_ROB_Stalls_Percent_8_Bucket_1: 139528
Critical_ROB_Stalls_Percent_8_Bucket_2: 158070
Non-critical_ROB_Stalls_Percent_8_Bucket_2: 18224
Critical_ROB_Stalls_Percent_8_Bucket_3: 42296
Non-critical_ROB_Stalls_Percent_8_Bucket_3: 5940
Critical_ROB_Stalls_Percent_8_Bucket_4: 44394
Non-critical_ROB_Stalls_Percent_8_Bucket_4: 7400
Critical_ROB_Stalls_Percent_8_Bucket_5: 34101
Non-critical_ROB_Stalls_Percent_8_Bucket_5: 7637
Critical_ROB_Stalls_Percent_8_Bucket_6: 63529
Non-critical_ROB_Stalls_Percent_8_Bucket_6: 10352
Average ROB occupancy Load Stall Begin: 57.7788
Average ROB occupancy Load Stall End: 71.4798
Min ROB occupancy Load Stall Begin: 2
Max ROB occupancy Load Stall Begin: 352
Min ROB occupancy Load Stall End: 2
Max ROB occupancy Load Stall End: 352
Average ROB occupancy Critical Load Stall Begin: -nan
Average ROB occupancy Critical Load Stall End: -nan
Min ROB occupancy Critical Load Stall Begin: 400
Max ROB occupancy Critical Load Stall Begin: 0
Min ROB occupancy Critical Load Stall End: 400
Max ROB occupancy Critical Load Stall End: 0
 ROB Load Stall Begin Bucket Count 0: 2025522
 ROB Load Stall End Bucket Count 0: 1321140
 ROB Critical Load Stall Begin Bucket Count 0: 0
 ROB Critical Load Stall End Bucket Count 0: 0
 ROB Load Stall Begin Bucket Count 1: 917842
 ROB Load Stall End Bucket Count 1: 1514356
 ROB Critical Load Stall Begin Bucket Count 1: 0
 ROB Critical Load Stall End Bucket Count 1: 0
 ROB Load Stall Begin Bucket Count 2: 102674
 ROB Load Stall End Bucket Count 2: 176294
 ROB Critical Load Stall Begin Bucket Count 2: 0
 ROB Critical Load Stall End Bucket Count 2: 0
 ROB Load Stall Begin Bucket Count 3: 48159
 ROB Load Stall End Bucket Count 3: 48236
 ROB Critical Load Stall Begin Bucket Count 3: 0
 ROB Critical Load Stall End Bucket Count 3: 0
 ROB Load Stall Begin Bucket Count 4: 48676
 ROB Load Stall End Bucket Count 4: 51794
 ROB Critical Load Stall Begin Bucket Count 4: 0
 ROB Critical Load Stall End Bucket Count 4: 0
 ROB Load Stall Begin Bucket Count 5: 36548
 ROB Load Stall End Bucket Count 5: 41738
 ROB Critical Load Stall Begin Bucket Count 5: 0
 ROB Critical Load Stall End Bucket Count 5: 0
 ROB Load Stall Begin Bucket Count 6: 48018
 ROB Load Stall End Bucket Count 6: 73881
 ROB Critical Load Stall Begin Bucket Count 6: 0
 ROB Critical Load Stall End Bucket Count 6: 0
PIST Tag Read Accesses: 539476
PIST Read Accesses: 269738
PIST Tag Write Accesses: 539476
PIST Write Accesses: 269738
Criticality detector called times: 778793
Max global_stall_cycles_count: 590615
Threshold Modified: 1 times, factor: -1
Sturdy critical IP cache stats: 
 Unused entries: 0
CIC Tag Read Accesses: 0
CIC Read Accesses: 0
CIC Tag Write Accesses: 0
CIC Write Accesses: 0
Wobbly critical IP cache stats: 
 Unused entries: 112
CIC Tag Read Accesses: 209541359
CIC Read Accesses: 0
CIC Tag Write Accesses: 3710298
CIC Write Accesses: 0
ITLB TOTAL     ACCESS:   12056454  HIT:   12056454  MISS:          0  HIT %:        100  MISS %:          0   MPKI: 0
ITLB LOAD TRANSLATION ACCESS:   12056454  HIT:   12056454  MISS:          0  HIT %:        100  MISS %:          0   MPKI: 0
ITLB PREFETCH  REQUESTED:          0  ISSUED:          0  USEFUL:          0  USELESS:          0
ITLB USEFUL LOAD PREFETCHES:          0 PREFETCH ISSUED TO LOWER LEVEL:          0  ACCURACY: -nan
ITLB TIMELY PREFETCHES:          0 LATE PREFETCHES: 0 DROPPED PREFETCHES: 0
ITLB PREFETCHES SAME FILL-ORIGIN LEVEL: 0 DIFFERENT FILL-ORIGIN LEVEL: 0
ITLB AVERAGE MISS LATENCY: -nan cycles
ITLB RQ	ACCESS:   13937851	FORWARD:          0	MERGED:    1881397	TO_CACHE:   12056454

DTLB TOTAL     ACCESS:   24552846  HIT:   24337711  MISS:     215135  HIT %:    99.1238  MISS %:   0.876212   MPKI: 2.15135
DTLB LOAD TRANSLATION ACCESS:   24552846  HIT:   24337711  MISS:     215135  HIT %:    99.1238  MISS %:   0.876212   MPKI: 2.15135
DTLB PREFETCH  REQUESTED:          0  ISSUED:          0  USEFUL:          0  USELESS:          0
DTLB USEFUL LOAD PREFETCHES:          0 PREFETCH ISSUED TO LOWER LEVEL:          0  ACCURACY: -nan
DTLB TIMELY PREFETCHES:          0 LATE PREFETCHES: 0 DROPPED PREFETCHES: 0
DTLB PREFETCHES SAME FILL-ORIGIN LEVEL: 0 DIFFERENT FILL-ORIGIN LEVEL: 0
DTLB AVERAGE MISS LATENCY: 43.7816 cycles
DTLB RQ	ACCESS:   36951182	FORWARD:          0	MERGED:   12387339	TO_CACHE:   24563843

STLB TOTAL     ACCESS:     215135  HIT:     193831  MISS:      21304  HIT %:    90.0974  MISS %:    9.90262   MPKI: 0.21304
STLB LOAD TRANSLATION ACCESS:     215135  HIT:     193831  MISS:      21304  HIT %:    90.0974  MISS %:    9.90262   MPKI: 0.21304
STLB PREFETCH  REQUESTED:          0  ISSUED:          0  USEFUL:          0  USELESS:          0
STLB USEFUL LOAD PREFETCHES:          0 PREFETCH ISSUED TO LOWER LEVEL:          0  ACCURACY: -nan
STLB TIMELY PREFETCHES:          0 LATE PREFETCHES: 0 DROPPED PREFETCHES: 0
STLB PREFETCHES SAME FILL-ORIGIN LEVEL: 0 DIFFERENT FILL-ORIGIN LEVEL: 0
STLB AVERAGE MISS LATENCY: 344.805 cycles
STLB RQ	ACCESS:     215135	FORWARD:          0	MERGED:          0	TO_CACHE:     215135

STLB Hit, L1D data hit: 0
STLB Hit, L2C data hit: 0
STLB Hit, LLC data hit: 0
STLB Hit, LLC data miss: 0
STLB STLB hints to L2: 0
L1D TOTAL     ACCESS:   35143831  HIT:   33458634  MISS:    1685197  HIT %:    95.2049  MISS %:    4.79514   MPKI: 16.852
L1D LOAD      ACCESS:   18625186  HIT:   17565130  MISS:    1060056  HIT %:    94.3085  MISS %:    5.69152   MPKI: 10.6006
L1D RFO       ACCESS:   16518645  HIT:   15893504  MISS:     625141  HIT %:    96.2155  MISS %:    3.78446   MPKI: 6.25141
L1D PREFETCH  REQUESTED:          0  ISSUED:          0  USEFUL:          0  USELESS:          0
L1D USEFUL LOAD PREFETCHES:          0 PREFETCH ISSUED TO LOWER LEVEL:          0  ACCURACY: -nan
L1D TIMELY PREFETCHES:          0 LATE PREFETCHES: 0 DROPPED PREFETCHES: 0
L1D PREFETCHES SAME FILL-ORIGIN LEVEL: 0 DIFFERENT FILL-ORIGIN LEVEL: 0
L1D AVERAGE MISS LATENCY: 155.5 cycles
L1D RQ	ACCESS:   28134575	FORWARD:          0	MERGED:    9309871	TO_CACHE:   18642083
L1D WQ	ACCESS:   18324522	FORWARD:     182621	MERGED:      15423	TO_CACHE:   18309099

L1D UNIQUE REGIONS ACCESSED: 0
L1D REGIONS CONFLICTS: 0
L1D Cross Page Prefetch Requests: 0
L1D Same Page Prefetch Requests: 0
L1D ROI Sum of L1D PQ occupancy: 0
L1D PREFETCHES PUSHED FROM L2C: 0
L1I TOTAL     ACCESS:   13937850  HIT:   13937850  MISS:          0  HIT %:        100  MISS %:          0   MPKI: 0
L1I LOAD      ACCESS:   13937850  HIT:   13937850  MISS:          0  HIT %:        100  MISS %:          0   MPKI: 0
L1I PREFETCH  REQUESTED:          0  ISSUED:          0  USEFUL:          0  USELESS:          0
L1I USEFUL LOAD PREFETCHES:          0 PREFETCH ISSUED TO LOWER LEVEL:          0  ACCURACY: -nan
L1I TIMELY PREFETCHES:          0 LATE PREFETCHES: 0 DROPPED PREFETCHES: 0
L1I PREFETCHES SAME FILL-ORIGIN LEVEL: 0 DIFFERENT FILL-ORIGIN LEVEL: 0
L1I AVERAGE MISS LATENCY: -nan cycles
L1I RQ	ACCESS:   20387827	FORWARD:          0	MERGED:    6449976	TO_CACHE:   13937851

BTB TOTAL     ACCESS:     843996  HIT:     843991  MISS:          5  HIT %:    99.9994  MISS %: 0.00059242   MPKI: 5e-05
BTB BRANCH_DIRECT_JUMP	ACCESS:          0  HIT:          0  MISS:          0
BTB BRANCH_INDIRECT	ACCESS:          0  HIT:          0  MISS:          0
BTB BRANCH_CONDITIONAL	ACCESS:     843996  HIT:     843991  MISS:          5
BTB BRANCH_DIRECT_CALL	ACCESS:          0  HIT:          0  MISS:          0
BTB BRANCH_INDIRECT_CALL	ACCESS:          0  HIT:          0  MISS:          0
BTB BRANCH_RETURN	ACCESS:          0  HIT:          0  MISS:          0
BTB BRANCH_OTHER ACCESS:          0  HIT:          0  MISS:          0

L2C TOTAL     ACCESS:    3342957  HIT:    1844218  MISS:    1498739  HIT %:    55.1673  MISS %:    44.8327   MPKI: 14.9874
L2C LOAD      ACCESS:    1059865  HIT:    1019111  MISS:      40754  HIT %:    96.1548  MISS %:    3.84521   MPKI: 0.40754
L2C DATA LOAD MPKI: 0.40754
L2C INSTRUCTION LOAD MPKI: 0
L2C RFO       ACCESS:     610284  HIT:      14899  MISS:     595385  HIT %:    2.44132  MISS %:    97.5587   MPKI: 5.95385
L2C PREFETCH  ACCESS:    1018827  HIT:     179257  MISS:     839570  HIT %:    17.5944  MISS %:    82.4056   MPKI: 8.3957
L2C DATA PREFETCH MPKI: 8.3957
L2C INSTRUCTION PREFETCH MPKI: 0
L2C WRITEBACK ACCESS:     632660  HIT:     612998  MISS:      19662  HIT %:    96.8922  MISS %:    3.10783   MPKI: 0.19662
L2C LOAD TRANSLATION ACCESS:      21321  HIT:      17953  MISS:       3368  HIT %:    84.2034  MISS %:    15.7966   MPKI: 0.03368
L2C PREFETCH  REQUESTED:    1019109  ISSUED:    1019109  USEFUL:     824563  USELESS:      15021
L2C USEFUL LOAD PREFETCHES:     824563 PREFETCH ISSUED TO LOWER LEVEL:     839819  ACCURACY: 98.1834
L2C TIMELY PREFETCHES:     824563 LATE PREFETCHES: 249 DROPPED PREFETCHES: 0
L2C PREFETCHES SAME FILL-ORIGIN LEVEL: 839819 DIFFERENT FILL-ORIGIN LEVEL: 0
L2C AVERAGE MISS LATENCY: 286.557 cycles
L2C RQ	ACCESS:    1706518	FORWARD:          0	MERGED:          0	TO_CACHE:    1691470
L2C WQ	ACCESS:     632660	FORWARD:      15048	MERGED:          0	TO_CACHE:     632660
L2C PQ	ACCESS:    1019109	FORWARD:          0	MERGED:          0	TO_CACHE:    1019109

L2C Instructions Evicting Data 0
L2C Translations Evicting Data 3362
L2C Data Evicting Data 1472451
L2C Instructions Evicting Instructions 0
L2C Translations Evicting Instructions 0
L2C Data Evicting Instructions 0
L2C Instructions Evicting Translations 0
L2C Translations Evicting Translations 6
L2C Data Evicting Translations 3258
L2C Dense regions hint from L2: 0
PSCL5 TOTAL     ACCESS:      21304  HIT:      21304  MISS:          0  HIT %:        100  MISS %:          0   MPKI: 0
PSCL5 LOAD TRANSLATION ACCESS:      21304  HIT:      21304  MISS:          0  HIT %:        100  MISS %:          0   MPKI: 0
PSCL5 PREFETCH  REQUESTED:          0  ISSUED:          0  USEFUL:          0  USELESS:          0
PSCL5 USEFUL LOAD PREFETCHES:          0 PREFETCH ISSUED TO LOWER LEVEL:          0  ACCURACY: -nan
PSCL5 TIMELY PREFETCHES:          0 LATE PREFETCHES: 0 DROPPED PREFETCHES: 0
PSCL5 PREFETCHES SAME FILL-ORIGIN LEVEL: 0 DIFFERENT FILL-ORIGIN LEVEL: 0

PSCL4 TOTAL     ACCESS:      21304  HIT:      21304  MISS:          0  HIT %:        100  MISS %:          0   MPKI: 0
PSCL4 LOAD TRANSLATION ACCESS:      21304  HIT:      21304  MISS:          0  HIT %:        100  MISS %:          0   MPKI: 0
PSCL4 PREFETCH  REQUESTED:          0  ISSUED:          0  USEFUL:          0  USELESS:          0
PSCL4 USEFUL LOAD PREFETCHES:          0 PREFETCH ISSUED TO LOWER LEVEL:          0  ACCURACY: -nan
PSCL4 TIMELY PREFETCHES:          0 LATE PREFETCHES: 0 DROPPED PREFETCHES: 0
PSCL4 PREFETCHES SAME FILL-ORIGIN LEVEL: 0 DIFFERENT FILL-ORIGIN LEVEL: 0

PSCL3 TOTAL     ACCESS:      17066  HIT:      17054  MISS:         12  HIT %:    99.9297  MISS %:  0.0703152   MPKI: 0.00012
PSCL3 LOAD TRANSLATION ACCESS:      17066  HIT:      17054  MISS:         12  HIT %:    99.9297  MISS %:  0.0703152   MPKI: 0.00012
PSCL3 PREFETCH  REQUESTED:          0  ISSUED:          0  USEFUL:          0  USELESS:          0
PSCL3 USEFUL LOAD PREFETCHES:          0 PREFETCH ISSUED TO LOWER LEVEL:          0  ACCURACY: -nan
PSCL3 TIMELY PREFETCHES:          0 LATE PREFETCHES: 0 DROPPED PREFETCHES: 0
PSCL3 PREFETCHES SAME FILL-ORIGIN LEVEL: 0 DIFFERENT FILL-ORIGIN LEVEL: 0

PSCL2 TOTAL     ACCESS:      21304  HIT:      21262  MISS:         42  HIT %:    99.8029  MISS %:   0.197146   MPKI: 0.00042
PSCL2 LOAD TRANSLATION ACCESS:      21304  HIT:      21262  MISS:         42  HIT %:    99.8029  MISS %:   0.197146   MPKI: 0.00042
PSCL2 PREFETCH  REQUESTED:          0  ISSUED:          0  USEFUL:          0  USELESS:          0
PSCL2 USEFUL LOAD PREFETCHES:          0 PREFETCH ISSUED TO LOWER LEVEL:          0  ACCURACY: -nan
PSCL2 TIMELY PREFETCHES:          0 LATE PREFETCHES: 0 DROPPED PREFETCHES: 0
PSCL2 PREFETCHES SAME FILL-ORIGIN LEVEL: 0 DIFFERENT FILL-ORIGIN LEVEL: 0

LLC TOTAL     ACCESS:    2074714  HIT:     697080  MISS:    1377634  HIT %:    33.5988  MISS %:    66.4012   MPKI: 13.7763
LLC LOAD      ACCESS:      40505  HIT:       6330  MISS:      34175  HIT %:    15.6277  MISS %:    84.3723   MPKI: 0.34175
LLC RFO       ACCESS:     595385  HIT:          0  MISS:     595385  HIT %:          0  MISS %:        100   MPKI: 5.95385
LLC PREFETCH  ACCESS:     839819  HIT:     103903  MISS:     735916  HIT %:    12.3721  MISS %:    87.6279   MPKI: 7.35916
LLC WRITEBACK ACCESS:     595637  HIT:     586199  MISS:       9438  HIT %:    98.4155  MISS %:    1.58452   MPKI: 0.09438
LLC LOAD TRANSLATION ACCESS:       3368  HIT:        648  MISS:       2720  HIT %:    19.2399  MISS %:    80.7601   MPKI: 0.0272
LLC PREFETCH  REQUESTED:          0  ISSUED:          0  USEFUL:       1649  USELESS:     734311
LLC USEFUL LOAD PREFETCHES:       1649 PREFETCH ISSUED TO LOWER LEVEL:     735916  ACCURACY: 0.224074
LLC TIMELY PREFETCHES:       1649 LATE PREFETCHES: 0 DROPPED PREFETCHES: 0
LLC PREFETCHES SAME FILL-ORIGIN LEVEL: 0 DIFFERENT FILL-ORIGIN LEVEL: 0
LLC AVERAGE MISS LATENCY: 278.664 cycles
LLC RQ	ACCESS:     639258	FORWARD:          0	MERGED:          0	TO_CACHE:     639258
LLC WQ	ACCESS:     595637	FORWARD:          0	MERGED:          0	TO_CACHE:     595637
LLC PQ	ACCESS:     839819	FORWARD:          0	MERGED:          0	TO_CACHE:     839819

LLC Dense regions hint to LLC: 0

RAW hits: 1188383
Loads Generated: 29322959
Loads sent to L1D: 28134575
Stores Generated: 18324517
Stores sent to L1D: 18324522
Major fault: 0 Minor fault: 30129
Allocated PAGES: 30129
[Bingo] PHT Access: 37170
[Bingo] PHT Hit PC+Addr: 685
[Bingo] PHT Hit PC+Offs: 36274
[Bingo] PHT Miss: 211
[Bingo] Prefetch PC+Addr: 0
[Bingo] Prefetch PC+Offs: 0
[Bingo] Useful PC+Addr: 0
[Bingo] Useful PC+Offs: 0
[Bingo] Useless PC+Addr: 0
[Bingo] Useless PC+Offs: 0
[Bingo] L1 Prefetch per Region: 0
[Bingo] L2 Prefetch per Region: 29.7534
[Bingo] L3 Prefetch per Region: 0
[Bingo] No Prefetch per Region: 2.24657
[Bingo] Number of Voters Mean: 15.374
[Bingo] Number of Voters SD: 10.4149
PHT read accesses: 565907
PHT write accesses: 34895
AT read accesses: 1055576
AT write accesses: 1056122
FT read accesses: 109814
FT write accesses: 37170
PS read accesses: 137727
PS write accesses: 36959
PHT tag read accesses: 1677939
PHT tag write accesses: 35580
AT tag read accesses: 42300752
AT tag write accesses: 1090450
FT tag read accesses: 26362195
FT tag write accesses: 110663
PS tag read accesses: 18144496
PS tag write accesses: 171888

DRAM Statistics
 CHANNEL 0
 RQ ROW_BUFFER_HIT:     884740  ROW_BUFFER_MISS:     483456
 DBUS_CONGESTED:        151
 WQ ROW_BUFFER_HIT:     130561  ROW_BUFFER_MISS:     465147  FULL:          0

 AVG_CONGESTED_CYCLE: 4
 All warmup complete: 2
Channel 0 Bank busy for read cycles: 0
Channel 0 Bank busy for write cycles: 0
Channel 0
Rank 0
0banks busy for read cycles: 4752660
0banks busy for write cycles: 84463
1banks busy for read cycles: 38890467
1banks busy for write cycles: 11050418
2banks busy for read cycles: 1481745
2banks busy for write cycles: 5205959
3banks busy for read cycles: 734479
3banks busy for write cycles: 2477059
4banks busy for read cycles: 717313
4banks busy for write cycles: 1522268
5banks busy for read cycles: 663855
5banks busy for write cycles: 1281346
6banks busy for read cycles: 681228
6banks busy for write cycles: 1335174
7banks busy for read cycles: 1305382
7banks busy for write cycles: 1682098
8banks busy for read cycles: 6750128
8banks busy for write cycles: 4111663

CPU 0 Branch Prediction Accuracy: 99.9697% MPKI: 0.00256 Average ROB Occupancy at Mispredict: 76.7148
Branch types
NOT_BRANCH: 99155698 99.1557%
BRANCH_DIRECT_JUMP: 0 0%
BRANCH_INDIRECT: 0 0%
BRANCH_CONDITIONAL: 844001 0.844001%
BRANCH_DIRECT_CALL: 0 0%
BRANCH_INDIRECT_CALL: 0 0%
BRANCH_RETURN: 0 0%
BRANCH_OTHER: 0 0%

DRAM PAGES: 1048576
Allocated PAGES: 30129
