
*** ChampSim Multicore Out-of-Order Simulator ***

Warmup Instructions: 50000000
Simulation Instructions: 100000000
Number of CPUs: 1
LLC sets: 2048
LLC ways: 16
Off-chip DRAM Size: 4096 MB Channels: 1 Width: 64-bit Data Rate: 6400 MT/s
CPU 0 runs ../SPEC_2006_2017//603.bwaves_s-1740B.champsimtrace.xz
.xz
NUM_OF_IPS_IN_CRITICAL_IP_TRAINING: 64
NUM_OF_CRITICAL_IP_TRAINING_TABLE_WAYS: 2
NUM_OF_CRITICAL_IP_TRAINING_TABLE_SETS: 32
WOBBLY_CRITICAL_IP_CACHE_SETS: 32
WOBBLY_CRITICAL_IP_CACHE_WAYS: 4
BTB has LRU replacement policy
ITLB has LRU replacement policy
DTLB has LRU replacement policy
STLB has LRU replacement policy
L1I has LRU replacement policy
IP Table Entries: 64
L1D has LRU replacement policy
Initialize SRRIP state for L2C
Initialize DRRIP state for LLC
Heartbeat CPU 0 instructions: 10000000 cycles: 3310407 heartbeat IPC: 3.02078 cumulative IPC: 3.02078 (Simulation time: 0 hr 5 min 11 sec) 
Heartbeat CPU 0 instructions: 20000002 cycles: 6619421 heartbeat IPC: 3.02205 cumulative IPC: 3.02141 (Simulation time: 0 hr 10 min 15 sec) 
Heartbeat CPU 0 instructions: 30000003 cycles: 9929233 heartbeat IPC: 3.02132 cumulative IPC: 3.02138 (Simulation time: 0 hr 15 min 7 sec) 
Heartbeat CPU 0 instructions: 40000001 cycles: 13239436 heartbeat IPC: 3.02096 cumulative IPC: 3.02128 (Simulation time: 0 hr 19 min 42 sec) 
Heartbeat CPU 0 instructions: 50000003 cycles: 16549558 heartbeat IPC: 3.02104 cumulative IPC: 3.02123 (Simulation time: 0 hr 24 min 14 sec) 

Warmup complete CPU 0 instructions: 50000003 cycles: 16549558 (Simulation time: 0 hr 24 min 14 sec) 

% increase in all ip prefetch 183.002
% increase in all ip prefetch -0.0441297
Heartbeat CPU 0 instructions: 60000000 cycles: 26142338 heartbeat IPC: 1.04245 cumulative IPC: 1.04245 (Simulation time: 0 hr 27 min 13 sec) 
Heartbeat CPU 0 instructions: 70000000 cycles: 35726907 heartbeat IPC: 1.04334 cumulative IPC: 1.0429 (Simulation time: 0 hr 30 min 9 sec) 
Heartbeat CPU 0 instructions: 80000003 cycles: 45308438 heartbeat IPC: 1.04367 cumulative IPC: 1.04316 (Simulation time: 0 hr 33 min 9 sec) 
Heartbeat CPU 0 instructions: 90000001 cycles: 54889998 heartbeat IPC: 1.04367 cumulative IPC: 1.04328 (Simulation time: 0 hr 36 min 2 sec) 
Heartbeat CPU 0 instructions: 100000002 cycles: 64473499 heartbeat IPC: 1.04346 cumulative IPC: 1.04332 (Simulation time: 0 hr 39 min 2 sec) 
Heartbeat CPU 0 instructions: 110000000 cycles: 74058212 heartbeat IPC: 1.04333 cumulative IPC: 1.04332 (Simulation time: 0 hr 41 min 54 sec) 
Heartbeat CPU 0 instructions: 120000002 cycles: 83641477 heartbeat IPC: 1.04349 cumulative IPC: 1.04334 (Simulation time: 0 hr 44 min 38 sec) 
Heartbeat CPU 0 instructions: 130000000 cycles: 93227413 heartbeat IPC: 1.04319 cumulative IPC: 1.04333 (Simulation time: 0 hr 47 min 8 sec) 
Heartbeat CPU 0 instructions: 140000003 cycles: 102810209 heartbeat IPC: 1.04354 cumulative IPC: 1.04335 (Simulation time: 0 hr 49 min 29 sec) 
Heartbeat CPU 0 instructions: 150000002 cycles: 112391481 heartbeat IPC: 1.0437 cumulative IPC: 1.04338 (Simulation time: 0 hr 51 min 28 sec) 
Finished CPU 0 instructions: 100000001 cycles: 95841924 cumulative IPC: 1.04338 (Simulation time: 0 hr 51 min 28 sec) 

ChampSim completed all CPUs

Region of Interest Statistics

CPU 0 cumulative IPC: 1.04338 instructions: 100000001 cycles: 95841924

CPU 0 Average Load ROB stall cycles: 3.24464e+07
CPU 0 Fraction of times ROB stalled by Loads: 50.3172
CPU 0 Percentage of Load stall cycles in Total stall cycles: 7.25195e+08
Issued all: 49794357
Issued LT all: 36394431
rob_not_full_when_issued_lt_all: 35367801
Issued LT one: 31359021
rob_not_full_when_issued_lt_one: 30376260
 Total stall cycles: 72855524
 Total load stall cycles: 528344441555399
CPU 0 NUM of IPS identified critical: 0
CPU 0 Num of Load IPs stalling ROB: 88
Threshold modification factor: -1
Max PIST entries: 42
Min PIST entries: 0
Avg PIST entries: 20.9533
Trouble in retire width: 0.880596
MaC = Marked as critical.
lt_50_percent_before_Mac: 0
gt_90_percent_before_Mac: 0
gt_75_percent_before_Mac: 0
gt_50_percent_before_Mac: 0
stall_proportion_bin_same_before_after: 0
stall_proportion_bin_lower_before_after: 0
stall_proportion_bin_upper_before_after: 0
average_stall_proportion_before: -nan
average_stall_proportion_after: -nan
Critical IP stalls, total frequency: 0
Non-critical IP stalls, total frequency: 8193450
Total Freq all stalling IPs: 8193450
stat_90_percent_critical_ip_stalls_freq: 7392969
stat_90_percent_non_critical_ip_stalls_freq: 800481
Critical_IP_ROB_Stalls_Bucket_0: 0
Non-critical_IP_ROB_Stalls_Bucket_0: 7221983
Critical_IP_ROB_Stalls_Bucket_1: 0
Non-critical_IP_ROB_Stalls_Bucket_1: 880974
Critical_IP_ROB_Stalls_Bucket_2: 0
Non-critical_IP_ROB_Stalls_Bucket_2: 20790
Critical_IP_ROB_Stalls_Bucket_3: 0
Non-critical_IP_ROB_Stalls_Bucket_3: 18143
Critical_IP_ROB_Stalls_Bucket_4: 0
Non-critical_IP_ROB_Stalls_Bucket_4: 11929
Critical_IP_ROB_Stalls_Bucket_5: 0
Non-critical_IP_ROB_Stalls_Bucket_5: 14308
Critical_IP_ROB_Stalls_Bucket_6: 0
Non-critical_IP_ROB_Stalls_Bucket_6: 25323
0 => IPs accounting for >50 percent of stalls, 1 => 55, 2 => 60, 3 => 65 and so on till 90.
percent50: 57.5806 num IPs:  3
percent55: 57.5806 num IPs: 3
percent60: 71.341 num IPs: 4
percent65: 71.341 num IPs: 4
percent70: 71.341 num IPs: 4
percent75: 78.6047 num IPs: 5
percent80: 81.4133 num IPs: 6
percent85: 86.1458 num IPs: 8
percent90: 90.2302 num IPs: 11
Critical_ROB_Stalls_Percent_0_Bucket_0: 4476969
Non-critical_ROB_Stalls_Percent_0_Bucket_0: 2745014
Critical_ROB_Stalls_Percent_0_Bucket_1: 212569
Non-critical_ROB_Stalls_Percent_0_Bucket_1: 668405
Critical_ROB_Stalls_Percent_0_Bucket_2: 7343
Non-critical_ROB_Stalls_Percent_0_Bucket_2: 13447
Critical_ROB_Stalls_Percent_0_Bucket_3: 6756
Non-critical_ROB_Stalls_Percent_0_Bucket_3: 11387
Critical_ROB_Stalls_Percent_0_Bucket_4: 3936
Non-critical_ROB_Stalls_Percent_0_Bucket_4: 7993
Critical_ROB_Stalls_Percent_0_Bucket_5: 4722
Non-critical_ROB_Stalls_Percent_0_Bucket_5: 9586
Critical_ROB_Stalls_Percent_0_Bucket_6: 5541
Non-critical_ROB_Stalls_Percent_0_Bucket_6: 19782
Critical_ROB_Stalls_Percent_1_Bucket_0: 4476969
Non-critical_ROB_Stalls_Percent_1_Bucket_0: 2745014
Critical_ROB_Stalls_Percent_1_Bucket_1: 212569
Non-critical_ROB_Stalls_Percent_1_Bucket_1: 668405
Critical_ROB_Stalls_Percent_1_Bucket_2: 7343
Non-critical_ROB_Stalls_Percent_1_Bucket_2: 13447
Critical_ROB_Stalls_Percent_1_Bucket_3: 6756
Non-critical_ROB_Stalls_Percent_1_Bucket_3: 11387
Critical_ROB_Stalls_Percent_1_Bucket_4: 3936
Non-critical_ROB_Stalls_Percent_1_Bucket_4: 7993
Critical_ROB_Stalls_Percent_1_Bucket_5: 4722
Non-critical_ROB_Stalls_Percent_1_Bucket_5: 9586
Critical_ROB_Stalls_Percent_1_Bucket_6: 5541
Non-critical_ROB_Stalls_Percent_1_Bucket_6: 19782
Critical_ROB_Stalls_Percent_2_Bucket_0: 5276235
Non-critical_ROB_Stalls_Percent_2_Bucket_0: 1945748
Critical_ROB_Stalls_Percent_2_Bucket_1: 534347
Non-critical_ROB_Stalls_Percent_2_Bucket_1: 346627
Critical_ROB_Stalls_Percent_2_Bucket_2: 10283
Non-critical_ROB_Stalls_Percent_2_Bucket_2: 10507
Critical_ROB_Stalls_Percent_2_Bucket_3: 7855
Non-critical_ROB_Stalls_Percent_2_Bucket_3: 10288
Critical_ROB_Stalls_Percent_2_Bucket_4: 4491
Non-critical_ROB_Stalls_Percent_2_Bucket_4: 7438
Critical_ROB_Stalls_Percent_2_Bucket_5: 5162
Non-critical_ROB_Stalls_Percent_2_Bucket_5: 9146
Critical_ROB_Stalls_Percent_2_Bucket_6: 6913
Non-critical_ROB_Stalls_Percent_2_Bucket_6: 18410
Critical_ROB_Stalls_Percent_3_Bucket_0: 5276235
Non-critical_ROB_Stalls_Percent_3_Bucket_0: 1945748
Critical_ROB_Stalls_Percent_3_Bucket_1: 534347
Non-critical_ROB_Stalls_Percent_3_Bucket_1: 346627
Critical_ROB_Stalls_Percent_3_Bucket_2: 10283
Non-critical_ROB_Stalls_Percent_3_Bucket_2: 10507
Critical_ROB_Stalls_Percent_3_Bucket_3: 7855
Non-critical_ROB_Stalls_Percent_3_Bucket_3: 10288
Critical_ROB_Stalls_Percent_3_Bucket_4: 4491
Non-critical_ROB_Stalls_Percent_3_Bucket_4: 7438
Critical_ROB_Stalls_Percent_3_Bucket_5: 5162
Non-critical_ROB_Stalls_Percent_3_Bucket_5: 9146
Critical_ROB_Stalls_Percent_3_Bucket_6: 6913
Non-critical_ROB_Stalls_Percent_3_Bucket_6: 18410
Critical_ROB_Stalls_Percent_4_Bucket_0: 5276235
Non-critical_ROB_Stalls_Percent_4_Bucket_0: 1945748
Critical_ROB_Stalls_Percent_4_Bucket_1: 534347
Non-critical_ROB_Stalls_Percent_4_Bucket_1: 346627
Critical_ROB_Stalls_Percent_4_Bucket_2: 10283
Non-critical_ROB_Stalls_Percent_4_Bucket_2: 10507
Critical_ROB_Stalls_Percent_4_Bucket_3: 7855
Non-critical_ROB_Stalls_Percent_4_Bucket_3: 10288
Critical_ROB_Stalls_Percent_4_Bucket_4: 4491
Non-critical_ROB_Stalls_Percent_4_Bucket_4: 7438
Critical_ROB_Stalls_Percent_4_Bucket_5: 5162
Non-critical_ROB_Stalls_Percent_4_Bucket_5: 9146
Critical_ROB_Stalls_Percent_4_Bucket_6: 6913
Non-critical_ROB_Stalls_Percent_4_Bucket_6: 18410
Critical_ROB_Stalls_Percent_5_Bucket_0: 5838258
Non-critical_ROB_Stalls_Percent_5_Bucket_0: 1383725
Critical_ROB_Stalls_Percent_5_Bucket_1: 561660
Non-critical_ROB_Stalls_Percent_5_Bucket_1: 319314
Critical_ROB_Stalls_Percent_5_Bucket_2: 11742
Non-critical_ROB_Stalls_Percent_5_Bucket_2: 9048
Critical_ROB_Stalls_Percent_5_Bucket_3: 8933
Non-critical_ROB_Stalls_Percent_5_Bucket_3: 9210
Critical_ROB_Stalls_Percent_5_Bucket_4: 5544
Non-critical_ROB_Stalls_Percent_5_Bucket_4: 6385
Critical_ROB_Stalls_Percent_5_Bucket_5: 6098
Non-critical_ROB_Stalls_Percent_5_Bucket_5: 8210
Critical_ROB_Stalls_Percent_5_Bucket_6: 8199
Non-critical_ROB_Stalls_Percent_5_Bucket_6: 17124
Critical_ROB_Stalls_Percent_6_Bucket_0: 6068312
Non-critical_ROB_Stalls_Percent_6_Bucket_0: 1153671
Critical_ROB_Stalls_Percent_6_Bucket_1: 561667
Non-critical_ROB_Stalls_Percent_6_Bucket_1: 319307
Critical_ROB_Stalls_Percent_6_Bucket_2: 11751
Non-critical_ROB_Stalls_Percent_6_Bucket_2: 9039
Critical_ROB_Stalls_Percent_6_Bucket_3: 8953
Non-critical_ROB_Stalls_Percent_6_Bucket_3: 9190
Critical_ROB_Stalls_Percent_6_Bucket_4: 5558
Non-critical_ROB_Stalls_Percent_6_Bucket_4: 6371
Critical_ROB_Stalls_Percent_6_Bucket_5: 6107
Non-critical_ROB_Stalls_Percent_6_Bucket_5: 8201
Critical_ROB_Stalls_Percent_6_Bucket_6: 8214
Non-critical_ROB_Stalls_Percent_6_Bucket_6: 17109
Critical_ROB_Stalls_Percent_7_Bucket_0: 6455991
Non-critical_ROB_Stalls_Percent_7_Bucket_0: 765992
Critical_ROB_Stalls_Percent_7_Bucket_1: 561679
Non-critical_ROB_Stalls_Percent_7_Bucket_1: 319295
Critical_ROB_Stalls_Percent_7_Bucket_2: 11764
Non-critical_ROB_Stalls_Percent_7_Bucket_2: 9026
Critical_ROB_Stalls_Percent_7_Bucket_3: 8973
Non-critical_ROB_Stalls_Percent_7_Bucket_3: 9170
Critical_ROB_Stalls_Percent_7_Bucket_4: 5561
Non-critical_ROB_Stalls_Percent_7_Bucket_4: 6368
Critical_ROB_Stalls_Percent_7_Bucket_5: 6119
Non-critical_ROB_Stalls_Percent_7_Bucket_5: 8189
Critical_ROB_Stalls_Percent_7_Bucket_6: 8225
Non-critical_ROB_Stalls_Percent_7_Bucket_6: 17098
Critical_ROB_Stalls_Percent_8_Bucket_0: 6670061
Non-critical_ROB_Stalls_Percent_8_Bucket_0: 551922
Critical_ROB_Stalls_Percent_8_Bucket_1: 673308
Non-critical_ROB_Stalls_Percent_8_Bucket_1: 207666
Critical_ROB_Stalls_Percent_8_Bucket_2: 15168
Non-critical_ROB_Stalls_Percent_8_Bucket_2: 5622
Critical_ROB_Stalls_Percent_8_Bucket_3: 10610
Non-critical_ROB_Stalls_Percent_8_Bucket_3: 7533
Critical_ROB_Stalls_Percent_8_Bucket_4: 6655
Non-critical_ROB_Stalls_Percent_8_Bucket_4: 5274
Critical_ROB_Stalls_Percent_8_Bucket_5: 7119
Non-critical_ROB_Stalls_Percent_8_Bucket_5: 7189
Critical_ROB_Stalls_Percent_8_Bucket_6: 10048
Non-critical_ROB_Stalls_Percent_8_Bucket_6: 15275
Average ROB occupancy Load Stall Begin: 34.5997
Average ROB occupancy Load Stall End: 42.2863
Min ROB occupancy Load Stall Begin: 2
Max ROB occupancy Load Stall Begin: 352
Min ROB occupancy Load Stall End: 2
Max ROB occupancy Load Stall End: 352
Average ROB occupancy Critical Load Stall Begin: -nan
Average ROB occupancy Critical Load Stall End: -nan
Min ROB occupancy Critical Load Stall Begin: 400
Max ROB occupancy Critical Load Stall Begin: 0
Min ROB occupancy Critical Load Stall End: 400
Max ROB occupancy Critical Load Stall End: 0
 ROB Load Stall Begin Bucket Count 0: 7862958
 ROB Load Stall End Bucket Count 0: 7221983
 ROB Critical Load Stall Begin Bucket Count 0: 0
 ROB Critical Load Stall End Bucket Count 0: 0
 ROB Load Stall Begin Bucket Count 1: 249480
 ROB Load Stall End Bucket Count 1: 880974
 ROB Critical Load Stall Begin Bucket Count 1: 0
 ROB Critical Load Stall End Bucket Count 1: 0
 ROB Load Stall Begin Bucket Count 2: 20379
 ROB Load Stall End Bucket Count 2: 20790
 ROB Critical Load Stall Begin Bucket Count 2: 0
 ROB Critical Load Stall End Bucket Count 2: 0
 ROB Load Stall Begin Bucket Count 3: 16792
 ROB Load Stall End Bucket Count 3: 18143
 ROB Critical Load Stall Begin Bucket Count 3: 0
 ROB Critical Load Stall End Bucket Count 3: 0
 ROB Load Stall Begin Bucket Count 4: 12394
 ROB Load Stall End Bucket Count 4: 11929
 ROB Critical Load Stall Begin Bucket Count 4: 0
 ROB Critical Load Stall End Bucket Count 4: 0
 ROB Load Stall Begin Bucket Count 5: 13179
 ROB Load Stall End Bucket Count 5: 14308
 ROB Critical Load Stall Begin Bucket Count 5: 0
 ROB Critical Load Stall End Bucket Count 5: 0
 ROB Load Stall Begin Bucket Count 6: 18269
 ROB Load Stall End Bucket Count 6: 25323
 ROB Critical Load Stall Begin Bucket Count 6: 0
 ROB Critical Load Stall End Bucket Count 6: 0
PIST Tag Read Accesses: 133196
PIST Read Accesses: 66598
PIST Tag Write Accesses: 133196
PIST Write Accesses: 66598
Criticality detector called times: 1245679
Max global_stall_cycles_count: 324547
Threshold Modified: 1 times, factor: -1
Sturdy critical IP cache stats: 
 Unused entries: 0
CIC Tag Read Accesses: 0
CIC Read Accesses: 0
CIC Tag Write Accesses: 0
CIC Write Accesses: 0
Wobbly critical IP cache stats: 
 Unused entries: 112
CIC Tag Read Accesses: 261314802
CIC Read Accesses: 0
CIC Tag Write Accesses: 155107
CIC Write Accesses: 0
ITLB TOTAL     ACCESS:   12645352  HIT:   12645352  MISS:          0  HIT %:        100  MISS %:          0   MPKI: 0
ITLB LOAD TRANSLATION ACCESS:   12645352  HIT:   12645352  MISS:          0  HIT %:        100  MISS %:          0   MPKI: 0
ITLB PREFETCH  REQUESTED:          0  ISSUED:          0  USEFUL:          0  USELESS:          0
ITLB USEFUL LOAD PREFETCHES:          0 PREFETCH ISSUED TO LOWER LEVEL:          0  ACCURACY: -nan
ITLB TIMELY PREFETCHES:          0 LATE PREFETCHES: 0 DROPPED PREFETCHES: 0
ITLB PREFETCHES SAME FILL-ORIGIN LEVEL: 0 DIFFERENT FILL-ORIGIN LEVEL: 0
ITLB AVERAGE MISS LATENCY: -nan cycles
ITLB RQ	ACCESS:   17166322	FORWARD:          0	MERGED:    4520971	TO_CACHE:   12645351

DTLB TOTAL     ACCESS:   33693008  HIT:   33484399  MISS:     208609  HIT %:    99.3809  MISS %:   0.619146   MPKI: 2.08609
DTLB LOAD TRANSLATION ACCESS:   33693008  HIT:   33484399  MISS:     208609  HIT %:    99.3809  MISS %:   0.619146   MPKI: 2.08609
DTLB PREFETCH  REQUESTED:          0  ISSUED:          0  USEFUL:          0  USELESS:          0
DTLB USEFUL LOAD PREFETCHES:          0 PREFETCH ISSUED TO LOWER LEVEL:          0  ACCURACY: -nan
DTLB TIMELY PREFETCHES:          0 LATE PREFETCHES: 0 DROPPED PREFETCHES: 0
DTLB PREFETCHES SAME FILL-ORIGIN LEVEL: 0 DIFFERENT FILL-ORIGIN LEVEL: 0
DTLB AVERAGE MISS LATENCY: 79.5905 cycles
DTLB RQ	ACCESS:   39453196	FORWARD:          0	MERGED:    5732706	TO_CACHE:   33720490

STLB TOTAL     ACCESS:    7237756  HIT:    7208069  MISS:      29687  HIT %:    99.5898  MISS %:   0.410169   MPKI: 0.29687
STLB LOAD TRANSLATION ACCESS:     208609  HIT:     178922  MISS:      29687  HIT %:    85.7691  MISS %:    14.2309   MPKI: 0.29687
STLB TRANSLATION FROM L1D PREFETCHER ACCESS:    7029147  HIT:    7029147  MISS:          0  HIT %:        100  MISS %:          0   MPKI: 0
STLB PREFETCH  REQUESTED:          0  ISSUED:          0  USEFUL:          0  USELESS:          0
STLB USEFUL LOAD PREFETCHES:          0 PREFETCH ISSUED TO LOWER LEVEL:          0  ACCURACY: -nan
STLB TIMELY PREFETCHES:          0 LATE PREFETCHES: 0 DROPPED PREFETCHES: 0
STLB PREFETCHES SAME FILL-ORIGIN LEVEL: 0 DIFFERENT FILL-ORIGIN LEVEL: 0
STLB AVERAGE MISS LATENCY: 468.904 cycles
STLB RQ	ACCESS:   33472462	FORWARD:          0	MERGED:   26234703	TO_CACHE:    7237759

STLB Hit, L1D data hit: 0
STLB Hit, L2C data hit: 0
STLB Hit, LLC data hit: 0
STLB Hit, LLC data miss: 0
STLB STLB hints to L2: 0
L1D TOTAL     ACCESS:   72620376  HIT:   70610610  MISS:    2009766  HIT %:    97.2325  MISS %:     2.7675   MPKI: 20.0977
L1D LOAD      ACCESS:   33813958  HIT:   33710660  MISS:     103298  HIT %:    99.6945  MISS %:   0.305489   MPKI: 1.03298
L1D RFO       ACCESS:    5591469  HIT:    5542745  MISS:      48724  HIT %:    99.1286  MISS %:   0.871399   MPKI: 0.48724
L1D PREFETCH  ACCESS:   33214949  HIT:   31357205  MISS:    1857744  HIT %:    94.4069  MISS %:     5.5931   MPKI: 18.5774
L1D PREFETCH  REQUESTED:   93146639  ISSUED:   66583984  USEFUL:    1847155  USELESS:      10585
L1D USEFUL LOAD PREFETCHES:    1847155 PREFETCH ISSUED TO LOWER LEVEL:    1933246  ACCURACY: 95.5468
L1D TIMELY PREFETCHES:    1847155 LATE PREFETCHES: 3858 DROPPED PREFETCHES: 0
L1D PREFETCHES SAME FILL-ORIGIN LEVEL: 1933246 DIFFERENT FILL-ORIGIN LEVEL: 0
L1D AVERAGE MISS LATENCY: 123747 cycles
L1D RQ	ACCESS:   42742099	FORWARD:          0	MERGED:    8710159	TO_CACHE:   33819891
L1D WQ	ACCESS:    5633399	FORWARD:     212049	MERGED:         94	TO_CACHE:    5633305
L1D PQ	ACCESS:   33320131	FORWARD:          0	MERGED:      56278	TO_CACHE:   33263853

L1D UNIQUE REGIONS ACCESSED: 0
L1D REGIONS CONFLICTS: 0
L1D Cross Page Prefetch Requests: 0
L1D Same Page Prefetch Requests: 46857240
L1D ROI Sum of L1D PQ occupancy: 503257093
L1D PREFETCHES PUSHED FROM L2C: 0
L1I TOTAL     ACCESS:   17166320  HIT:   17166320  MISS:          0  HIT %:        100  MISS %:          0   MPKI: 0
L1I LOAD      ACCESS:   17166320  HIT:   17166320  MISS:          0  HIT %:        100  MISS %:          0   MPKI: 0
L1I PREFETCH  REQUESTED:          0  ISSUED:          0  USEFUL:          0  USELESS:          0
L1I USEFUL LOAD PREFETCHES:          0 PREFETCH ISSUED TO LOWER LEVEL:          0  ACCURACY: -nan
L1I TIMELY PREFETCHES:          0 LATE PREFETCHES: 0 DROPPED PREFETCHES: 0
L1I PREFETCHES SAME FILL-ORIGIN LEVEL: 0 DIFFERENT FILL-ORIGIN LEVEL: 0
L1I AVERAGE MISS LATENCY: -nan cycles
L1I RQ	ACCESS:   22873695	FORWARD:          0	MERGED:    5707373	TO_CACHE:   17166322

BTB TOTAL     ACCESS:    2417447  HIT:    2417442  MISS:          5  HIT %:    99.9998  MISS %: 0.00020683   MPKI: 5e-05
BTB BRANCH_DIRECT_JUMP	ACCESS:          0  HIT:          0  MISS:          0
BTB BRANCH_INDIRECT	ACCESS:          0  HIT:          0  MISS:          0
BTB BRANCH_CONDITIONAL	ACCESS:    2417447  HIT:    2417442  MISS:          5
BTB BRANCH_DIRECT_CALL	ACCESS:          0  HIT:          0  MISS:          0
BTB BRANCH_INDIRECT_CALL	ACCESS:          0  HIT:          0  MISS:          0
BTB BRANCH_RETURN	ACCESS:          0  HIT:          0  MISS:          0
BTB BRANCH_OTHER ACCESS:          0  HIT:          0  MISS:          0

L2C TOTAL     ACCESS:    8057045  HIT:    6147216  MISS:    1909829  HIT %:    76.2962  MISS %:    23.7038   MPKI: 19.0983
L2C LOAD      ACCESS:      99440  HIT:      59182  MISS:      40258  HIT %:    59.5153  MISS %:    40.4847   MPKI: 0.40258
L2C DATA LOAD MPKI: 0.40258
L2C INSTRUCTION LOAD MPKI: 0
L2C RFO       ACCESS:      48724  HIT:          0  MISS:      48724  HIT %:          0  MISS %:        100   MPKI: 0.48724
L2C PREFETCH  ACCESS:    7829730  HIT:    6016701  MISS:    1813029  HIT %:    76.8443  MISS %:    23.1557   MPKI: 18.1303
L2C DATA PREFETCH MPKI: 18.1303
L2C INSTRUCTION PREFETCH MPKI: 0
L2C WRITEBACK ACCESS:      49462  HIT:      45754  MISS:       3708  HIT %:    92.5033  MISS %:    7.49666   MPKI: 0.03708
L2C LOAD TRANSLATION ACCESS:      29689  HIT:      25579  MISS:       4110  HIT %:    86.1565  MISS %:    13.8435   MPKI: 0.0411
L2C PREFETCH  REQUESTED:    9739227  ISSUED:    9023952  USEFUL:      56225  USELESS:    1757059
L2C USEFUL LOAD PREFETCHES:      56225 PREFETCH ISSUED TO LOWER LEVEL:    1814106  ACCURACY: 3.09932
L2C TIMELY PREFETCHES:      56225 LATE PREFETCHES: 1077 DROPPED PREFETCHES: 0
L2C PREFETCHES SAME FILL-ORIGIN LEVEL: 1624133 DIFFERENT FILL-ORIGIN LEVEL: 0
L2C AVERAGE MISS LATENCY: 176.132 cycles
L2C RQ	ACCESS:     177853	FORWARD:          0	MERGED:          0	TO_CACHE:     177853
L2C WQ	ACCESS:      49462	FORWARD:          0	MERGED:          0	TO_CACHE:      49462
L2C PQ	ACCESS:   10885554	FORWARD:          0	MERGED:    2621063	TO_CACHE:    8264491

L2C Instructions Evicting Data 0
L2C Translations Evicting Data 4105
L2C Data Evicting Data 1897923
L2C Instructions Evicting Instructions 0
L2C Translations Evicting Instructions 0
L2C Data Evicting Instructions 0
L2C Instructions Evicting Translations 0
L2C Translations Evicting Translations 5
L2C Data Evicting Translations 4088
L2C Dense regions hint from L2: 0
PSCL5 TOTAL     ACCESS:      29687  HIT:      29687  MISS:          0  HIT %:        100  MISS %:          0   MPKI: 0
PSCL5 LOAD TRANSLATION ACCESS:      29687  HIT:      29687  MISS:          0  HIT %:        100  MISS %:          0   MPKI: 0
PSCL5 PREFETCH  REQUESTED:          0  ISSUED:          0  USEFUL:          0  USELESS:          0
PSCL5 USEFUL LOAD PREFETCHES:          0 PREFETCH ISSUED TO LOWER LEVEL:          0  ACCURACY: -nan
PSCL5 TIMELY PREFETCHES:          0 LATE PREFETCHES: 0 DROPPED PREFETCHES: 0
PSCL5 PREFETCHES SAME FILL-ORIGIN LEVEL: 0 DIFFERENT FILL-ORIGIN LEVEL: 0

PSCL4 TOTAL     ACCESS:      29687  HIT:      29687  MISS:          0  HIT %:        100  MISS %:          0   MPKI: 0
PSCL4 LOAD TRANSLATION ACCESS:      29687  HIT:      29687  MISS:          0  HIT %:        100  MISS %:          0   MPKI: 0
PSCL4 PREFETCH  REQUESTED:          0  ISSUED:          0  USEFUL:          0  USELESS:          0
PSCL4 USEFUL LOAD PREFETCHES:          0 PREFETCH ISSUED TO LOWER LEVEL:          0  ACCURACY: -nan
PSCL4 TIMELY PREFETCHES:          0 LATE PREFETCHES: 0 DROPPED PREFETCHES: 0
PSCL4 PREFETCHES SAME FILL-ORIGIN LEVEL: 0 DIFFERENT FILL-ORIGIN LEVEL: 0

PSCL3 TOTAL     ACCESS:      29687  HIT:      29687  MISS:          0  HIT %:        100  MISS %:          0   MPKI: 0
PSCL3 LOAD TRANSLATION ACCESS:      29687  HIT:      29687  MISS:          0  HIT %:        100  MISS %:          0   MPKI: 0
PSCL3 PREFETCH  REQUESTED:          0  ISSUED:          0  USEFUL:          0  USELESS:          0
PSCL3 USEFUL LOAD PREFETCHES:          0 PREFETCH ISSUED TO LOWER LEVEL:          0  ACCURACY: -nan
PSCL3 TIMELY PREFETCHES:          0 LATE PREFETCHES: 0 DROPPED PREFETCHES: 0
PSCL3 PREFETCHES SAME FILL-ORIGIN LEVEL: 0 DIFFERENT FILL-ORIGIN LEVEL: 0

PSCL2 TOTAL     ACCESS:      29687  HIT:      29628  MISS:         59  HIT %:    99.8013  MISS %:    0.19874   MPKI: 0.00059
PSCL2 LOAD TRANSLATION ACCESS:      29687  HIT:      29628  MISS:         59  HIT %:    99.8013  MISS %:    0.19874   MPKI: 0.00059
PSCL2 PREFETCH  REQUESTED:          0  ISSUED:          0  USEFUL:          0  USELESS:          0
PSCL2 USEFUL LOAD PREFETCHES:          0 PREFETCH ISSUED TO LOWER LEVEL:          0  ACCURACY: -nan
PSCL2 TIMELY PREFETCHES:          0 LATE PREFETCHES: 0 DROPPED PREFETCHES: 0
PSCL2 PREFETCHES SAME FILL-ORIGIN LEVEL: 0 DIFFERENT FILL-ORIGIN LEVEL: 0

LLC TOTAL     ACCESS:    1954840  HIT:      50137  MISS:    1904703  HIT %:    2.56476  MISS %:    97.4352   MPKI: 19.047
LLC LOAD      ACCESS:      39181  HIT:          3  MISS:      39178  HIT %: 0.00765677  MISS %:    99.9923   MPKI: 0.39178
LLC RFO       ACCESS:      48724  HIT:          0  MISS:      48724  HIT %:          0  MISS %:        100   MPKI: 0.48724
LLC PREFETCH  ACCESS:    1814106  HIT:       1824  MISS:    1812282  HIT %:   0.100545  MISS %:    99.8995   MPKI: 18.1228
LLC WRITEBACK ACCESS:      48719  HIT:      47972  MISS:        747  HIT %:    98.4667  MISS %:    1.53328   MPKI: 0.00747
LLC LOAD TRANSLATION ACCESS:       4110  HIT:        338  MISS:       3772  HIT %:    8.22384  MISS %:    91.7762   MPKI: 0.03772
LLC PREFETCH  REQUESTED:          0  ISSUED:          0  USEFUL:          0  USELESS:    1812138
LLC USEFUL LOAD PREFETCHES:          0 PREFETCH ISSUED TO LOWER LEVEL:    1812282  ACCURACY: 0
LLC TIMELY PREFETCHES:          0 LATE PREFETCHES: 0 DROPPED PREFETCHES: 0
LLC PREFETCHES SAME FILL-ORIGIN LEVEL: 0 DIFFERENT FILL-ORIGIN LEVEL: 0
LLC AVERAGE MISS LATENCY: 144.819 cycles
LLC RQ	ACCESS:      92015	FORWARD:          0	MERGED:          0	TO_CACHE:      92015
LLC WQ	ACCESS:      48719	FORWARD:          0	MERGED:          0	TO_CACHE:      48719
LLC PQ	ACCESS:    1814106	FORWARD:          0	MERGED:          0	TO_CACHE:    1814106

LLC Dense regions hint to LLC: 0

RAW hits: 237970
Loads Generated: 42980073
Loads sent to L1D: 42742099
Stores Generated: 5633399
Stores sent to L1D: 5633399
Major fault: 0 Minor fault: 42651
Allocated PAGES: 42651

stream: 
stream:times selected: 16107494
stream:pref_filled: 2752229
stream:pref_useful: 2751892
stream:pref_late: 5342
stream:misses: 439
stream:misses_by_poll: 0

CS: 
CS:times selected: 14769808
CS:pref_filled: 12962
CS:pref_useful: 12959
CS:pref_late: 108
CS:misses: 115472
CS:misses_by_poll: 52

CPLX: 
CPLX:times selected: 1337499
CPLX:pref_filled: 47684
CPLX:pref_useful: 32947
CPLX:pref_late: 28
CPLX:misses: 4359
CPLX:misses_by_poll: 124

NL_L1: 
NL:times selected: 4760
NL:pref_filled: 65
NL:pref_useful: 65
NL:pref_late: 7
NL:misses: 20
NL:misses_by_poll: 0

total selections: 32219561
total_filled: 1857744
total_useful: 1847155
total_late: 5990
total_polluted: 176
total_misses_after_warmup: 106460
conflicts: 142232
Degree Incremented Times: 354008
Degree Decremented Times: 0

L1 IP Table Write Accesses: 26341656
L1 IP Table Read Accesses: 26199424
L1 RST Write Accesses: 10803365
L1 RST Read Accesses: 21606730
L1 CSPT Write Accesses: 10803365
L1 CSPT Read Accesses: 12732543
L1 RR Filter Tag Write Accesses: 59882786
L1 RR Filter Tag Read Accesses: 2761338493
L1 IP Table Tag Write Accesses: 28176143
L1 IP Table Tag Read Accesses: 28176143
L1 RST Tag Write Accesses: 0
L1 RST Tag Read Accesses: 97204360
L1 RR Filter Write Accesses: 0
L1 RR Filter Read Accesses: 92131006
test: 315540
L2 IP Table Read Accesses: 3524197
L2 IP Table Write Accesses: 3427443
L2 IP Table Tag Read Accesses: 1763282
L2 IP Table Tag Write Accesses: 1763282

DRAM Statistics
 CHANNEL 0
 RQ ROW_BUFFER_HIT:    1320873  ROW_BUFFER_MISS:     583083
 DBUS_CONGESTED:        893
 WQ ROW_BUFFER_HIT:       6966  ROW_BUFFER_MISS:      41906  FULL:          0

 AVG_CONGESTED_CYCLE: 3
 All warmup complete: 2
Channel 0 Bank busy for read cycles: 0
Channel 0 Bank busy for write cycles: 0
Channel 0
Rank 0
0banks busy for read cycles: 37769828
0banks busy for write cycles: 17466
1banks busy for read cycles: 17795942
1banks busy for write cycles: 1866720
2banks busy for read cycles: 11113727
2banks busy for write cycles: 886106
3banks busy for read cycles: 8850881
3banks busy for write cycles: 590749
4banks busy for read cycles: 5724831
4banks busy for write cycles: 311437
5banks busy for read cycles: 3765660
5banks busy for write cycles: 195073
6banks busy for read cycles: 2580356
6banks busy for write cycles: 135094
7banks busy for read cycles: 2490441
7banks busy for write cycles: 108786
8banks busy for read cycles: 1538243
8banks busy for write cycles: 100585

CPU 0 Branch Prediction Accuracy: 99.9707% MPKI: 0.00732 Average ROB Occupancy at Mispredict: 40.2036
Branch types
NOT_BRANCH: 97503533 97.5035%
BRANCH_DIRECT_JUMP: 0 0%
BRANCH_INDIRECT: 0 0%
BRANCH_CONDITIONAL: 2496132 2.49613%
BRANCH_DIRECT_CALL: 0 0%
BRANCH_INDIRECT_CALL: 0 0%
BRANCH_RETURN: 0 0%
BRANCH_OTHER: 0 0%

DRAM PAGES: 1048576
Allocated PAGES: 42651
