
*** ChampSim Multicore Out-of-Order Simulator ***

Warmup Instructions: 50000000
Simulation Instructions: 100000000
Number of CPUs: 1
LLC sets: 2048
LLC ways: 16
Off-chip DRAM Size: 4096 MB Channels: 1 Width: 64-bit Data Rate: 6400 MT/s
CPU 0 runs ../SPEC2017//603.bwaves_s-2609B.champsimtrace.xz
.xz
BTB has LRU replacement policy
ITLB has LRU replacement policy
DTLB has LRU replacement policy
STLB has LRU replacement policy
L1I has LRU replacement policy
L1D has LRU replacement policy
Bingo PHT WAYS: 16 and PHT_SIZE: 16384
Initialize SRRIP state for L2C
Initialize DRRIP state for LLC
Heartbeat CPU 0 instructions: 10000001 cycles: 3316962 heartbeat IPC: 3.01481 cumulative IPC: 3.01481 (Simulation time: 0 hr 7 min 21 sec) 
Heartbeat CPU 0 instructions: 20000003 cycles: 6633929 heartbeat IPC: 3.0148 cumulative IPC: 3.01481 (Simulation time: 0 hr 14 min 6 sec) 
Heartbeat CPU 0 instructions: 30000001 cycles: 9951222 heartbeat IPC: 3.01451 cumulative IPC: 3.01471 (Simulation time: 0 hr 20 min 1 sec) 
Heartbeat CPU 0 instructions: 40000002 cycles: 13268071 heartbeat IPC: 3.01491 cumulative IPC: 3.01476 (Simulation time: 0 hr 25 min 3 sec) 
Heartbeat CPU 0 instructions: 50000003 cycles: 16584637 heartbeat IPC: 3.01517 cumulative IPC: 3.01484 (Simulation time: 0 hr 29 min 54 sec) 

Warmup complete CPU 0 instructions: 50000003 cycles: 16584637 (Simulation time: 0 hr 29 min 54 sec) 

Heartbeat CPU 0 instructions: 60000000 cycles: 26846632 heartbeat IPC: 0.974469 cumulative IPC: 0.974469 (Simulation time: 0 hr 34 min 57 sec) 
Heartbeat CPU 0 instructions: 70000001 cycles: 36983868 heartbeat IPC: 0.986462 cumulative IPC: 0.980429 (Simulation time: 0 hr 39 min 44 sec) 
Heartbeat CPU 0 instructions: 80000003 cycles: 47124430 heartbeat IPC: 0.986139 cumulative IPC: 0.982325 (Simulation time: 0 hr 44 min 5 sec) 
Heartbeat CPU 0 instructions: 90000003 cycles: 57258341 heartbeat IPC: 0.986786 cumulative IPC: 0.983436 (Simulation time: 0 hr 48 min 12 sec) 
Heartbeat CPU 0 instructions: 100000001 cycles: 67412027 heartbeat IPC: 0.984864 cumulative IPC: 0.983722 (Simulation time: 0 hr 52 min 12 sec) 
Heartbeat CPU 0 instructions: 110000000 cycles: 77544853 heartbeat IPC: 0.986891 cumulative IPC: 0.984248 (Simulation time: 0 hr 55 min 55 sec) 
Heartbeat CPU 0 instructions: 120000000 cycles: 87671791 heartbeat IPC: 0.987465 cumulative IPC: 0.984707 (Simulation time: 0 hr 59 min 17 sec) 
Heartbeat CPU 0 instructions: 130000002 cycles: 97810187 heartbeat IPC: 0.98635 cumulative IPC: 0.984912 (Simulation time: 1 hr 2 min 16 sec) 
Heartbeat CPU 0 instructions: 140000000 cycles: 107942534 heartbeat IPC: 0.986938 cumulative IPC: 0.985137 (Simulation time: 1 hr 5 min 17 sec) 
Heartbeat CPU 0 instructions: 150000001 cycles: 118085419 heartbeat IPC: 0.985913 cumulative IPC: 0.985214 (Simulation time: 1 hr 8 min 2 sec) 
Finished CPU 0 instructions: 100000002 cycles: 101500783 cumulative IPC: 0.985214 (Simulation time: 1 hr 8 min 2 sec) 

ChampSim completed all CPUs

Region of Interest Statistics

CPU 0 cumulative IPC: 0.985214 instructions: 100000002 cycles: 101500783

CPU 0 Average Load ROB stall cycles: 3.42814e+07
CPU 0 Fraction of times ROB stalled by Loads: 50.7993
CPU 0 Percentage of Load stall cycles in Total stall cycles: 5.42457e+08
Issued all: 55968832
Issued LT all: 42752774
rob_not_full_when_issued_lt_all: 35031356
Issued LT one: 37245490
rob_not_full_when_issued_lt_one: 30066378
FVP critical_dynamic_instances_0: 35879228
FVP unique_critical_ips_0: 49
 Total stall cycles: 77216498
 Total load stall cycles: 418866520511654
Unique Load IPs: 134
CPU 0 NUM of IPS identified critical: 0
CPU 0 Num of Load IPs stalling ROB: 0
Threshold modification factor: 0
Trouble in retire width: -nan
MaC = Marked as critical.
lt_50_percent_before_Mac: 0
gt_90_percent_before_Mac: 0
gt_75_percent_before_Mac: 0
gt_50_percent_before_Mac: 0
stall_proportion_bin_same_before_after: 0
stall_proportion_bin_lower_before_after: 0
stall_proportion_bin_upper_before_after: 0
average_stall_proportion_before: -nan
average_stall_proportion_after: -nan
Critical IP stalls, total frequency: 0
Non-critical IP stalls, total frequency: 0
Total Freq all stalling IPs: 0
Critical_IP_Detector_Accuracy_70: 0.0204082
Critical_IP_Detector_Accuracy_80: 0.0204082
Critical_IP_Detector_Accuracy_90: 0.0204082
Critical_IP_Detector_Coverage_70: 1
Critical_IP_Detector_Coverage_80: 1
Critical_IP_Detector_Coverage_90: 1
stat_90_percent_critical_ip_stalls_freq: 1296397
stat_90_percent_non_critical_ip_stalls_freq: 18446744073708255219
AVERAGE_ROB_Occupancy_90_Percent_Critical_IP_Stalls: 64.3196
AVERAGE_ROB_Occupancy_90_Percent_Non_Critical_IP_Stalls: 2.02576e-11
Critical_IP_ROB_Stalls_Bucket_0: 0
Non-critical_IP_ROB_Stalls_Bucket_0: 4202669
Critical_IP_ROB_Stalls_Bucket_1: 0
Non-critical_IP_ROB_Stalls_Bucket_1: 1021581
Critical_IP_ROB_Stalls_Bucket_2: 0
Non-critical_IP_ROB_Stalls_Bucket_2: 166938
Critical_IP_ROB_Stalls_Bucket_3: 0
Non-critical_IP_ROB_Stalls_Bucket_3: 206816
Critical_IP_ROB_Stalls_Bucket_4: 0
Non-critical_IP_ROB_Stalls_Bucket_4: 145134
Critical_IP_ROB_Stalls_Bucket_5: 0
Non-critical_IP_ROB_Stalls_Bucket_5: 156299
Critical_IP_ROB_Stalls_Bucket_6: 0
Non-critical_IP_ROB_Stalls_Bucket_6: 307458
0 => IPs accounting for >50 percent of stalls, 1 => 55, 2 => 60, 3 => 65 and so on till 90.
percent50: inf num IPs:  1
percent55: inf num IPs: 1
percent60: inf num IPs: 1
percent65: inf num IPs: 1
percent70: inf num IPs: 1
percent75: inf num IPs: 1
percent80: inf num IPs: 1
percent85: inf num IPs: 1
percent90: inf num IPs: 1
Critical_ROB_Stalls_Percent_0_Bucket_0: 898854
Non-critical_ROB_Stalls_Percent_0_Bucket_0: 3303815
Critical_ROB_Stalls_Percent_0_Bucket_1: 245324
Non-critical_ROB_Stalls_Percent_0_Bucket_1: 776257
Critical_ROB_Stalls_Percent_0_Bucket_2: 39550
Non-critical_ROB_Stalls_Percent_0_Bucket_2: 127388
Critical_ROB_Stalls_Percent_0_Bucket_3: 40299
Non-critical_ROB_Stalls_Percent_0_Bucket_3: 166517
Critical_ROB_Stalls_Percent_0_Bucket_4: 32854
Non-critical_ROB_Stalls_Percent_0_Bucket_4: 112280
Critical_ROB_Stalls_Percent_0_Bucket_5: 19506
Non-critical_ROB_Stalls_Percent_0_Bucket_5: 136793
Critical_ROB_Stalls_Percent_0_Bucket_6: 20010
Non-critical_ROB_Stalls_Percent_0_Bucket_6: 287448
Critical_ROB_Stalls_Percent_1_Bucket_0: 898854
Non-critical_ROB_Stalls_Percent_1_Bucket_0: 3303815
Critical_ROB_Stalls_Percent_1_Bucket_1: 245324
Non-critical_ROB_Stalls_Percent_1_Bucket_1: 776257
Critical_ROB_Stalls_Percent_1_Bucket_2: 39550
Non-critical_ROB_Stalls_Percent_1_Bucket_2: 127388
Critical_ROB_Stalls_Percent_1_Bucket_3: 40299
Non-critical_ROB_Stalls_Percent_1_Bucket_3: 166517
Critical_ROB_Stalls_Percent_1_Bucket_4: 32854
Non-critical_ROB_Stalls_Percent_1_Bucket_4: 112280
Critical_ROB_Stalls_Percent_1_Bucket_5: 19506
Non-critical_ROB_Stalls_Percent_1_Bucket_5: 136793
Critical_ROB_Stalls_Percent_1_Bucket_6: 20010
Non-critical_ROB_Stalls_Percent_1_Bucket_6: 287448
Critical_ROB_Stalls_Percent_2_Bucket_0: 898854
Non-critical_ROB_Stalls_Percent_2_Bucket_0: 3303815
Critical_ROB_Stalls_Percent_2_Bucket_1: 245324
Non-critical_ROB_Stalls_Percent_2_Bucket_1: 776257
Critical_ROB_Stalls_Percent_2_Bucket_2: 39550
Non-critical_ROB_Stalls_Percent_2_Bucket_2: 127388
Critical_ROB_Stalls_Percent_2_Bucket_3: 40299
Non-critical_ROB_Stalls_Percent_2_Bucket_3: 166517
Critical_ROB_Stalls_Percent_2_Bucket_4: 32854
Non-critical_ROB_Stalls_Percent_2_Bucket_4: 112280
Critical_ROB_Stalls_Percent_2_Bucket_5: 19506
Non-critical_ROB_Stalls_Percent_2_Bucket_5: 136793
Critical_ROB_Stalls_Percent_2_Bucket_6: 20010
Non-critical_ROB_Stalls_Percent_2_Bucket_6: 287448
Critical_ROB_Stalls_Percent_3_Bucket_0: 898854
Non-critical_ROB_Stalls_Percent_3_Bucket_0: 3303815
Critical_ROB_Stalls_Percent_3_Bucket_1: 245324
Non-critical_ROB_Stalls_Percent_3_Bucket_1: 776257
Critical_ROB_Stalls_Percent_3_Bucket_2: 39550
Non-critical_ROB_Stalls_Percent_3_Bucket_2: 127388
Critical_ROB_Stalls_Percent_3_Bucket_3: 40299
Non-critical_ROB_Stalls_Percent_3_Bucket_3: 166517
Critical_ROB_Stalls_Percent_3_Bucket_4: 32854
Non-critical_ROB_Stalls_Percent_3_Bucket_4: 112280
Critical_ROB_Stalls_Percent_3_Bucket_5: 19506
Non-critical_ROB_Stalls_Percent_3_Bucket_5: 136793
Critical_ROB_Stalls_Percent_3_Bucket_6: 20010
Non-critical_ROB_Stalls_Percent_3_Bucket_6: 287448
Critical_ROB_Stalls_Percent_4_Bucket_0: 898854
Non-critical_ROB_Stalls_Percent_4_Bucket_0: 3303815
Critical_ROB_Stalls_Percent_4_Bucket_1: 245324
Non-critical_ROB_Stalls_Percent_4_Bucket_1: 776257
Critical_ROB_Stalls_Percent_4_Bucket_2: 39550
Non-critical_ROB_Stalls_Percent_4_Bucket_2: 127388
Critical_ROB_Stalls_Percent_4_Bucket_3: 40299
Non-critical_ROB_Stalls_Percent_4_Bucket_3: 166517
Critical_ROB_Stalls_Percent_4_Bucket_4: 32854
Non-critical_ROB_Stalls_Percent_4_Bucket_4: 112280
Critical_ROB_Stalls_Percent_4_Bucket_5: 19506
Non-critical_ROB_Stalls_Percent_4_Bucket_5: 136793
Critical_ROB_Stalls_Percent_4_Bucket_6: 20010
Non-critical_ROB_Stalls_Percent_4_Bucket_6: 287448
Critical_ROB_Stalls_Percent_5_Bucket_0: 898854
Non-critical_ROB_Stalls_Percent_5_Bucket_0: 3303815
Critical_ROB_Stalls_Percent_5_Bucket_1: 245324
Non-critical_ROB_Stalls_Percent_5_Bucket_1: 776257
Critical_ROB_Stalls_Percent_5_Bucket_2: 39550
Non-critical_ROB_Stalls_Percent_5_Bucket_2: 127388
Critical_ROB_Stalls_Percent_5_Bucket_3: 40299
Non-critical_ROB_Stalls_Percent_5_Bucket_3: 166517
Critical_ROB_Stalls_Percent_5_Bucket_4: 32854
Non-critical_ROB_Stalls_Percent_5_Bucket_4: 112280
Critical_ROB_Stalls_Percent_5_Bucket_5: 19506
Non-critical_ROB_Stalls_Percent_5_Bucket_5: 136793
Critical_ROB_Stalls_Percent_5_Bucket_6: 20010
Non-critical_ROB_Stalls_Percent_5_Bucket_6: 287448
Critical_ROB_Stalls_Percent_6_Bucket_0: 898854
Non-critical_ROB_Stalls_Percent_6_Bucket_0: 3303815
Critical_ROB_Stalls_Percent_6_Bucket_1: 245324
Non-critical_ROB_Stalls_Percent_6_Bucket_1: 776257
Critical_ROB_Stalls_Percent_6_Bucket_2: 39550
Non-critical_ROB_Stalls_Percent_6_Bucket_2: 127388
Critical_ROB_Stalls_Percent_6_Bucket_3: 40299
Non-critical_ROB_Stalls_Percent_6_Bucket_3: 166517
Critical_ROB_Stalls_Percent_6_Bucket_4: 32854
Non-critical_ROB_Stalls_Percent_6_Bucket_4: 112280
Critical_ROB_Stalls_Percent_6_Bucket_5: 19506
Non-critical_ROB_Stalls_Percent_6_Bucket_5: 136793
Critical_ROB_Stalls_Percent_6_Bucket_6: 20010
Non-critical_ROB_Stalls_Percent_6_Bucket_6: 287448
Critical_ROB_Stalls_Percent_7_Bucket_0: 898854
Non-critical_ROB_Stalls_Percent_7_Bucket_0: 3303815
Critical_ROB_Stalls_Percent_7_Bucket_1: 245324
Non-critical_ROB_Stalls_Percent_7_Bucket_1: 776257
Critical_ROB_Stalls_Percent_7_Bucket_2: 39550
Non-critical_ROB_Stalls_Percent_7_Bucket_2: 127388
Critical_ROB_Stalls_Percent_7_Bucket_3: 40299
Non-critical_ROB_Stalls_Percent_7_Bucket_3: 166517
Critical_ROB_Stalls_Percent_7_Bucket_4: 32854
Non-critical_ROB_Stalls_Percent_7_Bucket_4: 112280
Critical_ROB_Stalls_Percent_7_Bucket_5: 19506
Non-critical_ROB_Stalls_Percent_7_Bucket_5: 136793
Critical_ROB_Stalls_Percent_7_Bucket_6: 20010
Non-critical_ROB_Stalls_Percent_7_Bucket_6: 287448
Critical_ROB_Stalls_Percent_8_Bucket_0: 898854
Non-critical_ROB_Stalls_Percent_8_Bucket_0: 3303815
Critical_ROB_Stalls_Percent_8_Bucket_1: 245324
Non-critical_ROB_Stalls_Percent_8_Bucket_1: 776257
Critical_ROB_Stalls_Percent_8_Bucket_2: 39550
Non-critical_ROB_Stalls_Percent_8_Bucket_2: 127388
Critical_ROB_Stalls_Percent_8_Bucket_3: 40299
Non-critical_ROB_Stalls_Percent_8_Bucket_3: 166517
Critical_ROB_Stalls_Percent_8_Bucket_4: 32854
Non-critical_ROB_Stalls_Percent_8_Bucket_4: 112280
Critical_ROB_Stalls_Percent_8_Bucket_5: 19506
Non-critical_ROB_Stalls_Percent_8_Bucket_5: 136793
Critical_ROB_Stalls_Percent_8_Bucket_6: 20010
Non-critical_ROB_Stalls_Percent_8_Bucket_6: 287448
Average ROB occupancy Load Stall Begin: 63.4742
Average ROB occupancy Load Stall End: 73.6392
Min ROB occupancy Load Stall Begin: 2
Max ROB occupancy Load Stall Begin: 352
Min ROB occupancy Load Stall End: 2
Max ROB occupancy Load Stall End: 352
Average ROB occupancy Critical Load Stall Begin: -nan
Average ROB occupancy Critical Load Stall End: -nan
Min ROB occupancy Critical Load Stall Begin: 400
Max ROB occupancy Critical Load Stall Begin: 0
Min ROB occupancy Critical Load Stall End: 400
Max ROB occupancy Critical Load Stall End: 0
 ROB Load Stall Begin Bucket Count 0: 4711412
 ROB Load Stall End Bucket Count 0: 4202669
 ROB Critical Load Stall Begin Bucket Count 0: 0
 ROB Critical Load Stall End Bucket Count 0: 0
 ROB Load Stall Begin Bucket Count 1: 607910
 ROB Load Stall End Bucket Count 1: 1021581
 ROB Critical Load Stall Begin Bucket Count 1: 0
 ROB Critical Load Stall End Bucket Count 1: 0
 ROB Load Stall Begin Bucket Count 2: 175376
 ROB Load Stall End Bucket Count 2: 166938
 ROB Critical Load Stall Begin Bucket Count 2: 0
 ROB Critical Load Stall End Bucket Count 2: 0
 ROB Load Stall Begin Bucket Count 3: 191776
 ROB Load Stall End Bucket Count 3: 206816
 ROB Critical Load Stall Begin Bucket Count 3: 0
 ROB Critical Load Stall End Bucket Count 3: 0
 ROB Load Stall Begin Bucket Count 4: 134454
 ROB Load Stall End Bucket Count 4: 145134
 ROB Critical Load Stall Begin Bucket Count 4: 0
 ROB Critical Load Stall End Bucket Count 4: 0
 ROB Load Stall Begin Bucket Count 5: 152423
 ROB Load Stall End Bucket Count 5: 156299
 ROB Critical Load Stall Begin Bucket Count 5: 0
 ROB Critical Load Stall End Bucket Count 5: 0
 ROB Load Stall Begin Bucket Count 6: 233544
 ROB Load Stall End Bucket Count 6: 307458
 ROB Critical Load Stall Begin Bucket Count 6: 0
 ROB Critical Load Stall End Bucket Count 6: 0
PIST Tag Read Accesses: 0
PIST Read Accesses: 0
PIST Tag Write Accesses: 0
PIST Write Accesses: 0
Criticality detector called times: 0
Max global_stall_cycles_count: 0
Threshold Modified: 0 times, factor: 0
ITLB TOTAL     ACCESS:   12778128  HIT:   12778128  MISS:          0  HIT %:        100  MISS %:          0   MPKI: 0
ITLB LOAD TRANSLATION ACCESS:   12778128  HIT:   12778128  MISS:          0  HIT %:        100  MISS %:          0   MPKI: 0
ITLB PREFETCH  REQUESTED:          0  ISSUED:          0  USEFUL:          0  USELESS:          0
ITLB USEFUL LOAD PREFETCHES:          0 PREFETCH ISSUED TO LOWER LEVEL:          0  ACCURACY: -nan
ITLB TIMELY PREFETCHES:          0 LATE PREFETCHES: 0 DROPPED PREFETCHES: 0
ITLB PREFETCHES SAME FILL-ORIGIN LEVEL: 0 DIFFERENT FILL-ORIGIN LEVEL: 0
ITLB AVERAGE MISS LATENCY: -nan cycles
ITLB RQ	ACCESS:   17285309	FORWARD:          0	MERGED:    4507181	TO_CACHE:   12778128

DTLB TOTAL     ACCESS:   31198876  HIT:   31132230  MISS:      66646  HIT %:    99.7864  MISS %:   0.213617   MPKI: 0.66646
DTLB LOAD TRANSLATION ACCESS:   31198876  HIT:   31132230  MISS:      66646  HIT %:    99.7864  MISS %:   0.213617   MPKI: 0.66646
DTLB PREFETCH  REQUESTED:          0  ISSUED:          0  USEFUL:          0  USELESS:          0
DTLB USEFUL LOAD PREFETCHES:          0 PREFETCH ISSUED TO LOWER LEVEL:          0  ACCURACY: -nan
DTLB TIMELY PREFETCHES:          0 LATE PREFETCHES: 0 DROPPED PREFETCHES: 0
DTLB PREFETCHES SAME FILL-ORIGIN LEVEL: 0 DIFFERENT FILL-ORIGIN LEVEL: 0
DTLB AVERAGE MISS LATENCY: 230.224 cycles
DTLB RQ	ACCESS:   37216708	FORWARD:          0	MERGED:    6005463	TO_CACHE:   31211245

STLB TOTAL     ACCESS:      66646  HIT:      36952  MISS:      29694  HIT %:    55.4452  MISS %:    44.5548   MPKI: 0.29694
STLB LOAD TRANSLATION ACCESS:      66646  HIT:      36952  MISS:      29694  HIT %:    55.4452  MISS %:    44.5548   MPKI: 0.29694
STLB PREFETCH  REQUESTED:          0  ISSUED:          0  USEFUL:          0  USELESS:          0
STLB USEFUL LOAD PREFETCHES:          0 PREFETCH ISSUED TO LOWER LEVEL:          0  ACCURACY: -nan
STLB TIMELY PREFETCHES:          0 LATE PREFETCHES: 0 DROPPED PREFETCHES: 0
STLB PREFETCHES SAME FILL-ORIGIN LEVEL: 0 DIFFERENT FILL-ORIGIN LEVEL: 0
STLB AVERAGE MISS LATENCY: 473.292 cycles
STLB RQ	ACCESS:      66646	FORWARD:          0	MERGED:          0	TO_CACHE:      66646

STLB Hit, L1D data hit: 0
STLB Hit, L2C data hit: 0
STLB Hit, LLC data hit: 0
STLB Hit, LLC data miss: 0
STLB STLB hints to L2: 0
L1D TOTAL     ACCESS:   37059190  HIT:   35059995  MISS:    1999195  HIT %:    94.6054  MISS %:     5.3946   MPKI: 19.9919
L1D LOAD      ACCESS:   31455007  HIT:   29504536  MISS:    1950471  HIT %:    93.7992  MISS %:    6.20083   MPKI: 19.5047
L1D RFO       ACCESS:    5604183  HIT:    5555459  MISS:      48724  HIT %:    99.1306  MISS %:   0.869422   MPKI: 0.48724
L1D PREFETCH  REQUESTED:          0  ISSUED:          0  USEFUL:          0  USELESS:          0
L1D USEFUL LOAD PREFETCHES:          0 PREFETCH ISSUED TO LOWER LEVEL:          0  ACCURACY: -nan
L1D TIMELY PREFETCHES:          0 LATE PREFETCHES: 0 DROPPED PREFETCHES: 0
L1D PREFETCHES SAME FILL-ORIGIN LEVEL: 0 DIFFERENT FILL-ORIGIN LEVEL: 0
L1D AVERAGE MISS LATENCY: 57.1197 cycles
L1D RQ	ACCESS:   42474965	FORWARD:          0	MERGED:   10698575	TO_CACHE:   31583354
L1D WQ	ACCESS:    5633425	FORWARD:     193036	MERGED:         71	TO_CACHE:    5633354

L1D UNIQUE REGIONS ACCESSED: 0
L1D REGIONS CONFLICTS: 0
L1D Cross Page Prefetch Requests: 0
L1D Same Page Prefetch Requests: 0
L1D ROI Sum of L1D PQ occupancy: 0
L1D PREFETCHES PUSHED FROM L2C: 0
L1I TOTAL     ACCESS:   17285308  HIT:   17285308  MISS:          0  HIT %:        100  MISS %:          0   MPKI: 0
L1I LOAD      ACCESS:   17285308  HIT:   17285308  MISS:          0  HIT %:        100  MISS %:          0   MPKI: 0
L1I PREFETCH  REQUESTED:          0  ISSUED:          0  USEFUL:          0  USELESS:          0
L1I USEFUL LOAD PREFETCHES:          0 PREFETCH ISSUED TO LOWER LEVEL:          0  ACCURACY: -nan
L1I TIMELY PREFETCHES:          0 LATE PREFETCHES: 0 DROPPED PREFETCHES: 0
L1I PREFETCHES SAME FILL-ORIGIN LEVEL: 0 DIFFERENT FILL-ORIGIN LEVEL: 0
L1I AVERAGE MISS LATENCY: -nan cycles
L1I RQ	ACCESS:   23053110	FORWARD:          0	MERGED:    5767801	TO_CACHE:   17285309

BTB TOTAL     ACCESS:    2417447  HIT:    2417442  MISS:          5  HIT %:    99.9998  MISS %: 0.00020683   MPKI: 5e-05
BTB BRANCH_DIRECT_JUMP	ACCESS:          0  HIT:          0  MISS:          0
BTB BRANCH_INDIRECT	ACCESS:          0  HIT:          0  MISS:          0
BTB BRANCH_CONDITIONAL	ACCESS:    2417447  HIT:    2417442  MISS:          5
BTB BRANCH_DIRECT_CALL	ACCESS:          0  HIT:          0  MISS:          0
BTB BRANCH_INDIRECT_CALL	ACCESS:          0  HIT:          0  MISS:          0
BTB BRANCH_RETURN	ACCESS:          0  HIT:          0  MISS:          0
BTB BRANCH_OTHER ACCESS:          0  HIT:          0  MISS:          0

L2C TOTAL     ACCESS:    3669438  HIT:    1755475  MISS:    1913963  HIT %:    47.8404  MISS %:    52.1596   MPKI: 19.1396
L2C LOAD      ACCESS:    1950471  HIT:    1615828  MISS:     334643  HIT %:     82.843  MISS %:     17.157   MPKI: 3.34643
L2C DATA LOAD MPKI: 3.34643
L2C INSTRUCTION LOAD MPKI: 0
L2C RFO       ACCESS:      48724  HIT:          0  MISS:      48724  HIT %:          0  MISS %:        100   MPKI: 0.48724
L2C PREFETCH  ACCESS:    1591086  HIT:      67116  MISS:    1523970  HIT %:    4.21825  MISS %:    95.7817   MPKI: 15.2397
L2C DATA PREFETCH MPKI: 15.2397
L2C INSTRUCTION PREFETCH MPKI: 0
L2C WRITEBACK ACCESS:      49460  HIT:      46899  MISS:       2561  HIT %:    94.8221  MISS %:    5.17792   MPKI: 0.02561
L2C LOAD TRANSLATION ACCESS:      29697  HIT:      25632  MISS:       4065  HIT %:    86.3117  MISS %:    13.6883   MPKI: 0.04065
L2C PREFETCH  REQUESTED:    1633147  ISSUED:    1633147  USEFUL:    1517323  USELESS:       6567
L2C USEFUL LOAD PREFETCHES:    1517323 PREFETCH ISSUED TO LOWER LEVEL:    1556119  ACCURACY: 97.5069
L2C TIMELY PREFETCHES:    1517323 LATE PREFETCHES: 32149 DROPPED PREFETCHES: 0
L2C PREFETCHES SAME FILL-ORIGIN LEVEL: 1556119 DIFFERENT FILL-ORIGIN LEVEL: 0
L2C AVERAGE MISS LATENCY: 189.544 cycles
L2C RQ	ACCESS:    2028892	FORWARD:          0	MERGED:          0	TO_CACHE:    2028892
L2C WQ	ACCESS:      49460	FORWARD:          0	MERGED:          0	TO_CACHE:      49460
L2C PQ	ACCESS:    1633147	FORWARD:          0	MERGED:          0	TO_CACHE:    1633147

L2C Instructions Evicting Data 0
L2C Translations Evicting Data 4058
L2C Data Evicting Data 1903261
L2C Instructions Evicting Instructions 0
L2C Translations Evicting Instructions 0
L2C Data Evicting Instructions 0
L2C Instructions Evicting Translations 0
L2C Translations Evicting Translations 7
L2C Data Evicting Translations 4076
L2C Dense regions hint from L2: 0
PSCL5 TOTAL     ACCESS:      29694  HIT:      29694  MISS:          0  HIT %:        100  MISS %:          0   MPKI: 0
PSCL5 LOAD TRANSLATION ACCESS:      29694  HIT:      29694  MISS:          0  HIT %:        100  MISS %:          0   MPKI: 0
PSCL5 PREFETCH  REQUESTED:          0  ISSUED:          0  USEFUL:          0  USELESS:          0
PSCL5 USEFUL LOAD PREFETCHES:          0 PREFETCH ISSUED TO LOWER LEVEL:          0  ACCURACY: -nan
PSCL5 TIMELY PREFETCHES:          0 LATE PREFETCHES: 0 DROPPED PREFETCHES: 0
PSCL5 PREFETCHES SAME FILL-ORIGIN LEVEL: 0 DIFFERENT FILL-ORIGIN LEVEL: 0

PSCL4 TOTAL     ACCESS:      29694  HIT:      29694  MISS:          0  HIT %:        100  MISS %:          0   MPKI: 0
PSCL4 LOAD TRANSLATION ACCESS:      29694  HIT:      29694  MISS:          0  HIT %:        100  MISS %:          0   MPKI: 0
PSCL4 PREFETCH  REQUESTED:          0  ISSUED:          0  USEFUL:          0  USELESS:          0
PSCL4 USEFUL LOAD PREFETCHES:          0 PREFETCH ISSUED TO LOWER LEVEL:          0  ACCURACY: -nan
PSCL4 TIMELY PREFETCHES:          0 LATE PREFETCHES: 0 DROPPED PREFETCHES: 0
PSCL4 PREFETCHES SAME FILL-ORIGIN LEVEL: 0 DIFFERENT FILL-ORIGIN LEVEL: 0

PSCL3 TOTAL     ACCESS:      29694  HIT:      29694  MISS:          0  HIT %:        100  MISS %:          0   MPKI: 0
PSCL3 LOAD TRANSLATION ACCESS:      29694  HIT:      29694  MISS:          0  HIT %:        100  MISS %:          0   MPKI: 0
PSCL3 PREFETCH  REQUESTED:          0  ISSUED:          0  USEFUL:          0  USELESS:          0
PSCL3 USEFUL LOAD PREFETCHES:          0 PREFETCH ISSUED TO LOWER LEVEL:          0  ACCURACY: -nan
PSCL3 TIMELY PREFETCHES:          0 LATE PREFETCHES: 0 DROPPED PREFETCHES: 0
PSCL3 PREFETCHES SAME FILL-ORIGIN LEVEL: 0 DIFFERENT FILL-ORIGIN LEVEL: 0

PSCL2 TOTAL     ACCESS:      29694  HIT:      29635  MISS:         59  HIT %:    99.8013  MISS %:   0.198693   MPKI: 0.00059
PSCL2 LOAD TRANSLATION ACCESS:      29694  HIT:      29635  MISS:         59  HIT %:    99.8013  MISS %:   0.198693   MPKI: 0.00059
PSCL2 PREFETCH  REQUESTED:          0  ISSUED:          0  USEFUL:          0  USELESS:          0
PSCL2 USEFUL LOAD PREFETCHES:          0 PREFETCH ISSUED TO LOWER LEVEL:          0  ACCURACY: -nan
PSCL2 TIMELY PREFETCHES:          0 LATE PREFETCHES: 0 DROPPED PREFETCHES: 0
PSCL2 PREFETCHES SAME FILL-ORIGIN LEVEL: 0 DIFFERENT FILL-ORIGIN LEVEL: 0

LLC TOTAL     ACCESS:    1960481  HIT:      55658  MISS:    1904823  HIT %:      2.839  MISS %:     97.161   MPKI: 19.0482
LLC LOAD      ACCESS:     302494  HIT:        894  MISS:     301600  HIT %:   0.295543  MISS %:    99.7045   MPKI: 3.016
LLC RFO       ACCESS:      48724  HIT:          0  MISS:      48724  HIT %:          0  MISS %:        100   MPKI: 0.48724
LLC PREFETCH  ACCESS:    1556119  HIT:       6141  MISS:    1549978  HIT %:   0.394636  MISS %:    99.6054   MPKI: 15.4998
LLC WRITEBACK ACCESS:      49079  HIT:      48327  MISS:        752  HIT %:    98.4678  MISS %:    1.53222   MPKI: 0.00752
LLC LOAD TRANSLATION ACCESS:       4065  HIT:        296  MISS:       3769  HIT %:    7.28167  MISS %:    92.7183   MPKI: 0.03769
LLC PREFETCH  REQUESTED:          0  ISSUED:          0  USEFUL:        850  USELESS:    1523281
LLC USEFUL LOAD PREFETCHES:        850 PREFETCH ISSUED TO LOWER LEVEL:    1549978  ACCURACY: 0.0548395
LLC TIMELY PREFETCHES:        850 LATE PREFETCHES: 0 DROPPED PREFETCHES: 0
LLC PREFETCHES SAME FILL-ORIGIN LEVEL: 0 DIFFERENT FILL-ORIGIN LEVEL: 0
LLC AVERAGE MISS LATENCY: 158.599 cycles
LLC RQ	ACCESS:     355283	FORWARD:          0	MERGED:          0	TO_CACHE:     355283
LLC WQ	ACCESS:      49079	FORWARD:          0	MERGED:          0	TO_CACHE:      49079
LLC PQ	ACCESS:    1556119	FORWARD:          0	MERGED:          0	TO_CACHE:    1556119

LLC Dense regions hint to LLC: 0

RAW hits: 505133
Loads Generated: 42980104
Loads sent to L1D: 42474965
Stores Generated: 5633426
Stores sent to L1D: 5633425
Major fault: 0 Minor fault: 42652
Allocated PAGES: 42652
[Bingo] PHT Access: 61726
[Bingo] PHT Hit PC+Addr: 290
[Bingo] PHT Hit PC+Offs: 61368
[Bingo] PHT Miss: 68
[Bingo] Prefetch PC+Addr: 0
[Bingo] Prefetch PC+Offs: 0
[Bingo] Useful PC+Addr: 0
[Bingo] Useful PC+Offs: 0
[Bingo] Useless PC+Addr: 0
[Bingo] Useless PC+Offs: 0
[Bingo] L1 Prefetch per Region: 0
[Bingo] L2 Prefetch per Region: 29.2353
[Bingo] L3 Prefetch per Region: 0
[Bingo] No Prefetch per Region: 2.7647
[Bingo] Number of Voters Mean: 15.4964
[Bingo] Number of Voters SD: 2.64211
PHT read accesses: 975605
PHT write accesses: 61036
AT read accesses: 1721925
AT write accesses: 1738512
FT read accesses: 185434
FT write accesses: 61726
PS read accesses: 473403
PS write accesses: 61658
PHT tag read accesses: 2926658
PHT tag write accesses: 61326
AT tag read accesses: 61050296
AT tag write accesses: 1783064
FT tag read accesses: 34659402
FT tag write accesses: 185319
PS tag read accesses: 30270873
PS tag write accesses: 534213

DRAM Statistics
 CHANNEL 0
 RQ ROW_BUFFER_HIT:    1559580  ROW_BUFFER_MISS:     344491
 DBUS_CONGESTED:        284
 WQ ROW_BUFFER_HIT:      10108  ROW_BUFFER_MISS:      38813  FULL:          0

 AVG_CONGESTED_CYCLE: 4
 All warmup complete: 2
Channel 0 Bank busy for read cycles: 0
Channel 0 Bank busy for write cycles: 0
Channel 0
Rank 0
0banks busy for read cycles: 64841333
0banks busy for write cycles: 13674
1banks busy for read cycles: 13425344
1banks busy for write cycles: 1242616
2banks busy for read cycles: 4015520
2banks busy for write cycles: 455834
3banks busy for read cycles: 1889874
3banks busy for write cycles: 298929
4banks busy for read cycles: 1317393
4banks busy for write cycles: 174301
5banks busy for read cycles: 1361076
5banks busy for write cycles: 140162
6banks busy for read cycles: 1256606
6banks busy for write cycles: 116635
7banks busy for read cycles: 2297056
7banks busy for write cycles: 118107
8banks busy for read cycles: 8357121
8banks busy for write cycles: 179203

CPU 0 Branch Prediction Accuracy: 99.9706% MPKI: 0.00734 Average ROB Occupancy at Mispredict: 73.8297
Branch types
NOT_BRANCH: 97503611 97.5036%
BRANCH_DIRECT_JUMP: 0 0%
BRANCH_INDIRECT: 0 0%
BRANCH_CONDITIONAL: 2496135 2.49613%
BRANCH_DIRECT_CALL: 0 0%
BRANCH_INDIRECT_CALL: 0 0%
BRANCH_RETURN: 0 0%
BRANCH_OTHER: 0 0%

DRAM PAGES: 1048576
Allocated PAGES: 42652
