
*** ChampSim Multicore Out-of-Order Simulator ***

Warmup Instructions: 50000000
Simulation Instructions: 100000000
Number of CPUs: 1
LLC sets: 2048
LLC ways: 16
Off-chip DRAM Size: 4096 MB Channels: 1 Width: 64-bit Data Rate: 6400 MT/s
CPU 0 runs ../SPEC2017//603.bwaves_s-2931B.champsimtrace.xz
.xz
BTB has LRU replacement policy
ITLB has LRU replacement policy
DTLB has LRU replacement policy
STLB has LRU replacement policy
L1I has LRU replacement policy
IP Table Entries: 64
L1D has LRU replacement policy
Initialize SRRIP state for L2C
Initialize DRRIP state for LLC
Heartbeat CPU 0 instructions: 10000003 cycles: 2948898 heartbeat IPC: 3.3911 cumulative IPC: 3.3911 (Simulation time: 0 hr 5 min 53 sec) 
Heartbeat CPU 0 instructions: 20000003 cycles: 5896516 heartbeat IPC: 3.39257 cumulative IPC: 3.39183 (Simulation time: 0 hr 10 min 59 sec) 
Heartbeat CPU 0 instructions: 30000003 cycles: 8843982 heartbeat IPC: 3.39274 cumulative IPC: 3.39214 (Simulation time: 0 hr 15 min 50 sec) 
Heartbeat CPU 0 instructions: 40000002 cycles: 11791533 heartbeat IPC: 3.39265 cumulative IPC: 3.39226 (Simulation time: 0 hr 20 min 28 sec) 
Heartbeat CPU 0 instructions: 50000003 cycles: 14739140 heartbeat IPC: 3.39258 cumulative IPC: 3.39233 (Simulation time: 0 hr 25 min 7 sec) 

Warmup complete CPU 0 instructions: 50000003 cycles: 14739140 (Simulation time: 0 hr 25 min 7 sec) 

Heartbeat CPU 0 instructions: 60000000 cycles: 23112616 heartbeat IPC: 1.19425 cumulative IPC: 1.19425 (Simulation time: 0 hr 29 min 59 sec) 
Heartbeat CPU 0 instructions: 70000002 cycles: 31482875 heartbeat IPC: 1.19471 cumulative IPC: 1.19448 (Simulation time: 0 hr 34 min 11 sec) 
Heartbeat CPU 0 instructions: 80000003 cycles: 39857110 heartbeat IPC: 1.19414 cumulative IPC: 1.19436 (Simulation time: 0 hr 38 min 21 sec) 
Heartbeat CPU 0 instructions: 90000003 cycles: 48230831 heartbeat IPC: 1.19421 cumulative IPC: 1.19433 (Simulation time: 0 hr 42 min 25 sec) 
Heartbeat CPU 0 instructions: 100000000 cycles: 56597891 heartbeat IPC: 1.19516 cumulative IPC: 1.19449 (Simulation time: 0 hr 46 min 9 sec) 
Heartbeat CPU 0 instructions: 110000000 cycles: 64964504 heartbeat IPC: 1.19523 cumulative IPC: 1.19462 (Simulation time: 0 hr 49 min 41 sec) 
Heartbeat CPU 0 instructions: 120000000 cycles: 73345889 heartbeat IPC: 1.19312 cumulative IPC: 1.1944 (Simulation time: 0 hr 53 min 8 sec) 
Heartbeat CPU 0 instructions: 130000000 cycles: 81731442 heartbeat IPC: 1.19253 cumulative IPC: 1.19417 (Simulation time: 0 hr 56 min 24 sec) 
Heartbeat CPU 0 instructions: 140000002 cycles: 90111550 heartbeat IPC: 1.1933 cumulative IPC: 1.19407 (Simulation time: 0 hr 59 min 28 sec) 
Heartbeat CPU 0 instructions: 150000001 cycles: 98496747 heartbeat IPC: 1.19258 cumulative IPC: 1.19392 (Simulation time: 1 hr 2 min 19 sec) 
Finished CPU 0 instructions: 100000002 cycles: 83757608 cumulative IPC: 1.19392 (Simulation time: 1 hr 2 min 19 sec) 

ChampSim completed all CPUs

Region of Interest Statistics

CPU 0 cumulative IPC: 1.19392 instructions: 100000002 cycles: 83757608

CPU 0 Average Load ROB stall cycles: 1.49416e+07
CPU 0 Fraction of times ROB stalled by Loads: 26.3828
CPU 0 Percentage of Load stall cycles in Total stall cycles: 2.83859e+08
Issued all: 45664488
Issued LT all: 30924264
rob_not_full_when_issued_lt_all: 29603895
Issued LT one: 27554159
rob_not_full_when_issued_lt_one: 26390413
FVP critical_dynamic_instances_0: 16520996
FVP unique_critical_ips_0: 63
 Total stall cycles: 60635174
 Total load stall cycles: 172118680468812
Unique Load IPs: 182
CPU 0 NUM of IPS identified critical: 0
CPU 0 Num of Load IPs stalling ROB: 0
Threshold modification factor: 0
Trouble in retire width: -nan
MaC = Marked as critical.
lt_50_percent_before_Mac: 0
gt_90_percent_before_Mac: 0
gt_75_percent_before_Mac: 0
gt_50_percent_before_Mac: 0
stall_proportion_bin_same_before_after: 0
stall_proportion_bin_lower_before_after: 0
stall_proportion_bin_upper_before_after: 0
average_stall_proportion_before: -nan
average_stall_proportion_after: -nan
Critical IP stalls, total frequency: 0
Non-critical IP stalls, total frequency: 0
Total Freq all stalling IPs: 0
Critical_IP_Detector_Accuracy_70: 0.015873
Critical_IP_Detector_Accuracy_80: 0.015873
Critical_IP_Detector_Accuracy_90: 0.015873
Critical_IP_Detector_Coverage_70: 1
Critical_IP_Detector_Coverage_80: 1
Critical_IP_Detector_Coverage_90: 1
stat_90_percent_critical_ip_stalls_freq: 653751
stat_90_percent_non_critical_ip_stalls_freq: 18446744073708897865
AVERAGE_ROB_Occupancy_90_Percent_Critical_IP_Stalls: 92.467
AVERAGE_ROB_Occupancy_90_Percent_Non_Critical_IP_Stalls: 8.57316e-12
Critical_IP_ROB_Stalls_Bucket_0: 0
Non-critical_IP_ROB_Stalls_Bucket_0: 1291095
Critical_IP_ROB_Stalls_Bucket_1: 0
Non-critical_IP_ROB_Stalls_Bucket_1: 1352669
Critical_IP_ROB_Stalls_Bucket_2: 0
Non-critical_IP_ROB_Stalls_Bucket_2: 150305
Critical_IP_ROB_Stalls_Bucket_3: 0
Non-critical_IP_ROB_Stalls_Bucket_3: 67964
Critical_IP_ROB_Stalls_Bucket_4: 0
Non-critical_IP_ROB_Stalls_Bucket_4: 71309
Critical_IP_ROB_Stalls_Bucket_5: 0
Non-critical_IP_ROB_Stalls_Bucket_5: 46647
Critical_IP_ROB_Stalls_Bucket_6: 0
Non-critical_IP_ROB_Stalls_Bucket_6: 59162
0 => IPs accounting for >50 percent of stalls, 1 => 55, 2 => 60, 3 => 65 and so on till 90.
percent50: inf num IPs:  1
percent55: inf num IPs: 1
percent60: inf num IPs: 1
percent65: inf num IPs: 1
percent70: inf num IPs: 1
percent75: inf num IPs: 1
percent80: inf num IPs: 1
percent85: inf num IPs: 1
percent90: inf num IPs: 1
Critical_ROB_Stalls_Percent_0_Bucket_0: 0
Non-critical_ROB_Stalls_Percent_0_Bucket_0: 1291095
Critical_ROB_Stalls_Percent_0_Bucket_1: 524024
Non-critical_ROB_Stalls_Percent_0_Bucket_1: 828645
Critical_ROB_Stalls_Percent_0_Bucket_2: 56318
Non-critical_ROB_Stalls_Percent_0_Bucket_2: 93987
Critical_ROB_Stalls_Percent_0_Bucket_3: 24710
Non-critical_ROB_Stalls_Percent_0_Bucket_3: 43254
Critical_ROB_Stalls_Percent_0_Bucket_4: 24239
Non-critical_ROB_Stalls_Percent_0_Bucket_4: 47070
Critical_ROB_Stalls_Percent_0_Bucket_5: 13505
Non-critical_ROB_Stalls_Percent_0_Bucket_5: 33142
Critical_ROB_Stalls_Percent_0_Bucket_6: 10955
Non-critical_ROB_Stalls_Percent_0_Bucket_6: 48207
Critical_ROB_Stalls_Percent_1_Bucket_0: 0
Non-critical_ROB_Stalls_Percent_1_Bucket_0: 1291095
Critical_ROB_Stalls_Percent_1_Bucket_1: 524024
Non-critical_ROB_Stalls_Percent_1_Bucket_1: 828645
Critical_ROB_Stalls_Percent_1_Bucket_2: 56318
Non-critical_ROB_Stalls_Percent_1_Bucket_2: 93987
Critical_ROB_Stalls_Percent_1_Bucket_3: 24710
Non-critical_ROB_Stalls_Percent_1_Bucket_3: 43254
Critical_ROB_Stalls_Percent_1_Bucket_4: 24239
Non-critical_ROB_Stalls_Percent_1_Bucket_4: 47070
Critical_ROB_Stalls_Percent_1_Bucket_5: 13505
Non-critical_ROB_Stalls_Percent_1_Bucket_5: 33142
Critical_ROB_Stalls_Percent_1_Bucket_6: 10955
Non-critical_ROB_Stalls_Percent_1_Bucket_6: 48207
Critical_ROB_Stalls_Percent_2_Bucket_0: 0
Non-critical_ROB_Stalls_Percent_2_Bucket_0: 1291095
Critical_ROB_Stalls_Percent_2_Bucket_1: 524024
Non-critical_ROB_Stalls_Percent_2_Bucket_1: 828645
Critical_ROB_Stalls_Percent_2_Bucket_2: 56318
Non-critical_ROB_Stalls_Percent_2_Bucket_2: 93987
Critical_ROB_Stalls_Percent_2_Bucket_3: 24710
Non-critical_ROB_Stalls_Percent_2_Bucket_3: 43254
Critical_ROB_Stalls_Percent_2_Bucket_4: 24239
Non-critical_ROB_Stalls_Percent_2_Bucket_4: 47070
Critical_ROB_Stalls_Percent_2_Bucket_5: 13505
Non-critical_ROB_Stalls_Percent_2_Bucket_5: 33142
Critical_ROB_Stalls_Percent_2_Bucket_6: 10955
Non-critical_ROB_Stalls_Percent_2_Bucket_6: 48207
Critical_ROB_Stalls_Percent_3_Bucket_0: 0
Non-critical_ROB_Stalls_Percent_3_Bucket_0: 1291095
Critical_ROB_Stalls_Percent_3_Bucket_1: 524024
Non-critical_ROB_Stalls_Percent_3_Bucket_1: 828645
Critical_ROB_Stalls_Percent_3_Bucket_2: 56318
Non-critical_ROB_Stalls_Percent_3_Bucket_2: 93987
Critical_ROB_Stalls_Percent_3_Bucket_3: 24710
Non-critical_ROB_Stalls_Percent_3_Bucket_3: 43254
Critical_ROB_Stalls_Percent_3_Bucket_4: 24239
Non-critical_ROB_Stalls_Percent_3_Bucket_4: 47070
Critical_ROB_Stalls_Percent_3_Bucket_5: 13505
Non-critical_ROB_Stalls_Percent_3_Bucket_5: 33142
Critical_ROB_Stalls_Percent_3_Bucket_6: 10955
Non-critical_ROB_Stalls_Percent_3_Bucket_6: 48207
Critical_ROB_Stalls_Percent_4_Bucket_0: 0
Non-critical_ROB_Stalls_Percent_4_Bucket_0: 1291095
Critical_ROB_Stalls_Percent_4_Bucket_1: 524024
Non-critical_ROB_Stalls_Percent_4_Bucket_1: 828645
Critical_ROB_Stalls_Percent_4_Bucket_2: 56318
Non-critical_ROB_Stalls_Percent_4_Bucket_2: 93987
Critical_ROB_Stalls_Percent_4_Bucket_3: 24710
Non-critical_ROB_Stalls_Percent_4_Bucket_3: 43254
Critical_ROB_Stalls_Percent_4_Bucket_4: 24239
Non-critical_ROB_Stalls_Percent_4_Bucket_4: 47070
Critical_ROB_Stalls_Percent_4_Bucket_5: 13505
Non-critical_ROB_Stalls_Percent_4_Bucket_5: 33142
Critical_ROB_Stalls_Percent_4_Bucket_6: 10955
Non-critical_ROB_Stalls_Percent_4_Bucket_6: 48207
Critical_ROB_Stalls_Percent_5_Bucket_0: 0
Non-critical_ROB_Stalls_Percent_5_Bucket_0: 1291095
Critical_ROB_Stalls_Percent_5_Bucket_1: 524024
Non-critical_ROB_Stalls_Percent_5_Bucket_1: 828645
Critical_ROB_Stalls_Percent_5_Bucket_2: 56318
Non-critical_ROB_Stalls_Percent_5_Bucket_2: 93987
Critical_ROB_Stalls_Percent_5_Bucket_3: 24710
Non-critical_ROB_Stalls_Percent_5_Bucket_3: 43254
Critical_ROB_Stalls_Percent_5_Bucket_4: 24239
Non-critical_ROB_Stalls_Percent_5_Bucket_4: 47070
Critical_ROB_Stalls_Percent_5_Bucket_5: 13505
Non-critical_ROB_Stalls_Percent_5_Bucket_5: 33142
Critical_ROB_Stalls_Percent_5_Bucket_6: 10955
Non-critical_ROB_Stalls_Percent_5_Bucket_6: 48207
Critical_ROB_Stalls_Percent_6_Bucket_0: 0
Non-critical_ROB_Stalls_Percent_6_Bucket_0: 1291095
Critical_ROB_Stalls_Percent_6_Bucket_1: 524024
Non-critical_ROB_Stalls_Percent_6_Bucket_1: 828645
Critical_ROB_Stalls_Percent_6_Bucket_2: 56318
Non-critical_ROB_Stalls_Percent_6_Bucket_2: 93987
Critical_ROB_Stalls_Percent_6_Bucket_3: 24710
Non-critical_ROB_Stalls_Percent_6_Bucket_3: 43254
Critical_ROB_Stalls_Percent_6_Bucket_4: 24239
Non-critical_ROB_Stalls_Percent_6_Bucket_4: 47070
Critical_ROB_Stalls_Percent_6_Bucket_5: 13505
Non-critical_ROB_Stalls_Percent_6_Bucket_5: 33142
Critical_ROB_Stalls_Percent_6_Bucket_6: 10955
Non-critical_ROB_Stalls_Percent_6_Bucket_6: 48207
Critical_ROB_Stalls_Percent_7_Bucket_0: 0
Non-critical_ROB_Stalls_Percent_7_Bucket_0: 1291095
Critical_ROB_Stalls_Percent_7_Bucket_1: 524024
Non-critical_ROB_Stalls_Percent_7_Bucket_1: 828645
Critical_ROB_Stalls_Percent_7_Bucket_2: 56318
Non-critical_ROB_Stalls_Percent_7_Bucket_2: 93987
Critical_ROB_Stalls_Percent_7_Bucket_3: 24710
Non-critical_ROB_Stalls_Percent_7_Bucket_3: 43254
Critical_ROB_Stalls_Percent_7_Bucket_4: 24239
Non-critical_ROB_Stalls_Percent_7_Bucket_4: 47070
Critical_ROB_Stalls_Percent_7_Bucket_5: 13505
Non-critical_ROB_Stalls_Percent_7_Bucket_5: 33142
Critical_ROB_Stalls_Percent_7_Bucket_6: 10955
Non-critical_ROB_Stalls_Percent_7_Bucket_6: 48207
Critical_ROB_Stalls_Percent_8_Bucket_0: 0
Non-critical_ROB_Stalls_Percent_8_Bucket_0: 1291095
Critical_ROB_Stalls_Percent_8_Bucket_1: 524024
Non-critical_ROB_Stalls_Percent_8_Bucket_1: 828645
Critical_ROB_Stalls_Percent_8_Bucket_2: 56318
Non-critical_ROB_Stalls_Percent_8_Bucket_2: 93987
Critical_ROB_Stalls_Percent_8_Bucket_3: 24710
Non-critical_ROB_Stalls_Percent_8_Bucket_3: 43254
Critical_ROB_Stalls_Percent_8_Bucket_4: 24239
Non-critical_ROB_Stalls_Percent_8_Bucket_4: 47070
Critical_ROB_Stalls_Percent_8_Bucket_5: 13505
Non-critical_ROB_Stalls_Percent_8_Bucket_5: 33142
Critical_ROB_Stalls_Percent_8_Bucket_6: 10955
Non-critical_ROB_Stalls_Percent_8_Bucket_6: 48207
Average ROB occupancy Load Stall Begin: 57.0837
Average ROB occupancy Load Stall End: 71.9271
Min ROB occupancy Load Stall Begin: 2
Max ROB occupancy Load Stall Begin: 352
Min ROB occupancy Load Stall End: 2
Max ROB occupancy Load Stall End: 352
Average ROB occupancy Critical Load Stall Begin: -nan
Average ROB occupancy Critical Load Stall End: -nan
Min ROB occupancy Critical Load Stall Begin: 400
Max ROB occupancy Critical Load Stall Begin: 0
Min ROB occupancy Critical Load Stall End: 400
Max ROB occupancy Critical Load Stall End: 0
 ROB Load Stall Begin Bucket Count 0: 1986348
 ROB Load Stall End Bucket Count 0: 1291095
 ROB Critical Load Stall Begin Bucket Count 0: 0
 ROB Critical Load Stall End Bucket Count 0: 0
 ROB Load Stall Begin Bucket Count 1: 760490
 ROB Load Stall End Bucket Count 1: 1352669
 ROB Critical Load Stall Begin Bucket Count 1: 0
 ROB Critical Load Stall End Bucket Count 1: 0
 ROB Load Stall Begin Bucket Count 2: 96164
 ROB Load Stall End Bucket Count 2: 150305
 ROB Critical Load Stall Begin Bucket Count 2: 0
 ROB Critical Load Stall End Bucket Count 2: 0
 ROB Load Stall Begin Bucket Count 3: 70398
 ROB Load Stall End Bucket Count 3: 67964
 ROB Critical Load Stall Begin Bucket Count 3: 0
 ROB Critical Load Stall End Bucket Count 3: 0
 ROB Load Stall Begin Bucket Count 4: 63956
 ROB Load Stall End Bucket Count 4: 71309
 ROB Critical Load Stall Begin Bucket Count 4: 0
 ROB Critical Load Stall End Bucket Count 4: 0
 ROB Load Stall Begin Bucket Count 5: 32924
 ROB Load Stall End Bucket Count 5: 46647
 ROB Critical Load Stall Begin Bucket Count 5: 0
 ROB Critical Load Stall End Bucket Count 5: 0
 ROB Load Stall Begin Bucket Count 6: 28871
 ROB Load Stall End Bucket Count 6: 59162
 ROB Critical Load Stall Begin Bucket Count 6: 0
 ROB Critical Load Stall End Bucket Count 6: 0
PIST Tag Read Accesses: 0
PIST Read Accesses: 0
PIST Tag Write Accesses: 0
PIST Write Accesses: 0
Criticality detector called times: 0
Max global_stall_cycles_count: 0
Threshold Modified: 0 times, factor: 0
ITLB TOTAL     ACCESS:   12048644  HIT:   12048644  MISS:          0  HIT %:        100  MISS %:          0   MPKI: 0
ITLB LOAD TRANSLATION ACCESS:   12048644  HIT:   12048644  MISS:          0  HIT %:        100  MISS %:          0   MPKI: 0
ITLB PREFETCH  REQUESTED:          0  ISSUED:          0  USEFUL:          0  USELESS:          0
ITLB USEFUL LOAD PREFETCHES:          0 PREFETCH ISSUED TO LOWER LEVEL:          0  ACCURACY: -nan
ITLB TIMELY PREFETCHES:          0 LATE PREFETCHES: 0 DROPPED PREFETCHES: 0
ITLB PREFETCHES SAME FILL-ORIGIN LEVEL: 0 DIFFERENT FILL-ORIGIN LEVEL: 0
ITLB AVERAGE MISS LATENCY: -nan cycles
ITLB RQ	ACCESS:   13931998	FORWARD:          0	MERGED:    1883354	TO_CACHE:   12048644

DTLB TOTAL     ACCESS:   24481378  HIT:   24261205  MISS:     220173  HIT %:    99.1007  MISS %:   0.899349   MPKI: 2.20173
DTLB LOAD TRANSLATION ACCESS:   24481378  HIT:   24261205  MISS:     220173  HIT %:    99.1007  MISS %:   0.899349   MPKI: 2.20173
DTLB PREFETCH  REQUESTED:          0  ISSUED:          0  USEFUL:          0  USELESS:          0
DTLB USEFUL LOAD PREFETCHES:          0 PREFETCH ISSUED TO LOWER LEVEL:          0  ACCURACY: -nan
DTLB TIMELY PREFETCHES:          0 LATE PREFETCHES: 0 DROPPED PREFETCHES: 0
DTLB PREFETCHES SAME FILL-ORIGIN LEVEL: 0 DIFFERENT FILL-ORIGIN LEVEL: 0
DTLB AVERAGE MISS LATENCY: 43.072 cycles
DTLB RQ	ACCESS:   36819367	FORWARD:          0	MERGED:   12327641	TO_CACHE:   24491726

STLB TOTAL     ACCESS:    1019556  HIT:     998252  MISS:      21304  HIT %:    97.9105  MISS %:    2.08954   MPKI: 0.21304
STLB LOAD TRANSLATION ACCESS:     220173  HIT:     198869  MISS:      21304  HIT %:     90.324  MISS %:    9.67603   MPKI: 0.21304
STLB TRANSLATION FROM L1D PREFETCHER ACCESS:     799383  HIT:     799383  MISS:          0  HIT %:        100  MISS %:          0   MPKI: 0
STLB PREFETCH  REQUESTED:          0  ISSUED:          0  USEFUL:          0  USELESS:          0
STLB USEFUL LOAD PREFETCHES:          0 PREFETCH ISSUED TO LOWER LEVEL:          0  ACCURACY: -nan
STLB TIMELY PREFETCHES:          0 LATE PREFETCHES: 0 DROPPED PREFETCHES: 0
STLB PREFETCHES SAME FILL-ORIGIN LEVEL: 0 DIFFERENT FILL-ORIGIN LEVEL: 0
STLB AVERAGE MISS LATENCY: 344.186 cycles
STLB RQ	ACCESS:    4496666	FORWARD:          0	MERGED:    3477108	TO_CACHE:    1019558

STLB Hit, L1D data hit: 0
STLB Hit, L2C data hit: 0
STLB Hit, LLC data hit: 0
STLB Hit, LLC data miss: 0
STLB STLB hints to L2: 0
L1D TOTAL     ACCESS:   39535038  HIT:   37837054  MISS:    1697984  HIT %:    95.7051  MISS %:    4.29488   MPKI: 16.9798
L1D LOAD      ACCESS:   18501926  HIT:   18254573  MISS:     247353  HIT %:    98.6631  MISS %:     1.3369   MPKI: 2.47353
L1D RFO       ACCESS:   16756810  HIT:   16127566  MISS:     629244  HIT %:    96.2448  MISS %:    3.75515   MPKI: 6.29244
L1D PREFETCH  ACCESS:    4276302  HIT:    3454915  MISS:     821387  HIT %:    80.7921  MISS %:    19.2079   MPKI: 8.21387
L1D PREFETCH  REQUESTED:    8654747  ISSUED:    8552986  USEFUL:     817302  USELESS:       4056
L1D USEFUL LOAD PREFETCHES:     817302 PREFETCH ISSUED TO LOWER LEVEL:     826428  ACCURACY: 98.8957
L1D TIMELY PREFETCHES:     817302 LATE PREFETCHES: 37 DROPPED PREFETCHES: 0
L1D PREFETCHES SAME FILL-ORIGIN LEVEL: 826428 DIFFERENT FILL-ORIGIN LEVEL: 0
L1D AVERAGE MISS LATENCY: 1519.66 cycles
L1D RQ	ACCESS:   27898693	FORWARD:          0	MERGED:    9182343	TO_CACHE:   18514054
L1D WQ	ACCESS:   18324522	FORWARD:     202296	MERGED:      19209	TO_CACHE:   18305313
L1D PQ	ACCESS:    4276493	FORWARD:          0	MERGED:          0	TO_CACHE:    4276493

L1D UNIQUE REGIONS ACCESSED: 0
L1D REGIONS CONFLICTS: 0
L1D Cross Page Prefetch Requests: 0
L1D Same Page Prefetch Requests: 4693719
L1D ROI Sum of L1D PQ occupancy: 63367710
L1D PREFETCHES PUSHED FROM L2C: 0
L1I TOTAL     ACCESS:   13931998  HIT:   13931998  MISS:          0  HIT %:        100  MISS %:          0   MPKI: 0
L1I LOAD      ACCESS:   13931998  HIT:   13931998  MISS:          0  HIT %:        100  MISS %:          0   MPKI: 0
L1I PREFETCH  REQUESTED:          0  ISSUED:          0  USEFUL:          0  USELESS:          0
L1I USEFUL LOAD PREFETCHES:          0 PREFETCH ISSUED TO LOWER LEVEL:          0  ACCURACY: -nan
L1I TIMELY PREFETCHES:          0 LATE PREFETCHES: 0 DROPPED PREFETCHES: 0
L1I PREFETCHES SAME FILL-ORIGIN LEVEL: 0 DIFFERENT FILL-ORIGIN LEVEL: 0
L1I AVERAGE MISS LATENCY: -nan cycles
L1I RQ	ACCESS:   20366494	FORWARD:          0	MERGED:    6434496	TO_CACHE:   13931998

BTB TOTAL     ACCESS:     843996  HIT:     843991  MISS:          5  HIT %:    99.9994  MISS %: 0.00059242   MPKI: 5e-05
BTB BRANCH_DIRECT_JUMP	ACCESS:          0  HIT:          0  MISS:          0
BTB BRANCH_INDIRECT	ACCESS:          0  HIT:          0  MISS:          0
BTB BRANCH_CONDITIONAL	ACCESS:     843996  HIT:     843991  MISS:          5
BTB BRANCH_DIRECT_CALL	ACCESS:          0  HIT:          0  MISS:          0
BTB BRANCH_INDIRECT_CALL	ACCESS:          0  HIT:          0  MISS:          0
BTB BRANCH_RETURN	ACCESS:          0  HIT:          0  MISS:          0
BTB BRANCH_OTHER ACCESS:          0  HIT:          0  MISS:          0

L2C TOTAL     ACCESS:    6170315  HIT:    4687961  MISS:    1482354  HIT %:     75.976  MISS %:     24.024   MPKI: 14.8235
L2C LOAD      ACCESS:     247033  HIT:     184395  MISS:      62638  HIT %:    74.6439  MISS %:    25.3561   MPKI: 0.62638
L2C DATA LOAD MPKI: 0.62638
L2C INSTRUCTION LOAD MPKI: 0
L2C RFO       ACCESS:     612244  HIT:      16859  MISS:     595385  HIT %:    2.75364  MISS %:    97.2464   MPKI: 5.95385
L2C PREFETCH  ACCESS:    4652201  HIT:    3841944  MISS:     810257  HIT %:    82.5834  MISS %:    17.4166   MPKI: 8.10257
L2C DATA PREFETCH MPKI: 8.10257
L2C INSTRUCTION PREFETCH MPKI: 0
L2C WRITEBACK ACCESS:     637516  HIT:     626650  MISS:      10866  HIT %:    98.2956  MISS %:    1.70443   MPKI: 0.10866
L2C LOAD TRANSLATION ACCESS:      21321  HIT:      18113  MISS:       3208  HIT %:    84.9538  MISS %:    15.0462   MPKI: 0.03208
L2C PREFETCH  REQUESTED:    4333022  ISSUED:    4230048  USEFUL:     162898  USELESS:     646210
L2C USEFUL LOAD PREFETCHES:     162898 PREFETCH ISSUED TO LOWER LEVEL:     810308  ACCURACY: 20.1032
L2C TIMELY PREFETCHES:     162898 LATE PREFETCHES: 51 DROPPED PREFETCHES: 0
L2C PREFETCHES SAME FILL-ORIGIN LEVEL: 701806 DIFFERENT FILL-ORIGIN LEVEL: 0
L2C AVERAGE MISS LATENCY: 262.59 cycles
L2C RQ	ACCESS:     897881	FORWARD:          0	MERGED:          0	TO_CACHE:     880598
L2C WQ	ACCESS:     637516	FORWARD:      17283	MERGED:          0	TO_CACHE:     637516
L2C PQ	ACCESS:    5051472	FORWARD:          0	MERGED:     387222	TO_CACHE:    4664250

L2C Instructions Evicting Data 0
L2C Translations Evicting Data 3204
L2C Data Evicting Data 1465117
L2C Instructions Evicting Instructions 0
L2C Translations Evicting Instructions 0
L2C Data Evicting Instructions 0
L2C Instructions Evicting Translations 0
L2C Translations Evicting Translations 4
L2C Data Evicting Translations 3163
L2C Dense regions hint from L2: 0
PSCL5 TOTAL     ACCESS:      21304  HIT:      21304  MISS:          0  HIT %:        100  MISS %:          0   MPKI: 0
PSCL5 LOAD TRANSLATION ACCESS:      21304  HIT:      21304  MISS:          0  HIT %:        100  MISS %:          0   MPKI: 0
PSCL5 PREFETCH  REQUESTED:          0  ISSUED:          0  USEFUL:          0  USELESS:          0
PSCL5 USEFUL LOAD PREFETCHES:          0 PREFETCH ISSUED TO LOWER LEVEL:          0  ACCURACY: -nan
PSCL5 TIMELY PREFETCHES:          0 LATE PREFETCHES: 0 DROPPED PREFETCHES: 0
PSCL5 PREFETCHES SAME FILL-ORIGIN LEVEL: 0 DIFFERENT FILL-ORIGIN LEVEL: 0

PSCL4 TOTAL     ACCESS:      21304  HIT:      21304  MISS:          0  HIT %:        100  MISS %:          0   MPKI: 0
PSCL4 LOAD TRANSLATION ACCESS:      21304  HIT:      21304  MISS:          0  HIT %:        100  MISS %:          0   MPKI: 0
PSCL4 PREFETCH  REQUESTED:          0  ISSUED:          0  USEFUL:          0  USELESS:          0
PSCL4 USEFUL LOAD PREFETCHES:          0 PREFETCH ISSUED TO LOWER LEVEL:          0  ACCURACY: -nan
PSCL4 TIMELY PREFETCHES:          0 LATE PREFETCHES: 0 DROPPED PREFETCHES: 0
PSCL4 PREFETCHES SAME FILL-ORIGIN LEVEL: 0 DIFFERENT FILL-ORIGIN LEVEL: 0

PSCL3 TOTAL     ACCESS:      17066  HIT:      17054  MISS:         12  HIT %:    99.9297  MISS %:  0.0703152   MPKI: 0.00012
PSCL3 LOAD TRANSLATION ACCESS:      17066  HIT:      17054  MISS:         12  HIT %:    99.9297  MISS %:  0.0703152   MPKI: 0.00012
PSCL3 PREFETCH  REQUESTED:          0  ISSUED:          0  USEFUL:          0  USELESS:          0
PSCL3 USEFUL LOAD PREFETCHES:          0 PREFETCH ISSUED TO LOWER LEVEL:          0  ACCURACY: -nan
PSCL3 TIMELY PREFETCHES:          0 LATE PREFETCHES: 0 DROPPED PREFETCHES: 0
PSCL3 PREFETCHES SAME FILL-ORIGIN LEVEL: 0 DIFFERENT FILL-ORIGIN LEVEL: 0

PSCL2 TOTAL     ACCESS:      21304  HIT:      21262  MISS:         42  HIT %:    99.8029  MISS %:   0.197146   MPKI: 0.00042
PSCL2 LOAD TRANSLATION ACCESS:      21304  HIT:      21262  MISS:         42  HIT %:    99.8029  MISS %:   0.197146   MPKI: 0.00042
PSCL2 PREFETCH  REQUESTED:          0  ISSUED:          0  USEFUL:          0  USELESS:          0
PSCL2 USEFUL LOAD PREFETCHES:          0 PREFETCH ISSUED TO LOWER LEVEL:          0  ACCURACY: -nan
PSCL2 TIMELY PREFETCHES:          0 LATE PREFETCHES: 0 DROPPED PREFETCHES: 0
PSCL2 PREFETCHES SAME FILL-ORIGIN LEVEL: 0 DIFFERENT FILL-ORIGIN LEVEL: 0

LLC TOTAL     ACCESS:    2067205  HIT:     689479  MISS:    1377726  HIT %:    33.3532  MISS %:    66.6468   MPKI: 13.7773
LLC LOAD      ACCESS:      62587  HIT:      18758  MISS:      43829  HIT %:    29.9711  MISS %:    70.0289   MPKI: 0.43829
LLC RFO       ACCESS:     595385  HIT:          0  MISS:     595385  HIT %:          0  MISS %:        100   MPKI: 5.95385
LLC PREFETCH  ACCESS:     810308  HIT:      84031  MISS:     726277  HIT %:    10.3703  MISS %:    89.6297   MPKI: 7.26277
LLC WRITEBACK ACCESS:     595717  HIT:     586200  MISS:       9517  HIT %:    98.4024  MISS %:    1.59757   MPKI: 0.09517
LLC LOAD TRANSLATION ACCESS:       3208  HIT:        490  MISS:       2718  HIT %:    15.2743  MISS %:    84.7257   MPKI: 0.02718
LLC PREFETCH  REQUESTED:          0  ISSUED:          0  USEFUL:      13164  USELESS:     710140
LLC USEFUL LOAD PREFETCHES:      13164 PREFETCH ISSUED TO LOWER LEVEL:     726277  ACCURACY: 1.81253
LLC TIMELY PREFETCHES:      13164 LATE PREFETCHES: 0 DROPPED PREFETCHES: 0
LLC PREFETCHES SAME FILL-ORIGIN LEVEL: 0 DIFFERENT FILL-ORIGIN LEVEL: 0
LLC AVERAGE MISS LATENCY: 249.553 cycles
LLC RQ	ACCESS:     661180	FORWARD:          0	MERGED:          0	TO_CACHE:     661180
LLC WQ	ACCESS:     595717	FORWARD:          0	MERGED:          0	TO_CACHE:     595717
LLC PQ	ACCESS:     810308	FORWARD:          0	MERGED:          0	TO_CACHE:     810308

LLC Dense regions hint to LLC: 0

RAW hits: 1424279
Loads Generated: 29322976
Loads sent to L1D: 27898693
Stores Generated: 18324532
Stores sent to L1D: 18324522
Major fault: 0 Minor fault: 30129
Allocated PAGES: 30129

stream: 
stream:times selected: 937262
stream:pref_filled: 1100650
stream:pref_useful: 1093052
stream:pref_late: 305
stream:misses: 733
stream:misses_by_poll: 0

CS: 
CS:times selected: 822686
CS:pref_filled: 1056
CS:pref_useful: 1051
CS:pref_late: 3
CS:misses: 36949
CS:misses_by_poll: 5

CPLX: 
CPLX:times selected: 114447
CPLX:pref_filled: 9047
CPLX:pref_useful: 8135
CPLX:pref_late: 0
CPLX:misses: 7372
CPLX:misses_by_poll: 0

NL_L1: 
NL:times selected: 66
NL:pref_filled: 53
NL:pref_useful: 53
NL:pref_late: 1
NL:misses: 14
NL:misses_by_poll: 0

total selections: 1874461
total_filled: 821387
total_useful: 817302
total_late: 326
total_polluted: 5
total_misses_after_warmup: 52305
conflicts: 59160
Degree Incremented Times: 143875
Degree Decremented Times: 0

L1 IP Table Write Accesses: 11731946
L1 IP Table Read Accesses: 11672786
L1 RST Write Accesses: 831702
L1 RST Read Accesses: 1663404
L1 CSPT Write Accesses: 831702
L1 CSPT Read Accesses: 872173
L1 RR Filter Tag Write Accesses: 4378254
L1 RR Filter Tag Read Accesses: 209195742
L1 IP Table Tag Write Accesses: 12382723
L1 IP Table Tag Read Accesses: 12382723
L1 RST Tag Write Accesses: 0
L1 RST Tag Read Accesses: 7480088
L1 RR Filter Write Accesses: 0
L1 RR Filter Read Accesses: 7130859
test: 22049
L2 IP Table Read Accesses: 1541725
L2 IP Table Write Accesses: 1495615
L2 IP Table Tag Read Accesses: 772118
L2 IP Table Tag Write Accesses: 772118

DRAM Statistics
 CHANNEL 0
 RQ ROW_BUFFER_HIT:     693651  ROW_BUFFER_MISS:     674558
 DBUS_CONGESTED:        427
 WQ ROW_BUFFER_HIT:      99169  ROW_BUFFER_MISS:     496593  FULL:          0

 AVG_CONGESTED_CYCLE: 4
 All warmup complete: 2
Channel 0 Bank busy for read cycles: 0
Channel 0 Bank busy for write cycles: 0
Channel 0
Rank 0
0banks busy for read cycles: 1505586
0banks busy for write cycles: 33803
1banks busy for read cycles: 17894227
1banks busy for write cycles: 4109948
2banks busy for read cycles: 16665911
2banks busy for write cycles: 4733164
3banks busy for read cycles: 11567494
3banks busy for write cycles: 4298628
4banks busy for read cycles: 4636220
4banks busy for write cycles: 3772392
5banks busy for read cycles: 1245728
5banks busy for write cycles: 3133913
6banks busy for read cycles: 1054169
6banks busy for write cycles: 2441770
7banks busy for read cycles: 1780433
7banks busy for write cycles: 2047407
8banks busy for read cycles: 804709
8banks busy for write cycles: 2032107

CPU 0 Branch Prediction Accuracy: 99.9697% MPKI: 0.00256 Average ROB Occupancy at Mispredict: 79.0195
Branch types
NOT_BRANCH: 99155788 99.1558%
BRANCH_DIRECT_JUMP: 0 0%
BRANCH_INDIRECT: 0 0%
BRANCH_CONDITIONAL: 844001 0.844001%
BRANCH_DIRECT_CALL: 0 0%
BRANCH_INDIRECT_CALL: 0 0%
BRANCH_RETURN: 0 0%
BRANCH_OTHER: 0 0%

DRAM PAGES: 1048576
Allocated PAGES: 30129
