Initialize SIGNATURE TABLE
ST_SET: 1
ST_WAY: 256
ST_TAG_BIT: 16
ST_TAG_MASK: ffff

Initialize PATTERN TABLE
PT_SET: 512
PT_WAY: 4
SIG_DELTA_BIT: 7
C_SIG_BIT: 4
C_DELTA_BIT: 4

Initialize PREFETCH FILTER
FILTER_SET: 1024

*** ChampSim Multicore Out-of-Order Simulator ***

Warmup Instructions: 50000000
Simulation Instructions: 100000000
Number of CPUs: 1
LLC sets: 2048
LLC ways: 16
Off-chip DRAM Size: 4096 MB Channels: 1 Width: 64-bit Data Rate: 6400 MT/s
CPU 0 runs ../SPEC2017//603.bwaves_s-2931B.champsimtrace.xz
.xz
NUM_OF_IPS_IN_CRITICAL_IP_TRAINING: 64
NUM_OF_CRITICAL_IP_TRAINING_TABLE_WAYS: 2
NUM_OF_CRITICAL_IP_TRAINING_TABLE_SETS: 32
WOBBLY_CRITICAL_IP_CACHE_SETS: 32
WOBBLY_CRITICAL_IP_CACHE_WAYS: 4
BTB has LRU replacement policy
ITLB has LRU replacement policy
DTLB has LRU replacement policy
STLB has LRU replacement policy
L1I has LRU replacement policy
L1D has LRU replacement policy
Initialize SRRIP state for L2C
Initialize DRRIP state for LLC
Heartbeat CPU 0 instructions: 10000003 cycles: 2948062 heartbeat IPC: 3.39206 cumulative IPC: 3.39206 (Simulation time: 0 hr 4 min 56 sec) 
Heartbeat CPU 0 instructions: 20000003 cycles: 5895738 heartbeat IPC: 3.3925 cumulative IPC: 3.39228 (Simulation time: 0 hr 9 min 34 sec) 
Heartbeat CPU 0 instructions: 30000003 cycles: 8843404 heartbeat IPC: 3.39251 cumulative IPC: 3.39236 (Simulation time: 0 hr 13 min 43 sec) 
Heartbeat CPU 0 instructions: 40000002 cycles: 11791128 heartbeat IPC: 3.39245 cumulative IPC: 3.39238 (Simulation time: 0 hr 17 min 30 sec) 
Heartbeat CPU 0 instructions: 50000003 cycles: 14738911 heartbeat IPC: 3.39238 cumulative IPC: 3.39238 (Simulation time: 0 hr 21 min 10 sec) 

Warmup complete CPU 0 instructions: 50000003 cycles: 14738911 (Simulation time: 0 hr 21 min 10 sec) 

% increase in all ip prefetch 188.563
% increase in all ip prefetch 0.167841
Heartbeat CPU 0 instructions: 60000000 cycles: 23144639 heartbeat IPC: 1.18966 cumulative IPC: 1.18966 (Simulation time: 0 hr 25 min 14 sec) 
Heartbeat CPU 0 instructions: 70000002 cycles: 31505508 heartbeat IPC: 1.19605 cumulative IPC: 1.19285 (Simulation time: 0 hr 28 min 55 sec) 
Heartbeat CPU 0 instructions: 80000003 cycles: 39869831 heartbeat IPC: 1.19555 cumulative IPC: 1.19375 (Simulation time: 0 hr 32 min 25 sec) 
Heartbeat CPU 0 instructions: 90000000 cycles: 48222460 heartbeat IPC: 1.19723 cumulative IPC: 1.19462 (Simulation time: 0 hr 35 min 46 sec) 
Heartbeat CPU 0 instructions: 100000002 cycles: 56579238 heartbeat IPC: 1.19663 cumulative IPC: 1.19502 (Simulation time: 0 hr 38 min 57 sec) 
Heartbeat CPU 0 instructions: 110000000 cycles: 64934929 heartbeat IPC: 1.19679 cumulative IPC: 1.19531 (Simulation time: 0 hr 41 min 57 sec) 
Heartbeat CPU 0 instructions: 120000000 cycles: 73292710 heartbeat IPC: 1.19649 cumulative IPC: 1.19548 (Simulation time: 0 hr 44 min 39 sec) 
Heartbeat CPU 0 instructions: 130000000 cycles: 81657149 heartbeat IPC: 1.19554 cumulative IPC: 1.19549 (Simulation time: 0 hr 47 min 13 sec) 
Heartbeat CPU 0 instructions: 140000002 cycles: 90019023 heartbeat IPC: 1.1959 cumulative IPC: 1.19553 (Simulation time: 0 hr 50 min 6 sec) 
Heartbeat CPU 0 instructions: 150000003 cycles: 98383569 heartbeat IPC: 1.19552 cumulative IPC: 1.19553 (Simulation time: 0 hr 55 min 59 sec) 
Finished CPU 0 instructions: 100000000 cycles: 83644658 cumulative IPC: 1.19553 (Simulation time: 0 hr 55 min 59 sec) 

ChampSim completed all CPUs

Region of Interest Statistics

CPU 0 cumulative IPC: 1.19553 instructions: 100000000 cycles: 83644658

CPU 0 Average Load ROB stall cycles: 1.55252e+07
CPU 0 Fraction of times ROB stalled by Loads: 27.3816
CPU 0 Percentage of Load stall cycles in Total stall cycles: 2.96952e+08
Issued all: 45512918
Issued LT all: 30753111
rob_not_full_when_issued_lt_all: 29630253
Issued LT one: 27423630
rob_not_full_when_issued_lt_one: 26416130
 Total stall cycles: 60589193
 Total load stall cycles: 179920816511636
CPU 0 NUM of IPS identified critical: 0
CPU 0 Num of Load IPs stalling ROB: 140
Threshold modification factor: -1
Max PIST entries: 60
Min PIST entries: 0
Avg PIST entries: 34.2867
Trouble in retire width: 0.832229
MaC = Marked as critical.
lt_50_percent_before_Mac: 0
gt_90_percent_before_Mac: 0
gt_75_percent_before_Mac: 0
gt_50_percent_before_Mac: 0
stall_proportion_bin_same_before_after: 0
stall_proportion_bin_lower_before_after: 0
stall_proportion_bin_upper_before_after: 0
average_stall_proportion_before: -nan
average_stall_proportion_after: -nan
Critical IP stalls, total frequency: 0
Non-critical IP stalls, total frequency: 3173245
Total Freq all stalling IPs: 3173245
stat_90_percent_critical_ip_stalls_freq: 2868903
stat_90_percent_non_critical_ip_stalls_freq: 304342
Critical_IP_ROB_Stalls_Bucket_0: 0
Non-critical_IP_ROB_Stalls_Bucket_0: 1167382
Critical_IP_ROB_Stalls_Bucket_1: 0
Non-critical_IP_ROB_Stalls_Bucket_1: 1477833
Critical_IP_ROB_Stalls_Bucket_2: 0
Non-critical_IP_ROB_Stalls_Bucket_2: 357208
Critical_IP_ROB_Stalls_Bucket_3: 0
Non-critical_IP_ROB_Stalls_Bucket_3: 57852
Critical_IP_ROB_Stalls_Bucket_4: 0
Non-critical_IP_ROB_Stalls_Bucket_4: 38629
Critical_IP_ROB_Stalls_Bucket_5: 0
Non-critical_IP_ROB_Stalls_Bucket_5: 29443
Critical_IP_ROB_Stalls_Bucket_6: 0
Non-critical_IP_ROB_Stalls_Bucket_6: 44898
0 => IPs accounting for >50 percent of stalls, 1 => 55, 2 => 60, 3 => 65 and so on till 90.
percent50: 56.5715 num IPs:  4
percent55: 56.5715 num IPs: 4
percent60: 61.9856 num IPs: 5
percent65: 65.9993 num IPs: 6
percent70: 72.9837 num IPs: 8
percent75: 75.9245 num IPs: 9
percent80: 80.278 num IPs: 11
percent85: 85.5938 num IPs: 15
percent90: 90.4091 num IPs: 21
Critical_ROB_Stalls_Percent_0_Bucket_0: 452032
Non-critical_ROB_Stalls_Percent_0_Bucket_0: 715350
Critical_ROB_Stalls_Percent_0_Bucket_1: 1055876
Non-critical_ROB_Stalls_Percent_0_Bucket_1: 421957
Critical_ROB_Stalls_Percent_0_Bucket_2: 199707
Non-critical_ROB_Stalls_Percent_0_Bucket_2: 157501
Critical_ROB_Stalls_Percent_0_Bucket_3: 29099
Non-critical_ROB_Stalls_Percent_0_Bucket_3: 28753
Critical_ROB_Stalls_Percent_0_Bucket_4: 22661
Non-critical_ROB_Stalls_Percent_0_Bucket_4: 15968
Critical_ROB_Stalls_Percent_0_Bucket_5: 16052
Non-critical_ROB_Stalls_Percent_0_Bucket_5: 13391
Critical_ROB_Stalls_Percent_0_Bucket_6: 19725
Non-critical_ROB_Stalls_Percent_0_Bucket_6: 25173
Critical_ROB_Stalls_Percent_1_Bucket_0: 452032
Non-critical_ROB_Stalls_Percent_1_Bucket_0: 715350
Critical_ROB_Stalls_Percent_1_Bucket_1: 1055876
Non-critical_ROB_Stalls_Percent_1_Bucket_1: 421957
Critical_ROB_Stalls_Percent_1_Bucket_2: 199707
Non-critical_ROB_Stalls_Percent_1_Bucket_2: 157501
Critical_ROB_Stalls_Percent_1_Bucket_3: 29099
Non-critical_ROB_Stalls_Percent_1_Bucket_3: 28753
Critical_ROB_Stalls_Percent_1_Bucket_4: 22661
Non-critical_ROB_Stalls_Percent_1_Bucket_4: 15968
Critical_ROB_Stalls_Percent_1_Bucket_5: 16052
Non-critical_ROB_Stalls_Percent_1_Bucket_5: 13391
Critical_ROB_Stalls_Percent_1_Bucket_6: 19725
Non-critical_ROB_Stalls_Percent_1_Bucket_6: 25173
Critical_ROB_Stalls_Percent_2_Bucket_0: 585836
Non-critical_ROB_Stalls_Percent_2_Bucket_0: 581546
Critical_ROB_Stalls_Percent_2_Bucket_1: 1078300
Non-critical_ROB_Stalls_Percent_2_Bucket_1: 399533
Critical_ROB_Stalls_Percent_2_Bucket_2: 210181
Non-critical_ROB_Stalls_Percent_2_Bucket_2: 147027
Critical_ROB_Stalls_Percent_2_Bucket_3: 30780
Non-critical_ROB_Stalls_Percent_2_Bucket_3: 27072
Critical_ROB_Stalls_Percent_2_Bucket_4: 23632
Non-critical_ROB_Stalls_Percent_2_Bucket_4: 14997
Critical_ROB_Stalls_Percent_2_Bucket_5: 16585
Non-critical_ROB_Stalls_Percent_2_Bucket_5: 12858
Critical_ROB_Stalls_Percent_2_Bucket_6: 21641
Non-critical_ROB_Stalls_Percent_2_Bucket_6: 23257
Critical_ROB_Stalls_Percent_3_Bucket_0: 702445
Non-critical_ROB_Stalls_Percent_3_Bucket_0: 464937
Critical_ROB_Stalls_Percent_3_Bucket_1: 1086993
Non-critical_ROB_Stalls_Percent_3_Bucket_1: 390840
Critical_ROB_Stalls_Percent_3_Bucket_2: 211160
Non-critical_ROB_Stalls_Percent_3_Bucket_2: 146048
Critical_ROB_Stalls_Percent_3_Bucket_3: 31133
Non-critical_ROB_Stalls_Percent_3_Bucket_3: 26719
Critical_ROB_Stalls_Percent_3_Bucket_4: 24009
Non-critical_ROB_Stalls_Percent_3_Bucket_4: 14620
Critical_ROB_Stalls_Percent_3_Bucket_5: 16744
Non-critical_ROB_Stalls_Percent_3_Bucket_5: 12699
Critical_ROB_Stalls_Percent_3_Bucket_6: 21835
Non-critical_ROB_Stalls_Percent_3_Bucket_6: 23063
Critical_ROB_Stalls_Percent_4_Bucket_0: 851395
Non-critical_ROB_Stalls_Percent_4_Bucket_0: 315987
Critical_ROB_Stalls_Percent_4_Bucket_1: 1147719
Non-critical_ROB_Stalls_Percent_4_Bucket_1: 330114
Critical_ROB_Stalls_Percent_4_Bucket_2: 216071
Non-critical_ROB_Stalls_Percent_4_Bucket_2: 141137
Critical_ROB_Stalls_Percent_4_Bucket_3: 33413
Non-critical_ROB_Stalls_Percent_4_Bucket_3: 24439
Critical_ROB_Stalls_Percent_4_Bucket_4: 25541
Non-critical_ROB_Stalls_Percent_4_Bucket_4: 13088
Critical_ROB_Stalls_Percent_4_Bucket_5: 18365
Non-critical_ROB_Stalls_Percent_4_Bucket_5: 11078
Critical_ROB_Stalls_Percent_4_Bucket_6: 23448
Non-critical_ROB_Stalls_Percent_4_Bucket_6: 21450
Critical_ROB_Stalls_Percent_5_Bucket_0: 903615
Non-critical_ROB_Stalls_Percent_5_Bucket_0: 263767
Critical_ROB_Stalls_Percent_5_Bucket_1: 1182655
Non-critical_ROB_Stalls_Percent_5_Bucket_1: 295178
Critical_ROB_Stalls_Percent_5_Bucket_2: 218611
Non-critical_ROB_Stalls_Percent_5_Bucket_2: 138597
Critical_ROB_Stalls_Percent_5_Bucket_3: 34426
Non-critical_ROB_Stalls_Percent_5_Bucket_3: 23426
Critical_ROB_Stalls_Percent_5_Bucket_4: 26646
Non-critical_ROB_Stalls_Percent_5_Bucket_4: 11983
Critical_ROB_Stalls_Percent_5_Bucket_5: 18943
Non-critical_ROB_Stalls_Percent_5_Bucket_5: 10500
Critical_ROB_Stalls_Percent_5_Bucket_6: 24373
Non-critical_ROB_Stalls_Percent_5_Bucket_6: 20525
Critical_ROB_Stalls_Percent_6_Bucket_0: 930828
Non-critical_ROB_Stalls_Percent_6_Bucket_0: 236554
Critical_ROB_Stalls_Percent_6_Bucket_1: 1254107
Non-critical_ROB_Stalls_Percent_6_Bucket_1: 223726
Critical_ROB_Stalls_Percent_6_Bucket_2: 240143
Non-critical_ROB_Stalls_Percent_6_Bucket_2: 117065
Critical_ROB_Stalls_Percent_6_Bucket_3: 41029
Non-critical_ROB_Stalls_Percent_6_Bucket_3: 16823
Critical_ROB_Stalls_Percent_6_Bucket_4: 29341
Non-critical_ROB_Stalls_Percent_6_Bucket_4: 9288
Critical_ROB_Stalls_Percent_6_Bucket_5: 20449
Non-critical_ROB_Stalls_Percent_6_Bucket_5: 8994
Critical_ROB_Stalls_Percent_6_Bucket_6: 31520
Non-critical_ROB_Stalls_Percent_6_Bucket_6: 13378
Critical_ROB_Stalls_Percent_7_Bucket_0: 974788
Non-critical_ROB_Stalls_Percent_7_Bucket_0: 192594
Critical_ROB_Stalls_Percent_7_Bucket_1: 1297071
Non-critical_ROB_Stalls_Percent_7_Bucket_1: 180762
Critical_ROB_Stalls_Percent_7_Bucket_2: 301924
Non-critical_ROB_Stalls_Percent_7_Bucket_2: 55284
Critical_ROB_Stalls_Percent_7_Bucket_3: 48619
Non-critical_ROB_Stalls_Percent_7_Bucket_3: 9233
Critical_ROB_Stalls_Percent_7_Bucket_4: 31943
Non-critical_ROB_Stalls_Percent_7_Bucket_4: 6686
Critical_ROB_Stalls_Percent_7_Bucket_5: 24142
Non-critical_ROB_Stalls_Percent_7_Bucket_5: 5301
Critical_ROB_Stalls_Percent_7_Bucket_6: 37613
Non-critical_ROB_Stalls_Percent_7_Bucket_6: 7285
Critical_ROB_Stalls_Percent_8_Bucket_0: 1050554
Non-critical_ROB_Stalls_Percent_8_Bucket_0: 116828
Critical_ROB_Stalls_Percent_8_Bucket_1: 1337295
Non-critical_ROB_Stalls_Percent_8_Bucket_1: 140538
Critical_ROB_Stalls_Percent_8_Bucket_2: 326828
Non-critical_ROB_Stalls_Percent_8_Bucket_2: 30380
Critical_ROB_Stalls_Percent_8_Bucket_3: 52389
Non-critical_ROB_Stalls_Percent_8_Bucket_3: 5463
Critical_ROB_Stalls_Percent_8_Bucket_4: 33793
Non-critical_ROB_Stalls_Percent_8_Bucket_4: 4836
Critical_ROB_Stalls_Percent_8_Bucket_5: 26242
Non-critical_ROB_Stalls_Percent_8_Bucket_5: 3201
Critical_ROB_Stalls_Percent_8_Bucket_6: 41802
Non-critical_ROB_Stalls_Percent_8_Bucket_6: 3096
Average ROB occupancy Load Stall Begin: 58.4508
Average ROB occupancy Load Stall End: 72.7061
Min ROB occupancy Load Stall Begin: 2
Max ROB occupancy Load Stall Begin: 352
Min ROB occupancy Load Stall End: 2
Max ROB occupancy Load Stall End: 352
Average ROB occupancy Critical Load Stall Begin: -nan
Average ROB occupancy Critical Load Stall End: -nan
Min ROB occupancy Critical Load Stall Begin: 400
Max ROB occupancy Critical Load Stall Begin: 0
Min ROB occupancy Critical Load Stall End: 400
Max ROB occupancy Critical Load Stall End: 0
 ROB Load Stall Begin Bucket Count 0: 1842474
 ROB Load Stall End Bucket Count 0: 1167382
 ROB Critical Load Stall Begin Bucket Count 0: 0
 ROB Critical Load Stall End Bucket Count 0: 0
 ROB Load Stall Begin Bucket Count 1: 1014028
 ROB Load Stall End Bucket Count 1: 1477833
 ROB Critical Load Stall Begin Bucket Count 1: 0
 ROB Critical Load Stall End Bucket Count 1: 0
 ROB Load Stall Begin Bucket Count 2: 185123
 ROB Load Stall End Bucket Count 2: 357208
 ROB Critical Load Stall Begin Bucket Count 2: 0
 ROB Critical Load Stall End Bucket Count 2: 0
 ROB Load Stall Begin Bucket Count 3: 44353
 ROB Load Stall End Bucket Count 3: 57852
 ROB Critical Load Stall Begin Bucket Count 3: 0
 ROB Critical Load Stall End Bucket Count 3: 0
 ROB Load Stall Begin Bucket Count 4: 34555
 ROB Load Stall End Bucket Count 4: 38629
 ROB Critical Load Stall Begin Bucket Count 4: 0
 ROB Critical Load Stall End Bucket Count 4: 0
 ROB Load Stall Begin Bucket Count 5: 25070
 ROB Load Stall End Bucket Count 5: 29443
 ROB Critical Load Stall Begin Bucket Count 5: 0
 ROB Critical Load Stall End Bucket Count 5: 0
 ROB Load Stall Begin Bucket Count 6: 27642
 ROB Load Stall End Bucket Count 6: 44898
 ROB Critical Load Stall Begin Bucket Count 6: 0
 ROB Critical Load Stall End Bucket Count 6: 0
PIST Tag Read Accesses: 275976
PIST Read Accesses: 137988
PIST Tag Write Accesses: 275976
PIST Write Accesses: 137988
Criticality detector called times: 423739
Max global_stall_cycles_count: 1113435
Threshold Modified: 1 times, factor: -1
Sturdy critical IP cache stats: 
 Unused entries: 0
CIC Tag Read Accesses: 0
CIC Read Accesses: 0
CIC Tag Write Accesses: 0
CIC Write Accesses: 0
Wobbly critical IP cache stats: 
 Unused entries: 104
CIC Tag Read Accesses: 216525722
CIC Read Accesses: 0
CIC Tag Write Accesses: 7588001
CIC Write Accesses: 0
ITLB TOTAL     ACCESS:   12045121  HIT:   12045121  MISS:          0  HIT %:        100  MISS %:          0   MPKI: 0
ITLB LOAD TRANSLATION ACCESS:   12045121  HIT:   12045121  MISS:          0  HIT %:        100  MISS %:          0   MPKI: 0
ITLB PREFETCH  REQUESTED:          0  ISSUED:          0  USEFUL:          0  USELESS:          0
ITLB USEFUL LOAD PREFETCHES:          0 PREFETCH ISSUED TO LOWER LEVEL:          0  ACCURACY: -nan
ITLB TIMELY PREFETCHES:          0 LATE PREFETCHES: 0 DROPPED PREFETCHES: 0
ITLB PREFETCHES SAME FILL-ORIGIN LEVEL: 0 DIFFERENT FILL-ORIGIN LEVEL: 0
ITLB AVERAGE MISS LATENCY: -nan cycles
ITLB RQ	ACCESS:   13926218	FORWARD:          0	MERGED:    1881097	TO_CACHE:   12045121

DTLB TOTAL     ACCESS:   24512526  HIT:   24300586  MISS:     211940  HIT %:    99.1354  MISS %:   0.864619   MPKI: 2.1194
DTLB LOAD TRANSLATION ACCESS:   24512526  HIT:   24300586  MISS:     211940  HIT %:    99.1354  MISS %:   0.864619   MPKI: 2.1194
DTLB PREFETCH  REQUESTED:          0  ISSUED:          0  USEFUL:          0  USELESS:          0
DTLB USEFUL LOAD PREFETCHES:          0 PREFETCH ISSUED TO LOWER LEVEL:          0  ACCURACY: -nan
DTLB TIMELY PREFETCHES:          0 LATE PREFETCHES: 0 DROPPED PREFETCHES: 0
DTLB PREFETCHES SAME FILL-ORIGIN LEVEL: 0 DIFFERENT FILL-ORIGIN LEVEL: 0
DTLB AVERAGE MISS LATENCY: 44.145 cycles
DTLB RQ	ACCESS:   36910868	FORWARD:          0	MERGED:   12387577	TO_CACHE:   24523291

STLB TOTAL     ACCESS:     211940  HIT:     190636  MISS:      21304  HIT %:    89.9481  MISS %:    10.0519   MPKI: 0.21304
STLB LOAD TRANSLATION ACCESS:     211940  HIT:     190636  MISS:      21304  HIT %:    89.9481  MISS %:    10.0519   MPKI: 0.21304
STLB PREFETCH  REQUESTED:          0  ISSUED:          0  USEFUL:          0  USELESS:          0
STLB USEFUL LOAD PREFETCHES:          0 PREFETCH ISSUED TO LOWER LEVEL:          0  ACCURACY: -nan
STLB TIMELY PREFETCHES:          0 LATE PREFETCHES: 0 DROPPED PREFETCHES: 0
STLB PREFETCHES SAME FILL-ORIGIN LEVEL: 0 DIFFERENT FILL-ORIGIN LEVEL: 0
STLB AVERAGE MISS LATENCY: 343.514 cycles
STLB RQ	ACCESS:     211940	FORWARD:          0	MERGED:          0	TO_CACHE:     211940

STLB Hit, L1D data hit: 0
STLB Hit, L2C data hit: 0
STLB Hit, LLC data hit: 0
STLB Hit, LLC data miss: 0
STLB STLB hints to L2: 0
L1D TOTAL     ACCESS:   34864003  HIT:   33187409  MISS:    1676594  HIT %:     95.191  MISS %:    4.80895   MPKI: 16.7659
L1D LOAD      ACCESS:   18588129  HIT:   17530931  MISS:    1057198  HIT %:    94.3125  MISS %:    5.68749   MPKI: 10.572
L1D RFO       ACCESS:   16275874  HIT:   15656478  MISS:     619396  HIT %:    96.1944  MISS %:    3.80561   MPKI: 6.19396
L1D PREFETCH  REQUESTED:          0  ISSUED:          0  USEFUL:          0  USELESS:          0
L1D USEFUL LOAD PREFETCHES:          0 PREFETCH ISSUED TO LOWER LEVEL:          0  ACCURACY: -nan
L1D TIMELY PREFETCHES:          0 LATE PREFETCHES: 0 DROPPED PREFETCHES: 0
L1D PREFETCHES SAME FILL-ORIGIN LEVEL: 0 DIFFERENT FILL-ORIGIN LEVEL: 0
L1D AVERAGE MISS LATENCY: 173.642 cycles
L1D RQ	ACCESS:   28113654	FORWARD:          0	MERGED:    9291282	TO_CACHE:   18602131
L1D WQ	ACCESS:   18324522	FORWARD:     220241	MERGED:      15785	TO_CACHE:   18308737

L1D UNIQUE REGIONS ACCESSED: 0
L1D REGIONS CONFLICTS: 0
L1D Cross Page Prefetch Requests: 0
L1D Same Page Prefetch Requests: 0
L1D ROI Sum of L1D PQ occupancy: 0
L1D PREFETCHES PUSHED FROM L2C: 0
L1I TOTAL     ACCESS:   13926217  HIT:   13926217  MISS:          0  HIT %:        100  MISS %:          0   MPKI: 0
L1I LOAD      ACCESS:   13926217  HIT:   13926217  MISS:          0  HIT %:        100  MISS %:          0   MPKI: 0
L1I PREFETCH  REQUESTED:          0  ISSUED:          0  USEFUL:          0  USELESS:          0
L1I USEFUL LOAD PREFETCHES:          0 PREFETCH ISSUED TO LOWER LEVEL:          0  ACCURACY: -nan
L1I TIMELY PREFETCHES:          0 LATE PREFETCHES: 0 DROPPED PREFETCHES: 0
L1I PREFETCHES SAME FILL-ORIGIN LEVEL: 0 DIFFERENT FILL-ORIGIN LEVEL: 0
L1I AVERAGE MISS LATENCY: -nan cycles
L1I RQ	ACCESS:   20353232	FORWARD:          0	MERGED:    6427014	TO_CACHE:   13926218

BTB TOTAL     ACCESS:     843996  HIT:     843991  MISS:          5  HIT %:    99.9994  MISS %: 0.00059242   MPKI: 5e-05
BTB BRANCH_DIRECT_JUMP	ACCESS:          0  HIT:          0  MISS:          0
BTB BRANCH_INDIRECT	ACCESS:          0  HIT:          0  MISS:          0
BTB BRANCH_CONDITIONAL	ACCESS:     843996  HIT:     843991  MISS:          5
BTB BRANCH_DIRECT_CALL	ACCESS:          0  HIT:          0  MISS:          0
BTB BRANCH_INDIRECT_CALL	ACCESS:          0  HIT:          0  MISS:          0
BTB BRANCH_RETURN	ACCESS:          0  HIT:          0  MISS:          0
BTB BRANCH_OTHER ACCESS:          0  HIT:          0  MISS:          0

L2C TOTAL     ACCESS:    3457459  HIT:    1960461  MISS:    1496998  HIT %:    56.7024  MISS %:    43.2976   MPKI: 14.97
L2C LOAD      ACCESS:    1057041  HIT:     762761  MISS:     294280  HIT %:      72.16  MISS %:      27.84   MPKI: 2.9428
L2C DATA LOAD MPKI: 2.9428
L2C INSTRUCTION LOAD MPKI: 0
L2C RFO       ACCESS:     607428  HIT:      12043  MISS:     595385  HIT %:    1.98262  MISS %:    98.0174   MPKI: 5.95385
L2C PREFETCH  ACCESS:    1144142  HIT:     547810  MISS:     596332  HIT %:    47.8795  MISS %:    52.1205   MPKI: 5.96332
L2C DATA PREFETCH MPKI: 5.96332
L2C INSTRUCTION PREFETCH MPKI: 0
L2C WRITEBACK ACCESS:     627527  HIT:     619636  MISS:       7891  HIT %:    98.7425  MISS %:    1.25748   MPKI: 0.07891
L2C LOAD TRANSLATION ACCESS:      21321  HIT:      18211  MISS:       3110  HIT %:    85.4134  MISS %:    14.5866   MPKI: 0.0311
L2C PREFETCH  REQUESTED:    6429594  ISSUED:    5852433  USEFUL:     595297  USELESS:       1033
L2C USEFUL LOAD PREFETCHES:     595297 PREFETCH ISSUED TO LOWER LEVEL:    5303673  ACCURACY: 11.2242
L2C TIMELY PREFETCHES:     595297 LATE PREFETCHES: 3 DROPPED PREFETCHES: 0
L2C PREFETCHES SAME FILL-ORIGIN LEVEL: 596335 DIFFERENT FILL-ORIGIN LEVEL: 4707338
L2C AVERAGE MISS LATENCY: 190.995 cycles
L2C RQ	ACCESS:    1697915	FORWARD:          0	MERGED:          0	TO_CACHE:    1685790
L2C WQ	ACCESS:     627527	FORWARD:      12125	MERGED:          0	TO_CACHE:     627527
L2C PQ	ACCESS:    5852433	FORWARD:          0	MERGED:        771	TO_CACHE:    5851662

L2C Instructions Evicting Data 0
L2C Translations Evicting Data 3107
L2C Data Evicting Data 1482920
L2C Instructions Evicting Instructions 0
L2C Translations Evicting Instructions 0
L2C Data Evicting Instructions 0
L2C Instructions Evicting Translations 0
L2C Translations Evicting Translations 3
L2C Data Evicting Translations 3077
L2C Dense regions hint from L2: 0
PSCL5 TOTAL     ACCESS:      21304  HIT:      21304  MISS:          0  HIT %:        100  MISS %:          0   MPKI: 0
PSCL5 LOAD TRANSLATION ACCESS:      21304  HIT:      21304  MISS:          0  HIT %:        100  MISS %:          0   MPKI: 0
PSCL5 PREFETCH  REQUESTED:          0  ISSUED:          0  USEFUL:          0  USELESS:          0
PSCL5 USEFUL LOAD PREFETCHES:          0 PREFETCH ISSUED TO LOWER LEVEL:          0  ACCURACY: -nan
PSCL5 TIMELY PREFETCHES:          0 LATE PREFETCHES: 0 DROPPED PREFETCHES: 0
PSCL5 PREFETCHES SAME FILL-ORIGIN LEVEL: 0 DIFFERENT FILL-ORIGIN LEVEL: 0

PSCL4 TOTAL     ACCESS:      21304  HIT:      21304  MISS:          0  HIT %:        100  MISS %:          0   MPKI: 0
PSCL4 LOAD TRANSLATION ACCESS:      21304  HIT:      21304  MISS:          0  HIT %:        100  MISS %:          0   MPKI: 0
PSCL4 PREFETCH  REQUESTED:          0  ISSUED:          0  USEFUL:          0  USELESS:          0
PSCL4 USEFUL LOAD PREFETCHES:          0 PREFETCH ISSUED TO LOWER LEVEL:          0  ACCURACY: -nan
PSCL4 TIMELY PREFETCHES:          0 LATE PREFETCHES: 0 DROPPED PREFETCHES: 0
PSCL4 PREFETCHES SAME FILL-ORIGIN LEVEL: 0 DIFFERENT FILL-ORIGIN LEVEL: 0

PSCL3 TOTAL     ACCESS:      17066  HIT:      17054  MISS:         12  HIT %:    99.9297  MISS %:  0.0703152   MPKI: 0.00012
PSCL3 LOAD TRANSLATION ACCESS:      17066  HIT:      17054  MISS:         12  HIT %:    99.9297  MISS %:  0.0703152   MPKI: 0.00012
PSCL3 PREFETCH  REQUESTED:          0  ISSUED:          0  USEFUL:          0  USELESS:          0
PSCL3 USEFUL LOAD PREFETCHES:          0 PREFETCH ISSUED TO LOWER LEVEL:          0  ACCURACY: -nan
PSCL3 TIMELY PREFETCHES:          0 LATE PREFETCHES: 0 DROPPED PREFETCHES: 0
PSCL3 PREFETCHES SAME FILL-ORIGIN LEVEL: 0 DIFFERENT FILL-ORIGIN LEVEL: 0

PSCL2 TOTAL     ACCESS:      21304  HIT:      21262  MISS:         42  HIT %:    99.8029  MISS %:   0.197146   MPKI: 0.00042
PSCL2 LOAD TRANSLATION ACCESS:      21304  HIT:      21262  MISS:         42  HIT %:    99.8029  MISS %:   0.197146   MPKI: 0.00042
PSCL2 PREFETCH  REQUESTED:          0  ISSUED:          0  USEFUL:          0  USELESS:          0
PSCL2 USEFUL LOAD PREFETCHES:          0 PREFETCH ISSUED TO LOWER LEVEL:          0  ACCURACY: -nan
PSCL2 TIMELY PREFETCHES:          0 LATE PREFETCHES: 0 DROPPED PREFETCHES: 0
PSCL2 PREFETCHES SAME FILL-ORIGIN LEVEL: 0 DIFFERENT FILL-ORIGIN LEVEL: 0

LLC TOTAL     ACCESS:    6787438  HIT:    5374754  MISS:    1412684  HIT %:    79.1868  MISS %:    20.8132   MPKI: 14.1268
LLC LOAD      ACCESS:     294277  HIT:     273125  MISS:      21152  HIT %:    92.8122  MISS %:    7.18779   MPKI: 0.21152
LLC RFO       ACCESS:     595385  HIT:          0  MISS:     595385  HIT %:          0  MISS %:        100   MPKI: 5.95385
LLC PREFETCH  ACCESS:    5299177  HIT:    4552080  MISS:     747097  HIT %:    85.9016  MISS %:    14.0984   MPKI: 7.47097
LLC WRITEBACK ACCESS:     595489  HIT:     549160  MISS:      46329  HIT %:      92.22  MISS %:    7.77999   MPKI: 0.46329
LLC LOAD TRANSLATION ACCESS:       3110  HIT:        389  MISS:       2721  HIT %:     12.508  MISS %:     87.492   MPKI: 0.02721
LLC PREFETCH  REQUESTED:          0  ISSUED:          0  USEFUL:     252769  USELESS:     494276
LLC USEFUL LOAD PREFETCHES:     252769 PREFETCH ISSUED TO LOWER LEVEL:     747106  ACCURACY: 33.8331
LLC TIMELY PREFETCHES:     252769 LATE PREFETCHES: 9 DROPPED PREFETCHES: 0
LLC PREFETCHES SAME FILL-ORIGIN LEVEL: 733700 DIFFERENT FILL-ORIGIN LEVEL: 0
LLC AVERAGE MISS LATENCY: 280.226 cycles
LLC RQ	ACCESS:     892772	FORWARD:          0	MERGED:          0	TO_CACHE:     892772
LLC WQ	ACCESS:     595489	FORWARD:          0	MERGED:          0	TO_CACHE:     595489
LLC PQ	ACCESS:    5303673	FORWARD:          0	MERGED:          3	TO_CACHE:    5303670

LLC Dense regions hint to LLC: 0

RAW hits: 1209304
Loads Generated: 29322959
Loads sent to L1D: 28113654
Stores Generated: 18324517
Stores sent to L1D: 18324522
Major fault: 0 Minor fault: 30129
Allocated PAGES: 30129
 All Calls: 1644035
 Critical Calls: 1644035
------------------
Depth Distribution
------------------
depth 0: 0
depth 1: 1412919
depth 2: 1401713
depth 3: 1300111
depth 4: 1201380
depth 5: 1123294
depth 6: 1052846
depth 7: 779436
depth 8: 458384
depth 9: 57145
depth 10: 606
depth 11: 3
depth 12: 0
depth 13: 0
depth 14: 0
depth 15: 0
depth 16: 0
depth 17: 0
depth 18: 0
depth 19: 0
depth 20: 0
depth 21: 0
depth 22: 0
depth 23: 0
depth 24: 0
depth 25: 0
depth 26: 0
depth 27: 0
depth 28: 0
depth 29: 0
Total: 8787837
-----------------------------
-----------------------------
	Captured at Filter
-----------------------------
depth 0: 0
depth 1: 121153
depth 2: 76724
depth 3: 75191
depth 4: 75625
depth 5: 72869
depth 6: 69583
depth 7: 54698
depth 8: 24281
depth 9: 3219
depth 10: 109
depth 11: 0
depth 12: 0
depth 13: 0
depth 14: 0
depth 15: 0
depth 16: 0
depth 17: 0
depth 18: 0
depth 19: 0
depth 20: 0
depth 21: 0
depth 22: 0
depth 23: 0
depth 24: 0
depth 25: 0
depth 26: 0
depth 27: 0
depth 28: 0
depth 29: 0
-----------------------------
-----------------------------
		Lost at Page
-----------------------------
depth 0: 0
depth 1: 28896
depth 2: 48880
depth 3: 72995
depth 4: 91594
depth 5: 115303
depth 6: 132030
depth 7: 119857
depth 8: 86202
depth 9: 19063
depth 10: 255
depth 11: 1
depth 12: 0
depth 13: 0
depth 14: 0
depth 15: 0
depth 16: 0
depth 17: 0
depth 18: 0
depth 19: 0
depth 20: 0
depth 21: 0
depth 22: 0
depth 23: 0
depth 24: 0
depth 25: 0
depth 26: 0
depth 27: 0
depth 28: 0
depth 29: 0
-----------------------------
-----------------------------
	Lost due to PQ Size
-----------------------------
1207201
-----------------------------
ST read accesses: 1045148
ST write accesses: 11893
PT read accesses: 41634785
PT write accesses: 1532342
FILTER read accesses: 9371742
FILTER write accesses: 2797570
GHR read accesses: 2712479
GHR write accesses: 453508
GHR counter read accesses: 35408314
GHR counter write accesses: 2393192
ST tag read accesses: 412882637
ST tag write accesses: 14008220

DRAM Statistics
 CHANNEL 0
 RQ ROW_BUFFER_HIT:     704239  ROW_BUFFER_MISS:     662116
 DBUS_CONGESTED:        474
 WQ ROW_BUFFER_HIT:     137820  ROW_BUFFER_MISS:     458425  FULL:          0

 AVG_CONGESTED_CYCLE: 4
 All warmup complete: 2
Channel 0 Bank busy for read cycles: 0
Channel 0 Bank busy for write cycles: 0
Channel 0
Rank 0
0banks busy for read cycles: 549797
0banks busy for write cycles: 3671
1banks busy for read cycles: 28543583
1banks busy for write cycles: 566162
2banks busy for read cycles: 18291642
2banks busy for write cycles: 902428
3banks busy for read cycles: 9162949
3banks busy for write cycles: 1292127
4banks busy for read cycles: 4138293
4banks busy for write cycles: 1692613
5banks busy for read cycles: 1893405
5banks busy for write cycles: 2080371
6banks busy for read cycles: 939406
6banks busy for write cycles: 2487535
7banks busy for read cycles: 653120
7banks busy for write cycles: 3383999
8banks busy for read cycles: 779796
8banks busy for write cycles: 6283762

CPU 0 Branch Prediction Accuracy: 99.9697% MPKI: 0.00256 Average ROB Occupancy at Mispredict: 75.3633
Branch types
NOT_BRANCH: 99155698 99.1557%
BRANCH_DIRECT_JUMP: 0 0%
BRANCH_INDIRECT: 0 0%
BRANCH_CONDITIONAL: 844001 0.844001%
BRANCH_DIRECT_CALL: 0 0%
BRANCH_INDIRECT_CALL: 0 0%
BRANCH_RETURN: 0 0%
BRANCH_OTHER: 0 0%

DRAM PAGES: 1048576
Allocated PAGES: 30129
