
*** ChampSim Multicore Out-of-Order Simulator ***

Warmup Instructions: 50000000
Simulation Instructions: 100000000
Number of CPUs: 1
LLC sets: 2048
LLC ways: 16
Off-chip DRAM Size: 4096 MB Channels: 1 Width: 64-bit Data Rate: 6400 MT/s
CPU 0 runs ../SPEC2017//603.bwaves_s-1740B.champsimtrace.xz
.xz
NUM_OF_IPS_IN_CRITICAL_IP_TRAINING: 64
NUM_OF_CRITICAL_IP_TRAINING_TABLE_WAYS: 2
NUM_OF_CRITICAL_IP_TRAINING_TABLE_SETS: 32
WOBBLY_CRITICAL_IP_CACHE_SETS: 32
WOBBLY_CRITICAL_IP_CACHE_WAYS: 4
BTB has LRU replacement policy
ITLB has LRU replacement policy
DTLB has LRU replacement policy
STLB has LRU replacement policy
L1I has LRU replacement policy
IP Table Entries: 256
L1D has LRU replacement policy
Initialize SRRIP state for L2C
Initialize DRRIP state for LLC
Heartbeat CPU 0 instructions: 10000000 cycles: 3310421 heartbeat IPC: 3.02076 cumulative IPC: 3.02076 (Simulation time: 0 hr 7 min 24 sec) 
Heartbeat CPU 0 instructions: 20000002 cycles: 6619437 heartbeat IPC: 3.02205 cumulative IPC: 3.02141 (Simulation time: 0 hr 14 min 8 sec) 
Heartbeat CPU 0 instructions: 30000003 cycles: 9929289 heartbeat IPC: 3.02128 cumulative IPC: 3.02136 (Simulation time: 0 hr 19 min 47 sec) 
Heartbeat CPU 0 instructions: 40000001 cycles: 13239534 heartbeat IPC: 3.02092 cumulative IPC: 3.02125 (Simulation time: 0 hr 25 min 8 sec) 
Heartbeat CPU 0 instructions: 50000003 cycles: 16549714 heartbeat IPC: 3.02098 cumulative IPC: 3.0212 (Simulation time: 0 hr 30 min 12 sec) 

Warmup complete CPU 0 instructions: 50000003 cycles: 16549714 (Simulation time: 0 hr 30 min 12 sec) 

% increase in all ip prefetch 183.09
% increase in all ip prefetch -0.0763647
Heartbeat CPU 0 instructions: 60000000 cycles: 26142256 heartbeat IPC: 1.04248 cumulative IPC: 1.04248 (Simulation time: 0 hr 33 min 39 sec) 
Heartbeat CPU 0 instructions: 70000000 cycles: 35728702 heartbeat IPC: 1.04314 cumulative IPC: 1.04281 (Simulation time: 0 hr 36 min 52 sec) 
Heartbeat CPU 0 instructions: 80000003 cycles: 45313482 heartbeat IPC: 1.04332 cumulative IPC: 1.04298 (Simulation time: 0 hr 39 min 57 sec) 
Heartbeat CPU 0 instructions: 90000001 cycles: 54894009 heartbeat IPC: 1.04378 cumulative IPC: 1.04318 (Simulation time: 0 hr 42 min 56 sec) 
Heartbeat CPU 0 instructions: 100000002 cycles: 64479522 heartbeat IPC: 1.04324 cumulative IPC: 1.04319 (Simulation time: 0 hr 45 min 48 sec) 
Heartbeat CPU 0 instructions: 110000000 cycles: 74065250 heartbeat IPC: 1.04322 cumulative IPC: 1.0432 (Simulation time: 0 hr 48 min 32 sec) 
Heartbeat CPU 0 instructions: 120000002 cycles: 83649090 heartbeat IPC: 1.04342 cumulative IPC: 1.04323 (Simulation time: 0 hr 51 min 14 sec) 
Heartbeat CPU 0 instructions: 130000000 cycles: 93234917 heartbeat IPC: 1.04321 cumulative IPC: 1.04323 (Simulation time: 0 hr 55 min 20 sec) 
Heartbeat CPU 0 instructions: 140000003 cycles: 102818278 heartbeat IPC: 1.04348 cumulative IPC: 1.04325 (Simulation time: 1 hr 0 min 55 sec) 
Heartbeat CPU 0 instructions: 150000002 cycles: 112400877 heartbeat IPC: 1.04356 cumulative IPC: 1.04328 (Simulation time: 1 hr 6 min 13 sec) 
Finished CPU 0 instructions: 100000001 cycles: 95851164 cumulative IPC: 1.04328 (Simulation time: 1 hr 6 min 13 sec) 

ChampSim completed all CPUs

Region of Interest Statistics

CPU 0 cumulative IPC: 1.04328 instructions: 100000001 cycles: 95851164

CPU 0 Average Load ROB stall cycles: 3.2456e+07
CPU 0 Fraction of times ROB stalled by Loads: 50.3245
CPU 0 Percentage of Load stall cycles in Total stall cycles: 7.25816e+08
Issued all: 49804233
Issued LT all: 36404533
rob_not_full_when_issued_lt_all: 35367233
Issued LT one: 31368420
rob_not_full_when_issued_lt_one: 30375804
 Total stall cycles: 72836028
 Total load stall cycles: 528655659148582
CPU 0 NUM of IPS identified critical: 0
CPU 0 Num of Load IPs stalling ROB: 86
Threshold modification factor: -1
Max PIST entries: 41
Min PIST entries: 0
Avg PIST entries: 20.86
Trouble in retire width: 0.899787
MaC = Marked as critical.
lt_50_percent_before_Mac: 0
gt_90_percent_before_Mac: 0
gt_75_percent_before_Mac: 0
gt_50_percent_before_Mac: 0
stall_proportion_bin_same_before_after: 0
stall_proportion_bin_lower_before_after: 0
stall_proportion_bin_upper_before_after: 0
average_stall_proportion_before: -nan
average_stall_proportion_after: -nan
Critical IP stalls, total frequency: 0
Non-critical IP stalls, total frequency: 8197053
Total Freq all stalling IPs: 8197053
stat_90_percent_critical_ip_stalls_freq: 7393331
stat_90_percent_non_critical_ip_stalls_freq: 803722
Critical_IP_ROB_Stalls_Bucket_0: 0
Non-critical_IP_ROB_Stalls_Bucket_0: 7228770
Critical_IP_ROB_Stalls_Bucket_1: 0
Non-critical_IP_ROB_Stalls_Bucket_1: 877881
Critical_IP_ROB_Stalls_Bucket_2: 0
Non-critical_IP_ROB_Stalls_Bucket_2: 20663
Critical_IP_ROB_Stalls_Bucket_3: 0
Non-critical_IP_ROB_Stalls_Bucket_3: 17972
Critical_IP_ROB_Stalls_Bucket_4: 0
Non-critical_IP_ROB_Stalls_Bucket_4: 12053
Critical_IP_ROB_Stalls_Bucket_5: 0
Non-critical_IP_ROB_Stalls_Bucket_5: 14338
Critical_IP_ROB_Stalls_Bucket_6: 0
Non-critical_IP_ROB_Stalls_Bucket_6: 25376
0 => IPs accounting for >50 percent of stalls, 1 => 55, 2 => 60, 3 => 65 and so on till 90.
percent50: 57.5446 num IPs:  3
percent55: 57.5446 num IPs: 3
percent60: 71.2602 num IPs: 4
percent65: 71.2602 num IPs: 4
percent70: 71.2602 num IPs: 4
percent75: 78.5754 num IPs: 5
percent80: 81.3887 num IPs: 6
percent85: 86.1095 num IPs: 8
percent90: 90.195 num IPs: 11
Critical_ROB_Stalls_Percent_0_Bucket_0: 4476199
Non-critical_ROB_Stalls_Percent_0_Bucket_0: 2752571
Critical_ROB_Stalls_Percent_0_Bucket_1: 212406
Non-critical_ROB_Stalls_Percent_0_Bucket_1: 665475
Critical_ROB_Stalls_Percent_0_Bucket_2: 7334
Non-critical_ROB_Stalls_Percent_0_Bucket_2: 13329
Critical_ROB_Stalls_Percent_0_Bucket_3: 6684
Non-critical_ROB_Stalls_Percent_0_Bucket_3: 11288
Critical_ROB_Stalls_Percent_0_Bucket_4: 4039
Non-critical_ROB_Stalls_Percent_0_Bucket_4: 8014
Critical_ROB_Stalls_Percent_0_Bucket_5: 4725
Non-critical_ROB_Stalls_Percent_0_Bucket_5: 9613
Critical_ROB_Stalls_Percent_0_Bucket_6: 5578
Non-critical_ROB_Stalls_Percent_0_Bucket_6: 19798
Critical_ROB_Stalls_Percent_1_Bucket_0: 4476199
Non-critical_ROB_Stalls_Percent_1_Bucket_0: 2752571
Critical_ROB_Stalls_Percent_1_Bucket_1: 212406
Non-critical_ROB_Stalls_Percent_1_Bucket_1: 665475
Critical_ROB_Stalls_Percent_1_Bucket_2: 7334
Non-critical_ROB_Stalls_Percent_1_Bucket_2: 13329
Critical_ROB_Stalls_Percent_1_Bucket_3: 6684
Non-critical_ROB_Stalls_Percent_1_Bucket_3: 11288
Critical_ROB_Stalls_Percent_1_Bucket_4: 4039
Non-critical_ROB_Stalls_Percent_1_Bucket_4: 8014
Critical_ROB_Stalls_Percent_1_Bucket_5: 4725
Non-critical_ROB_Stalls_Percent_1_Bucket_5: 9613
Critical_ROB_Stalls_Percent_1_Bucket_6: 5578
Non-critical_ROB_Stalls_Percent_1_Bucket_6: 19798
Critical_ROB_Stalls_Percent_2_Bucket_0: 5278130
Non-critical_ROB_Stalls_Percent_2_Bucket_0: 1950640
Critical_ROB_Stalls_Percent_2_Bucket_1: 528848
Non-critical_ROB_Stalls_Percent_2_Bucket_1: 349033
Critical_ROB_Stalls_Percent_2_Bucket_2: 10205
Non-critical_ROB_Stalls_Percent_2_Bucket_2: 10458
Critical_ROB_Stalls_Percent_2_Bucket_3: 7638
Non-critical_ROB_Stalls_Percent_2_Bucket_3: 10334
Critical_ROB_Stalls_Percent_2_Bucket_4: 4537
Non-critical_ROB_Stalls_Percent_2_Bucket_4: 7516
Critical_ROB_Stalls_Percent_2_Bucket_5: 5090
Non-critical_ROB_Stalls_Percent_2_Bucket_5: 9248
Critical_ROB_Stalls_Percent_2_Bucket_6: 6786
Non-critical_ROB_Stalls_Percent_2_Bucket_6: 18590
Critical_ROB_Stalls_Percent_3_Bucket_0: 5278130
Non-critical_ROB_Stalls_Percent_3_Bucket_0: 1950640
Critical_ROB_Stalls_Percent_3_Bucket_1: 528848
Non-critical_ROB_Stalls_Percent_3_Bucket_1: 349033
Critical_ROB_Stalls_Percent_3_Bucket_2: 10205
Non-critical_ROB_Stalls_Percent_3_Bucket_2: 10458
Critical_ROB_Stalls_Percent_3_Bucket_3: 7638
Non-critical_ROB_Stalls_Percent_3_Bucket_3: 10334
Critical_ROB_Stalls_Percent_3_Bucket_4: 4537
Non-critical_ROB_Stalls_Percent_3_Bucket_4: 7516
Critical_ROB_Stalls_Percent_3_Bucket_5: 5090
Non-critical_ROB_Stalls_Percent_3_Bucket_5: 9248
Critical_ROB_Stalls_Percent_3_Bucket_6: 6786
Non-critical_ROB_Stalls_Percent_3_Bucket_6: 18590
Critical_ROB_Stalls_Percent_4_Bucket_0: 5278130
Non-critical_ROB_Stalls_Percent_4_Bucket_0: 1950640
Critical_ROB_Stalls_Percent_4_Bucket_1: 528848
Non-critical_ROB_Stalls_Percent_4_Bucket_1: 349033
Critical_ROB_Stalls_Percent_4_Bucket_2: 10205
Non-critical_ROB_Stalls_Percent_4_Bucket_2: 10458
Critical_ROB_Stalls_Percent_4_Bucket_3: 7638
Non-critical_ROB_Stalls_Percent_4_Bucket_3: 10334
Critical_ROB_Stalls_Percent_4_Bucket_4: 4537
Non-critical_ROB_Stalls_Percent_4_Bucket_4: 7516
Critical_ROB_Stalls_Percent_4_Bucket_5: 5090
Non-critical_ROB_Stalls_Percent_4_Bucket_5: 9248
Critical_ROB_Stalls_Percent_4_Bucket_6: 6786
Non-critical_ROB_Stalls_Percent_4_Bucket_6: 18590
Critical_ROB_Stalls_Percent_5_Bucket_0: 5844502
Non-critical_ROB_Stalls_Percent_5_Bucket_0: 1384268
Critical_ROB_Stalls_Percent_5_Bucket_1: 556146
Non-critical_ROB_Stalls_Percent_5_Bucket_1: 321735
Critical_ROB_Stalls_Percent_5_Bucket_2: 11771
Non-critical_ROB_Stalls_Percent_5_Bucket_2: 8892
Critical_ROB_Stalls_Percent_5_Bucket_3: 8732
Non-critical_ROB_Stalls_Percent_5_Bucket_3: 9240
Critical_ROB_Stalls_Percent_5_Bucket_4: 5590
Non-critical_ROB_Stalls_Percent_5_Bucket_4: 6463
Critical_ROB_Stalls_Percent_5_Bucket_5: 6043
Non-critical_ROB_Stalls_Percent_5_Bucket_5: 8295
Critical_ROB_Stalls_Percent_5_Bucket_6: 8080
Non-critical_ROB_Stalls_Percent_5_Bucket_6: 17296
Critical_ROB_Stalls_Percent_6_Bucket_0: 6075039
Non-critical_ROB_Stalls_Percent_6_Bucket_0: 1153731
Critical_ROB_Stalls_Percent_6_Bucket_1: 556153
Non-critical_ROB_Stalls_Percent_6_Bucket_1: 321728
Critical_ROB_Stalls_Percent_6_Bucket_2: 11782
Non-critical_ROB_Stalls_Percent_6_Bucket_2: 8881
Critical_ROB_Stalls_Percent_6_Bucket_3: 8752
Non-critical_ROB_Stalls_Percent_6_Bucket_3: 9220
Critical_ROB_Stalls_Percent_6_Bucket_4: 5602
Non-critical_ROB_Stalls_Percent_6_Bucket_4: 6451
Critical_ROB_Stalls_Percent_6_Bucket_5: 6051
Non-critical_ROB_Stalls_Percent_6_Bucket_5: 8287
Critical_ROB_Stalls_Percent_6_Bucket_6: 8097
Non-critical_ROB_Stalls_Percent_6_Bucket_6: 17279
Critical_ROB_Stalls_Percent_7_Bucket_0: 6461934
Non-critical_ROB_Stalls_Percent_7_Bucket_0: 766836
Critical_ROB_Stalls_Percent_7_Bucket_1: 556165
Non-critical_ROB_Stalls_Percent_7_Bucket_1: 321716
Critical_ROB_Stalls_Percent_7_Bucket_2: 11796
Non-critical_ROB_Stalls_Percent_7_Bucket_2: 8867
Critical_ROB_Stalls_Percent_7_Bucket_3: 8769
Non-critical_ROB_Stalls_Percent_7_Bucket_3: 9203
Critical_ROB_Stalls_Percent_7_Bucket_4: 5606
Non-critical_ROB_Stalls_Percent_7_Bucket_4: 6447
Critical_ROB_Stalls_Percent_7_Bucket_5: 6061
Non-critical_ROB_Stalls_Percent_7_Bucket_5: 8277
Critical_ROB_Stalls_Percent_7_Bucket_6: 8107
Non-critical_ROB_Stalls_Percent_7_Bucket_6: 17269
Critical_ROB_Stalls_Percent_8_Bucket_0: 6674917
Non-critical_ROB_Stalls_Percent_8_Bucket_0: 553853
Critical_ROB_Stalls_Percent_8_Bucket_1: 661893
Non-critical_ROB_Stalls_Percent_8_Bucket_1: 215988
Critical_ROB_Stalls_Percent_8_Bucket_2: 16138
Non-critical_ROB_Stalls_Percent_8_Bucket_2: 4525
Critical_ROB_Stalls_Percent_8_Bucket_3: 13319
Non-critical_ROB_Stalls_Percent_8_Bucket_3: 4653
Critical_ROB_Stalls_Percent_8_Bucket_4: 7640
Non-critical_ROB_Stalls_Percent_8_Bucket_4: 4413
Critical_ROB_Stalls_Percent_8_Bucket_5: 7962
Non-critical_ROB_Stalls_Percent_8_Bucket_5: 6376
Critical_ROB_Stalls_Percent_8_Bucket_6: 11462
Non-critical_ROB_Stalls_Percent_8_Bucket_6: 13914
Average ROB occupancy Load Stall Begin: 34.5979
Average ROB occupancy Load Stall End: 42.2821
Min ROB occupancy Load Stall Begin: 2
Max ROB occupancy Load Stall Begin: 352
Min ROB occupancy Load Stall End: 2
Max ROB occupancy Load Stall End: 352
Average ROB occupancy Critical Load Stall Begin: -nan
Average ROB occupancy Critical Load Stall End: -nan
Min ROB occupancy Critical Load Stall Begin: 400
Max ROB occupancy Critical Load Stall Begin: 0
Min ROB occupancy Critical Load Stall End: 400
Max ROB occupancy Critical Load Stall End: 0
 ROB Load Stall Begin Bucket Count 0: 7873522
 ROB Load Stall End Bucket Count 0: 7228770
 ROB Critical Load Stall Begin Bucket Count 0: 0
 ROB Critical Load Stall End Bucket Count 0: 0
 ROB Load Stall Begin Bucket Count 1: 242656
 ROB Load Stall End Bucket Count 1: 877881
 ROB Critical Load Stall Begin Bucket Count 1: 0
 ROB Critical Load Stall End Bucket Count 1: 0
 ROB Load Stall Begin Bucket Count 2: 20116
 ROB Load Stall End Bucket Count 2: 20663
 ROB Critical Load Stall Begin Bucket Count 2: 0
 ROB Critical Load Stall End Bucket Count 2: 0
 ROB Load Stall Begin Bucket Count 3: 16813
 ROB Load Stall End Bucket Count 3: 17972
 ROB Critical Load Stall Begin Bucket Count 3: 0
 ROB Critical Load Stall End Bucket Count 3: 0
 ROB Load Stall Begin Bucket Count 4: 12431
 ROB Load Stall End Bucket Count 4: 12053
 ROB Critical Load Stall Begin Bucket Count 4: 0
 ROB Critical Load Stall End Bucket Count 4: 0
 ROB Load Stall Begin Bucket Count 5: 13194
 ROB Load Stall End Bucket Count 5: 14338
 ROB Critical Load Stall Begin Bucket Count 5: 0
 ROB Critical Load Stall End Bucket Count 5: 0
 ROB Load Stall Begin Bucket Count 6: 18322
 ROB Load Stall End Bucket Count 6: 25376
 ROB Critical Load Stall Begin Bucket Count 6: 0
 ROB Critical Load Stall End Bucket Count 6: 0
PIST Tag Read Accesses: 133128
PIST Read Accesses: 66564
PIST Tag Write Accesses: 133128
PIST Write Accesses: 66564
Criticality detector called times: 1246585
Max global_stall_cycles_count: 322973
Threshold Modified: 1 times, factor: -1
Sturdy critical IP cache stats: 
 Unused entries: 0
CIC Tag Read Accesses: 0
CIC Read Accesses: 0
CIC Tag Write Accesses: 0
CIC Write Accesses: 0
Wobbly critical IP cache stats: 
 Unused entries: 112
CIC Tag Read Accesses: 261338125
CIC Read Accesses: 0
CIC Tag Write Accesses: 155027
CIC Write Accesses: 0
ITLB TOTAL     ACCESS:   12645535  HIT:   12645535  MISS:          0  HIT %:        100  MISS %:          0   MPKI: 0
ITLB LOAD TRANSLATION ACCESS:   12645535  HIT:   12645535  MISS:          0  HIT %:        100  MISS %:          0   MPKI: 0
ITLB PREFETCH  REQUESTED:          0  ISSUED:          0  USEFUL:          0  USELESS:          0
ITLB USEFUL LOAD PREFETCHES:          0 PREFETCH ISSUED TO LOWER LEVEL:          0  ACCURACY: -nan
ITLB TIMELY PREFETCHES:          0 LATE PREFETCHES: 0 DROPPED PREFETCHES: 0
ITLB PREFETCHES SAME FILL-ORIGIN LEVEL: 0 DIFFERENT FILL-ORIGIN LEVEL: 0
ITLB AVERAGE MISS LATENCY: -nan cycles
ITLB RQ	ACCESS:   17166487	FORWARD:          0	MERGED:    4520953	TO_CACHE:   12645534

DTLB TOTAL     ACCESS:   33694381  HIT:   33485760  MISS:     208621  HIT %:    99.3808  MISS %:   0.619157   MPKI: 2.08621
DTLB LOAD TRANSLATION ACCESS:   33694381  HIT:   33485760  MISS:     208621  HIT %:    99.3808  MISS %:   0.619157   MPKI: 2.08621
DTLB PREFETCH  REQUESTED:          0  ISSUED:          0  USEFUL:          0  USELESS:          0
DTLB USEFUL LOAD PREFETCHES:          0 PREFETCH ISSUED TO LOWER LEVEL:          0  ACCURACY: -nan
DTLB TIMELY PREFETCHES:          0 LATE PREFETCHES: 0 DROPPED PREFETCHES: 0
DTLB PREFETCHES SAME FILL-ORIGIN LEVEL: 0 DIFFERENT FILL-ORIGIN LEVEL: 0
DTLB AVERAGE MISS LATENCY: 79.5663 cycles
DTLB RQ	ACCESS:   39450378	FORWARD:          0	MERGED:    5728486	TO_CACHE:   33721892

STLB TOTAL     ACCESS:    7631092  HIT:    7601405  MISS:      29687  HIT %:     99.611  MISS %:   0.389027   MPKI: 0.29687
STLB LOAD TRANSLATION ACCESS:     208621  HIT:     178934  MISS:      29687  HIT %:    85.7699  MISS %:    14.2301   MPKI: 0.29687
STLB TRANSLATION FROM L1D PREFETCHER ACCESS:    7422471  HIT:    7422471  MISS:          0  HIT %:        100  MISS %:          0   MPKI: 0
STLB PREFETCH  REQUESTED:          0  ISSUED:          0  USEFUL:          0  USELESS:          0
STLB USEFUL LOAD PREFETCHES:          0 PREFETCH ISSUED TO LOWER LEVEL:          0  ACCURACY: -nan
STLB TIMELY PREFETCHES:          0 LATE PREFETCHES: 0 DROPPED PREFETCHES: 0
STLB PREFETCHES SAME FILL-ORIGIN LEVEL: 0 DIFFERENT FILL-ORIGIN LEVEL: 0
STLB AVERAGE MISS LATENCY: 468.791 cycles
STLB RQ	ACCESS:   34828733	FORWARD:          0	MERGED:   27197638	TO_CACHE:    7631095

STLB Hit, L1D data hit: 0
STLB Hit, L2C data hit: 0
STLB Hit, LLC data hit: 0
STLB Hit, LLC data miss: 0
STLB STLB hints to L2: 0
L1D TOTAL     ACCESS:   73978523  HIT:   71970281  MISS:    2008242  HIT %:    97.2854  MISS %:    2.71463   MPKI: 20.0824
L1D LOAD      ACCESS:   33811130  HIT:   33711278  MISS:      99852  HIT %:    99.7047  MISS %:   0.295323   MPKI: 0.99852
L1D RFO       ACCESS:    5591142  HIT:    5542418  MISS:      48724  HIT %:    99.1286  MISS %:    0.87145   MPKI: 0.48724
L1D PREFETCH  ACCESS:   34576251  HIT:   32716585  MISS:    1859666  HIT %:    94.6216  MISS %:    5.37845   MPKI: 18.5967
L1D PREFETCH  REQUESTED:   98652119  ISSUED:   69311928  USEFUL:    1850599  USELESS:       9064
L1D USEFUL LOAD PREFETCHES:    1850599 PREFETCH ISSUED TO LOWER LEVEL:    1958121  ACCURACY: 94.5089
L1D TIMELY PREFETCHES:    1850599 LATE PREFETCHES: 4057 DROPPED PREFETCHES: 0
L1D PREFETCHES SAME FILL-ORIGIN LEVEL: 1958121 DIFFERENT FILL-ORIGIN LEVEL: 0
L1D AVERAGE MISS LATENCY: 130257 cycles
L1D RQ	ACCESS:   42742679	FORWARD:          0	MERGED:    8713324	TO_CACHE:   33817071
L1D WQ	ACCESS:    5633399	FORWARD:     212284	MERGED:         92	TO_CACHE:    5633307
L1D PQ	ACCESS:   34691816	FORWARD:          0	MERGED:      71704	TO_CACHE:   34620112

L1D UNIQUE REGIONS ACCESSED: 0
L1D REGIONS CONFLICTS: 0
L1D Cross Page Prefetch Requests: 0
L1D Same Page Prefetch Requests: 48470775
L1D ROI Sum of L1D PQ occupancy: 526730750
L1D PREFETCHES PUSHED FROM L2C: 0
L1I TOTAL     ACCESS:   17166485  HIT:   17166485  MISS:          0  HIT %:        100  MISS %:          0   MPKI: 0
L1I LOAD      ACCESS:   17166485  HIT:   17166485  MISS:          0  HIT %:        100  MISS %:          0   MPKI: 0
L1I PREFETCH  REQUESTED:          0  ISSUED:          0  USEFUL:          0  USELESS:          0
L1I USEFUL LOAD PREFETCHES:          0 PREFETCH ISSUED TO LOWER LEVEL:          0  ACCURACY: -nan
L1I TIMELY PREFETCHES:          0 LATE PREFETCHES: 0 DROPPED PREFETCHES: 0
L1I PREFETCHES SAME FILL-ORIGIN LEVEL: 0 DIFFERENT FILL-ORIGIN LEVEL: 0
L1I AVERAGE MISS LATENCY: -nan cycles
L1I RQ	ACCESS:   22873910	FORWARD:          0	MERGED:    5707423	TO_CACHE:   17166487

BTB TOTAL     ACCESS:    2417447  HIT:    2417442  MISS:          5  HIT %:    99.9998  MISS %: 0.00020683   MPKI: 5e-05
BTB BRANCH_DIRECT_JUMP	ACCESS:          0  HIT:          0  MISS:          0
BTB BRANCH_INDIRECT	ACCESS:          0  HIT:          0  MISS:          0
BTB BRANCH_CONDITIONAL	ACCESS:    2417447  HIT:    2417442  MISS:          5
BTB BRANCH_DIRECT_CALL	ACCESS:          0  HIT:          0  MISS:          0
BTB BRANCH_INDIRECT_CALL	ACCESS:          0  HIT:          0  MISS:          0
BTB BRANCH_RETURN	ACCESS:          0  HIT:          0  MISS:          0
BTB BRANCH_OTHER ACCESS:          0  HIT:          0  MISS:          0

L2C TOTAL     ACCESS:    8052486  HIT:    6142408  MISS:    1910078  HIT %:    76.2796  MISS %:    23.7204   MPKI: 19.1008
L2C LOAD      ACCESS:      95795  HIT:      55411  MISS:      40384  HIT %:    57.8433  MISS %:    42.1567   MPKI: 0.40384
L2C DATA LOAD MPKI: 0.40384
L2C INSTRUCTION LOAD MPKI: 0
L2C RFO       ACCESS:      48724  HIT:          0  MISS:      48724  HIT %:          0  MISS %:        100   MPKI: 0.48724
L2C PREFETCH  ACCESS:    7828814  HIT:    6015955  MISS:    1812859  HIT %:    76.8438  MISS %:    23.1562   MPKI: 18.1286
L2C DATA PREFETCH MPKI: 18.1286
L2C INSTRUCTION PREFETCH MPKI: 0
L2C WRITEBACK ACCESS:      49464  HIT:      45408  MISS:       4056  HIT %:    91.8001  MISS %:     8.1999   MPKI: 0.04056
L2C LOAD TRANSLATION ACCESS:      29689  HIT:      25634  MISS:       4055  HIT %:    86.3417  MISS %:    13.6583   MPKI: 0.04055
L2C PREFETCH  REQUESTED:    9819382  ISSUED:    9084598  USEFUL:      52449  USELESS:    1760616
L2C USEFUL LOAD PREFETCHES:      52449 PREFETCH ISSUED TO LOWER LEVEL:    1814106  ACCURACY: 2.89118
L2C TIMELY PREFETCHES:      52449 LATE PREFETCHES: 1247 DROPPED PREFETCHES: 0
L2C PREFETCHES SAME FILL-ORIGIN LEVEL: 1631908 DIFFERENT FILL-ORIGIN LEVEL: 0
L2C AVERAGE MISS LATENCY: 177.487 cycles
L2C RQ	ACCESS:     174208	FORWARD:          0	MERGED:          0	TO_CACHE:     174208
L2C WQ	ACCESS:      49464	FORWARD:          0	MERGED:          0	TO_CACHE:      49464
L2C PQ	ACCESS:   10948321	FORWARD:          0	MERGED:    2731599	TO_CACHE:    8216722

L2C Instructions Evicting Data 0
L2C Translations Evicting Data 4050
L2C Data Evicting Data 1897938
L2C Instructions Evicting Instructions 0
L2C Translations Evicting Instructions 0
L2C Data Evicting Instructions 0
L2C Instructions Evicting Translations 0
L2C Translations Evicting Translations 5
L2C Data Evicting Translations 4029
L2C Dense regions hint from L2: 0
PSCL5 TOTAL     ACCESS:      29687  HIT:      29687  MISS:          0  HIT %:        100  MISS %:          0   MPKI: 0
PSCL5 LOAD TRANSLATION ACCESS:      29687  HIT:      29687  MISS:          0  HIT %:        100  MISS %:          0   MPKI: 0
PSCL5 PREFETCH  REQUESTED:          0  ISSUED:          0  USEFUL:          0  USELESS:          0
PSCL5 USEFUL LOAD PREFETCHES:          0 PREFETCH ISSUED TO LOWER LEVEL:          0  ACCURACY: -nan
PSCL5 TIMELY PREFETCHES:          0 LATE PREFETCHES: 0 DROPPED PREFETCHES: 0
PSCL5 PREFETCHES SAME FILL-ORIGIN LEVEL: 0 DIFFERENT FILL-ORIGIN LEVEL: 0

PSCL4 TOTAL     ACCESS:      29687  HIT:      29687  MISS:          0  HIT %:        100  MISS %:          0   MPKI: 0
PSCL4 LOAD TRANSLATION ACCESS:      29687  HIT:      29687  MISS:          0  HIT %:        100  MISS %:          0   MPKI: 0
PSCL4 PREFETCH  REQUESTED:          0  ISSUED:          0  USEFUL:          0  USELESS:          0
PSCL4 USEFUL LOAD PREFETCHES:          0 PREFETCH ISSUED TO LOWER LEVEL:          0  ACCURACY: -nan
PSCL4 TIMELY PREFETCHES:          0 LATE PREFETCHES: 0 DROPPED PREFETCHES: 0
PSCL4 PREFETCHES SAME FILL-ORIGIN LEVEL: 0 DIFFERENT FILL-ORIGIN LEVEL: 0

PSCL3 TOTAL     ACCESS:      29687  HIT:      29687  MISS:          0  HIT %:        100  MISS %:          0   MPKI: 0
PSCL3 LOAD TRANSLATION ACCESS:      29687  HIT:      29687  MISS:          0  HIT %:        100  MISS %:          0   MPKI: 0
PSCL3 PREFETCH  REQUESTED:          0  ISSUED:          0  USEFUL:          0  USELESS:          0
PSCL3 USEFUL LOAD PREFETCHES:          0 PREFETCH ISSUED TO LOWER LEVEL:          0  ACCURACY: -nan
PSCL3 TIMELY PREFETCHES:          0 LATE PREFETCHES: 0 DROPPED PREFETCHES: 0
PSCL3 PREFETCHES SAME FILL-ORIGIN LEVEL: 0 DIFFERENT FILL-ORIGIN LEVEL: 0

PSCL2 TOTAL     ACCESS:      29687  HIT:      29628  MISS:         59  HIT %:    99.8013  MISS %:    0.19874   MPKI: 0.00059
PSCL2 LOAD TRANSLATION ACCESS:      29687  HIT:      29628  MISS:         59  HIT %:    99.8013  MISS %:    0.19874   MPKI: 0.00059
PSCL2 PREFETCH  REQUESTED:          0  ISSUED:          0  USEFUL:          0  USELESS:          0
PSCL2 USEFUL LOAD PREFETCHES:          0 PREFETCH ISSUED TO LOWER LEVEL:          0  ACCURACY: -nan
PSCL2 TIMELY PREFETCHES:          0 LATE PREFETCHES: 0 DROPPED PREFETCHES: 0
PSCL2 PREFETCHES SAME FILL-ORIGIN LEVEL: 0 DIFFERENT FILL-ORIGIN LEVEL: 0

LLC TOTAL     ACCESS:    1954753  HIT:      50044  MISS:    1904709  HIT %:    2.56012  MISS %:    97.4399   MPKI: 19.0471
LLC LOAD      ACCESS:      39137  HIT:          6  MISS:      39131  HIT %:  0.0153308  MISS %:    99.9847   MPKI: 0.39131
LLC RFO       ACCESS:      48724  HIT:          0  MISS:      48724  HIT %:          0  MISS %:        100   MPKI: 0.48724
LLC PREFETCH  ACCESS:    1814106  HIT:       1774  MISS:    1812332  HIT %:  0.0977892  MISS %:    99.9022   MPKI: 18.1233
LLC WRITEBACK ACCESS:      48731  HIT:      47981  MISS:        750  HIT %:    98.4609  MISS %:    1.53906   MPKI: 0.0075
LLC LOAD TRANSLATION ACCESS:       4055  HIT:        283  MISS:       3772  HIT %:    6.97904  MISS %:     93.021   MPKI: 0.03772
LLC PREFETCH  REQUESTED:          0  ISSUED:          0  USEFUL:          3  USELESS:    1812209
LLC USEFUL LOAD PREFETCHES:          3 PREFETCH ISSUED TO LOWER LEVEL:    1812332  ACCURACY: 0.000165533
LLC TIMELY PREFETCHES:          3 LATE PREFETCHES: 0 DROPPED PREFETCHES: 0
LLC PREFETCHES SAME FILL-ORIGIN LEVEL: 0 DIFFERENT FILL-ORIGIN LEVEL: 0
LLC AVERAGE MISS LATENCY: 146.22 cycles
LLC RQ	ACCESS:      91916	FORWARD:          0	MERGED:          0	TO_CACHE:      91916
LLC WQ	ACCESS:      48731	FORWARD:          0	MERGED:          0	TO_CACHE:      48731
LLC PQ	ACCESS:    1814106	FORWARD:          0	MERGED:          0	TO_CACHE:    1814106

LLC Dense regions hint to LLC: 0

RAW hits: 237390
Loads Generated: 42980073
Loads sent to L1D: 42742679
Stores Generated: 5633399
Stores sent to L1D: 5633399
Major fault: 0 Minor fault: 42651
Allocated PAGES: 42651

stream: 
stream:times selected: 17189297
stream:pref_filled: 2759965
stream:pref_useful: 2759650
stream:pref_late: 5747
stream:misses: 275
stream:misses_by_poll: 0

CS: 
CS:times selected: 16628182
CS:pref_filled: 13928
CS:pref_useful: 13924
CS:pref_late: 97
CS:misses: 126277
CS:misses_by_poll: 61

CPLX: 
CPLX:times selected: 560900
CPLX:pref_filled: 39839
CPLX:pref_useful: 26904
CPLX:pref_late: 16
CPLX:misses: 1751
CPLX:misses_by_poll: 76

NL_L1: 
NL:times selected: 4988
NL:pref_filled: 20
NL:pref_useful: 20
NL:pref_late: 2
NL:misses: 4
NL:misses_by_poll: 0

total selections: 34383367
total_filled: 1859666
total_useful: 1850599
total_late: 6500
total_polluted: 137
total_misses_after_warmup: 105798
conflicts: 53
Degree Incremented Times: 366347
Degree Decremented Times: 0

L1 IP Table Write Accesses: 33811740
L1 IP Table Read Accesses: 33811687
L1 RST Write Accesses: 11544600
L1 RST Read Accesses: 23089200
L1 CSPT Write Accesses: 11544600
L1 CSPT Read Accesses: 12598272
L1 RR Filter Tag Write Accesses: 64032007
L1 RR Filter Tag Read Accesses: 2969186171
L1 IP Table Tag Write Accesses: 33817076
L1 IP Table Tag Read Accesses: 33817076
L1 RST Tag Write Accesses: 0
L1 RST Tag Read Accesses: 103881400
L1 RR Filter Write Accesses: 0
L1 RR Filter Read Accesses: 98688921
test: 340639
L2 IP Table Read Accesses: 3548808
L2 IP Table Write Accesses: 3453013
L2 IP Table Tag Read Accesses: 1774404
L2 IP Table Tag Write Accesses: 1774404

DRAM Statistics
 CHANNEL 0
 RQ ROW_BUFFER_HIT:    1327686  ROW_BUFFER_MISS:     576273
 DBUS_CONGESTED:        830
 WQ ROW_BUFFER_HIT:       6847  ROW_BUFFER_MISS:      42008  FULL:          0

 AVG_CONGESTED_CYCLE: 4
 All warmup complete: 2
Channel 0 Bank busy for read cycles: 0
Channel 0 Bank busy for write cycles: 0
Channel 0
Rank 0
0banks busy for read cycles: 38358470
0banks busy for write cycles: 17575
1banks busy for read cycles: 17304614
1banks busy for write cycles: 1851066
2banks busy for read cycles: 11050388
2banks busy for write cycles: 903000
3banks busy for read cycles: 8827213
3banks busy for write cycles: 581538
4banks busy for read cycles: 5741017
4banks busy for write cycles: 310365
5banks busy for read cycles: 3820322
5banks busy for write cycles: 193538
6banks busy for read cycles: 2523773
6banks busy for write cycles: 139455
7banks busy for read cycles: 2483401
7banks busy for write cycles: 107444
8banks busy for read cycles: 1545690
8banks busy for write cycles: 92296

CPU 0 Branch Prediction Accuracy: 99.9707% MPKI: 0.00732 Average ROB Occupancy at Mispredict: 40.2077
Branch types
NOT_BRANCH: 97503533 97.5035%
BRANCH_DIRECT_JUMP: 0 0%
BRANCH_INDIRECT: 0 0%
BRANCH_CONDITIONAL: 2496132 2.49613%
BRANCH_DIRECT_CALL: 0 0%
BRANCH_INDIRECT_CALL: 0 0%
BRANCH_RETURN: 0 0%
BRANCH_OTHER: 0 0%

DRAM PAGES: 1048576
Allocated PAGES: 42651
