Initialize SIGNATURE TABLE
ST_SET: 1
ST_WAY: 256
ST_TAG_BIT: 16
ST_TAG_MASK: ffff

Initialize PATTERN TABLE
PT_SET: 512
PT_WAY: 4
SIG_DELTA_BIT: 7
C_SIG_BIT: 4
C_DELTA_BIT: 4

Initialize PREFETCH FILTER
FILTER_SET: 1024

*** ChampSim Multicore Out-of-Order Simulator ***

Warmup Instructions: 50000000
Simulation Instructions: 100000000
Number of CPUs: 1
LLC sets: 2048
LLC ways: 16
Off-chip DRAM Size: 4096 MB Channels: 1 Width: 64-bit Data Rate: 6400 MT/s
CPU 0 runs ../SPEC2017//603.bwaves_s-891B.champsimtrace.xz
.xz
NUM_OF_IPS_IN_CRITICAL_IP_TRAINING: 64
NUM_OF_CRITICAL_IP_TRAINING_TABLE_WAYS: 2
NUM_OF_CRITICAL_IP_TRAINING_TABLE_SETS: 32
WOBBLY_CRITICAL_IP_CACHE_SETS: 32
WOBBLY_CRITICAL_IP_CACHE_WAYS: 4
BTB has LRU replacement policy
ITLB has LRU replacement policy
DTLB has LRU replacement policy
STLB has LRU replacement policy
L1I has LRU replacement policy
L1D has LRU replacement policy
Initialize SRRIP state for L2C
Initialize DRRIP state for LLC
Heartbeat CPU 0 instructions: 10000003 cycles: 2715421 heartbeat IPC: 3.68267 cumulative IPC: 3.68267 (Simulation time: 0 hr 3 min 7 sec) 
Heartbeat CPU 0 instructions: 20000003 cycles: 5430819 heartbeat IPC: 3.6827 cumulative IPC: 3.68269 (Simulation time: 0 hr 6 min 9 sec) 
Heartbeat CPU 0 instructions: 30000002 cycles: 8146194 heartbeat IPC: 3.68273 cumulative IPC: 3.6827 (Simulation time: 0 hr 8 min 47 sec) 
Heartbeat CPU 0 instructions: 40000000 cycles: 10861587 heartbeat IPC: 3.68271 cumulative IPC: 3.6827 (Simulation time: 0 hr 11 min 19 sec) 
Heartbeat CPU 0 instructions: 50000002 cycles: 13778226 heartbeat IPC: 3.4286 cumulative IPC: 3.62891 (Simulation time: 0 hr 13 min 20 sec) 

Warmup complete CPU 0 instructions: 50000002 cycles: 13778226 (Simulation time: 0 hr 13 min 20 sec) 

Heartbeat CPU 0 instructions: 60000001 cycles: 27532879 heartbeat IPC: 0.727027 cumulative IPC: 0.727027 (Simulation time: 0 hr 17 min 36 sec) 
Heartbeat CPU 0 instructions: 70000001 cycles: 41287821 heartbeat IPC: 0.727011 cumulative IPC: 0.727019 (Simulation time: 0 hr 21 min 18 sec) 
Heartbeat CPU 0 instructions: 80000002 cycles: 55042648 heartbeat IPC: 0.727018 cumulative IPC: 0.727019 (Simulation time: 0 hr 25 min 0 sec) 
Heartbeat CPU 0 instructions: 90000001 cycles: 68797389 heartbeat IPC: 0.727022 cumulative IPC: 0.727019 (Simulation time: 0 hr 28 min 26 sec) 
Heartbeat CPU 0 instructions: 100000002 cycles: 82551615 heartbeat IPC: 0.727049 cumulative IPC: 0.727025 (Simulation time: 0 hr 31 min 43 sec) 
Heartbeat CPU 0 instructions: 110000000 cycles: 96306708 heartbeat IPC: 0.727003 cumulative IPC: 0.727022 (Simulation time: 0 hr 34 min 47 sec) 
Heartbeat CPU 0 instructions: 120000001 cycles: 110061682 heartbeat IPC: 0.72701 cumulative IPC: 0.72702 (Simulation time: 0 hr 37 min 43 sec) 
Heartbeat CPU 0 instructions: 130000000 cycles: 123816271 heartbeat IPC: 0.72703 cumulative IPC: 0.727021 (Simulation time: 0 hr 40 min 28 sec) 
Heartbeat CPU 0 instructions: 140000001 cycles: 137571734 heartbeat IPC: 0.726984 cumulative IPC: 0.727017 (Simulation time: 0 hr 43 min 1 sec) 
Heartbeat CPU 0 instructions: 150000001 cycles: 151326738 heartbeat IPC: 0.727008 cumulative IPC: 0.727016 (Simulation time: 0 hr 45 min 25 sec) 
Finished CPU 0 instructions: 100000001 cycles: 137548513 cumulative IPC: 0.727016 (Simulation time: 0 hr 45 min 25 sec) 

ChampSim completed all CPUs

Region of Interest Statistics

CPU 0 cumulative IPC: 0.727016 instructions: 100000001 cycles: 137548513

CPU 0 Average Load ROB stall cycles: 2.42378e+07
CPU 0 Fraction of times ROB stalled by Loads: 29.3608
CPU 0 Percentage of Load stall cycles in Total stall cycles: 3.83731e+08
Issued all: 62388300
Issued LT all: 47403622
rob_not_full_when_issued_lt_all: 47403364
Issued LT one: 44886332
rob_not_full_when_issued_lt_one: 44886143
 Total stall cycles: 115957002
 Total load stall cycles: 444963541405707
CPU 0 NUM of IPS identified critical: 0
CPU 0 Num of Load IPs stalling ROB: 8
Threshold modification factor: 0
Max PIST entries: 4
Min PIST entries: 0
Avg PIST entries: 1.85333
Trouble in retire width: 0.993041
MaC = Marked as critical.
lt_50_percent_before_Mac: 0
gt_90_percent_before_Mac: 0
gt_75_percent_before_Mac: 0
gt_50_percent_before_Mac: 0
stall_proportion_bin_same_before_after: 0
stall_proportion_bin_lower_before_after: 0
stall_proportion_bin_upper_before_after: 0
average_stall_proportion_before: -nan
average_stall_proportion_after: -nan
Critical IP stalls, total frequency: 0
Non-critical IP stalls, total frequency: 5390113
Total Freq all stalling IPs: 5390113
stat_90_percent_critical_ip_stalls_freq: 5330458
stat_90_percent_non_critical_ip_stalls_freq: 59655
Critical_IP_ROB_Stalls_Bucket_0: 0
Non-critical_IP_ROB_Stalls_Bucket_0: 5174410
Critical_IP_ROB_Stalls_Bucket_1: 0
Non-critical_IP_ROB_Stalls_Bucket_1: 163869
Critical_IP_ROB_Stalls_Bucket_2: 0
Non-critical_IP_ROB_Stalls_Bucket_2: 38725
Critical_IP_ROB_Stalls_Bucket_3: 0
Non-critical_IP_ROB_Stalls_Bucket_3: 5305
Critical_IP_ROB_Stalls_Bucket_4: 0
Non-critical_IP_ROB_Stalls_Bucket_4: 3323
Critical_IP_ROB_Stalls_Bucket_5: 0
Non-critical_IP_ROB_Stalls_Bucket_5: 3693
Critical_IP_ROB_Stalls_Bucket_6: 0
Non-critical_IP_ROB_Stalls_Bucket_6: 788
0 => IPs accounting for >50 percent of stalls, 1 => 55, 2 => 60, 3 => 65 and so on till 90.
percent50: 80.8685 num IPs:  1
percent55: 80.8685 num IPs: 1
percent60: 80.8685 num IPs: 1
percent65: 80.8685 num IPs: 1
percent70: 80.8685 num IPs: 1
percent75: 80.8685 num IPs: 1
percent80: 80.8685 num IPs: 1
percent85: 98.8932 num IPs: 2
percent90: 98.8932 num IPs: 2
Critical_ROB_Stalls_Percent_0_Bucket_0: 4149513
Non-critical_ROB_Stalls_Percent_0_Bucket_0: 1024897
Critical_ROB_Stalls_Percent_0_Bucket_1: 158806
Non-critical_ROB_Stalls_Percent_0_Bucket_1: 5063
Critical_ROB_Stalls_Percent_0_Bucket_2: 37893
Non-critical_ROB_Stalls_Percent_0_Bucket_2: 832
Critical_ROB_Stalls_Percent_0_Bucket_3: 5097
Non-critical_ROB_Stalls_Percent_0_Bucket_3: 208
Critical_ROB_Stalls_Percent_0_Bucket_4: 3211
Non-critical_ROB_Stalls_Percent_0_Bucket_4: 112
Critical_ROB_Stalls_Percent_0_Bucket_5: 3619
Non-critical_ROB_Stalls_Percent_0_Bucket_5: 74
Critical_ROB_Stalls_Percent_0_Bucket_6: 767
Non-critical_ROB_Stalls_Percent_0_Bucket_6: 21
Critical_ROB_Stalls_Percent_1_Bucket_0: 4149513
Non-critical_ROB_Stalls_Percent_1_Bucket_0: 1024897
Critical_ROB_Stalls_Percent_1_Bucket_1: 158806
Non-critical_ROB_Stalls_Percent_1_Bucket_1: 5063
Critical_ROB_Stalls_Percent_1_Bucket_2: 37893
Non-critical_ROB_Stalls_Percent_1_Bucket_2: 832
Critical_ROB_Stalls_Percent_1_Bucket_3: 5097
Non-critical_ROB_Stalls_Percent_1_Bucket_3: 208
Critical_ROB_Stalls_Percent_1_Bucket_4: 3211
Non-critical_ROB_Stalls_Percent_1_Bucket_4: 112
Critical_ROB_Stalls_Percent_1_Bucket_5: 3619
Non-critical_ROB_Stalls_Percent_1_Bucket_5: 74
Critical_ROB_Stalls_Percent_1_Bucket_6: 767
Non-critical_ROB_Stalls_Percent_1_Bucket_6: 21
Critical_ROB_Stalls_Percent_2_Bucket_0: 4149513
Non-critical_ROB_Stalls_Percent_2_Bucket_0: 1024897
Critical_ROB_Stalls_Percent_2_Bucket_1: 158806
Non-critical_ROB_Stalls_Percent_2_Bucket_1: 5063
Critical_ROB_Stalls_Percent_2_Bucket_2: 37893
Non-critical_ROB_Stalls_Percent_2_Bucket_2: 832
Critical_ROB_Stalls_Percent_2_Bucket_3: 5097
Non-critical_ROB_Stalls_Percent_2_Bucket_3: 208
Critical_ROB_Stalls_Percent_2_Bucket_4: 3211
Non-critical_ROB_Stalls_Percent_2_Bucket_4: 112
Critical_ROB_Stalls_Percent_2_Bucket_5: 3619
Non-critical_ROB_Stalls_Percent_2_Bucket_5: 74
Critical_ROB_Stalls_Percent_2_Bucket_6: 767
Non-critical_ROB_Stalls_Percent_2_Bucket_6: 21
Critical_ROB_Stalls_Percent_3_Bucket_0: 4149513
Non-critical_ROB_Stalls_Percent_3_Bucket_0: 1024897
Critical_ROB_Stalls_Percent_3_Bucket_1: 158806
Non-critical_ROB_Stalls_Percent_3_Bucket_1: 5063
Critical_ROB_Stalls_Percent_3_Bucket_2: 37893
Non-critical_ROB_Stalls_Percent_3_Bucket_2: 832
Critical_ROB_Stalls_Percent_3_Bucket_3: 5097
Non-critical_ROB_Stalls_Percent_3_Bucket_3: 208
Critical_ROB_Stalls_Percent_3_Bucket_4: 3211
Non-critical_ROB_Stalls_Percent_3_Bucket_4: 112
Critical_ROB_Stalls_Percent_3_Bucket_5: 3619
Non-critical_ROB_Stalls_Percent_3_Bucket_5: 74
Critical_ROB_Stalls_Percent_3_Bucket_6: 767
Non-critical_ROB_Stalls_Percent_3_Bucket_6: 21
Critical_ROB_Stalls_Percent_4_Bucket_0: 4149513
Non-critical_ROB_Stalls_Percent_4_Bucket_0: 1024897
Critical_ROB_Stalls_Percent_4_Bucket_1: 158806
Non-critical_ROB_Stalls_Percent_4_Bucket_1: 5063
Critical_ROB_Stalls_Percent_4_Bucket_2: 37893
Non-critical_ROB_Stalls_Percent_4_Bucket_2: 832
Critical_ROB_Stalls_Percent_4_Bucket_3: 5097
Non-critical_ROB_Stalls_Percent_4_Bucket_3: 208
Critical_ROB_Stalls_Percent_4_Bucket_4: 3211
Non-critical_ROB_Stalls_Percent_4_Bucket_4: 112
Critical_ROB_Stalls_Percent_4_Bucket_5: 3619
Non-critical_ROB_Stalls_Percent_4_Bucket_5: 74
Critical_ROB_Stalls_Percent_4_Bucket_6: 767
Non-critical_ROB_Stalls_Percent_4_Bucket_6: 21
Critical_ROB_Stalls_Percent_5_Bucket_0: 4149513
Non-critical_ROB_Stalls_Percent_5_Bucket_0: 1024897
Critical_ROB_Stalls_Percent_5_Bucket_1: 158806
Non-critical_ROB_Stalls_Percent_5_Bucket_1: 5063
Critical_ROB_Stalls_Percent_5_Bucket_2: 37893
Non-critical_ROB_Stalls_Percent_5_Bucket_2: 832
Critical_ROB_Stalls_Percent_5_Bucket_3: 5097
Non-critical_ROB_Stalls_Percent_5_Bucket_3: 208
Critical_ROB_Stalls_Percent_5_Bucket_4: 3211
Non-critical_ROB_Stalls_Percent_5_Bucket_4: 112
Critical_ROB_Stalls_Percent_5_Bucket_5: 3619
Non-critical_ROB_Stalls_Percent_5_Bucket_5: 74
Critical_ROB_Stalls_Percent_5_Bucket_6: 767
Non-critical_ROB_Stalls_Percent_5_Bucket_6: 21
Critical_ROB_Stalls_Percent_6_Bucket_0: 4149513
Non-critical_ROB_Stalls_Percent_6_Bucket_0: 1024897
Critical_ROB_Stalls_Percent_6_Bucket_1: 158806
Non-critical_ROB_Stalls_Percent_6_Bucket_1: 5063
Critical_ROB_Stalls_Percent_6_Bucket_2: 37893
Non-critical_ROB_Stalls_Percent_6_Bucket_2: 832
Critical_ROB_Stalls_Percent_6_Bucket_3: 5097
Non-critical_ROB_Stalls_Percent_6_Bucket_3: 208
Critical_ROB_Stalls_Percent_6_Bucket_4: 3211
Non-critical_ROB_Stalls_Percent_6_Bucket_4: 112
Critical_ROB_Stalls_Percent_6_Bucket_5: 3619
Non-critical_ROB_Stalls_Percent_6_Bucket_5: 74
Critical_ROB_Stalls_Percent_6_Bucket_6: 767
Non-critical_ROB_Stalls_Percent_6_Bucket_6: 21
Critical_ROB_Stalls_Percent_7_Bucket_0: 5115025
Non-critical_ROB_Stalls_Percent_7_Bucket_0: 59385
Critical_ROB_Stalls_Percent_7_Bucket_1: 163610
Non-critical_ROB_Stalls_Percent_7_Bucket_1: 259
Critical_ROB_Stalls_Percent_7_Bucket_2: 38718
Non-critical_ROB_Stalls_Percent_7_Bucket_2: 7
Critical_ROB_Stalls_Percent_7_Bucket_3: 5305
Non-critical_ROB_Stalls_Percent_7_Bucket_3: 0
Critical_ROB_Stalls_Percent_7_Bucket_4: 3323
Non-critical_ROB_Stalls_Percent_7_Bucket_4: 0
Critical_ROB_Stalls_Percent_7_Bucket_5: 3689
Non-critical_ROB_Stalls_Percent_7_Bucket_5: 4
Critical_ROB_Stalls_Percent_7_Bucket_6: 788
Non-critical_ROB_Stalls_Percent_7_Bucket_6: 0
Critical_ROB_Stalls_Percent_8_Bucket_0: 5115025
Non-critical_ROB_Stalls_Percent_8_Bucket_0: 59385
Critical_ROB_Stalls_Percent_8_Bucket_1: 163610
Non-critical_ROB_Stalls_Percent_8_Bucket_1: 259
Critical_ROB_Stalls_Percent_8_Bucket_2: 38718
Non-critical_ROB_Stalls_Percent_8_Bucket_2: 7
Critical_ROB_Stalls_Percent_8_Bucket_3: 5305
Non-critical_ROB_Stalls_Percent_8_Bucket_3: 0
Critical_ROB_Stalls_Percent_8_Bucket_4: 3323
Non-critical_ROB_Stalls_Percent_8_Bucket_4: 0
Critical_ROB_Stalls_Percent_8_Bucket_5: 3689
Non-critical_ROB_Stalls_Percent_8_Bucket_5: 4
Critical_ROB_Stalls_Percent_8_Bucket_6: 788
Non-critical_ROB_Stalls_Percent_8_Bucket_6: 0
Average ROB occupancy Load Stall Begin: 14.0055
Average ROB occupancy Load Stall End: 24.6025
Min ROB occupancy Load Stall Begin: 3
Max ROB occupancy Load Stall Begin: 344
Min ROB occupancy Load Stall End: 3
Max ROB occupancy Load Stall End: 352
Average ROB occupancy Critical Load Stall Begin: -nan
Average ROB occupancy Critical Load Stall End: -nan
Min ROB occupancy Critical Load Stall Begin: 400
Max ROB occupancy Critical Load Stall Begin: 0
Min ROB occupancy Critical Load Stall End: 400
Max ROB occupancy Critical Load Stall End: 0
 ROB Load Stall Begin Bucket Count 0: 5340661
 ROB Load Stall End Bucket Count 0: 5174410
 ROB Critical Load Stall Begin Bucket Count 0: 0
 ROB Critical Load Stall End Bucket Count 0: 0
 ROB Load Stall Begin Bucket Count 1: 32573
 ROB Load Stall End Bucket Count 1: 163869
 ROB Critical Load Stall Begin Bucket Count 1: 0
 ROB Critical Load Stall End Bucket Count 1: 0
 ROB Load Stall Begin Bucket Count 2: 9707
 ROB Load Stall End Bucket Count 2: 38725
 ROB Critical Load Stall Begin Bucket Count 2: 0
 ROB Critical Load Stall End Bucket Count 2: 0
 ROB Load Stall Begin Bucket Count 3: 3743
 ROB Load Stall End Bucket Count 3: 5305
 ROB Critical Load Stall Begin Bucket Count 3: 0
 ROB Critical Load Stall End Bucket Count 3: 0
 ROB Load Stall Begin Bucket Count 4: 2560
 ROB Load Stall End Bucket Count 4: 3323
 ROB Critical Load Stall Begin Bucket Count 4: 0
 ROB Critical Load Stall End Bucket Count 4: 0
 ROB Load Stall Begin Bucket Count 5: 652
 ROB Load Stall End Bucket Count 5: 3693
 ROB Critical Load Stall Begin Bucket Count 5: 0
 ROB Critical Load Stall End Bucket Count 5: 0
 ROB Load Stall Begin Bucket Count 6: 218
 ROB Load Stall End Bucket Count 6: 788
 ROB Critical Load Stall Begin Bucket Count 6: 0
 ROB Critical Load Stall End Bucket Count 6: 0
PIST Tag Read Accesses: 12920
PIST Read Accesses: 6460
PIST Tag Write Accesses: 12920
PIST Write Accesses: 6460
Criticality detector called times: 1031359
Max global_stall_cycles_count: 25019
Threshold Modified: 0 times, factor: 0
Sturdy critical IP cache stats: 
 Unused entries: 0
CIC Tag Read Accesses: 0
CIC Read Accesses: 0
CIC Tag Write Accesses: 0
CIC Write Accesses: 0
Wobbly critical IP cache stats: 
 Unused entries: 127
CIC Tag Read Accesses: 152842220
CIC Read Accesses: 0
CIC Tag Write Accesses: 1
CIC Write Accesses: 0
ITLB TOTAL     ACCESS:   17455745  HIT:   17455745  MISS:          0  HIT %:        100  MISS %:          0   MPKI: 0
ITLB LOAD TRANSLATION ACCESS:   17455745  HIT:   17455745  MISS:          0  HIT %:        100  MISS %:          0   MPKI: 0
ITLB PREFETCH  REQUESTED:          0  ISSUED:          0  USEFUL:          0  USELESS:          0
ITLB USEFUL LOAD PREFETCHES:          0 PREFETCH ISSUED TO LOWER LEVEL:          0  ACCURACY: -nan
ITLB TIMELY PREFETCHES:          0 LATE PREFETCHES: 0 DROPPED PREFETCHES: 0
ITLB PREFETCHES SAME FILL-ORIGIN LEVEL: 0 DIFFERENT FILL-ORIGIN LEVEL: 0
ITLB AVERAGE MISS LATENCY: -nan cycles
ITLB RQ	ACCESS:   17456274	FORWARD:          0	MERGED:        529	TO_CACHE:   17455745

DTLB TOTAL     ACCESS:   10672211  HIT:   10647684  MISS:      24527  HIT %:    99.7702  MISS %:   0.229821   MPKI: 0.24527
DTLB LOAD TRANSLATION ACCESS:   10672211  HIT:   10647684  MISS:      24527  HIT %:    99.7702  MISS %:   0.229821   MPKI: 0.24527
DTLB PREFETCH  REQUESTED:          0  ISSUED:          0  USEFUL:          0  USELESS:          0
DTLB USEFUL LOAD PREFETCHES:          0 PREFETCH ISSUED TO LOWER LEVEL:          0  ACCURACY: -nan
DTLB TIMELY PREFETCHES:          0 LATE PREFETCHES: 0 DROPPED PREFETCHES: 0
DTLB PREFETCHES SAME FILL-ORIGIN LEVEL: 0 DIFFERENT FILL-ORIGIN LEVEL: 0
DTLB AVERAGE MISS LATENCY: 144.097 cycles
DTLB RQ	ACCESS:   10996198	FORWARD:          0	MERGED:     319942	TO_CACHE:   10676256

STLB TOTAL     ACCESS:      24527  HIT:        176  MISS:      24351  HIT %:   0.717577  MISS %:    99.2824   MPKI: 0.24351
STLB LOAD TRANSLATION ACCESS:      24527  HIT:        176  MISS:      24351  HIT %:   0.717577  MISS %:    99.2824   MPKI: 0.24351
STLB PREFETCH  REQUESTED:          0  ISSUED:          0  USEFUL:          0  USELESS:          0
STLB USEFUL LOAD PREFETCHES:          0 PREFETCH ISSUED TO LOWER LEVEL:          0  ACCURACY: -nan
STLB TIMELY PREFETCHES:          0 LATE PREFETCHES: 0 DROPPED PREFETCHES: 0
STLB PREFETCHES SAME FILL-ORIGIN LEVEL: 0 DIFFERENT FILL-ORIGIN LEVEL: 0
STLB AVERAGE MISS LATENCY: 136.074 cycles
STLB RQ	ACCESS:      24527	FORWARD:          0	MERGED:          0	TO_CACHE:      24527

STLB Hit, L1D data hit: 0
STLB Hit, L2C data hit: 0
STLB Hit, LLC data hit: 0
STLB Hit, LLC data miss: 0
STLB STLB hints to L2: 0
L1D TOTAL     ACCESS:   10217103  HIT:    8658249  MISS:    1558854  HIT %:    84.7427  MISS %:    15.2573   MPKI: 15.5885
L1D LOAD      ACCESS:    7892360  HIT:    6333506  MISS:    1558854  HIT %:    80.2486  MISS %:    19.7514   MPKI: 15.5885
L1D RFO       ACCESS:    2324743  HIT:    2324743  MISS:          0  HIT %:        100  MISS %:          0   MPKI: 0
L1D PREFETCH  REQUESTED:          0  ISSUED:          0  USEFUL:          0  USELESS:          0
L1D USEFUL LOAD PREFETCHES:          0 PREFETCH ISSUED TO LOWER LEVEL:          0  ACCURACY: -nan
L1D TIMELY PREFETCHES:          0 LATE PREFETCHES: 0 DROPPED PREFETCHES: 0
L1D PREFETCHES SAME FILL-ORIGIN LEVEL: 0 DIFFERENT FILL-ORIGIN LEVEL: 0
L1D AVERAGE MISS LATENCY: 25.7247 cycles
L1D RQ	ACCESS:   15031585	FORWARD:          0	MERGED:    6360130	TO_CACHE:    8671455
L1D WQ	ACCESS:    2493602	FORWARD:          0	MERGED:     168859	TO_CACHE:    2324743

L1D UNIQUE REGIONS ACCESSED: 0
L1D REGIONS CONFLICTS: 0
L1D Cross Page Prefetch Requests: 0
L1D Same Page Prefetch Requests: 0
L1D ROI Sum of L1D PQ occupancy: 0
L1D PREFETCHES PUSHED FROM L2C: 0
L1I TOTAL     ACCESS:   17456272  HIT:   17456272  MISS:          0  HIT %:        100  MISS %:          0   MPKI: 0
L1I LOAD      ACCESS:   17456272  HIT:   17456272  MISS:          0  HIT %:        100  MISS %:          0   MPKI: 0
L1I PREFETCH  REQUESTED:          0  ISSUED:          0  USEFUL:          0  USELESS:          0
L1I USEFUL LOAD PREFETCHES:          0 PREFETCH ISSUED TO LOWER LEVEL:          0  ACCURACY: -nan
L1I TIMELY PREFETCHES:          0 LATE PREFETCHES: 0 DROPPED PREFETCHES: 0
L1I PREFETCHES SAME FILL-ORIGIN LEVEL: 0 DIFFERENT FILL-ORIGIN LEVEL: 0
L1I AVERAGE MISS LATENCY: -nan cycles
L1I RQ	ACCESS:   19973312	FORWARD:          0	MERGED:    2517038	TO_CACHE:   17456274

BTB TOTAL     ACCESS:   14984878  HIT:   14984874  MISS:          4  HIT %:        100  MISS %: 2.66936e-05   MPKI: 4e-05
BTB BRANCH_DIRECT_JUMP	ACCESS:          0  HIT:          0  MISS:          0
BTB BRANCH_INDIRECT	ACCESS:          0  HIT:          0  MISS:          0
BTB BRANCH_CONDITIONAL	ACCESS:   14984878  HIT:   14984874  MISS:          4
BTB BRANCH_DIRECT_CALL	ACCESS:          0  HIT:          0  MISS:          0
BTB BRANCH_INDIRECT_CALL	ACCESS:          0  HIT:          0  MISS:          0
BTB BRANCH_RETURN	ACCESS:          0  HIT:          0  MISS:          0
BTB BRANCH_OTHER ACCESS:          0  HIT:          0  MISS:          0

L2C TOTAL     ACCESS:    2692874  HIT:    1130925  MISS:    1561949  HIT %:     41.997  MISS %:     58.003   MPKI: 15.6195
L2C LOAD      ACCESS:    1558854  HIT:    1109669  MISS:     449185  HIT %:    71.1849  MISS %:    28.8151   MPKI: 4.49185
L2C DATA LOAD MPKI: 4.49185
L2C INSTRUCTION LOAD MPKI: 0
L2C PREFETCH  ACCESS:    1109669  HIT:          0  MISS:    1109669  HIT %:          0  MISS %:        100   MPKI: 11.0967
L2C DATA PREFETCH MPKI: 11.0967
L2C INSTRUCTION PREFETCH MPKI: 0
L2C LOAD TRANSLATION ACCESS:      24351  HIT:      21256  MISS:       3095  HIT %:      87.29  MISS %:      12.71   MPKI: 0.03095
L2C PREFETCH  REQUESTED:   16324097  ISSUED:   16322036  USEFUL:    1109669  USELESS:          0
L2C USEFUL LOAD PREFETCHES:    1109669 PREFETCH ISSUED TO LOWER LEVEL:   16280430  ACCURACY: 6.81597
L2C TIMELY PREFETCHES:    1109669 LATE PREFETCHES: 25143 DROPPED PREFETCHES: 0
L2C PREFETCHES SAME FILL-ORIGIN LEVEL: 1134813 DIFFERENT FILL-ORIGIN LEVEL: 15145617
L2C AVERAGE MISS LATENCY: 32.8842 cycles
L2C RQ	ACCESS:    1583205	FORWARD:          0	MERGED:          0	TO_CACHE:    1583205
L2C PQ	ACCESS:   16322036	FORWARD:          0	MERGED:      39077	TO_CACHE:   16282959

L2C Instructions Evicting Data 0
L2C Translations Evicting Data 3095
L2C Data Evicting Data 1555733
L2C Instructions Evicting Instructions 0
L2C Translations Evicting Instructions 0
L2C Data Evicting Instructions 0
L2C Instructions Evicting Translations 0
L2C Translations Evicting Translations 0
L2C Data Evicting Translations 3121
L2C Dense regions hint from L2: 0
PSCL5 TOTAL     ACCESS:      24351  HIT:      24351  MISS:          0  HIT %:        100  MISS %:          0   MPKI: 0
PSCL5 LOAD TRANSLATION ACCESS:      24351  HIT:      24351  MISS:          0  HIT %:        100  MISS %:          0   MPKI: 0
PSCL5 PREFETCH  REQUESTED:          0  ISSUED:          0  USEFUL:          0  USELESS:          0
PSCL5 USEFUL LOAD PREFETCHES:          0 PREFETCH ISSUED TO LOWER LEVEL:          0  ACCURACY: -nan
PSCL5 TIMELY PREFETCHES:          0 LATE PREFETCHES: 0 DROPPED PREFETCHES: 0
PSCL5 PREFETCHES SAME FILL-ORIGIN LEVEL: 0 DIFFERENT FILL-ORIGIN LEVEL: 0

PSCL4 TOTAL     ACCESS:      24351  HIT:      24351  MISS:          0  HIT %:        100  MISS %:          0   MPKI: 0
PSCL4 LOAD TRANSLATION ACCESS:      24351  HIT:      24351  MISS:          0  HIT %:        100  MISS %:          0   MPKI: 0
PSCL4 PREFETCH  REQUESTED:          0  ISSUED:          0  USEFUL:          0  USELESS:          0
PSCL4 USEFUL LOAD PREFETCHES:          0 PREFETCH ISSUED TO LOWER LEVEL:          0  ACCURACY: -nan
PSCL4 TIMELY PREFETCHES:          0 LATE PREFETCHES: 0 DROPPED PREFETCHES: 0
PSCL4 PREFETCHES SAME FILL-ORIGIN LEVEL: 0 DIFFERENT FILL-ORIGIN LEVEL: 0

PSCL3 TOTAL     ACCESS:      24351  HIT:      24351  MISS:          0  HIT %:        100  MISS %:          0   MPKI: 0
PSCL3 LOAD TRANSLATION ACCESS:      24351  HIT:      24351  MISS:          0  HIT %:        100  MISS %:          0   MPKI: 0
PSCL3 PREFETCH  REQUESTED:          0  ISSUED:          0  USEFUL:          0  USELESS:          0
PSCL3 USEFUL LOAD PREFETCHES:          0 PREFETCH ISSUED TO LOWER LEVEL:          0  ACCURACY: -nan
PSCL3 TIMELY PREFETCHES:          0 LATE PREFETCHES: 0 DROPPED PREFETCHES: 0
PSCL3 PREFETCHES SAME FILL-ORIGIN LEVEL: 0 DIFFERENT FILL-ORIGIN LEVEL: 0

PSCL2 TOTAL     ACCESS:      24351  HIT:      24304  MISS:         47  HIT %:     99.807  MISS %:   0.193011   MPKI: 0.00047
PSCL2 LOAD TRANSLATION ACCESS:      24351  HIT:      24304  MISS:         47  HIT %:     99.807  MISS %:   0.193011   MPKI: 0.00047
PSCL2 PREFETCH  REQUESTED:          0  ISSUED:          0  USEFUL:          0  USELESS:          0
PSCL2 USEFUL LOAD PREFETCHES:          0 PREFETCH ISSUED TO LOWER LEVEL:          0  ACCURACY: -nan
PSCL2 TIMELY PREFETCHES:          0 LATE PREFETCHES: 0 DROPPED PREFETCHES: 0
PSCL2 PREFETCHES SAME FILL-ORIGIN LEVEL: 0 DIFFERENT FILL-ORIGIN LEVEL: 0

LLC TOTAL     ACCESS:   16474369  HIT:   14912779  MISS:    1561590  HIT %:    90.5211  MISS %:    9.47891   MPKI: 15.6159
LLC LOAD      ACCESS:     424042  HIT:     380880  MISS:      43162  HIT %:    89.8213  MISS %:    10.1787   MPKI: 0.43162
LLC PREFETCH  ACCESS:   16047232  HIT:   14531890  MISS:    1515342  HIT %:     90.557  MISS %:    9.44301   MPKI: 15.1534
LLC LOAD TRANSLATION ACCESS:       3095  HIT:          9  MISS:       3086  HIT %:   0.290792  MISS %:    99.7092   MPKI: 0.03086
LLC PREFETCH  REQUESTED:          0  ISSUED:          0  USEFUL:     380528  USELESS:    1110976
LLC USEFUL LOAD PREFETCHES:     380528 PREFETCH ISSUED TO LOWER LEVEL:    1519852  ACCURACY: 25.0372
LLC TIMELY PREFETCHES:     380528 LATE PREFETCHES: 4510 DROPPED PREFETCHES: 0
LLC PREFETCHES SAME FILL-ORIGIN LEVEL: 1501626 DIFFERENT FILL-ORIGIN LEVEL: 0
LLC AVERAGE MISS LATENCY: 75.3604 cycles
LLC RQ	ACCESS:     427137	FORWARD:          0	MERGED:          0	TO_CACHE:     427137
LLC PQ	ACCESS:   16280430	FORWARD:          0	MERGED:      23447	TO_CACHE:   16256983

LLC Dense regions hint to LLC: 0

RAW hits: 0
Loads Generated: 15031585
Loads sent to L1D: 15031585
Stores Generated: 2493602
Stores sent to L1D: 2493602
Major fault: 0 Minor fault: 44379
Allocated PAGES: 44379
 All Calls: 2833630
 Critical Calls: 1558363
------------------
Depth Distribution
------------------
depth 0: 0
depth 1: 1522375
depth 2: 1499236
depth 3: 1475023
depth 4: 1450812
depth 5: 1426606
depth 6: 1401713
depth 7: 1375428
depth 8: 1347512
depth 9: 1155938
depth 10: 1131035
depth 11: 950517
depth 12: 830879
depth 13: 457071
depth 14: 151230
depth 15: 145270
depth 16: 1391
depth 17: 0
depth 18: 0
depth 19: 0
depth 20: 0
depth 21: 0
depth 22: 0
depth 23: 0
depth 24: 0
depth 25: 0
depth 26: 0
depth 27: 0
depth 28: 0
depth 29: 0
Total: 16322036
-----------------------------
-----------------------------
	Captured at Filter
-----------------------------
depth 0: 0
depth 1: 11423
depth 2: 10124
depth 3: 9971
depth 4: 9824
depth 5: 9667
depth 6: 9515
depth 7: 9335
depth 8: 9141
depth 9: 7865
depth 10: 7625
depth 11: 6391
depth 12: 5646
depth 13: 3209
depth 14: 1012
depth 15: 943
depth 16: 10
depth 17: 0
depth 18: 0
depth 19: 0
depth 20: 0
depth 21: 0
depth 22: 0
depth 23: 0
depth 24: 0
depth 25: 0
depth 26: 0
depth 27: 0
depth 28: 0
depth 29: 0
-----------------------------
-----------------------------
		Lost at Page
-----------------------------
depth 0: 0
depth 1: 24349
depth 2: 48698
depth 3: 73048
depth 4: 97398
depth 5: 121748
depth 6: 146097
depth 7: 170444
depth 8: 194793
depth 9: 191806
depth 10: 213022
depth 11: 200841
depth 12: 195374
depth 13: 118643
depth 14: 42627
depth 15: 45476
depth 16: 112
depth 17: 0
depth 18: 0
depth 19: 0
depth 20: 0
depth 21: 0
depth 22: 0
depth 23: 0
depth 24: 0
depth 25: 0
depth 26: 0
depth 27: 0
depth 28: 0
depth 29: 0
-----------------------------
-----------------------------
	Lost due to PQ Size
-----------------------------
2061
-----------------------------
ST read accesses: 1534021
ST write accesses: 24342
PT read accesses: 99370565
PT write accesses: 2300952
FILTER read accesses: 19555972
FILTER write accesses: 3837704
GHR read accesses: 8617850
GHR write accesses: 1884476
GHR counter read accesses: 82631054
GHR counter write accesses: 3834112
ST tag read accesses: 611393777
ST tag write accesses: 7733500

DRAM Statistics
 CHANNEL 0
 RQ ROW_BUFFER_HIT:    1541214  ROW_BUFFER_MISS:      20376
 DBUS_CONGESTED:         14
 WQ ROW_BUFFER_HIT:          2  ROW_BUFFER_MISS:        415  FULL:          0

 AVG_CONGESTED_CYCLE: 2
 All warmup complete: 2
Channel 0 Bank busy for read cycles: 0
Channel 0 Bank busy for write cycles: 0
Channel 0
Rank 0
0banks busy for read cycles: 94996762
0banks busy for write cycles: 385
1banks busy for read cycles: 24440861
1banks busy for write cycles: 72391
2banks busy for read cycles: 8458936
2banks busy for write cycles: 4692
3banks busy for read cycles: 7005163
3banks busy for write cycles: 0
4banks busy for read cycles: 258837
4banks busy for write cycles: 0
5banks busy for read cycles: 273084
5banks busy for write cycles: 0
6banks busy for read cycles: 298461
6banks busy for write cycles: 0
7banks busy for read cycles: 360030
7banks busy for write cycles: 0
8banks busy for read cycles: 1378912
8banks busy for write cycles: 0

CPU 0 Branch Prediction Accuracy: 99.8671% MPKI: 0.23265 Average ROB Occupancy at Mispredict: 31.5814
Branch types
NOT_BRANCH: 82498261 82.4983%
BRANCH_DIRECT_JUMP: 0 0%
BRANCH_INDIRECT: 0 0%
BRANCH_CONDITIONAL: 17501746 17.5017%
BRANCH_DIRECT_CALL: 0 0%
BRANCH_INDIRECT_CALL: 0 0%
BRANCH_RETURN: 0 0%
BRANCH_OTHER: 0 0%

DRAM PAGES: 1048576
Allocated PAGES: 44379
