
*** ChampSim Multicore Out-of-Order Simulator ***

Warmup Instructions: 50000000
Simulation Instructions: 100000000
Number of CPUs: 1
LLC sets: 2048
LLC ways: 16
Off-chip DRAM Size: 4096 MB Channels: 1 Width: 64-bit Data Rate: 6400 MT/s
CPU 0 runs ../SPEC2017//603.bwaves_s-1740B.champsimtrace.xz
.xz
BTB has LRU replacement policy
ITLB has LRU replacement policy
DTLB has LRU replacement policy
STLB has LRU replacement policy
L1I has LRU replacement policy
IP Table Entries: 64
L1D has LRU replacement policy
Initialize SRRIP state for L2C
Initialize DRRIP state for LLC
Heartbeat CPU 0 instructions: 10000000 cycles: 3310356 heartbeat IPC: 3.02082 cumulative IPC: 3.02082 (Simulation time: 0 hr 7 min 7 sec) 
Heartbeat CPU 0 instructions: 20000002 cycles: 6619416 heartbeat IPC: 3.02201 cumulative IPC: 3.02141 (Simulation time: 0 hr 13 min 39 sec) 
Heartbeat CPU 0 instructions: 30000003 cycles: 9929253 heartbeat IPC: 3.0213 cumulative IPC: 3.02138 (Simulation time: 0 hr 20 min 7 sec) 
Heartbeat CPU 0 instructions: 40000001 cycles: 13239453 heartbeat IPC: 3.02096 cumulative IPC: 3.02127 (Simulation time: 0 hr 26 min 19 sec) 
Heartbeat CPU 0 instructions: 50000003 cycles: 16549559 heartbeat IPC: 3.02105 cumulative IPC: 3.02123 (Simulation time: 0 hr 31 min 54 sec) 

Warmup complete CPU 0 instructions: 50000003 cycles: 16549559 (Simulation time: 0 hr 31 min 54 sec) 

Heartbeat CPU 0 instructions: 60000003 cycles: 31571124 heartbeat IPC: 0.66571 cumulative IPC: 0.66571 (Simulation time: 0 hr 36 min 43 sec) 
Heartbeat CPU 0 instructions: 70000000 cycles: 46576541 heartbeat IPC: 0.666426 cumulative IPC: 0.666067 (Simulation time: 0 hr 41 min 28 sec) 
Heartbeat CPU 0 instructions: 80000001 cycles: 61606568 heartbeat IPC: 0.665335 cumulative IPC: 0.665823 (Simulation time: 0 hr 45 min 43 sec) 
Heartbeat CPU 0 instructions: 90000000 cycles: 76636471 heartbeat IPC: 0.66534 cumulative IPC: 0.665702 (Simulation time: 0 hr 49 min 49 sec) 
Heartbeat CPU 0 instructions: 100000002 cycles: 91662347 heartbeat IPC: 0.665519 cumulative IPC: 0.665666 (Simulation time: 0 hr 53 min 50 sec) 
Heartbeat CPU 0 instructions: 110000000 cycles: 106749578 heartbeat IPC: 0.662812 cumulative IPC: 0.665188 (Simulation time: 0 hr 58 min 21 sec) 
Heartbeat CPU 0 instructions: 120000002 cycles: 121745183 heartbeat IPC: 0.666862 cumulative IPC: 0.665427 (Simulation time: 1 hr 2 min 18 sec) 
Heartbeat CPU 0 instructions: 130000000 cycles: 136772310 heartbeat IPC: 0.665463 cumulative IPC: 0.665431 (Simulation time: 1 hr 6 min 0 sec) 
Heartbeat CPU 0 instructions: 140000003 cycles: 151824495 heartbeat IPC: 0.664356 cumulative IPC: 0.665312 (Simulation time: 1 hr 9 min 19 sec) 
Heartbeat CPU 0 instructions: 150000003 cycles: 166844788 heartbeat IPC: 0.665766 cumulative IPC: 0.665357 (Simulation time: 1 hr 11 min 54 sec) 
Finished CPU 0 instructions: 100000000 cycles: 150295229 cumulative IPC: 0.665357 (Simulation time: 1 hr 11 min 54 sec) 

ChampSim completed all CPUs

Region of Interest Statistics

CPU 0 cumulative IPC: 0.665357 instructions: 100000000 cycles: 150295229

CPU 0 Average Load ROB stall cycles: 4.80422e+07
CPU 0 Fraction of times ROB stalled by Loads: 52.376
CPU 0 Percentage of Load stall cycles in Total stall cycles: 3.74463e+08
Issued all: 107075978
Issued LT all: 94660029
rob_not_full_when_issued_lt_all: 33382687
Issued LT one: 86609825
rob_not_full_when_issued_lt_one: 28619497
 Total stall cycles: 125077341
 Total load stall cycles: 468368229940867
Unique Load IPs: 134
CPU 0 NUM of IPS identified critical: 3
CPU 0 Num of Load IPs stalling ROB: 0
Threshold modification factor: 0
Trouble in retire width: -nan
MaC = Marked as critical.
lt_50_percent_before_Mac: 0
gt_90_percent_before_Mac: 0
gt_75_percent_before_Mac: 0
gt_50_percent_before_Mac: 3
stall_proportion_bin_same_before_after: 0
stall_proportion_bin_lower_before_after: 0
stall_proportion_bin_upper_before_after: 0
average_stall_proportion_before: 0.0402918
average_stall_proportion_after: 0.0423185
Critical_IP_Detector_Accuracy_70: 0
Critical_IP_Detector_Accuracy_80: 0
Critical_IP_Detector_Accuracy_90: 0
Critical_IP_Detector_Coverage_70: 0
Critical_IP_Detector_Coverage_80: 0
Critical_IP_Detector_Coverage_90: 0
stat_90_percent_critical_ip_stalls_freq: 923446
stat_90_percent_non_critical_ip_stalls_freq: 18446744073708628170
AVERAGE_ROB_Occupancy_90_Percent_Critical_IP_Stalls: 135.235
AVERAGE_ROB_Occupancy_90_Percent_Non_Critical_IP_Stalls: 4.13685e-11
Critical_IP_ROB_Stalls_Bucket_0: 240654
Non-critical_IP_ROB_Stalls_Bucket_0: 1830202
Critical_IP_ROB_Stalls_Bucket_1: 99605
Non-critical_IP_ROB_Stalls_Bucket_1: 305994
Critical_IP_ROB_Stalls_Bucket_2: 18307
Non-critical_IP_ROB_Stalls_Bucket_2: 119060
Critical_IP_ROB_Stalls_Bucket_3: 30528
Non-critical_IP_ROB_Stalls_Bucket_3: 209303
Critical_IP_ROB_Stalls_Bucket_4: 35579
Non-critical_IP_ROB_Stalls_Bucket_4: 207544
Critical_IP_ROB_Stalls_Bucket_5: 17982
Non-critical_IP_ROB_Stalls_Bucket_5: 267629
Critical_IP_ROB_Stalls_Bucket_6: 152990
Non-critical_IP_ROB_Stalls_Bucket_6: 1570816
0 => IPs accounting for >50 percent of stalls, 1 => 55, 2 => 60, 3 => 65 and so on till 90.
percent50: inf num IPs:  1
percent55: inf num IPs: 1
percent60: inf num IPs: 1
percent65: inf num IPs: 1
percent70: inf num IPs: 1
percent75: inf num IPs: 1
percent80: inf num IPs: 1
percent85: inf num IPs: 1
percent90: inf num IPs: 1
Critical_ROB_Stalls_Percent_0_Bucket_0: 431814
Non-critical_ROB_Stalls_Percent_0_Bucket_0: 1639042
Critical_ROB_Stalls_Percent_0_Bucket_1: 86921
Non-critical_ROB_Stalls_Percent_0_Bucket_1: 318678
Critical_ROB_Stalls_Percent_0_Bucket_2: 44094
Non-critical_ROB_Stalls_Percent_0_Bucket_2: 93273
Critical_ROB_Stalls_Percent_0_Bucket_3: 71124
Non-critical_ROB_Stalls_Percent_0_Bucket_3: 168707
Critical_ROB_Stalls_Percent_0_Bucket_4: 77518
Non-critical_ROB_Stalls_Percent_0_Bucket_4: 165605
Critical_ROB_Stalls_Percent_0_Bucket_5: 94819
Non-critical_ROB_Stalls_Percent_0_Bucket_5: 190792
Critical_ROB_Stalls_Percent_0_Bucket_6: 117156
Non-critical_ROB_Stalls_Percent_0_Bucket_6: 1606650
Critical_ROB_Stalls_Percent_1_Bucket_0: 431814
Non-critical_ROB_Stalls_Percent_1_Bucket_0: 1639042
Critical_ROB_Stalls_Percent_1_Bucket_1: 86921
Non-critical_ROB_Stalls_Percent_1_Bucket_1: 318678
Critical_ROB_Stalls_Percent_1_Bucket_2: 44094
Non-critical_ROB_Stalls_Percent_1_Bucket_2: 93273
Critical_ROB_Stalls_Percent_1_Bucket_3: 71124
Non-critical_ROB_Stalls_Percent_1_Bucket_3: 168707
Critical_ROB_Stalls_Percent_1_Bucket_4: 77518
Non-critical_ROB_Stalls_Percent_1_Bucket_4: 165605
Critical_ROB_Stalls_Percent_1_Bucket_5: 94819
Non-critical_ROB_Stalls_Percent_1_Bucket_5: 190792
Critical_ROB_Stalls_Percent_1_Bucket_6: 117156
Non-critical_ROB_Stalls_Percent_1_Bucket_6: 1606650
Critical_ROB_Stalls_Percent_2_Bucket_0: 431814
Non-critical_ROB_Stalls_Percent_2_Bucket_0: 1639042
Critical_ROB_Stalls_Percent_2_Bucket_1: 86921
Non-critical_ROB_Stalls_Percent_2_Bucket_1: 318678
Critical_ROB_Stalls_Percent_2_Bucket_2: 44094
Non-critical_ROB_Stalls_Percent_2_Bucket_2: 93273
Critical_ROB_Stalls_Percent_2_Bucket_3: 71124
Non-critical_ROB_Stalls_Percent_2_Bucket_3: 168707
Critical_ROB_Stalls_Percent_2_Bucket_4: 77518
Non-critical_ROB_Stalls_Percent_2_Bucket_4: 165605
Critical_ROB_Stalls_Percent_2_Bucket_5: 94819
Non-critical_ROB_Stalls_Percent_2_Bucket_5: 190792
Critical_ROB_Stalls_Percent_2_Bucket_6: 117156
Non-critical_ROB_Stalls_Percent_2_Bucket_6: 1606650
Critical_ROB_Stalls_Percent_3_Bucket_0: 431814
Non-critical_ROB_Stalls_Percent_3_Bucket_0: 1639042
Critical_ROB_Stalls_Percent_3_Bucket_1: 86921
Non-critical_ROB_Stalls_Percent_3_Bucket_1: 318678
Critical_ROB_Stalls_Percent_3_Bucket_2: 44094
Non-critical_ROB_Stalls_Percent_3_Bucket_2: 93273
Critical_ROB_Stalls_Percent_3_Bucket_3: 71124
Non-critical_ROB_Stalls_Percent_3_Bucket_3: 168707
Critical_ROB_Stalls_Percent_3_Bucket_4: 77518
Non-critical_ROB_Stalls_Percent_3_Bucket_4: 165605
Critical_ROB_Stalls_Percent_3_Bucket_5: 94819
Non-critical_ROB_Stalls_Percent_3_Bucket_5: 190792
Critical_ROB_Stalls_Percent_3_Bucket_6: 117156
Non-critical_ROB_Stalls_Percent_3_Bucket_6: 1606650
Critical_ROB_Stalls_Percent_4_Bucket_0: 431814
Non-critical_ROB_Stalls_Percent_4_Bucket_0: 1639042
Critical_ROB_Stalls_Percent_4_Bucket_1: 86921
Non-critical_ROB_Stalls_Percent_4_Bucket_1: 318678
Critical_ROB_Stalls_Percent_4_Bucket_2: 44094
Non-critical_ROB_Stalls_Percent_4_Bucket_2: 93273
Critical_ROB_Stalls_Percent_4_Bucket_3: 71124
Non-critical_ROB_Stalls_Percent_4_Bucket_3: 168707
Critical_ROB_Stalls_Percent_4_Bucket_4: 77518
Non-critical_ROB_Stalls_Percent_4_Bucket_4: 165605
Critical_ROB_Stalls_Percent_4_Bucket_5: 94819
Non-critical_ROB_Stalls_Percent_4_Bucket_5: 190792
Critical_ROB_Stalls_Percent_4_Bucket_6: 117156
Non-critical_ROB_Stalls_Percent_4_Bucket_6: 1606650
Critical_ROB_Stalls_Percent_5_Bucket_0: 431814
Non-critical_ROB_Stalls_Percent_5_Bucket_0: 1639042
Critical_ROB_Stalls_Percent_5_Bucket_1: 86921
Non-critical_ROB_Stalls_Percent_5_Bucket_1: 318678
Critical_ROB_Stalls_Percent_5_Bucket_2: 44094
Non-critical_ROB_Stalls_Percent_5_Bucket_2: 93273
Critical_ROB_Stalls_Percent_5_Bucket_3: 71124
Non-critical_ROB_Stalls_Percent_5_Bucket_3: 168707
Critical_ROB_Stalls_Percent_5_Bucket_4: 77518
Non-critical_ROB_Stalls_Percent_5_Bucket_4: 165605
Critical_ROB_Stalls_Percent_5_Bucket_5: 94819
Non-critical_ROB_Stalls_Percent_5_Bucket_5: 190792
Critical_ROB_Stalls_Percent_5_Bucket_6: 117156
Non-critical_ROB_Stalls_Percent_5_Bucket_6: 1606650
Critical_ROB_Stalls_Percent_6_Bucket_0: 431814
Non-critical_ROB_Stalls_Percent_6_Bucket_0: 1639042
Critical_ROB_Stalls_Percent_6_Bucket_1: 86921
Non-critical_ROB_Stalls_Percent_6_Bucket_1: 318678
Critical_ROB_Stalls_Percent_6_Bucket_2: 44094
Non-critical_ROB_Stalls_Percent_6_Bucket_2: 93273
Critical_ROB_Stalls_Percent_6_Bucket_3: 71124
Non-critical_ROB_Stalls_Percent_6_Bucket_3: 168707
Critical_ROB_Stalls_Percent_6_Bucket_4: 77518
Non-critical_ROB_Stalls_Percent_6_Bucket_4: 165605
Critical_ROB_Stalls_Percent_6_Bucket_5: 94819
Non-critical_ROB_Stalls_Percent_6_Bucket_5: 190792
Critical_ROB_Stalls_Percent_6_Bucket_6: 117156
Non-critical_ROB_Stalls_Percent_6_Bucket_6: 1606650
Critical_ROB_Stalls_Percent_7_Bucket_0: 431814
Non-critical_ROB_Stalls_Percent_7_Bucket_0: 1639042
Critical_ROB_Stalls_Percent_7_Bucket_1: 86921
Non-critical_ROB_Stalls_Percent_7_Bucket_1: 318678
Critical_ROB_Stalls_Percent_7_Bucket_2: 44094
Non-critical_ROB_Stalls_Percent_7_Bucket_2: 93273
Critical_ROB_Stalls_Percent_7_Bucket_3: 71124
Non-critical_ROB_Stalls_Percent_7_Bucket_3: 168707
Critical_ROB_Stalls_Percent_7_Bucket_4: 77518
Non-critical_ROB_Stalls_Percent_7_Bucket_4: 165605
Critical_ROB_Stalls_Percent_7_Bucket_5: 94819
Non-critical_ROB_Stalls_Percent_7_Bucket_5: 190792
Critical_ROB_Stalls_Percent_7_Bucket_6: 117156
Non-critical_ROB_Stalls_Percent_7_Bucket_6: 1606650
Critical_ROB_Stalls_Percent_8_Bucket_0: 431814
Non-critical_ROB_Stalls_Percent_8_Bucket_0: 1639042
Critical_ROB_Stalls_Percent_8_Bucket_1: 86921
Non-critical_ROB_Stalls_Percent_8_Bucket_1: 318678
Critical_ROB_Stalls_Percent_8_Bucket_2: 44094
Non-critical_ROB_Stalls_Percent_8_Bucket_2: 93273
Critical_ROB_Stalls_Percent_8_Bucket_3: 71124
Non-critical_ROB_Stalls_Percent_8_Bucket_3: 168707
Critical_ROB_Stalls_Percent_8_Bucket_4: 77518
Non-critical_ROB_Stalls_Percent_8_Bucket_4: 165605
Critical_ROB_Stalls_Percent_8_Bucket_5: 94819
Non-critical_ROB_Stalls_Percent_8_Bucket_5: 190792
Critical_ROB_Stalls_Percent_8_Bucket_6: 117156
Non-critical_ROB_Stalls_Percent_8_Bucket_6: 1606650
Average ROB occupancy Load Stall Begin: 161.858
Average ROB occupancy Load Stall End: 173.906
Min ROB occupancy Load Stall Begin: 2
Max ROB occupancy Load Stall Begin: 352
Min ROB occupancy Load Stall End: 2
Max ROB occupancy Load Stall End: 352
Average ROB occupancy Critical Load Stall Begin: 140.156
Average ROB occupancy Critical Load Stall End: 146.229
Min ROB occupancy Critical Load Stall Begin: 25
Max ROB occupancy Critical Load Stall Begin: 352
Min ROB occupancy Critical Load Stall End: 25
Max ROB occupancy Critical Load Stall End: 352
 ROB Load Stall Begin Bucket Count 0: 2347634
 ROB Load Stall End Bucket Count 0: 2070856
 ROB Critical Load Stall Begin Bucket Count 0: 120453
 ROB Critical Load Stall End Bucket Count 0: 93463
 ROB Load Stall Begin Bucket Count 1: 237429
 ROB Load Stall End Bucket Count 1: 405599
 ROB Critical Load Stall Begin Bucket Count 1: 10805
 ROB Critical Load Stall End Bucket Count 1: 37196
 ROB Load Stall Begin Bucket Count 2: 165207
 ROB Load Stall End Bucket Count 2: 137367
 ROB Critical Load Stall Begin Bucket Count 2: 7721
 ROB Critical Load Stall End Bucket Count 2: 7302
 ROB Load Stall Begin Bucket Count 3: 268284
 ROB Load Stall End Bucket Count 3: 239831
 ROB Critical Load Stall Begin Bucket Count 3: 17106
 ROB Critical Load Stall End Bucket Count 3: 12435
 ROB Load Stall Begin Bucket Count 4: 204660
 ROB Load Stall End Bucket Count 4: 243123
 ROB Critical Load Stall Begin Bucket Count 4: 9543
 ROB Critical Load Stall End Bucket Count 4: 14188
 ROB Load Stall Begin Bucket Count 5: 365127
 ROB Load Stall End Bucket Count 5: 285611
 ROB Critical Load Stall Begin Bucket Count 5: 10853
 ROB Critical Load Stall End Bucket Count 5: 7234
 ROB Load Stall Begin Bucket Count 6: 1517852
 ROB Load Stall End Bucket Count 6: 1723806
 ROB Critical Load Stall Begin Bucket Count 6: 54571
 ROB Critical Load Stall End Bucket Count 6: 59234
PIST Tag Read Accesses: 0
PIST Read Accesses: 0
PIST Tag Write Accesses: 0
PIST Write Accesses: 0
Criticality detector called times: 0
Max global_stall_cycles_count: 0
Threshold Modified: 0 times, factor: 0
Sturdy critical IP cache stats: 
 Unused entries: 0
CIC Tag Read Accesses: 0
CIC Read Accesses: 0
CIC Tag Write Accesses: 0
CIC Write Accesses: 0
Wobbly critical IP cache stats: 
 Unused entries: 27
CIC Tag Read Accesses: 390446631
CIC Read Accesses: 0
CIC Tag Write Accesses: 2542274
CIC Write Accesses: 0
ITLB TOTAL     ACCESS:   13777378  HIT:   13777378  MISS:          0  HIT %:        100  MISS %:          0   MPKI: 0
ITLB LOAD TRANSLATION ACCESS:   13777378  HIT:   13777378  MISS:          0  HIT %:        100  MISS %:          0   MPKI: 0
ITLB PREFETCH  REQUESTED:          0  ISSUED:          0  USEFUL:          0  USELESS:          0
ITLB USEFUL LOAD PREFETCHES:          0 PREFETCH ISSUED TO LOWER LEVEL:          0  ACCURACY: -nan
ITLB TIMELY PREFETCHES:          0 LATE PREFETCHES: 0 DROPPED PREFETCHES: 0
ITLB PREFETCHES SAME FILL-ORIGIN LEVEL: 0 DIFFERENT FILL-ORIGIN LEVEL: 0
ITLB AVERAGE MISS LATENCY: -nan cycles
ITLB RQ	ACCESS:   18211489	FORWARD:          0	MERGED:    4434112	TO_CACHE:   13777377

DTLB TOTAL     ACCESS:   28749503  HIT:   28593426  MISS:     156077  HIT %:    99.4571  MISS %:   0.542886   MPKI: 1.56077
DTLB LOAD TRANSLATION ACCESS:   28749503  HIT:   28593426  MISS:     156077  HIT %:    99.4571  MISS %:   0.542886   MPKI: 1.56077
DTLB PREFETCH  REQUESTED:          0  ISSUED:          0  USEFUL:          0  USELESS:          0
DTLB USEFUL LOAD PREFETCHES:          0 PREFETCH ISSUED TO LOWER LEVEL:          0  ACCURACY: -nan
DTLB TIMELY PREFETCHES:          0 LATE PREFETCHES: 0 DROPPED PREFETCHES: 0
DTLB PREFETCHES SAME FILL-ORIGIN LEVEL: 0 DIFFERENT FILL-ORIGIN LEVEL: 0
DTLB AVERAGE MISS LATENCY: 99.9936 cycles
DTLB RQ	ACCESS:   34855830	FORWARD:          0	MERGED:    6066829	TO_CACHE:   28789001

STLB TOTAL     ACCESS:     173645  HIT:     143958  MISS:      29687  HIT %:    82.9036  MISS %:    17.0964   MPKI: 0.29687
STLB LOAD TRANSLATION ACCESS:     156077  HIT:     126390  MISS:      29687  HIT %:    80.9793  MISS %:    19.0207   MPKI: 0.29687
STLB TRANSLATION FROM L1D PREFETCHER ACCESS:      17568  HIT:      17568  MISS:          0  HIT %:        100  MISS %:          0   MPKI: 0
STLB PREFETCH  REQUESTED:          0  ISSUED:          0  USEFUL:          0  USELESS:          0
STLB USEFUL LOAD PREFETCHES:          0 PREFETCH ISSUED TO LOWER LEVEL:          0  ACCURACY: -nan
STLB TIMELY PREFETCHES:          0 LATE PREFETCHES: 0 DROPPED PREFETCHES: 0
STLB PREFETCHES SAME FILL-ORIGIN LEVEL: 0 DIFFERENT FILL-ORIGIN LEVEL: 0
STLB AVERAGE MISS LATENCY: 460.579 cycles
STLB RQ	ACCESS:     176948	FORWARD:          0	MERGED:       3303	TO_CACHE:     173645

STLB Hit, L1D data hit: 0
STLB Hit, L2C data hit: 0
STLB Hit, LLC data hit: 0
STLB Hit, LLC data miss: 0
STLB STLB hints to L2: 0
L1D TOTAL     ACCESS:   34261159  HIT:   32261501  MISS:    1999658  HIT %:    94.1635  MISS %:    5.83652   MPKI: 19.9966
L1D LOAD      ACCESS:   28644660  HIT:   26714107  MISS:    1930553  HIT %:    93.2603  MISS %:    6.73966   MPKI: 19.3055
L1D RFO       ACCESS:    5595636  HIT:    5546912  MISS:      48724  HIT %:    99.1293  MISS %:    0.87075   MPKI: 0.48724
L1D PREFETCH  ACCESS:      20863  HIT:        482  MISS:      20381  HIT %:    2.31031  MISS %:    97.6897   MPKI: 0.20381
L1D PREFETCH  REQUESTED:      41756  ISSUED:      41742  USEFUL:      19898  USELESS:        539
L1D USEFUL LOAD PREFETCHES:      19898 PREFETCH ISSUED TO LOWER LEVEL:      20381  ACCURACY: 97.6301
L1D TIMELY PREFETCHES:      19898 LATE PREFETCHES: 0 DROPPED PREFETCHES: 0
L1D PREFETCHES SAME FILL-ORIGIN LEVEL: 20381 DIFFERENT FILL-ORIGIN LEVEL: 0
L1D AVERAGE MISS LATENCY: 308.18 cycles
L1D RQ	ACCESS:   42168793	FORWARD:          0	MERGED:   12787168	TO_CACHE:   29222485
L1D WQ	ACCESS:    5633399	FORWARD:     159140	MERGED:         54	TO_CACHE:    5633345
L1D PQ	ACCESS:      20871	FORWARD:          0	MERGED:          0	TO_CACHE:      20871

L1D UNIQUE REGIONS ACCESSED: 0
L1D REGIONS CONFLICTS: 0
L1D Cross Page Prefetch Requests: 0
L1D Same Page Prefetch Requests: 12904144
L1D ROI Sum of L1D PQ occupancy: 314337
L1D PREFETCHES PUSHED FROM L2C: 0
L1I TOTAL     ACCESS:   18211488  HIT:   18211488  MISS:          0  HIT %:        100  MISS %:          0   MPKI: 0
L1I LOAD      ACCESS:   18211488  HIT:   18211488  MISS:          0  HIT %:        100  MISS %:          0   MPKI: 0
L1I PREFETCH  REQUESTED:          0  ISSUED:          0  USEFUL:          0  USELESS:          0
L1I USEFUL LOAD PREFETCHES:          0 PREFETCH ISSUED TO LOWER LEVEL:          0  ACCURACY: -nan
L1I TIMELY PREFETCHES:          0 LATE PREFETCHES: 0 DROPPED PREFETCHES: 0
L1I PREFETCHES SAME FILL-ORIGIN LEVEL: 0 DIFFERENT FILL-ORIGIN LEVEL: 0
L1I AVERAGE MISS LATENCY: -nan cycles
L1I RQ	ACCESS:   24393661	FORWARD:          0	MERGED:    6182172	TO_CACHE:   18211489

BTB TOTAL     ACCESS:    2417447  HIT:    2417442  MISS:          5  HIT %:    99.9998  MISS %: 0.00020683   MPKI: 5e-05
BTB BRANCH_DIRECT_JUMP	ACCESS:          0  HIT:          0  MISS:          0
BTB BRANCH_INDIRECT	ACCESS:          0  HIT:          0  MISS:          0
BTB BRANCH_CONDITIONAL	ACCESS:    2417447  HIT:    2417442  MISS:          5
BTB BRANCH_DIRECT_CALL	ACCESS:          0  HIT:          0  MISS:          0
BTB BRANCH_INDIRECT_CALL	ACCESS:          0  HIT:          0  MISS:          0
BTB BRANCH_RETURN	ACCESS:          0  HIT:          0  MISS:          0
BTB BRANCH_OTHER ACCESS:          0  HIT:          0  MISS:          0

L2C TOTAL     ACCESS:    2172346  HIT:     268414  MISS:    1903932  HIT %:     12.356  MISS %:     87.644   MPKI: 19.0393
L2C LOAD      ACCESS:    1930553  HIT:      79248  MISS:    1851305  HIT %:    4.10494  MISS %:    95.8951   MPKI: 18.513
L2C DATA LOAD MPKI: 18.513
L2C INSTRUCTION LOAD MPKI: 0
L2C RFO       ACCESS:      48724  HIT:          0  MISS:      48724  HIT %:          0  MISS %:        100   MPKI: 0.48724
L2C PREFETCH  ACCESS:     113918  HIT:     113788  MISS:        130  HIT %:    99.8859  MISS %:   0.114117   MPKI: 0.0013
L2C DATA PREFETCH MPKI: 0.0013
L2C INSTRUCTION PREFETCH MPKI: 0
L2C WRITEBACK ACCESS:      49462  HIT:      49461  MISS:          1  HIT %:     99.998  MISS %: 0.00202175   MPKI: 1e-05
L2C LOAD TRANSLATION ACCESS:      29689  HIT:      25917  MISS:       3772  HIT %:     87.295  MISS %:     12.705   MPKI: 0.03772
L2C PREFETCH  REQUESTED:     100837  ISSUED:     100837  USEFUL:        312  USELESS:       7554
L2C USEFUL LOAD PREFETCHES:        312 PREFETCH ISSUED TO LOWER LEVEL:        130  ACCURACY: 240
L2C TIMELY PREFETCHES:        312 LATE PREFETCHES: 0 DROPPED PREFETCHES: 0
L2C PREFETCHES SAME FILL-ORIGIN LEVEL: 117 DIFFERENT FILL-ORIGIN LEVEL: 0
L2C AVERAGE MISS LATENCY: 306.261 cycles
L2C RQ	ACCESS:    2008966	FORWARD:          0	MERGED:          0	TO_CACHE:    2008966
L2C WQ	ACCESS:      49462	FORWARD:          0	MERGED:          0	TO_CACHE:      49462
L2C PQ	ACCESS:     121218	FORWARD:          0	MERGED:       7300	TO_CACHE:     113918

L2C Instructions Evicting Data 0
L2C Translations Evicting Data 3771
L2C Data Evicting Data 1896420
L2C Instructions Evicting Instructions 0
L2C Translations Evicting Instructions 0
L2C Data Evicting Instructions 0
L2C Instructions Evicting Translations 0
L2C Translations Evicting Translations 1
L2C Data Evicting Translations 3739
L2C Dense regions hint from L2: 0
PSCL5 TOTAL     ACCESS:      29687  HIT:      29687  MISS:          0  HIT %:        100  MISS %:          0   MPKI: 0
PSCL5 LOAD TRANSLATION ACCESS:      29687  HIT:      29687  MISS:          0  HIT %:        100  MISS %:          0   MPKI: 0
PSCL5 PREFETCH  REQUESTED:          0  ISSUED:          0  USEFUL:          0  USELESS:          0
PSCL5 USEFUL LOAD PREFETCHES:          0 PREFETCH ISSUED TO LOWER LEVEL:          0  ACCURACY: -nan
PSCL5 TIMELY PREFETCHES:          0 LATE PREFETCHES: 0 DROPPED PREFETCHES: 0
PSCL5 PREFETCHES SAME FILL-ORIGIN LEVEL: 0 DIFFERENT FILL-ORIGIN LEVEL: 0

PSCL4 TOTAL     ACCESS:      29687  HIT:      29687  MISS:          0  HIT %:        100  MISS %:          0   MPKI: 0
PSCL4 LOAD TRANSLATION ACCESS:      29687  HIT:      29687  MISS:          0  HIT %:        100  MISS %:          0   MPKI: 0
PSCL4 PREFETCH  REQUESTED:          0  ISSUED:          0  USEFUL:          0  USELESS:          0
PSCL4 USEFUL LOAD PREFETCHES:          0 PREFETCH ISSUED TO LOWER LEVEL:          0  ACCURACY: -nan
PSCL4 TIMELY PREFETCHES:          0 LATE PREFETCHES: 0 DROPPED PREFETCHES: 0
PSCL4 PREFETCHES SAME FILL-ORIGIN LEVEL: 0 DIFFERENT FILL-ORIGIN LEVEL: 0

PSCL3 TOTAL     ACCESS:      29687  HIT:      29687  MISS:          0  HIT %:        100  MISS %:          0   MPKI: 0
PSCL3 LOAD TRANSLATION ACCESS:      29687  HIT:      29687  MISS:          0  HIT %:        100  MISS %:          0   MPKI: 0
PSCL3 PREFETCH  REQUESTED:          0  ISSUED:          0  USEFUL:          0  USELESS:          0
PSCL3 USEFUL LOAD PREFETCHES:          0 PREFETCH ISSUED TO LOWER LEVEL:          0  ACCURACY: -nan
PSCL3 TIMELY PREFETCHES:          0 LATE PREFETCHES: 0 DROPPED PREFETCHES: 0
PSCL3 PREFETCHES SAME FILL-ORIGIN LEVEL: 0 DIFFERENT FILL-ORIGIN LEVEL: 0

PSCL2 TOTAL     ACCESS:      29687  HIT:      29628  MISS:         59  HIT %:    99.8013  MISS %:    0.19874   MPKI: 0.00059
PSCL2 LOAD TRANSLATION ACCESS:      29687  HIT:      29628  MISS:         59  HIT %:    99.8013  MISS %:    0.19874   MPKI: 0.00059
PSCL2 PREFETCH  REQUESTED:          0  ISSUED:          0  USEFUL:          0  USELESS:          0
PSCL2 USEFUL LOAD PREFETCHES:          0 PREFETCH ISSUED TO LOWER LEVEL:          0  ACCURACY: -nan
PSCL2 TIMELY PREFETCHES:          0 LATE PREFETCHES: 0 DROPPED PREFETCHES: 0
PSCL2 PREFETCHES SAME FILL-ORIGIN LEVEL: 0 DIFFERENT FILL-ORIGIN LEVEL: 0

LLC TOTAL     ACCESS:    1952369  HIT:      47707  MISS:    1904662  HIT %:    2.44354  MISS %:    97.5565   MPKI: 19.0466
LLC LOAD      ACCESS:    1851305  HIT:         90  MISS:    1851215  HIT %: 0.00486144  MISS %:    99.9951   MPKI: 18.5121
LLC RFO       ACCESS:      48724  HIT:          0  MISS:      48724  HIT %:          0  MISS %:        100   MPKI: 0.48724
LLC PREFETCH  ACCESS:        130  HIT:          0  MISS:        130  HIT %:          0  MISS %:        100   MPKI: 0.0013
LLC WRITEBACK ACCESS:      48438  HIT:      47616  MISS:        822  HIT %:     98.303  MISS %:    1.69701   MPKI: 0.00822
LLC LOAD TRANSLATION ACCESS:       3772  HIT:          1  MISS:       3771  HIT %:  0.0265111  MISS %:    99.9735   MPKI: 0.03771
LLC PREFETCH  REQUESTED:          0  ISSUED:          0  USEFUL:         16  USELESS:      30830
LLC USEFUL LOAD PREFETCHES:         16 PREFETCH ISSUED TO LOWER LEVEL:        130  ACCURACY: 12.3077
LLC TIMELY PREFETCHES:         16 LATE PREFETCHES: 0 DROPPED PREFETCHES: 0
LLC PREFETCHES SAME FILL-ORIGIN LEVEL: 0 DIFFERENT FILL-ORIGIN LEVEL: 0
LLC AVERAGE MISS LATENCY: 275.454 cycles
LLC RQ	ACCESS:    1903801	FORWARD:          0	MERGED:          0	TO_CACHE:    1903801
LLC WQ	ACCESS:      48438	FORWARD:          0	MERGED:          0	TO_CACHE:      48438
LLC PQ	ACCESS:        130	FORWARD:          0	MERGED:          0	TO_CACHE:        130

LLC Dense regions hint to LLC: 0

RAW hits: 811279
Loads Generated: 42980073
Loads sent to L1D: 42168793
Stores Generated: 5633399
Stores sent to L1D: 5633399
Major fault: 0 Minor fault: 42651
Allocated PAGES: 42651

stream: 
stream:times selected: 5064374
stream:pref_filled: 950774
stream:pref_useful: 950658
stream:pref_late: 1187
stream:misses: 510
stream:misses_by_poll: 0

CS: 
CS:times selected: 3646090
CS:pref_filled: 4451
CS:pref_useful: 4451
CS:pref_late: 36
CS:misses: 11616
CS:misses_by_poll: 0

CPLX: 
CPLX:times selected: 1418093
CPLX:pref_filled: 16303
CPLX:pref_useful: 13734
CPLX:pref_late: 25
CPLX:misses: 5131
CPLX:misses_by_poll: 0

NL_L1: 
NL:times selected: 1919
NL:pref_filled: 78
NL:pref_useful: 78
NL:pref_late: 2
NL:misses: 20
NL:misses_by_poll: 0

total selections: 10130476
total_filled: 20381
total_useful: 19898
total_late: 1252
total_polluted: 0
total_misses_after_warmup: 545
conflicts: 1
Degree Incremented Times: 116898
Degree Decremented Times: 0

L1 IP Table Write Accesses: 1667259
L1 IP Table Read Accesses: 1667258
L1 RST Write Accesses: 95791
L1 RST Read Accesses: 191582
L1 CSPT Write Accesses: 95791
L1 CSPT Read Accesses: 113767
L1 RR Filter Tag Write Accesses: 20885
L1 RR Filter Tag Read Accesses: 22945140
L1 IP Table Tag Write Accesses: 1667259
L1 IP Table Tag Read Accesses: 1667259
L1 RST Tag Write Accesses: 0
L1 RST Tag Read Accesses: 860923
L1 RR Filter Write Accesses: 0
L1 RR Filter Read Accesses: 818192
test: 102516
L2 IP Table Read Accesses: 37370
L2 IP Table Write Accesses: 36841
L2 IP Table Tag Read Accesses: 18685
L2 IP Table Tag Write Accesses: 18685

DRAM Statistics
 CHANNEL 0
 RQ ROW_BUFFER_HIT:    1441759  ROW_BUFFER_MISS:     462081
 DBUS_CONGESTED:         36
 WQ ROW_BUFFER_HIT:       7123  ROW_BUFFER_MISS:      41336  FULL:          0

 AVG_CONGESTED_CYCLE: 6
 All warmup complete: 2
Channel 0 Bank busy for read cycles: 0
Channel 0 Bank busy for write cycles: 0
Channel 0
Rank 0
0banks busy for read cycles: 58207462
0banks busy for write cycles: 27796
1banks busy for read cycles: 48973026
1banks busy for write cycles: 3336728
2banks busy for read cycles: 23028846
2banks busy for write cycles: 1299865
3banks busy for read cycles: 12279851
3banks busy for write cycles: 788112
4banks busy for read cycles: 2124974
4banks busy for write cycles: 22474
5banks busy for read cycles: 204977
5banks busy for write cycles: 131
6banks busy for read cycles: 434
6banks busy for write cycles: 0
7banks busy for read cycles: 422
7banks busy for write cycles: 0
8banks busy for read cycles: 132
8banks busy for write cycles: 0

CPU 0 Branch Prediction Accuracy: 99.9707% MPKI: 0.00732 Average ROB Occupancy at Mispredict: 170.593
Branch types
NOT_BRANCH: 97503533 97.5035%
BRANCH_DIRECT_JUMP: 0 0%
BRANCH_INDIRECT: 0 0%
BRANCH_CONDITIONAL: 2496132 2.49613%
BRANCH_DIRECT_CALL: 0 0%
BRANCH_INDIRECT_CALL: 0 0%
BRANCH_RETURN: 0 0%
BRANCH_OTHER: 0 0%

DRAM PAGES: 1048576
Allocated PAGES: 42651
