Initialize SIGNATURE TABLE
ST_SET: 1
ST_WAY: 256
ST_TAG_BIT: 16
ST_TAG_MASK: ffff

Initialize PATTERN TABLE
PT_SET: 512
PT_WAY: 4
SIG_DELTA_BIT: 7
C_SIG_BIT: 4
C_DELTA_BIT: 4

Initialize PREFETCH FILTER
FILTER_SET: 1024

*** ChampSim Multicore Out-of-Order Simulator ***

Warmup Instructions: 50000000
Simulation Instructions: 100000000
Number of CPUs: 1
LLC sets: 2048
LLC ways: 16
Off-chip DRAM Size: 4096 MB Channels: 1 Width: 64-bit Data Rate: 6400 MT/s
CPU 0 runs ../SPEC2017//603.bwaves_s-2931B.champsimtrace.xz
.xz
NUM_OF_IPS_IN_CRITICAL_IP_TRAINING: 64
NUM_OF_CRITICAL_IP_TRAINING_TABLE_WAYS: 2
NUM_OF_CRITICAL_IP_TRAINING_TABLE_SETS: 32
WOBBLY_CRITICAL_IP_CACHE_SETS: 32
WOBBLY_CRITICAL_IP_CACHE_WAYS: 4
BTB has LRU replacement policy
ITLB has LRU replacement policy
DTLB has LRU replacement policy
STLB has LRU replacement policy
L1I has LRU replacement policy
L1D has LRU replacement policy
Initialize SRRIP state for L2C
Initialize DRRIP state for LLC
Heartbeat CPU 0 instructions: 10000003 cycles: 2951981 heartbeat IPC: 3.38756 cumulative IPC: 3.38756 (Simulation time: 0 hr 5 min 31 sec) 
Heartbeat CPU 0 instructions: 20000003 cycles: 5903591 heartbeat IPC: 3.38798 cumulative IPC: 3.38777 (Simulation time: 0 hr 10 min 28 sec) 
Heartbeat CPU 0 instructions: 30000003 cycles: 8855220 heartbeat IPC: 3.38796 cumulative IPC: 3.38783 (Simulation time: 0 hr 14 min 40 sec) 
Heartbeat CPU 0 instructions: 40000002 cycles: 11806867 heartbeat IPC: 3.38794 cumulative IPC: 3.38786 (Simulation time: 0 hr 18 min 24 sec) 
Heartbeat CPU 0 instructions: 50000003 cycles: 14758622 heartbeat IPC: 3.38782 cumulative IPC: 3.38785 (Simulation time: 0 hr 21 min 56 sec) 

Warmup complete CPU 0 instructions: 50000003 cycles: 14758622 (Simulation time: 0 hr 21 min 56 sec) 

Heartbeat CPU 0 instructions: 60000000 cycles: 23158737 heartbeat IPC: 1.19046 cumulative IPC: 1.19046 (Simulation time: 0 hr 26 min 9 sec) 
Heartbeat CPU 0 instructions: 70000002 cycles: 31524355 heartbeat IPC: 1.19537 cumulative IPC: 1.19291 (Simulation time: 0 hr 29 min 53 sec) 
Heartbeat CPU 0 instructions: 80000003 cycles: 39881035 heartbeat IPC: 1.19665 cumulative IPC: 1.19415 (Simulation time: 0 hr 33 min 21 sec) 
Heartbeat CPU 0 instructions: 90000003 cycles: 48238335 heartbeat IPC: 1.19656 cumulative IPC: 1.19475 (Simulation time: 0 hr 36 min 48 sec) 
Heartbeat CPU 0 instructions: 100000002 cycles: 56596337 heartbeat IPC: 1.19646 cumulative IPC: 1.19509 (Simulation time: 0 hr 40 min 1 sec) 
Heartbeat CPU 0 instructions: 110000000 cycles: 64957107 heartbeat IPC: 1.19606 cumulative IPC: 1.19526 (Simulation time: 0 hr 42 min 59 sec) 
Heartbeat CPU 0 instructions: 120000000 cycles: 73323884 heartbeat IPC: 1.1952 cumulative IPC: 1.19525 (Simulation time: 0 hr 45 min 43 sec) 
Heartbeat CPU 0 instructions: 130000000 cycles: 81691759 heartbeat IPC: 1.19505 cumulative IPC: 1.19522 (Simulation time: 0 hr 48 min 22 sec) 
Heartbeat CPU 0 instructions: 140000002 cycles: 90058885 heartbeat IPC: 1.19515 cumulative IPC: 1.19521 (Simulation time: 0 hr 50 min 56 sec) 
Heartbeat CPU 0 instructions: 150000003 cycles: 98423925 heartbeat IPC: 1.19545 cumulative IPC: 1.19524 (Simulation time: 0 hr 56 min 9 sec) 
Finished CPU 0 instructions: 100000000 cycles: 83665303 cumulative IPC: 1.19524 (Simulation time: 0 hr 56 min 9 sec) 

ChampSim completed all CPUs

Region of Interest Statistics

CPU 0 cumulative IPC: 1.19524 instructions: 100000000 cycles: 83665303

CPU 0 Average Load ROB stall cycles: 1.55101e+07
CPU 0 Fraction of times ROB stalled by Loads: 27.3804
CPU 0 Percentage of Load stall cycles in Total stall cycles: 2.97011e+08
Issued all: 45531102
Issued LT all: 30769954
rob_not_full_when_issued_lt_all: 29631880
Issued LT one: 27443046
rob_not_full_when_issued_lt_one: 26417823
 Total stall cycles: 60616882
 Total load stall cycles: 180038706464613
CPU 0 NUM of IPS identified critical: 0
CPU 0 Num of Load IPs stalling ROB: 141
Threshold modification factor: 0
Max PIST entries: 58
Min PIST entries: 0
Avg PIST entries: 33.9533
Trouble in retire width: 0.833081
MaC = Marked as critical.
lt_50_percent_before_Mac: 0
gt_90_percent_before_Mac: 0
gt_75_percent_before_Mac: 0
gt_50_percent_before_Mac: 0
stall_proportion_bin_same_before_after: 0
stall_proportion_bin_lower_before_after: 0
stall_proportion_bin_upper_before_after: 0
average_stall_proportion_before: -nan
average_stall_proportion_after: -nan
Critical IP stalls, total frequency: 0
Non-critical IP stalls, total frequency: 3178263
Total Freq all stalling IPs: 3178263
stat_90_percent_critical_ip_stalls_freq: 2873074
stat_90_percent_non_critical_ip_stalls_freq: 305189
Critical_IP_ROB_Stalls_Bucket_0: 0
Non-critical_IP_ROB_Stalls_Bucket_0: 1172576
Critical_IP_ROB_Stalls_Bucket_1: 0
Non-critical_IP_ROB_Stalls_Bucket_1: 1481424
Critical_IP_ROB_Stalls_Bucket_2: 0
Non-critical_IP_ROB_Stalls_Bucket_2: 356437
Critical_IP_ROB_Stalls_Bucket_3: 0
Non-critical_IP_ROB_Stalls_Bucket_3: 56873
Critical_IP_ROB_Stalls_Bucket_4: 0
Non-critical_IP_ROB_Stalls_Bucket_4: 37637
Critical_IP_ROB_Stalls_Bucket_5: 0
Non-critical_IP_ROB_Stalls_Bucket_5: 28782
Critical_IP_ROB_Stalls_Bucket_6: 0
Non-critical_IP_ROB_Stalls_Bucket_6: 44534
0 => IPs accounting for >50 percent of stalls, 1 => 55, 2 => 60, 3 => 65 and so on till 90.
percent50: 56.5289 num IPs:  4
percent55: 56.5289 num IPs: 4
percent60: 61.9592 num IPs: 5
percent65: 65.9843 num IPs: 6
percent70: 72.9614 num IPs: 8
percent75: 75.914 num IPs: 9
percent80: 80.297 num IPs: 11
percent85: 85.581 num IPs: 15
percent90: 90.3976 num IPs: 21
Critical_ROB_Stalls_Percent_0_Bucket_0: 453147
Non-critical_ROB_Stalls_Percent_0_Bucket_0: 719429
Critical_ROB_Stalls_Percent_0_Bucket_1: 1057681
Non-critical_ROB_Stalls_Percent_0_Bucket_1: 423743
Critical_ROB_Stalls_Percent_0_Bucket_2: 200182
Non-critical_ROB_Stalls_Percent_0_Bucket_2: 156255
Critical_ROB_Stalls_Percent_0_Bucket_3: 28637
Non-critical_ROB_Stalls_Percent_0_Bucket_3: 28236
Critical_ROB_Stalls_Percent_0_Bucket_4: 22263
Non-critical_ROB_Stalls_Percent_0_Bucket_4: 15374
Critical_ROB_Stalls_Percent_0_Bucket_5: 15321
Non-critical_ROB_Stalls_Percent_0_Bucket_5: 13461
Critical_ROB_Stalls_Percent_0_Bucket_6: 19406
Non-critical_ROB_Stalls_Percent_0_Bucket_6: 25128
Critical_ROB_Stalls_Percent_1_Bucket_0: 453147
Non-critical_ROB_Stalls_Percent_1_Bucket_0: 719429
Critical_ROB_Stalls_Percent_1_Bucket_1: 1057681
Non-critical_ROB_Stalls_Percent_1_Bucket_1: 423743
Critical_ROB_Stalls_Percent_1_Bucket_2: 200182
Non-critical_ROB_Stalls_Percent_1_Bucket_2: 156255
Critical_ROB_Stalls_Percent_1_Bucket_3: 28637
Non-critical_ROB_Stalls_Percent_1_Bucket_3: 28236
Critical_ROB_Stalls_Percent_1_Bucket_4: 22263
Non-critical_ROB_Stalls_Percent_1_Bucket_4: 15374
Critical_ROB_Stalls_Percent_1_Bucket_5: 15321
Non-critical_ROB_Stalls_Percent_1_Bucket_5: 13461
Critical_ROB_Stalls_Percent_1_Bucket_6: 19406
Non-critical_ROB_Stalls_Percent_1_Bucket_6: 25128
Critical_ROB_Stalls_Percent_2_Bucket_0: 587626
Non-critical_ROB_Stalls_Percent_2_Bucket_0: 584950
Critical_ROB_Stalls_Percent_2_Bucket_1: 1080403
Non-critical_ROB_Stalls_Percent_2_Bucket_1: 401021
Critical_ROB_Stalls_Percent_2_Bucket_2: 210661
Non-critical_ROB_Stalls_Percent_2_Bucket_2: 145776
Critical_ROB_Stalls_Percent_2_Bucket_3: 30235
Non-critical_ROB_Stalls_Percent_2_Bucket_3: 26638
Critical_ROB_Stalls_Percent_2_Bucket_4: 23213
Non-critical_ROB_Stalls_Percent_2_Bucket_4: 14424
Critical_ROB_Stalls_Percent_2_Bucket_5: 15860
Non-critical_ROB_Stalls_Percent_2_Bucket_5: 12922
Critical_ROB_Stalls_Percent_2_Bucket_6: 21229
Non-critical_ROB_Stalls_Percent_2_Bucket_6: 23305
Critical_ROB_Stalls_Percent_3_Bucket_0: 704848
Non-critical_ROB_Stalls_Percent_3_Bucket_0: 467728
Critical_ROB_Stalls_Percent_3_Bucket_1: 1089072
Non-critical_ROB_Stalls_Percent_3_Bucket_1: 392352
Critical_ROB_Stalls_Percent_3_Bucket_2: 211644
Non-critical_ROB_Stalls_Percent_3_Bucket_2: 144793
Critical_ROB_Stalls_Percent_3_Bucket_3: 30610
Non-critical_ROB_Stalls_Percent_3_Bucket_3: 26263
Critical_ROB_Stalls_Percent_3_Bucket_4: 23559
Non-critical_ROB_Stalls_Percent_3_Bucket_4: 14078
Critical_ROB_Stalls_Percent_3_Bucket_5: 16003
Non-critical_ROB_Stalls_Percent_3_Bucket_5: 12779
Critical_ROB_Stalls_Percent_3_Bucket_6: 21420
Non-critical_ROB_Stalls_Percent_3_Bucket_6: 23114
Critical_ROB_Stalls_Percent_4_Bucket_0: 854803
Non-critical_ROB_Stalls_Percent_4_Bucket_0: 317773
Critical_ROB_Stalls_Percent_4_Bucket_1: 1149429
Non-critical_ROB_Stalls_Percent_4_Bucket_1: 331995
Critical_ROB_Stalls_Percent_4_Bucket_2: 216543
Non-critical_ROB_Stalls_Percent_4_Bucket_2: 139894
Critical_ROB_Stalls_Percent_4_Bucket_3: 32892
Non-critical_ROB_Stalls_Percent_4_Bucket_3: 23981
Critical_ROB_Stalls_Percent_4_Bucket_4: 25057
Non-critical_ROB_Stalls_Percent_4_Bucket_4: 12580
Critical_ROB_Stalls_Percent_4_Bucket_5: 17418
Non-critical_ROB_Stalls_Percent_4_Bucket_5: 11364
Critical_ROB_Stalls_Percent_4_Bucket_6: 22764
Non-critical_ROB_Stalls_Percent_4_Bucket_6: 21770
Critical_ROB_Stalls_Percent_5_Bucket_0: 907801
Non-critical_ROB_Stalls_Percent_5_Bucket_0: 264775
Critical_ROB_Stalls_Percent_5_Bucket_1: 1184305
Non-critical_ROB_Stalls_Percent_5_Bucket_1: 297119
Critical_ROB_Stalls_Percent_5_Bucket_2: 218987
Non-critical_ROB_Stalls_Percent_5_Bucket_2: 137450
Critical_ROB_Stalls_Percent_5_Bucket_3: 33842
Non-critical_ROB_Stalls_Percent_5_Bucket_3: 23031
Critical_ROB_Stalls_Percent_5_Bucket_4: 26138
Non-critical_ROB_Stalls_Percent_5_Bucket_4: 11499
Critical_ROB_Stalls_Percent_5_Bucket_5: 17996
Non-critical_ROB_Stalls_Percent_5_Bucket_5: 10786
Critical_ROB_Stalls_Percent_5_Bucket_6: 23677
Non-critical_ROB_Stalls_Percent_5_Bucket_6: 20857
Critical_ROB_Stalls_Percent_6_Bucket_0: 935129
Non-critical_ROB_Stalls_Percent_6_Bucket_0: 237447
Critical_ROB_Stalls_Percent_6_Bucket_1: 1256230
Non-critical_ROB_Stalls_Percent_6_Bucket_1: 225194
Critical_ROB_Stalls_Percent_6_Bucket_2: 240719
Non-critical_ROB_Stalls_Percent_6_Bucket_2: 115718
Critical_ROB_Stalls_Percent_6_Bucket_3: 40475
Non-critical_ROB_Stalls_Percent_6_Bucket_3: 16398
Critical_ROB_Stalls_Percent_6_Bucket_4: 28692
Non-critical_ROB_Stalls_Percent_6_Bucket_4: 8945
Critical_ROB_Stalls_Percent_6_Bucket_5: 19572
Non-critical_ROB_Stalls_Percent_6_Bucket_5: 9210
Critical_ROB_Stalls_Percent_6_Bucket_6: 31234
Non-critical_ROB_Stalls_Percent_6_Bucket_6: 13300
Critical_ROB_Stalls_Percent_7_Bucket_0: 979456
Non-critical_ROB_Stalls_Percent_7_Bucket_0: 193120
Critical_ROB_Stalls_Percent_7_Bucket_1: 1299611
Non-critical_ROB_Stalls_Percent_7_Bucket_1: 181813
Critical_ROB_Stalls_Percent_7_Bucket_2: 301320
Non-critical_ROB_Stalls_Percent_7_Bucket_2: 55117
Critical_ROB_Stalls_Percent_7_Bucket_3: 47759
Non-critical_ROB_Stalls_Percent_7_Bucket_3: 9114
Critical_ROB_Stalls_Percent_7_Bucket_4: 31117
Non-critical_ROB_Stalls_Percent_7_Bucket_4: 6520
Critical_ROB_Stalls_Percent_7_Bucket_5: 23437
Non-critical_ROB_Stalls_Percent_7_Bucket_5: 5345
Critical_ROB_Stalls_Percent_7_Bucket_6: 37289
Non-critical_ROB_Stalls_Percent_7_Bucket_6: 7245
Critical_ROB_Stalls_Percent_8_Bucket_0: 1055224
Non-critical_ROB_Stalls_Percent_8_Bucket_0: 117352
Critical_ROB_Stalls_Percent_8_Bucket_1: 1340234
Non-critical_ROB_Stalls_Percent_8_Bucket_1: 141190
Critical_ROB_Stalls_Percent_8_Bucket_2: 326140
Non-critical_ROB_Stalls_Percent_8_Bucket_2: 30297
Critical_ROB_Stalls_Percent_8_Bucket_3: 51521
Non-critical_ROB_Stalls_Percent_8_Bucket_3: 5352
Critical_ROB_Stalls_Percent_8_Bucket_4: 32889
Non-critical_ROB_Stalls_Percent_8_Bucket_4: 4748
Critical_ROB_Stalls_Percent_8_Bucket_5: 25586
Non-critical_ROB_Stalls_Percent_8_Bucket_5: 3196
Critical_ROB_Stalls_Percent_8_Bucket_6: 41480
Non-critical_ROB_Stalls_Percent_8_Bucket_6: 3054
Average ROB occupancy Load Stall Begin: 58.2648
Average ROB occupancy Load Stall End: 72.4869
Min ROB occupancy Load Stall Begin: 2
Max ROB occupancy Load Stall Begin: 352
Min ROB occupancy Load Stall End: 2
Max ROB occupancy Load Stall End: 352
Average ROB occupancy Critical Load Stall Begin: -nan
Average ROB occupancy Critical Load Stall End: -nan
Min ROB occupancy Critical Load Stall Begin: 400
Max ROB occupancy Critical Load Stall Begin: 0
Min ROB occupancy Critical Load Stall End: 400
Max ROB occupancy Critical Load Stall End: 0
 ROB Load Stall Begin Bucket Count 0: 1849385
 ROB Load Stall End Bucket Count 0: 1172576
 ROB Critical Load Stall Begin Bucket Count 0: 0
 ROB Critical Load Stall End Bucket Count 0: 0
 ROB Load Stall Begin Bucket Count 1: 1015469
 ROB Load Stall End Bucket Count 1: 1481424
 ROB Critical Load Stall Begin Bucket Count 1: 0
 ROB Critical Load Stall End Bucket Count 1: 0
 ROB Load Stall Begin Bucket Count 2: 184275
 ROB Load Stall End Bucket Count 2: 356437
 ROB Critical Load Stall Begin Bucket Count 2: 0
 ROB Critical Load Stall End Bucket Count 2: 0
 ROB Load Stall Begin Bucket Count 3: 43249
 ROB Load Stall End Bucket Count 3: 56873
 ROB Critical Load Stall Begin Bucket Count 3: 0
 ROB Critical Load Stall End Bucket Count 3: 0
 ROB Load Stall Begin Bucket Count 4: 33745
 ROB Load Stall End Bucket Count 4: 37637
 ROB Critical Load Stall Begin Bucket Count 4: 0
 ROB Critical Load Stall End Bucket Count 4: 0
 ROB Load Stall Begin Bucket Count 5: 24724
 ROB Load Stall End Bucket Count 5: 28782
 ROB Critical Load Stall Begin Bucket Count 5: 0
 ROB Critical Load Stall End Bucket Count 5: 0
 ROB Load Stall Begin Bucket Count 6: 27416
 ROB Load Stall End Bucket Count 6: 44534
 ROB Critical Load Stall Begin Bucket Count 6: 0
 ROB Critical Load Stall End Bucket Count 6: 0
PIST Tag Read Accesses: 289468
PIST Read Accesses: 144734
PIST Tag Write Accesses: 289468
PIST Write Accesses: 144734
Criticality detector called times: 599243
Max global_stall_cycles_count: 626675
Threshold Modified: 0 times, factor: 0
Sturdy critical IP cache stats: 
 Unused entries: 0
CIC Tag Read Accesses: 0
CIC Read Accesses: 0
CIC Tag Write Accesses: 0
CIC Write Accesses: 0
Wobbly critical IP cache stats: 
 Unused entries: 109
CIC Tag Read Accesses: 297677868
CIC Read Accesses: 0
CIC Tag Write Accesses: 5222647
CIC Write Accesses: 0
ITLB TOTAL     ACCESS:   12045060  HIT:   12045060  MISS:          0  HIT %:        100  MISS %:          0   MPKI: 0
ITLB LOAD TRANSLATION ACCESS:   12045060  HIT:   12045060  MISS:          0  HIT %:        100  MISS %:          0   MPKI: 0
ITLB PREFETCH  REQUESTED:          0  ISSUED:          0  USEFUL:          0  USELESS:          0
ITLB USEFUL LOAD PREFETCHES:          0 PREFETCH ISSUED TO LOWER LEVEL:          0  ACCURACY: -nan
ITLB TIMELY PREFETCHES:          0 LATE PREFETCHES: 0 DROPPED PREFETCHES: 0
ITLB PREFETCHES SAME FILL-ORIGIN LEVEL: 0 DIFFERENT FILL-ORIGIN LEVEL: 0
ITLB AVERAGE MISS LATENCY: -nan cycles
ITLB RQ	ACCESS:   13925883	FORWARD:          0	MERGED:    1880823	TO_CACHE:   12045060

DTLB TOTAL     ACCESS:   24519995  HIT:   24307611  MISS:     212384  HIT %:    99.1338  MISS %:   0.866167   MPKI: 2.12384
DTLB LOAD TRANSLATION ACCESS:   24519995  HIT:   24307611  MISS:     212384  HIT %:    99.1338  MISS %:   0.866167   MPKI: 2.12384
DTLB PREFETCH  REQUESTED:          0  ISSUED:          0  USEFUL:          0  USELESS:          0
DTLB USEFUL LOAD PREFETCHES:          0 PREFETCH ISSUED TO LOWER LEVEL:          0  ACCURACY: -nan
DTLB TIMELY PREFETCHES:          0 LATE PREFETCHES: 0 DROPPED PREFETCHES: 0
DTLB PREFETCHES SAME FILL-ORIGIN LEVEL: 0 DIFFERENT FILL-ORIGIN LEVEL: 0
DTLB AVERAGE MISS LATENCY: 44.0427 cycles
DTLB RQ	ACCESS:   36919801	FORWARD:          0	MERGED:   12389152	TO_CACHE:   24530649

STLB TOTAL     ACCESS:     212384  HIT:     191080  MISS:      21304  HIT %:    89.9691  MISS %:    10.0309   MPKI: 0.21304
STLB LOAD TRANSLATION ACCESS:     212384  HIT:     191080  MISS:      21304  HIT %:    89.9691  MISS %:    10.0309   MPKI: 0.21304
STLB PREFETCH  REQUESTED:          0  ISSUED:          0  USEFUL:          0  USELESS:          0
STLB USEFUL LOAD PREFETCHES:          0 PREFETCH ISSUED TO LOWER LEVEL:          0  ACCURACY: -nan
STLB TIMELY PREFETCHES:          0 LATE PREFETCHES: 0 DROPPED PREFETCHES: 0
STLB PREFETCHES SAME FILL-ORIGIN LEVEL: 0 DIFFERENT FILL-ORIGIN LEVEL: 0
STLB AVERAGE MISS LATENCY: 342.987 cycles
STLB RQ	ACCESS:     212384	FORWARD:          0	MERGED:          0	TO_CACHE:     212384

STLB Hit, L1D data hit: 0
STLB Hit, L2C data hit: 0
STLB Hit, LLC data hit: 0
STLB Hit, LLC data miss: 0
STLB STLB hints to L2: 0
L1D TOTAL     ACCESS:   34859838  HIT:   33183326  MISS:    1676512  HIT %:    95.1907  MISS %:    4.80929   MPKI: 16.7651
L1D LOAD      ACCESS:   18596820  HIT:   17539709  MISS:    1057111  HIT %:    94.3156  MISS %:    5.68436   MPKI: 10.5711
L1D RFO       ACCESS:   16263018  HIT:   15643617  MISS:     619401  HIT %:    96.1914  MISS %:    3.80865   MPKI: 6.19401
L1D PREFETCH  REQUESTED:          0  ISSUED:          0  USEFUL:          0  USELESS:          0
L1D USEFUL LOAD PREFETCHES:          0 PREFETCH ISSUED TO LOWER LEVEL:          0  ACCURACY: -nan
L1D TIMELY PREFETCHES:          0 LATE PREFETCHES: 0 DROPPED PREFETCHES: 0
L1D PREFETCHES SAME FILL-ORIGIN LEVEL: 0 DIFFERENT FILL-ORIGIN LEVEL: 0
L1D AVERAGE MISS LATENCY: 174.45 cycles
L1D RQ	ACCESS:   28126461	FORWARD:          0	MERGED:    9296363	TO_CACHE:   18610922
L1D WQ	ACCESS:   18324522	FORWARD:     219176	MERGED:      15643	TO_CACHE:   18308879

L1D UNIQUE REGIONS ACCESSED: 0
L1D REGIONS CONFLICTS: 0
L1D Cross Page Prefetch Requests: 0
L1D Same Page Prefetch Requests: 0
L1D ROI Sum of L1D PQ occupancy: 0
L1D PREFETCHES PUSHED FROM L2C: 0
L1I TOTAL     ACCESS:   13925882  HIT:   13925882  MISS:          0  HIT %:        100  MISS %:          0   MPKI: 0
L1I LOAD      ACCESS:   13925882  HIT:   13925882  MISS:          0  HIT %:        100  MISS %:          0   MPKI: 0
L1I PREFETCH  REQUESTED:          0  ISSUED:          0  USEFUL:          0  USELESS:          0
L1I USEFUL LOAD PREFETCHES:          0 PREFETCH ISSUED TO LOWER LEVEL:          0  ACCURACY: -nan
L1I TIMELY PREFETCHES:          0 LATE PREFETCHES: 0 DROPPED PREFETCHES: 0
L1I PREFETCHES SAME FILL-ORIGIN LEVEL: 0 DIFFERENT FILL-ORIGIN LEVEL: 0
L1I AVERAGE MISS LATENCY: -nan cycles
L1I RQ	ACCESS:   20352599	FORWARD:          0	MERGED:    6426716	TO_CACHE:   13925883

BTB TOTAL     ACCESS:     843996  HIT:     843991  MISS:          5  HIT %:    99.9994  MISS %: 0.00059242   MPKI: 5e-05
BTB BRANCH_DIRECT_JUMP	ACCESS:          0  HIT:          0  MISS:          0
BTB BRANCH_INDIRECT	ACCESS:          0  HIT:          0  MISS:          0
BTB BRANCH_CONDITIONAL	ACCESS:     843996  HIT:     843991  MISS:          5
BTB BRANCH_DIRECT_CALL	ACCESS:          0  HIT:          0  MISS:          0
BTB BRANCH_INDIRECT_CALL	ACCESS:          0  HIT:          0  MISS:          0
BTB BRANCH_RETURN	ACCESS:          0  HIT:          0  MISS:          0
BTB BRANCH_OTHER ACCESS:          0  HIT:          0  MISS:          0

L2C TOTAL     ACCESS:    3450387  HIT:    1952511  MISS:    1497876  HIT %:    56.5882  MISS %:    43.4118   MPKI: 14.9788
L2C LOAD      ACCESS:    1056957  HIT:     765095  MISS:     291862  HIT %:    72.3866  MISS %:    27.6134   MPKI: 2.91862
L2C DATA LOAD MPKI: 2.91862
L2C INSTRUCTION LOAD MPKI: 0
L2C RFO       ACCESS:     607395  HIT:      12010  MISS:     595385  HIT %:     1.9773  MISS %:    98.0227   MPKI: 5.95385
L2C PREFETCH  ACCESS:    1137205  HIT:     537344  MISS:     599861  HIT %:    47.2513  MISS %:    52.7487   MPKI: 5.99861
L2C DATA PREFETCH MPKI: 5.99861
L2C INSTRUCTION PREFETCH MPKI: 0
L2C WRITEBACK ACCESS:     627509  HIT:     619853  MISS:       7656  HIT %:    98.7799  MISS %:    1.22006   MPKI: 0.07656
L2C LOAD TRANSLATION ACCESS:      21321  HIT:      18209  MISS:       3112  HIT %:    85.4041  MISS %:    14.5959   MPKI: 0.03112
L2C PREFETCH  REQUESTED:    6496023  ISSUED:    5896823  USEFUL:     598877  USELESS:        976
L2C USEFUL LOAD PREFETCHES:     598877 PREFETCH ISSUED TO LOWER LEVEL:    5358919  ACCURACY: 11.1753
L2C TIMELY PREFETCHES:     598877 LATE PREFETCHES: 2 DROPPED PREFETCHES: 0
L2C PREFETCHES SAME FILL-ORIGIN LEVEL: 599863 DIFFERENT FILL-ORIGIN LEVEL: 4759056
L2C AVERAGE MISS LATENCY: 191.868 cycles
L2C RQ	ACCESS:    1697833	FORWARD:          0	MERGED:          0	TO_CACHE:    1685673
L2C WQ	ACCESS:     627509	FORWARD:      12160	MERGED:          0	TO_CACHE:     627509
L2C PQ	ACCESS:    5896823	FORWARD:          0	MERGED:        461	TO_CACHE:    5896362

L2C Instructions Evicting Data 0
L2C Translations Evicting Data 3108
L2C Data Evicting Data 1484022
L2C Instructions Evicting Instructions 0
L2C Translations Evicting Instructions 0
L2C Data Evicting Instructions 0
L2C Instructions Evicting Translations 0
L2C Translations Evicting Translations 4
L2C Data Evicting Translations 3086
L2C Dense regions hint from L2: 0
PSCL5 TOTAL     ACCESS:      21304  HIT:      21304  MISS:          0  HIT %:        100  MISS %:          0   MPKI: 0
PSCL5 LOAD TRANSLATION ACCESS:      21304  HIT:      21304  MISS:          0  HIT %:        100  MISS %:          0   MPKI: 0
PSCL5 PREFETCH  REQUESTED:          0  ISSUED:          0  USEFUL:          0  USELESS:          0
PSCL5 USEFUL LOAD PREFETCHES:          0 PREFETCH ISSUED TO LOWER LEVEL:          0  ACCURACY: -nan
PSCL5 TIMELY PREFETCHES:          0 LATE PREFETCHES: 0 DROPPED PREFETCHES: 0
PSCL5 PREFETCHES SAME FILL-ORIGIN LEVEL: 0 DIFFERENT FILL-ORIGIN LEVEL: 0

PSCL4 TOTAL     ACCESS:      21304  HIT:      21304  MISS:          0  HIT %:        100  MISS %:          0   MPKI: 0
PSCL4 LOAD TRANSLATION ACCESS:      21304  HIT:      21304  MISS:          0  HIT %:        100  MISS %:          0   MPKI: 0
PSCL4 PREFETCH  REQUESTED:          0  ISSUED:          0  USEFUL:          0  USELESS:          0
PSCL4 USEFUL LOAD PREFETCHES:          0 PREFETCH ISSUED TO LOWER LEVEL:          0  ACCURACY: -nan
PSCL4 TIMELY PREFETCHES:          0 LATE PREFETCHES: 0 DROPPED PREFETCHES: 0
PSCL4 PREFETCHES SAME FILL-ORIGIN LEVEL: 0 DIFFERENT FILL-ORIGIN LEVEL: 0

PSCL3 TOTAL     ACCESS:      17066  HIT:      17054  MISS:         12  HIT %:    99.9297  MISS %:  0.0703152   MPKI: 0.00012
PSCL3 LOAD TRANSLATION ACCESS:      17066  HIT:      17054  MISS:         12  HIT %:    99.9297  MISS %:  0.0703152   MPKI: 0.00012
PSCL3 PREFETCH  REQUESTED:          0  ISSUED:          0  USEFUL:          0  USELESS:          0
PSCL3 USEFUL LOAD PREFETCHES:          0 PREFETCH ISSUED TO LOWER LEVEL:          0  ACCURACY: -nan
PSCL3 TIMELY PREFETCHES:          0 LATE PREFETCHES: 0 DROPPED PREFETCHES: 0
PSCL3 PREFETCHES SAME FILL-ORIGIN LEVEL: 0 DIFFERENT FILL-ORIGIN LEVEL: 0

PSCL2 TOTAL     ACCESS:      21304  HIT:      21262  MISS:         42  HIT %:    99.8029  MISS %:   0.197146   MPKI: 0.00042
PSCL2 LOAD TRANSLATION ACCESS:      21304  HIT:      21262  MISS:         42  HIT %:    99.8029  MISS %:   0.197146   MPKI: 0.00042
PSCL2 PREFETCH  REQUESTED:          0  ISSUED:          0  USEFUL:          0  USELESS:          0
PSCL2 USEFUL LOAD PREFETCHES:          0 PREFETCH ISSUED TO LOWER LEVEL:          0  ACCURACY: -nan
PSCL2 TIMELY PREFETCHES:          0 LATE PREFETCHES: 0 DROPPED PREFETCHES: 0
PSCL2 PREFETCHES SAME FILL-ORIGIN LEVEL: 0 DIFFERENT FILL-ORIGIN LEVEL: 0

LLC TOTAL     ACCESS:    6840418  HIT:    5426328  MISS:    1414090  HIT %:    79.3274  MISS %:    20.6726   MPKI: 14.1409
LLC LOAD      ACCESS:     291860  HIT:     271232  MISS:      20628  HIT %:    92.9322  MISS %:    7.06777   MPKI: 0.20628
LLC RFO       ACCESS:     595385  HIT:          0  MISS:     595385  HIT %:          0  MISS %:        100   MPKI: 5.95385
LLC PREFETCH  ACCESS:    5354252  HIT:    4606205  MISS:     748047  HIT %:    86.0289  MISS %:    13.9711   MPKI: 7.48047
LLC WRITEBACK ACCESS:     595809  HIT:     548499  MISS:      47310  HIT %:    92.0595  MISS %:    7.94046   MPKI: 0.4731
LLC LOAD TRANSLATION ACCESS:       3112  HIT:        392  MISS:       2720  HIT %:    12.5964  MISS %:    87.4036   MPKI: 0.0272
LLC PREFETCH  REQUESTED:          0  ISSUED:          0  USEFUL:     250804  USELESS:     482785
LLC USEFUL LOAD PREFETCHES:     250804 PREFETCH ISSUED TO LOWER LEVEL:     748052  ACCURACY: 33.5276
LLC TIMELY PREFETCHES:     250804 LATE PREFETCHES: 5 DROPPED PREFETCHES: 0
LLC PREFETCHES SAME FILL-ORIGIN LEVEL: 734606 DIFFERENT FILL-ORIGIN LEVEL: 0
LLC AVERAGE MISS LATENCY: 281.35 cycles
LLC RQ	ACCESS:     890357	FORWARD:          0	MERGED:          0	TO_CACHE:     890357
LLC WQ	ACCESS:     595809	FORWARD:          0	MERGED:          0	TO_CACHE:     595809
LLC PQ	ACCESS:    5358919	FORWARD:          0	MERGED:          3	TO_CACHE:    5358916

LLC Dense regions hint to LLC: 0

RAW hits: 1196497
Loads Generated: 29322959
Loads sent to L1D: 28126461
Stores Generated: 18324517
Stores sent to L1D: 18324522
Major fault: 0 Minor fault: 30129
Allocated PAGES: 30129
 All Calls: 1644087
 Critical Calls: 1043368
------------------
Depth Distribution
------------------
depth 0: 0
depth 1: 924346
depth 2: 910099
depth 3: 873449
depth 4: 820834
depth 5: 779855
depth 6: 738978
depth 7: 530511
depth 8: 304456
depth 9: 14295
depth 10: 0
depth 11: 0
depth 12: 0
depth 13: 0
depth 14: 0
depth 15: 0
depth 16: 0
depth 17: 0
depth 18: 0
depth 19: 0
depth 20: 0
depth 21: 0
depth 22: 0
depth 23: 0
depth 24: 0
depth 25: 0
depth 26: 0
depth 27: 0
depth 28: 0
depth 29: 0
Total: 5896823
-----------------------------
-----------------------------
	Captured at Filter
-----------------------------
depth 0: 0
depth 1: 63740
depth 2: 51492
depth 3: 50910
depth 4: 51508
depth 5: 49772
depth 6: 47799
depth 7: 35724
depth 8: 14048
depth 9: 610
depth 10: 0
depth 11: 0
depth 12: 0
depth 13: 0
depth 14: 0
depth 15: 0
depth 16: 0
depth 17: 0
depth 18: 0
depth 19: 0
depth 20: 0
depth 21: 0
depth 22: 0
depth 23: 0
depth 24: 0
depth 25: 0
depth 26: 0
depth 27: 0
depth 28: 0
depth 29: 0
-----------------------------
-----------------------------
		Lost at Page
-----------------------------
depth 0: 0
depth 1: 17351
depth 2: 30927
depth 3: 47852
depth 4: 61173
depth 5: 77179
depth 6: 87747
depth 7: 75794
depth 8: 52051
depth 9: 4554
depth 10: 0
depth 11: 0
depth 12: 0
depth 13: 0
depth 14: 0
depth 15: 0
depth 16: 0
depth 17: 0
depth 18: 0
depth 19: 0
depth 20: 0
depth 21: 0
depth 22: 0
depth 23: 0
depth 24: 0
depth 25: 0
depth 26: 0
depth 27: 0
depth 28: 0
depth 29: 0
-----------------------------
-----------------------------
	Lost due to PQ Size
-----------------------------
599200
-----------------------------
ST read accesses: 1031455
ST write accesses: 11913
PT read accesses: 41786642
PT write accesses: 1516083
FILTER read accesses: 9401970
FILTER write accesses: 2801416
GHR read accesses: 2388658
GHR write accesses: 454628
GHR counter read accesses: 35510132
GHR counter write accesses: 2380916
ST tag read accesses: 406736763
ST tag write accesses: 13702892

DRAM Statistics
 CHANNEL 0
 RQ ROW_BUFFER_HIT:     703440  ROW_BUFFER_MISS:     663340
 DBUS_CONGESTED:        475
 WQ ROW_BUFFER_HIT:     139783  ROW_BUFFER_MISS:     460392  FULL:          0

 AVG_CONGESTED_CYCLE: 5
 All warmup complete: 2
Channel 0 Bank busy for read cycles: 0
Channel 0 Bank busy for write cycles: 0
Channel 0
Rank 0
0banks busy for read cycles: 536570
0banks busy for write cycles: 3198
1banks busy for read cycles: 28732748
1banks busy for write cycles: 512240
2banks busy for read cycles: 18207582
2banks busy for write cycles: 836394
3banks busy for read cycles: 9055223
3banks busy for write cycles: 1258492
4banks busy for read cycles: 4174276
4banks busy for write cycles: 1656326
5banks busy for read cycles: 1901872
5banks busy for write cycles: 2035733
6banks busy for read cycles: 932980
6banks busy for write cycles: 2409388
7banks busy for read cycles: 645628
7banks busy for write cycles: 3401538
8banks busy for read cycles: 828990
8banks busy for write cycles: 6536126

CPU 0 Branch Prediction Accuracy: 99.9697% MPKI: 0.00256 Average ROB Occupancy at Mispredict: 75.1523
Branch types
NOT_BRANCH: 99155698 99.1557%
BRANCH_DIRECT_JUMP: 0 0%
BRANCH_INDIRECT: 0 0%
BRANCH_CONDITIONAL: 844001 0.844001%
BRANCH_DIRECT_CALL: 0 0%
BRANCH_INDIRECT_CALL: 0 0%
BRANCH_RETURN: 0 0%
BRANCH_OTHER: 0 0%

DRAM PAGES: 1048576
Allocated PAGES: 30129
