
*** ChampSim Multicore Out-of-Order Simulator ***

Warmup Instructions: 50000000
Simulation Instructions: 100000000
Number of CPUs: 1
LLC sets: 2048
LLC ways: 16
Off-chip DRAM Size: 4096 MB Channels: 1 Width: 64-bit Data Rate: 6400 MT/s
CPU 0 runs ../SPEC2017//603.bwaves_s-1740B.champsimtrace.xz
.xz
NUM_OF_IPS_IN_CRITICAL_IP_TRAINING: 64
NUM_OF_CRITICAL_IP_TRAINING_TABLE_WAYS: 2
NUM_OF_CRITICAL_IP_TRAINING_TABLE_SETS: 32
WOBBLY_CRITICAL_IP_CACHE_SETS: 32
WOBBLY_CRITICAL_IP_CACHE_WAYS: 4
BTB has LRU replacement policy
ITLB has LRU replacement policy
DTLB has LRU replacement policy
STLB has LRU replacement policy
L1I has LRU replacement policy
L1D has LRU replacement policy
Bingo PHT WAYS: 16 and PHT_SIZE: 16384
Initialize SRRIP state for L2C
Initialize DRRIP state for LLC
Heartbeat CPU 0 instructions: 10000000 cycles: 3317081 heartbeat IPC: 3.0147 cumulative IPC: 3.0147 (Simulation time: 0 hr 5 min 30 sec) 
Heartbeat CPU 0 instructions: 20000002 cycles: 6633858 heartbeat IPC: 3.01498 cumulative IPC: 3.01484 (Simulation time: 0 hr 10 min 41 sec) 
Heartbeat CPU 0 instructions: 30000003 cycles: 9951119 heartbeat IPC: 3.01454 cumulative IPC: 3.01474 (Simulation time: 0 hr 14 min 59 sec) 
Heartbeat CPU 0 instructions: 40000001 cycles: 13268666 heartbeat IPC: 3.01427 cumulative IPC: 3.01462 (Simulation time: 0 hr 18 min 49 sec) 
Heartbeat CPU 0 instructions: 50000003 cycles: 16586365 heartbeat IPC: 3.01414 cumulative IPC: 3.01452 (Simulation time: 0 hr 22 min 25 sec) 

Warmup complete CPU 0 instructions: 50000003 cycles: 16586365 (Simulation time: 0 hr 22 min 25 sec) 

Heartbeat CPU 0 instructions: 60000000 cycles: 26728868 heartbeat IPC: 0.98595 cumulative IPC: 0.98595 (Simulation time: 0 hr 26 min 6 sec) 
Heartbeat CPU 0 instructions: 70000000 cycles: 36730826 heartbeat IPC: 0.999804 cumulative IPC: 0.992829 (Simulation time: 0 hr 29 min 36 sec) 
Heartbeat CPU 0 instructions: 80000003 cycles: 46735162 heartbeat IPC: 0.999567 cumulative IPC: 0.995065 (Simulation time: 0 hr 32 min 59 sec) 
Heartbeat CPU 0 instructions: 90000001 cycles: 56747061 heartbeat IPC: 0.998811 cumulative IPC: 0.995999 (Simulation time: 0 hr 36 min 13 sec) 
Heartbeat CPU 0 instructions: 100000002 cycles: 66759301 heartbeat IPC: 0.998778 cumulative IPC: 0.996553 (Simulation time: 0 hr 39 min 15 sec) 
Heartbeat CPU 0 instructions: 110000000 cycles: 76762102 heartbeat IPC: 0.99972 cumulative IPC: 0.99708 (Simulation time: 0 hr 42 min 3 sec) 
Heartbeat CPU 0 instructions: 120000002 cycles: 86756781 heartbeat IPC: 1.00053 cumulative IPC: 0.997571 (Simulation time: 0 hr 44 min 28 sec) 
Heartbeat CPU 0 instructions: 130000000 cycles: 96756481 heartbeat IPC: 1.00003 cumulative IPC: 0.997878 (Simulation time: 0 hr 46 min 47 sec) 
Heartbeat CPU 0 instructions: 140000003 cycles: 106761718 heartbeat IPC: 0.999477 cumulative IPC: 0.998055 (Simulation time: 0 hr 49 min 2 sec) 
Heartbeat CPU 0 instructions: 150000002 cycles: 116762622 heartbeat IPC: 0.99991 cumulative IPC: 0.998241 (Simulation time: 0 hr 51 min 31 sec) 
Finished CPU 0 instructions: 100000001 cycles: 100176258 cumulative IPC: 0.998241 (Simulation time: 0 hr 51 min 31 sec) 

ChampSim completed all CPUs

Region of Interest Statistics

CPU 0 cumulative IPC: 0.998241 instructions: 100000001 cycles: 100176258

CPU 0 Average Load ROB stall cycles: 3.39599e+07
CPU 0 Fraction of times ROB stalled by Loads: 50.8044
CPU 0 Percentage of Load stall cycles in Total stall cycles: 6.06663e+08
Issued all: 54517858
Issued LT all: 41255310
rob_not_full_when_issued_lt_all: 35112597
Issued LT one: 35863368
rob_not_full_when_issued_lt_one: 30146429
 Total stall cycles: 76354107
 Total load stall cycles: 463212375300468
CPU 0 NUM of IPS identified critical: 0
CPU 0 Num of Load IPs stalling ROB: 86
Threshold modification factor: 0
Max PIST entries: 47
Min PIST entries: 0
Avg PIST entries: 23.1933
Trouble in retire width: 0.832853
MaC = Marked as critical.
lt_50_percent_before_Mac: 0
gt_90_percent_before_Mac: 0
gt_75_percent_before_Mac: 0
gt_50_percent_before_Mac: 0
stall_proportion_bin_same_before_after: 0
stall_proportion_bin_lower_before_after: 0
stall_proportion_bin_upper_before_after: 0
average_stall_proportion_before: -nan
average_stall_proportion_after: -nan
Critical IP stalls, total frequency: 0
Non-critical IP stalls, total frequency: 6929708
Total Freq all stalling IPs: 6929708
stat_90_percent_critical_ip_stalls_freq: 6251624
stat_90_percent_non_critical_ip_stalls_freq: 678084
Critical_IP_ROB_Stalls_Bucket_0: 0
Non-critical_IP_ROB_Stalls_Bucket_0: 5033594
Critical_IP_ROB_Stalls_Bucket_1: 0
Non-critical_IP_ROB_Stalls_Bucket_1: 1249486
Critical_IP_ROB_Stalls_Bucket_2: 0
Non-critical_IP_ROB_Stalls_Bucket_2: 103550
Critical_IP_ROB_Stalls_Bucket_3: 0
Non-critical_IP_ROB_Stalls_Bucket_3: 118758
Critical_IP_ROB_Stalls_Bucket_4: 0
Non-critical_IP_ROB_Stalls_Bucket_4: 98020
Critical_IP_ROB_Stalls_Bucket_5: 0
Non-critical_IP_ROB_Stalls_Bucket_5: 91908
Critical_IP_ROB_Stalls_Bucket_6: 0
Non-critical_IP_ROB_Stalls_Bucket_6: 234392
0 => IPs accounting for >50 percent of stalls, 1 => 55, 2 => 60, 3 => 65 and so on till 90.
percent50: 53.9898 num IPs:  3
percent55: 65.9893 num IPs: 4
percent60: 65.9893 num IPs: 4
percent65: 65.9893 num IPs: 4
percent70: 73.5051 num IPs: 5
percent75: 77.9212 num IPs: 6
percent80: 80.1217 num IPs: 7
percent85: 85.6728 num IPs: 10
percent90: 90.2148 num IPs: 14
Critical_ROB_Stalls_Percent_0_Bucket_0: 2990462
Non-critical_ROB_Stalls_Percent_0_Bucket_0: 2043132
Critical_ROB_Stalls_Percent_0_Bucket_1: 585313
Non-critical_ROB_Stalls_Percent_0_Bucket_1: 664173
Critical_ROB_Stalls_Percent_0_Bucket_2: 34899
Non-critical_ROB_Stalls_Percent_0_Bucket_2: 68651
Critical_ROB_Stalls_Percent_0_Bucket_3: 35129
Non-critical_ROB_Stalls_Percent_0_Bucket_3: 83629
Critical_ROB_Stalls_Percent_0_Bucket_4: 30174
Non-critical_ROB_Stalls_Percent_0_Bucket_4: 67846
Critical_ROB_Stalls_Percent_0_Bucket_5: 23983
Non-critical_ROB_Stalls_Percent_0_Bucket_5: 67925
Critical_ROB_Stalls_Percent_0_Bucket_6: 41376
Non-critical_ROB_Stalls_Percent_0_Bucket_6: 193016
Critical_ROB_Stalls_Percent_1_Bucket_0: 3511343
Non-critical_ROB_Stalls_Percent_1_Bucket_0: 1522251
Critical_ROB_Stalls_Percent_1_Bucket_1: 854791
Non-critical_ROB_Stalls_Percent_1_Bucket_1: 394695
Critical_ROB_Stalls_Percent_1_Bucket_2: 43642
Non-critical_ROB_Stalls_Percent_1_Bucket_2: 59908
Critical_ROB_Stalls_Percent_1_Bucket_3: 44114
Non-critical_ROB_Stalls_Percent_1_Bucket_3: 74644
Critical_ROB_Stalls_Percent_1_Bucket_4: 36666
Non-critical_ROB_Stalls_Percent_1_Bucket_4: 61354
Critical_ROB_Stalls_Percent_1_Bucket_5: 28371
Non-critical_ROB_Stalls_Percent_1_Bucket_5: 63537
Critical_ROB_Stalls_Percent_1_Bucket_6: 53938
Non-critical_ROB_Stalls_Percent_1_Bucket_6: 180454
Critical_ROB_Stalls_Percent_2_Bucket_0: 3511343
Non-critical_ROB_Stalls_Percent_2_Bucket_0: 1522251
Critical_ROB_Stalls_Percent_2_Bucket_1: 854791
Non-critical_ROB_Stalls_Percent_2_Bucket_1: 394695
Critical_ROB_Stalls_Percent_2_Bucket_2: 43642
Non-critical_ROB_Stalls_Percent_2_Bucket_2: 59908
Critical_ROB_Stalls_Percent_2_Bucket_3: 44114
Non-critical_ROB_Stalls_Percent_2_Bucket_3: 74644
Critical_ROB_Stalls_Percent_2_Bucket_4: 36666
Non-critical_ROB_Stalls_Percent_2_Bucket_4: 61354
Critical_ROB_Stalls_Percent_2_Bucket_5: 28371
Non-critical_ROB_Stalls_Percent_2_Bucket_5: 63537
Critical_ROB_Stalls_Percent_2_Bucket_6: 53938
Non-critical_ROB_Stalls_Percent_2_Bucket_6: 180454
Critical_ROB_Stalls_Percent_3_Bucket_0: 3511343
Non-critical_ROB_Stalls_Percent_3_Bucket_0: 1522251
Critical_ROB_Stalls_Percent_3_Bucket_1: 854791
Non-critical_ROB_Stalls_Percent_3_Bucket_1: 394695
Critical_ROB_Stalls_Percent_3_Bucket_2: 43642
Non-critical_ROB_Stalls_Percent_3_Bucket_2: 59908
Critical_ROB_Stalls_Percent_3_Bucket_3: 44114
Non-critical_ROB_Stalls_Percent_3_Bucket_3: 74644
Critical_ROB_Stalls_Percent_3_Bucket_4: 36666
Non-critical_ROB_Stalls_Percent_3_Bucket_4: 61354
Critical_ROB_Stalls_Percent_3_Bucket_5: 28371
Non-critical_ROB_Stalls_Percent_3_Bucket_5: 63537
Critical_ROB_Stalls_Percent_3_Bucket_6: 53938
Non-critical_ROB_Stalls_Percent_3_Bucket_6: 180454
Critical_ROB_Stalls_Percent_4_Bucket_0: 3875304
Non-critical_ROB_Stalls_Percent_4_Bucket_0: 1158290
Critical_ROB_Stalls_Percent_4_Bucket_1: 969110
Non-critical_ROB_Stalls_Percent_4_Bucket_1: 280376
Critical_ROB_Stalls_Percent_4_Bucket_2: 52343
Non-critical_ROB_Stalls_Percent_4_Bucket_2: 51207
Critical_ROB_Stalls_Percent_4_Bucket_3: 51811
Non-critical_ROB_Stalls_Percent_4_Bucket_3: 66947
Critical_ROB_Stalls_Percent_4_Bucket_4: 43359
Non-critical_ROB_Stalls_Percent_4_Bucket_4: 54661
Critical_ROB_Stalls_Percent_4_Bucket_5: 35319
Non-critical_ROB_Stalls_Percent_4_Bucket_5: 56589
Critical_ROB_Stalls_Percent_4_Bucket_6: 66445
Non-critical_ROB_Stalls_Percent_4_Bucket_6: 167947
Critical_ROB_Stalls_Percent_5_Bucket_0: 4104837
Non-critical_ROB_Stalls_Percent_5_Bucket_0: 928757
Critical_ROB_Stalls_Percent_5_Bucket_1: 1011270
Non-critical_ROB_Stalls_Percent_5_Bucket_1: 238216
Critical_ROB_Stalls_Percent_5_Bucket_2: 59381
Non-critical_ROB_Stalls_Percent_5_Bucket_2: 44169
Critical_ROB_Stalls_Percent_5_Bucket_3: 60383
Non-critical_ROB_Stalls_Percent_5_Bucket_3: 58375
Critical_ROB_Stalls_Percent_5_Bucket_4: 48319
Non-critical_ROB_Stalls_Percent_5_Bucket_4: 49701
Critical_ROB_Stalls_Percent_5_Bucket_5: 40592
Non-critical_ROB_Stalls_Percent_5_Bucket_5: 51316
Critical_ROB_Stalls_Percent_5_Bucket_6: 74931
Non-critical_ROB_Stalls_Percent_5_Bucket_6: 159461
Critical_ROB_Stalls_Percent_6_Bucket_0: 4113193
Non-critical_ROB_Stalls_Percent_6_Bucket_0: 920401
Critical_ROB_Stalls_Percent_6_Bucket_1: 1047560
Non-critical_ROB_Stalls_Percent_6_Bucket_1: 201926
Critical_ROB_Stalls_Percent_6_Bucket_2: 72212
Non-critical_ROB_Stalls_Percent_6_Bucket_2: 31338
Critical_ROB_Stalls_Percent_6_Bucket_3: 78892
Non-critical_ROB_Stalls_Percent_6_Bucket_3: 39866
Critical_ROB_Stalls_Percent_6_Bucket_4: 66286
Non-critical_ROB_Stalls_Percent_6_Bucket_4: 31734
Critical_ROB_Stalls_Percent_6_Bucket_5: 55690
Non-critical_ROB_Stalls_Percent_6_Bucket_5: 36218
Critical_ROB_Stalls_Percent_6_Bucket_6: 118369
Non-critical_ROB_Stalls_Percent_6_Bucket_6: 116023
Critical_ROB_Stalls_Percent_7_Bucket_0: 4496764
Non-critical_ROB_Stalls_Percent_7_Bucket_0: 536830
Critical_ROB_Stalls_Percent_7_Bucket_1: 1047774
Non-critical_ROB_Stalls_Percent_7_Bucket_1: 201712
Critical_ROB_Stalls_Percent_7_Bucket_2: 72364
Non-critical_ROB_Stalls_Percent_7_Bucket_2: 31186
Critical_ROB_Stalls_Percent_7_Bucket_3: 79154
Non-critical_ROB_Stalls_Percent_7_Bucket_3: 39604
Critical_ROB_Stalls_Percent_7_Bucket_4: 66431
Non-critical_ROB_Stalls_Percent_7_Bucket_4: 31589
Critical_ROB_Stalls_Percent_7_Bucket_5: 55813
Non-critical_ROB_Stalls_Percent_7_Bucket_5: 36095
Critical_ROB_Stalls_Percent_7_Bucket_6: 118574
Non-critical_ROB_Stalls_Percent_7_Bucket_6: 115818
Critical_ROB_Stalls_Percent_8_Bucket_0: 4625593
Non-critical_ROB_Stalls_Percent_8_Bucket_0: 408001
Critical_ROB_Stalls_Percent_8_Bucket_1: 1152139
Non-critical_ROB_Stalls_Percent_8_Bucket_1: 97347
Critical_ROB_Stalls_Percent_8_Bucket_2: 85332
Non-critical_ROB_Stalls_Percent_8_Bucket_2: 18218
Critical_ROB_Stalls_Percent_8_Bucket_3: 93207
Non-critical_ROB_Stalls_Percent_8_Bucket_3: 25551
Critical_ROB_Stalls_Percent_8_Bucket_4: 78968
Non-critical_ROB_Stalls_Percent_8_Bucket_4: 19052
Critical_ROB_Stalls_Percent_8_Bucket_5: 67947
Non-critical_ROB_Stalls_Percent_8_Bucket_5: 23961
Critical_ROB_Stalls_Percent_8_Bucket_6: 148438
Non-critical_ROB_Stalls_Percent_8_Bucket_6: 85954
Average ROB occupancy Load Stall Begin: 52.389
Average ROB occupancy Load Stall End: 61.4647
Min ROB occupancy Load Stall Begin: 2
Max ROB occupancy Load Stall Begin: 352
Min ROB occupancy Load Stall End: 2
Max ROB occupancy Load Stall End: 352
Average ROB occupancy Critical Load Stall Begin: -nan
Average ROB occupancy Critical Load Stall End: -nan
Min ROB occupancy Critical Load Stall Begin: 400
Max ROB occupancy Critical Load Stall Begin: 0
Min ROB occupancy Critical Load Stall End: 400
Max ROB occupancy Critical Load Stall End: 0
 ROB Load Stall Begin Bucket Count 0: 5658863
 ROB Load Stall End Bucket Count 0: 5033594
 ROB Critical Load Stall Begin Bucket Count 0: 0
 ROB Critical Load Stall End Bucket Count 0: 0
 ROB Load Stall Begin Bucket Count 1: 686618
 ROB Load Stall End Bucket Count 1: 1249486
 ROB Critical Load Stall Begin Bucket Count 1: 0
 ROB Critical Load Stall End Bucket Count 1: 0
 ROB Load Stall Begin Bucket Count 2: 98478
 ROB Load Stall End Bucket Count 2: 103550
 ROB Critical Load Stall Begin Bucket Count 2: 0
 ROB Critical Load Stall End Bucket Count 2: 0
 ROB Load Stall Begin Bucket Count 3: 119273
 ROB Load Stall End Bucket Count 3: 118758
 ROB Critical Load Stall Begin Bucket Count 3: 0
 ROB Critical Load Stall End Bucket Count 3: 0
 ROB Load Stall Begin Bucket Count 4: 87295
 ROB Load Stall End Bucket Count 4: 98020
 ROB Critical Load Stall Begin Bucket Count 4: 0
 ROB Critical Load Stall End Bucket Count 4: 0
 ROB Load Stall Begin Bucket Count 5: 96848
 ROB Load Stall End Bucket Count 5: 91908
 ROB Critical Load Stall Begin Bucket Count 5: 0
 ROB Critical Load Stall End Bucket Count 5: 0
 ROB Load Stall Begin Bucket Count 6: 182334
 ROB Load Stall End Bucket Count 6: 234392
 ROB Critical Load Stall Begin Bucket Count 6: 0
 ROB Critical Load Stall End Bucket Count 6: 0
PIST Tag Read Accesses: 122192
PIST Read Accesses: 61096
PIST Tag Write Accesses: 122192
PIST Write Accesses: 61096
Criticality detector called times: 861727
Max global_stall_cycles_count: 474727
Threshold Modified: 0 times, factor: 0
Sturdy critical IP cache stats: 
 Unused entries: 0
CIC Tag Read Accesses: 0
CIC Read Accesses: 0
CIC Tag Write Accesses: 0
CIC Write Accesses: 0
Wobbly critical IP cache stats: 
 Unused entries: 111
CIC Tag Read Accesses: 350428240
CIC Read Accesses: 0
CIC Tag Write Accesses: 317501
CIC Write Accesses: 0
ITLB TOTAL     ACCESS:   12751354  HIT:   12751354  MISS:          0  HIT %:        100  MISS %:          0   MPKI: 0
ITLB LOAD TRANSLATION ACCESS:   12751354  HIT:   12751354  MISS:          0  HIT %:        100  MISS %:          0   MPKI: 0
ITLB PREFETCH  REQUESTED:          0  ISSUED:          0  USEFUL:          0  USELESS:          0
ITLB USEFUL LOAD PREFETCHES:          0 PREFETCH ISSUED TO LOWER LEVEL:          0  ACCURACY: -nan
ITLB TIMELY PREFETCHES:          0 LATE PREFETCHES: 0 DROPPED PREFETCHES: 0
ITLB PREFETCHES SAME FILL-ORIGIN LEVEL: 0 DIFFERENT FILL-ORIGIN LEVEL: 0
ITLB AVERAGE MISS LATENCY: -nan cycles
ITLB RQ	ACCESS:   17262943	FORWARD:          0	MERGED:    4511590	TO_CACHE:   12751353

DTLB TOTAL     ACCESS:   32064271  HIT:   31873076  MISS:     191195  HIT %:    99.4037  MISS %:   0.596287   MPKI: 1.91195
DTLB LOAD TRANSLATION ACCESS:   32064271  HIT:   31873076  MISS:     191195  HIT %:    99.4037  MISS %:   0.596287   MPKI: 1.91195
DTLB PREFETCH  REQUESTED:          0  ISSUED:          0  USEFUL:          0  USELESS:          0
DTLB USEFUL LOAD PREFETCHES:          0 PREFETCH ISSUED TO LOWER LEVEL:          0  ACCURACY: -nan
DTLB TIMELY PREFETCHES:          0 LATE PREFETCHES: 0 DROPPED PREFETCHES: 0
DTLB PREFETCHES SAME FILL-ORIGIN LEVEL: 0 DIFFERENT FILL-ORIGIN LEVEL: 0
DTLB AVERAGE MISS LATENCY: 85.954 cycles
DTLB RQ	ACCESS:   38018484	FORWARD:          0	MERGED:    5921427	TO_CACHE:   32097057

STLB TOTAL     ACCESS:     191195  HIT:     161508  MISS:      29687  HIT %:    84.4729  MISS %:    15.5271   MPKI: 0.29687
STLB LOAD TRANSLATION ACCESS:     191195  HIT:     161508  MISS:      29687  HIT %:    84.4729  MISS %:    15.5271   MPKI: 0.29687
STLB PREFETCH  REQUESTED:          0  ISSUED:          0  USEFUL:          0  USELESS:          0
STLB USEFUL LOAD PREFETCHES:          0 PREFETCH ISSUED TO LOWER LEVEL:          0  ACCURACY: -nan
STLB TIMELY PREFETCHES:          0 LATE PREFETCHES: 0 DROPPED PREFETCHES: 0
STLB PREFETCHES SAME FILL-ORIGIN LEVEL: 0 DIFFERENT FILL-ORIGIN LEVEL: 0
STLB AVERAGE MISS LATENCY: 468.992 cycles
STLB RQ	ACCESS:     191195	FORWARD:          0	MERGED:          0	TO_CACHE:     191195

STLB Hit, L1D data hit: 0
STLB Hit, L2C data hit: 0
STLB Hit, LLC data hit: 0
STLB Hit, LLC data miss: 0
STLB STLB hints to L2: 0
L1D TOTAL     ACCESS:   37898205  HIT:   35899030  MISS:    1999175  HIT %:    94.7249  MISS %:    5.27512   MPKI: 19.9917
L1D LOAD      ACCESS:   32291783  HIT:   30341332  MISS:    1950451  HIT %:    93.9599  MISS %:    6.04008   MPKI: 19.5045
L1D RFO       ACCESS:    5606422  HIT:    5557698  MISS:      48724  HIT %:    99.1309  MISS %:   0.869075   MPKI: 0.48724
L1D PREFETCH  REQUESTED:          0  ISSUED:          0  USEFUL:          0  USELESS:          0
L1D USEFUL LOAD PREFETCHES:          0 PREFETCH ISSUED TO LOWER LEVEL:          0  ACCURACY: -nan
L1D TIMELY PREFETCHES:          0 LATE PREFETCHES: 0 DROPPED PREFETCHES: 0
L1D PREFETCHES SAME FILL-ORIGIN LEVEL: 0 DIFFERENT FILL-ORIGIN LEVEL: 0
L1D AVERAGE MISS LATENCY: 48.2858 cycles
L1D RQ	ACCESS:   42580324	FORWARD:          0	MERGED:    9985710	TO_CACHE:   32385151
L1D WQ	ACCESS:    5633399	FORWARD:     209463	MERGED:         66	TO_CACHE:    5633333

L1D UNIQUE REGIONS ACCESSED: 0
L1D REGIONS CONFLICTS: 0
L1D Cross Page Prefetch Requests: 0
L1D Same Page Prefetch Requests: 0
L1D ROI Sum of L1D PQ occupancy: 0
L1D PREFETCHES PUSHED FROM L2C: 0
L1I TOTAL     ACCESS:   17262941  HIT:   17262941  MISS:          0  HIT %:        100  MISS %:          0   MPKI: 0
L1I LOAD      ACCESS:   17262941  HIT:   17262941  MISS:          0  HIT %:        100  MISS %:          0   MPKI: 0
L1I PREFETCH  REQUESTED:          0  ISSUED:          0  USEFUL:          0  USELESS:          0
L1I USEFUL LOAD PREFETCHES:          0 PREFETCH ISSUED TO LOWER LEVEL:          0  ACCURACY: -nan
L1I TIMELY PREFETCHES:          0 LATE PREFETCHES: 0 DROPPED PREFETCHES: 0
L1I PREFETCHES SAME FILL-ORIGIN LEVEL: 0 DIFFERENT FILL-ORIGIN LEVEL: 0
L1I AVERAGE MISS LATENCY: -nan cycles
L1I RQ	ACCESS:   23021718	FORWARD:          0	MERGED:    5758775	TO_CACHE:   17262943

BTB TOTAL     ACCESS:    2417447  HIT:    2417442  MISS:          5  HIT %:    99.9998  MISS %: 0.00020683   MPKI: 5e-05
BTB BRANCH_DIRECT_JUMP	ACCESS:          0  HIT:          0  MISS:          0
BTB BRANCH_INDIRECT	ACCESS:          0  HIT:          0  MISS:          0
BTB BRANCH_CONDITIONAL	ACCESS:    2417447  HIT:    2417442  MISS:          5
BTB BRANCH_DIRECT_CALL	ACCESS:          0  HIT:          0  MISS:          0
BTB BRANCH_INDIRECT_CALL	ACCESS:          0  HIT:          0  MISS:          0
BTB BRANCH_RETURN	ACCESS:          0  HIT:          0  MISS:          0
BTB BRANCH_OTHER ACCESS:          0  HIT:          0  MISS:          0

L2C TOTAL     ACCESS:    3771221  HIT:    1851106  MISS:    1920115  HIT %:    49.0851  MISS %:    50.9149   MPKI: 19.2011
L2C LOAD      ACCESS:    1950451  HIT:    1715030  MISS:     235421  HIT %:    87.9299  MISS %:    12.0701   MPKI: 2.35421
L2C DATA LOAD MPKI: 2.35421
L2C INSTRUCTION LOAD MPKI: 0
L2C RFO       ACCESS:      48724  HIT:          0  MISS:      48724  HIT %:          0  MISS %:        100   MPKI: 0.48724
L2C PREFETCH  ACCESS:    1692889  HIT:      64736  MISS:    1628153  HIT %:      3.824  MISS %:     96.176   MPKI: 16.2815
L2C DATA PREFETCH MPKI: 16.2815
L2C INSTRUCTION PREFETCH MPKI: 0
L2C WRITEBACK ACCESS:      49468  HIT:      45762  MISS:       3706  HIT %:    92.5083  MISS %:    7.49171   MPKI: 0.03706
L2C LOAD TRANSLATION ACCESS:      29689  HIT:      25578  MISS:       4111  HIT %:    86.1531  MISS %:    13.8469   MPKI: 0.04111
L2C PREFETCH  REQUESTED:    1735441  ISSUED:    1735441  USEFUL:    1616523  USELESS:      11528
L2C USEFUL LOAD PREFETCHES:    1616523 PREFETCH ISSUED TO LOWER LEVEL:    1659218  ACCURACY: 97.4268
L2C TIMELY PREFETCHES:    1616523 LATE PREFETCHES: 31065 DROPPED PREFETCHES: 0
L2C PREFETCHES SAME FILL-ORIGIN LEVEL: 1659218 DIFFERENT FILL-ORIGIN LEVEL: 0
L2C AVERAGE MISS LATENCY: 188.492 cycles
L2C RQ	ACCESS:    2028864	FORWARD:          0	MERGED:          0	TO_CACHE:    2028864
L2C WQ	ACCESS:      49468	FORWARD:          0	MERGED:          0	TO_CACHE:      49468
L2C PQ	ACCESS:    1735441	FORWARD:          0	MERGED:          0	TO_CACHE:    1735441

L2C Instructions Evicting Data 0
L2C Translations Evicting Data 4105
L2C Data Evicting Data 1908181
L2C Instructions Evicting Instructions 0
L2C Translations Evicting Instructions 0
L2C Data Evicting Instructions 0
L2C Instructions Evicting Translations 0
L2C Translations Evicting Translations 6
L2C Data Evicting Translations 4117
L2C Dense regions hint from L2: 0
PSCL5 TOTAL     ACCESS:      29687  HIT:      29687  MISS:          0  HIT %:        100  MISS %:          0   MPKI: 0
PSCL5 LOAD TRANSLATION ACCESS:      29687  HIT:      29687  MISS:          0  HIT %:        100  MISS %:          0   MPKI: 0
PSCL5 PREFETCH  REQUESTED:          0  ISSUED:          0  USEFUL:          0  USELESS:          0
PSCL5 USEFUL LOAD PREFETCHES:          0 PREFETCH ISSUED TO LOWER LEVEL:          0  ACCURACY: -nan
PSCL5 TIMELY PREFETCHES:          0 LATE PREFETCHES: 0 DROPPED PREFETCHES: 0
PSCL5 PREFETCHES SAME FILL-ORIGIN LEVEL: 0 DIFFERENT FILL-ORIGIN LEVEL: 0

PSCL4 TOTAL     ACCESS:      29687  HIT:      29687  MISS:          0  HIT %:        100  MISS %:          0   MPKI: 0
PSCL4 LOAD TRANSLATION ACCESS:      29687  HIT:      29687  MISS:          0  HIT %:        100  MISS %:          0   MPKI: 0
PSCL4 PREFETCH  REQUESTED:          0  ISSUED:          0  USEFUL:          0  USELESS:          0
PSCL4 USEFUL LOAD PREFETCHES:          0 PREFETCH ISSUED TO LOWER LEVEL:          0  ACCURACY: -nan
PSCL4 TIMELY PREFETCHES:          0 LATE PREFETCHES: 0 DROPPED PREFETCHES: 0
PSCL4 PREFETCHES SAME FILL-ORIGIN LEVEL: 0 DIFFERENT FILL-ORIGIN LEVEL: 0

PSCL3 TOTAL     ACCESS:      29687  HIT:      29687  MISS:          0  HIT %:        100  MISS %:          0   MPKI: 0
PSCL3 LOAD TRANSLATION ACCESS:      29687  HIT:      29687  MISS:          0  HIT %:        100  MISS %:          0   MPKI: 0
PSCL3 PREFETCH  REQUESTED:          0  ISSUED:          0  USEFUL:          0  USELESS:          0
PSCL3 USEFUL LOAD PREFETCHES:          0 PREFETCH ISSUED TO LOWER LEVEL:          0  ACCURACY: -nan
PSCL3 TIMELY PREFETCHES:          0 LATE PREFETCHES: 0 DROPPED PREFETCHES: 0
PSCL3 PREFETCHES SAME FILL-ORIGIN LEVEL: 0 DIFFERENT FILL-ORIGIN LEVEL: 0

PSCL2 TOTAL     ACCESS:      29687  HIT:      29628  MISS:         59  HIT %:    99.8013  MISS %:    0.19874   MPKI: 0.00059
PSCL2 LOAD TRANSLATION ACCESS:      29687  HIT:      29628  MISS:         59  HIT %:    99.8013  MISS %:    0.19874   MPKI: 0.00059
PSCL2 PREFETCH  REQUESTED:          0  ISSUED:          0  USEFUL:          0  USELESS:          0
PSCL2 USEFUL LOAD PREFETCHES:          0 PREFETCH ISSUED TO LOWER LEVEL:          0  ACCURACY: -nan
PSCL2 TIMELY PREFETCHES:          0 LATE PREFETCHES: 0 DROPPED PREFETCHES: 0
PSCL2 PREFETCHES SAME FILL-ORIGIN LEVEL: 0 DIFFERENT FILL-ORIGIN LEVEL: 0

LLC TOTAL     ACCESS:    1965444  HIT:      60611  MISS:    1904833  HIT %:    3.08383  MISS %:    96.9162   MPKI: 19.0483
LLC LOAD      ACCESS:     204356  HIT:       1278  MISS:     203078  HIT %:   0.625379  MISS %:    99.3746   MPKI: 2.03078
LLC RFO       ACCESS:      48724  HIT:          0  MISS:      48724  HIT %:          0  MISS %:        100   MPKI: 0.48724
LLC PREFETCH  ACCESS:    1659218  HIT:      10724  MISS:    1648494  HIT %:   0.646329  MISS %:    99.3537   MPKI: 16.4849
LLC WRITEBACK ACCESS:      49035  HIT:      48272  MISS:        763  HIT %:     98.444  MISS %:    1.55603   MPKI: 0.00763
LLC LOAD TRANSLATION ACCESS:       4111  HIT:        337  MISS:       3774  HIT %:    8.19752  MISS %:    91.8025   MPKI: 0.03774
LLC PREFETCH  REQUESTED:          0  ISSUED:          0  USEFUL:       1246  USELESS:    1619085
LLC USEFUL LOAD PREFETCHES:       1246 PREFETCH ISSUED TO LOWER LEVEL:    1648494  ACCURACY: 0.0755841
LLC TIMELY PREFETCHES:       1246 LATE PREFETCHES: 0 DROPPED PREFETCHES: 0
LLC PREFETCHES SAME FILL-ORIGIN LEVEL: 0 DIFFERENT FILL-ORIGIN LEVEL: 0
LLC AVERAGE MISS LATENCY: 157.749 cycles
LLC RQ	ACCESS:     257191	FORWARD:          0	MERGED:          0	TO_CACHE:     257191
LLC WQ	ACCESS:      49035	FORWARD:          0	MERGED:          0	TO_CACHE:      49035
LLC PQ	ACCESS:    1659218	FORWARD:          0	MERGED:          0	TO_CACHE:    1659218

LLC Dense regions hint to LLC: 0

RAW hits: 399745
Loads Generated: 42980073
Loads sent to L1D: 42580324
Stores Generated: 5633399
Stores sent to L1D: 5633399
Major fault: 0 Minor fault: 42651
Allocated PAGES: 42651
[Bingo] PHT Access: 62063
[Bingo] PHT Hit PC+Addr: 318
[Bingo] PHT Hit PC+Offs: 61292
[Bingo] PHT Miss: 453
[Bingo] Prefetch PC+Addr: 0
[Bingo] Prefetch PC+Offs: 0
[Bingo] Useful PC+Addr: 0
[Bingo] Useful PC+Offs: 0
[Bingo] Useless PC+Addr: 0
[Bingo] Useless PC+Offs: 0
[Bingo] L1 Prefetch per Region: 0
[Bingo] L2 Prefetch per Region: 31.485
[Bingo] L3 Prefetch per Region: 0
[Bingo] No Prefetch per Region: 0.514981
[Bingo] Number of Voters Mean: 15.6948
[Bingo] Number of Voters SD: 1.83401
PHT read accesses: 966107
PHT write accesses: 61194
AT read accesses: 1923496
AT write accesses: 1947238
FT read accesses: 184695
FT write accesses: 62063
PS read accesses: 562340
PS write accesses: 61610
PHT tag read accesses: 2925159
PHT tag write accesses: 61512
AT tag read accesses: 64541076
AT tag write accesses: 1984812
FT tag read accesses: 34747635
FT tag write accesses: 185442
PS tag read accesses: 33190716
PS tag write accesses: 622985

DRAM Statistics
 CHANNEL 0
 RQ ROW_BUFFER_HIT:    1583340  ROW_BUFFER_MISS:     320730
 DBUS_CONGESTED:        320
 WQ ROW_BUFFER_HIT:       9498  ROW_BUFFER_MISS:      39619  FULL:          0

 AVG_CONGESTED_CYCLE: 3
 All warmup complete: 2
Channel 0 Bank busy for read cycles: 0
Channel 0 Bank busy for write cycles: 0
Channel 0
Rank 0
0banks busy for read cycles: 67875784
0banks busy for write cycles: 12797
1banks busy for read cycles: 10247715
1banks busy for write cycles: 1039439
2banks busy for read cycles: 2790016
2banks busy for write cycles: 433589
3banks busy for read cycles: 1608159
3banks busy for write cycles: 299436
4banks busy for read cycles: 1268102
4banks busy for write cycles: 196107
5banks busy for read cycles: 1373753
5banks busy for write cycles: 148547
6banks busy for read cycles: 1288974
6banks busy for write cycles: 122902
7banks busy for read cycles: 2307448
7banks busy for write cycles: 121272
8banks busy for read cycles: 8853187
8banks busy for write cycles: 189032

CPU 0 Branch Prediction Accuracy: 99.9707% MPKI: 0.00732 Average ROB Occupancy at Mispredict: 62.3292
Branch types
NOT_BRANCH: 97503533 97.5035%
BRANCH_DIRECT_JUMP: 0 0%
BRANCH_INDIRECT: 0 0%
BRANCH_CONDITIONAL: 2496132 2.49613%
BRANCH_DIRECT_CALL: 0 0%
BRANCH_INDIRECT_CALL: 0 0%
BRANCH_RETURN: 0 0%
BRANCH_OTHER: 0 0%

DRAM PAGES: 1048576
Allocated PAGES: 42651
