
*** ChampSim Multicore Out-of-Order Simulator ***

Warmup Instructions: 50000000
Simulation Instructions: 100000000
Number of CPUs: 1
LLC sets: 2048
LLC ways: 16
Off-chip DRAM Size: 4096 MB Channels: 1 Width: 64-bit Data Rate: 6400 MT/s
CPU 0 runs ../SPEC2017//603.bwaves_s-1740B.champsimtrace.xz
.xz
NUM_OF_IPS_IN_CRITICAL_IP_TRAINING: 64
NUM_OF_CRITICAL_IP_TRAINING_TABLE_WAYS: 2
NUM_OF_CRITICAL_IP_TRAINING_TABLE_SETS: 32
WOBBLY_CRITICAL_IP_CACHE_SETS: 32
WOBBLY_CRITICAL_IP_CACHE_WAYS: 4
BTB has LRU replacement policy
ITLB has LRU replacement policy
DTLB has LRU replacement policy
STLB has LRU replacement policy
L1I has LRU replacement policy
IP Table Entries: 64
L1D has LRU replacement policy
Initialize SRRIP state for L2C
Initialize DRRIP state for LLC
Heartbeat CPU 0 instructions: 10000000 cycles: 3310386 heartbeat IPC: 3.0208 cumulative IPC: 3.0208 (Simulation time: 0 hr 6 min 55 sec) 
Heartbeat CPU 0 instructions: 20000002 cycles: 6619385 heartbeat IPC: 3.02206 cumulative IPC: 3.02143 (Simulation time: 0 hr 12 min 51 sec) 
Heartbeat CPU 0 instructions: 30000003 cycles: 9929136 heartbeat IPC: 3.02138 cumulative IPC: 3.02141 (Simulation time: 0 hr 18 min 18 sec) 
Heartbeat CPU 0 instructions: 40000001 cycles: 13239326 heartbeat IPC: 3.02097 cumulative IPC: 3.0213 (Simulation time: 0 hr 23 min 32 sec) 
Heartbeat CPU 0 instructions: 50000003 cycles: 16549437 heartbeat IPC: 3.02105 cumulative IPC: 3.02125 (Simulation time: 0 hr 28 min 4 sec) 

Warmup complete CPU 0 instructions: 50000003 cycles: 16549437 (Simulation time: 0 hr 28 min 4 sec) 

% increase in all ip prefetch 181.869
% increase in all ip prefetch 0.0184593
Heartbeat CPU 0 instructions: 60000000 cycles: 26153224 heartbeat IPC: 1.04126 cumulative IPC: 1.04126 (Simulation time: 0 hr 31 min 18 sec) 
Heartbeat CPU 0 instructions: 70000000 cycles: 35761049 heartbeat IPC: 1.04082 cumulative IPC: 1.04104 (Simulation time: 0 hr 34 min 49 sec) 
Heartbeat CPU 0 instructions: 80000003 cycles: 45365795 heartbeat IPC: 1.04115 cumulative IPC: 1.04108 (Simulation time: 0 hr 37 min 50 sec) 
Heartbeat CPU 0 instructions: 90000001 cycles: 54966014 heartbeat IPC: 1.04164 cumulative IPC: 1.04122 (Simulation time: 0 hr 40 min 43 sec) 
Heartbeat CPU 0 instructions: 100000002 cycles: 64573140 heartbeat IPC: 1.04089 cumulative IPC: 1.04115 (Simulation time: 0 hr 43 min 50 sec) 
Heartbeat CPU 0 instructions: 110000000 cycles: 74179940 heartbeat IPC: 1.04093 cumulative IPC: 1.04112 (Simulation time: 0 hr 47 min 4 sec) 
Heartbeat CPU 0 instructions: 120000002 cycles: 83784410 heartbeat IPC: 1.04118 cumulative IPC: 1.04112 (Simulation time: 0 hr 49 min 57 sec) 
Heartbeat CPU 0 instructions: 130000000 cycles: 93392365 heartbeat IPC: 1.0408 cumulative IPC: 1.04108 (Simulation time: 0 hr 52 min 36 sec) 
Heartbeat CPU 0 instructions: 140000003 cycles: 102998513 heartbeat IPC: 1.041 cumulative IPC: 1.04108 (Simulation time: 0 hr 55 min 7 sec) 
Heartbeat CPU 0 instructions: 150000003 cycles: 112600663 heartbeat IPC: 1.04143 cumulative IPC: 1.04111 (Simulation time: 0 hr 57 min 10 sec) 
Finished CPU 0 instructions: 100000000 cycles: 96051226 cumulative IPC: 1.04111 (Simulation time: 0 hr 57 min 10 sec) 

ChampSim completed all CPUs

Region of Interest Statistics

CPU 0 cumulative IPC: 1.04111 instructions: 100000000 cycles: 96051226

CPU 0 Average Load ROB stall cycles: 3.24823e+07
CPU 0 Fraction of times ROB stalled by Loads: 50.2958
CPU 0 Percentage of Load stall cycles in Total stall cycles: 6.72998e+08
Issued all: 50050808
Issued LT all: 36666267
rob_not_full_when_issued_lt_all: 35339221
Issued LT one: 31596649
rob_not_full_when_issued_lt_one: 30350148
 Total stall cycles: 72766876
 Total load stall cycles: 489719316386387
CPU 0 NUM of IPS identified critical: 0
CPU 0 Num of Load IPs stalling ROB: 86
Threshold modification factor: -1
Max PIST entries: 40
Min PIST entries: 0
Avg PIST entries: 22.0333
Trouble in retire width: 0.888033
MaC = Marked as critical.
lt_50_percent_before_Mac: 0
gt_90_percent_before_Mac: 0
gt_75_percent_before_Mac: 0
gt_50_percent_before_Mac: 0
stall_proportion_bin_same_before_after: 0
stall_proportion_bin_lower_before_after: 0
stall_proportion_bin_upper_before_after: 0
average_stall_proportion_before: -nan
average_stall_proportion_after: -nan
Critical IP stalls, total frequency: 0
Non-critical IP stalls, total frequency: 7582844
Total Freq all stalling IPs: 7582844
stat_90_percent_critical_ip_stalls_freq: 6896813
stat_90_percent_non_critical_ip_stalls_freq: 686031
Critical_IP_ROB_Stalls_Bucket_0: 0
Non-critical_IP_ROB_Stalls_Bucket_0: 6500205
Critical_IP_ROB_Stalls_Bucket_1: 0
Non-critical_IP_ROB_Stalls_Bucket_1: 790921
Critical_IP_ROB_Stalls_Bucket_2: 0
Non-critical_IP_ROB_Stalls_Bucket_2: 87062
Critical_IP_ROB_Stalls_Bucket_3: 0
Non-critical_IP_ROB_Stalls_Bucket_3: 72682
Critical_IP_ROB_Stalls_Bucket_4: 0
Non-critical_IP_ROB_Stalls_Bucket_4: 41242
Critical_IP_ROB_Stalls_Bucket_5: 0
Non-critical_IP_ROB_Stalls_Bucket_5: 44082
Critical_IP_ROB_Stalls_Bucket_6: 0
Non-critical_IP_ROB_Stalls_Bucket_6: 46650
0 => IPs accounting for >50 percent of stalls, 1 => 55, 2 => 60, 3 => 65 and so on till 90.
percent50: 56.5879 num IPs:  3
percent55: 56.5879 num IPs: 3
percent60: 69.8652 num IPs: 4
percent65: 69.8652 num IPs: 4
percent70: 77.1422 num IPs: 5
percent75: 77.1422 num IPs: 5
percent80: 82.2109 num IPs: 7
percent85: 86.5086 num IPs: 9
percent90: 90.9529 num IPs: 13
Critical_ROB_Stalls_Percent_0_Bucket_0: 4018521
Non-critical_ROB_Stalls_Percent_0_Bucket_0: 2481684
Critical_ROB_Stalls_Percent_0_Bucket_1: 205461
Non-critical_ROB_Stalls_Percent_0_Bucket_1: 585460
Critical_ROB_Stalls_Percent_0_Bucket_2: 22175
Non-critical_ROB_Stalls_Percent_0_Bucket_2: 64887
Critical_ROB_Stalls_Percent_0_Bucket_3: 17052
Non-critical_ROB_Stalls_Percent_0_Bucket_3: 55630
Critical_ROB_Stalls_Percent_0_Bucket_4: 10787
Non-critical_ROB_Stalls_Percent_0_Bucket_4: 30455
Critical_ROB_Stalls_Percent_0_Bucket_5: 9317
Non-critical_ROB_Stalls_Percent_0_Bucket_5: 34765
Critical_ROB_Stalls_Percent_0_Bucket_6: 7660
Non-critical_ROB_Stalls_Percent_0_Bucket_6: 38990
Critical_ROB_Stalls_Percent_1_Bucket_0: 4018521
Non-critical_ROB_Stalls_Percent_1_Bucket_0: 2481684
Critical_ROB_Stalls_Percent_1_Bucket_1: 205461
Non-critical_ROB_Stalls_Percent_1_Bucket_1: 585460
Critical_ROB_Stalls_Percent_1_Bucket_2: 22175
Non-critical_ROB_Stalls_Percent_1_Bucket_2: 64887
Critical_ROB_Stalls_Percent_1_Bucket_3: 17052
Non-critical_ROB_Stalls_Percent_1_Bucket_3: 55630
Critical_ROB_Stalls_Percent_1_Bucket_4: 10787
Non-critical_ROB_Stalls_Percent_1_Bucket_4: 30455
Critical_ROB_Stalls_Percent_1_Bucket_5: 9317
Non-critical_ROB_Stalls_Percent_1_Bucket_5: 34765
Critical_ROB_Stalls_Percent_1_Bucket_6: 7660
Non-critical_ROB_Stalls_Percent_1_Bucket_6: 38990
Critical_ROB_Stalls_Percent_2_Bucket_0: 4728687
Non-critical_ROB_Stalls_Percent_2_Bucket_0: 1771518
Critical_ROB_Stalls_Percent_2_Bucket_1: 484377
Non-critical_ROB_Stalls_Percent_2_Bucket_1: 306544
Critical_ROB_Stalls_Percent_2_Bucket_2: 28506
Non-critical_ROB_Stalls_Percent_2_Bucket_2: 58556
Critical_ROB_Stalls_Percent_2_Bucket_3: 21093
Non-critical_ROB_Stalls_Percent_2_Bucket_3: 51589
Critical_ROB_Stalls_Percent_2_Bucket_4: 12687
Non-critical_ROB_Stalls_Percent_2_Bucket_4: 28555
Critical_ROB_Stalls_Percent_2_Bucket_5: 11603
Non-critical_ROB_Stalls_Percent_2_Bucket_5: 32479
Critical_ROB_Stalls_Percent_2_Bucket_6: 10819
Non-critical_ROB_Stalls_Percent_2_Bucket_6: 35831
Critical_ROB_Stalls_Percent_3_Bucket_0: 4728687
Non-critical_ROB_Stalls_Percent_3_Bucket_0: 1771518
Critical_ROB_Stalls_Percent_3_Bucket_1: 484377
Non-critical_ROB_Stalls_Percent_3_Bucket_1: 306544
Critical_ROB_Stalls_Percent_3_Bucket_2: 28506
Non-critical_ROB_Stalls_Percent_3_Bucket_2: 58556
Critical_ROB_Stalls_Percent_3_Bucket_3: 21093
Non-critical_ROB_Stalls_Percent_3_Bucket_3: 51589
Critical_ROB_Stalls_Percent_3_Bucket_4: 12687
Non-critical_ROB_Stalls_Percent_3_Bucket_4: 28555
Critical_ROB_Stalls_Percent_3_Bucket_5: 11603
Non-critical_ROB_Stalls_Percent_3_Bucket_5: 32479
Critical_ROB_Stalls_Percent_3_Bucket_6: 10819
Non-critical_ROB_Stalls_Percent_3_Bucket_6: 35831
Critical_ROB_Stalls_Percent_4_Bucket_0: 5242641
Non-critical_ROB_Stalls_Percent_4_Bucket_0: 1257564
Critical_ROB_Stalls_Percent_4_Bucket_1: 511193
Non-critical_ROB_Stalls_Percent_4_Bucket_1: 279728
Critical_ROB_Stalls_Percent_4_Bucket_2: 31983
Non-critical_ROB_Stalls_Percent_4_Bucket_2: 55079
Critical_ROB_Stalls_Percent_4_Bucket_3: 23584
Non-critical_ROB_Stalls_Percent_4_Bucket_3: 49098
Critical_ROB_Stalls_Percent_4_Bucket_4: 14739
Non-critical_ROB_Stalls_Percent_4_Bucket_4: 26503
Critical_ROB_Stalls_Percent_4_Bucket_5: 13131
Non-critical_ROB_Stalls_Percent_4_Bucket_5: 30951
Critical_ROB_Stalls_Percent_4_Bucket_6: 12300
Non-critical_ROB_Stalls_Percent_4_Bucket_6: 34350
Critical_ROB_Stalls_Percent_5_Bucket_0: 5242641
Non-critical_ROB_Stalls_Percent_5_Bucket_0: 1257564
Critical_ROB_Stalls_Percent_5_Bucket_1: 511193
Non-critical_ROB_Stalls_Percent_5_Bucket_1: 279728
Critical_ROB_Stalls_Percent_5_Bucket_2: 31983
Non-critical_ROB_Stalls_Percent_5_Bucket_2: 55079
Critical_ROB_Stalls_Percent_5_Bucket_3: 23584
Non-critical_ROB_Stalls_Percent_5_Bucket_3: 49098
Critical_ROB_Stalls_Percent_5_Bucket_4: 14739
Non-critical_ROB_Stalls_Percent_5_Bucket_4: 26503
Critical_ROB_Stalls_Percent_5_Bucket_5: 13131
Non-critical_ROB_Stalls_Percent_5_Bucket_5: 30951
Critical_ROB_Stalls_Percent_5_Bucket_6: 12300
Non-critical_ROB_Stalls_Percent_5_Bucket_6: 34350
Critical_ROB_Stalls_Percent_6_Bucket_0: 5626757
Non-critical_ROB_Stalls_Percent_6_Bucket_0: 873448
Critical_ROB_Stalls_Percent_6_Bucket_1: 511243
Non-critical_ROB_Stalls_Percent_6_Bucket_1: 279678
Critical_ROB_Stalls_Percent_6_Bucket_2: 32032
Non-critical_ROB_Stalls_Percent_6_Bucket_2: 55030
Critical_ROB_Stalls_Percent_6_Bucket_3: 23644
Non-critical_ROB_Stalls_Percent_6_Bucket_3: 49038
Critical_ROB_Stalls_Percent_6_Bucket_4: 14767
Non-critical_ROB_Stalls_Percent_6_Bucket_4: 26475
Critical_ROB_Stalls_Percent_6_Bucket_5: 13161
Non-critical_ROB_Stalls_Percent_6_Bucket_5: 30921
Critical_ROB_Stalls_Percent_6_Bucket_6: 12323
Non-critical_ROB_Stalls_Percent_6_Bucket_6: 34327
Critical_ROB_Stalls_Percent_7_Bucket_0: 5903703
Non-critical_ROB_Stalls_Percent_7_Bucket_0: 596502
Critical_ROB_Stalls_Percent_7_Bucket_1: 545418
Non-critical_ROB_Stalls_Percent_7_Bucket_1: 245503
Critical_ROB_Stalls_Percent_7_Bucket_2: 38184
Non-critical_ROB_Stalls_Percent_7_Bucket_2: 48878
Critical_ROB_Stalls_Percent_7_Bucket_3: 26860
Non-critical_ROB_Stalls_Percent_7_Bucket_3: 45822
Critical_ROB_Stalls_Percent_7_Bucket_4: 16780
Non-critical_ROB_Stalls_Percent_7_Bucket_4: 24462
Critical_ROB_Stalls_Percent_7_Bucket_5: 14388
Non-critical_ROB_Stalls_Percent_7_Bucket_5: 29694
Critical_ROB_Stalls_Percent_7_Bucket_6: 14479
Non-critical_ROB_Stalls_Percent_7_Bucket_6: 32171
Critical_ROB_Stalls_Percent_8_Bucket_0: 6060530
Non-critical_ROB_Stalls_Percent_8_Bucket_0: 439675
Critical_ROB_Stalls_Percent_8_Bucket_1: 657266
Non-critical_ROB_Stalls_Percent_8_Bucket_1: 133655
Critical_ROB_Stalls_Percent_8_Bucket_2: 58466
Non-critical_ROB_Stalls_Percent_8_Bucket_2: 28596
Critical_ROB_Stalls_Percent_8_Bucket_3: 42503
Non-critical_ROB_Stalls_Percent_8_Bucket_3: 30179
Critical_ROB_Stalls_Percent_8_Bucket_4: 29270
Non-critical_ROB_Stalls_Percent_8_Bucket_4: 11972
Critical_ROB_Stalls_Percent_8_Bucket_5: 22868
Non-critical_ROB_Stalls_Percent_8_Bucket_5: 21214
Critical_ROB_Stalls_Percent_8_Bucket_6: 25910
Non-critical_ROB_Stalls_Percent_8_Bucket_6: 20740
Average ROB occupancy Load Stall Begin: 38.316
Average ROB occupancy Load Stall End: 46.6696
Min ROB occupancy Load Stall Begin: 2
Max ROB occupancy Load Stall Begin: 352
Min ROB occupancy Load Stall End: 2
Max ROB occupancy Load Stall End: 352
Average ROB occupancy Critical Load Stall Begin: -nan
Average ROB occupancy Critical Load Stall End: -nan
Min ROB occupancy Critical Load Stall Begin: 400
Max ROB occupancy Critical Load Stall Begin: 0
Min ROB occupancy Critical Load Stall End: 400
Max ROB occupancy Critical Load Stall End: 0
 ROB Load Stall Begin Bucket Count 0: 7070263
 ROB Load Stall End Bucket Count 0: 6500205
 ROB Critical Load Stall Begin Bucket Count 0: 0
 ROB Critical Load Stall End Bucket Count 0: 0
 ROB Load Stall Begin Bucket Count 1: 270116
 ROB Load Stall End Bucket Count 1: 790921
 ROB Critical Load Stall Begin Bucket Count 1: 0
 ROB Critical Load Stall End Bucket Count 1: 0
 ROB Load Stall Begin Bucket Count 2: 83886
 ROB Load Stall End Bucket Count 2: 87062
 ROB Critical Load Stall Begin Bucket Count 2: 0
 ROB Critical Load Stall End Bucket Count 2: 0
 ROB Load Stall Begin Bucket Count 3: 55151
 ROB Load Stall End Bucket Count 3: 72682
 ROB Critical Load Stall Begin Bucket Count 3: 0
 ROB Critical Load Stall End Bucket Count 3: 0
 ROB Load Stall Begin Bucket Count 4: 36404
 ROB Load Stall End Bucket Count 4: 41242
 ROB Critical Load Stall Begin Bucket Count 4: 0
 ROB Critical Load Stall End Bucket Count 4: 0
 ROB Load Stall Begin Bucket Count 5: 37382
 ROB Load Stall End Bucket Count 5: 44082
 ROB Critical Load Stall Begin Bucket Count 5: 0
 ROB Critical Load Stall End Bucket Count 5: 0
 ROB Load Stall Begin Bucket Count 6: 29642
 ROB Load Stall End Bucket Count 6: 46650
 ROB Critical Load Stall Begin Bucket Count 6: 0
 ROB Critical Load Stall End Bucket Count 6: 0
PIST Tag Read Accesses: 146378
PIST Read Accesses: 73189
PIST Tag Write Accesses: 146378
PIST Write Accesses: 73189
Criticality detector called times: 1150839
Max global_stall_cycles_count: 391498
Threshold Modified: 1 times, factor: -1
Sturdy critical IP cache stats: 
 Unused entries: 0
CIC Tag Read Accesses: 0
CIC Read Accesses: 0
CIC Tag Write Accesses: 0
CIC Write Accesses: 0
Wobbly critical IP cache stats: 
 Unused entries: 112
CIC Tag Read Accesses: 255044099
CIC Read Accesses: 0
CIC Tag Write Accesses: 155922
CIC Write Accesses: 0
ITLB TOTAL     ACCESS:   12653070  HIT:   12653070  MISS:          0  HIT %:        100  MISS %:          0   MPKI: 0
ITLB LOAD TRANSLATION ACCESS:   12653070  HIT:   12653070  MISS:          0  HIT %:        100  MISS %:          0   MPKI: 0
ITLB PREFETCH  REQUESTED:          0  ISSUED:          0  USEFUL:          0  USELESS:          0
ITLB USEFUL LOAD PREFETCHES:          0 PREFETCH ISSUED TO LOWER LEVEL:          0  ACCURACY: -nan
ITLB TIMELY PREFETCHES:          0 LATE PREFETCHES: 0 DROPPED PREFETCHES: 0
ITLB PREFETCHES SAME FILL-ORIGIN LEVEL: 0 DIFFERENT FILL-ORIGIN LEVEL: 0
ITLB AVERAGE MISS LATENCY: -nan cycles
ITLB RQ	ACCESS:   17173031	FORWARD:          0	MERGED:    4519961	TO_CACHE:   12653070

DTLB TOTAL     ACCESS:   33056647  HIT:   32853861  MISS:     202786  HIT %:    99.3866  MISS %:    0.61345   MPKI: 2.02786
DTLB LOAD TRANSLATION ACCESS:   33056647  HIT:   32853861  MISS:     202786  HIT %:    99.3866  MISS %:    0.61345   MPKI: 2.02786
DTLB PREFETCH  REQUESTED:          0  ISSUED:          0  USEFUL:          0  USELESS:          0
DTLB USEFUL LOAD PREFETCHES:          0 PREFETCH ISSUED TO LOWER LEVEL:          0  ACCURACY: -nan
DTLB TIMELY PREFETCHES:          0 LATE PREFETCHES: 0 DROPPED PREFETCHES: 0
DTLB PREFETCHES SAME FILL-ORIGIN LEVEL: 0 DIFFERENT FILL-ORIGIN LEVEL: 0
DTLB AVERAGE MISS LATENCY: 81.0453 cycles
DTLB RQ	ACCESS:   38889441	FORWARD:          0	MERGED:    5803925	TO_CACHE:   33085516

STLB TOTAL     ACCESS:    7105664  HIT:    7075977  MISS:      29687  HIT %:    99.5822  MISS %:   0.417793   MPKI: 0.29687
STLB LOAD TRANSLATION ACCESS:     202786  HIT:     173099  MISS:      29687  HIT %:    85.3604  MISS %:    14.6396   MPKI: 0.29687
STLB TRANSLATION FROM L1D PREFETCHER ACCESS:    6902878  HIT:    6902878  MISS:          0  HIT %:        100  MISS %:          0   MPKI: 0
STLB PREFETCH  REQUESTED:          0  ISSUED:          0  USEFUL:          0  USELESS:          0
STLB USEFUL LOAD PREFETCHES:          0 PREFETCH ISSUED TO LOWER LEVEL:          0  ACCURACY: -nan
STLB TIMELY PREFETCHES:          0 LATE PREFETCHES: 0 DROPPED PREFETCHES: 0
STLB PREFETCHES SAME FILL-ORIGIN LEVEL: 0 DIFFERENT FILL-ORIGIN LEVEL: 0
STLB AVERAGE MISS LATENCY: 465.026 cycles
STLB RQ	ACCESS:   32395038	FORWARD:          0	MERGED:   25289373	TO_CACHE:    7105665

STLB Hit, L1D data hit: 0
STLB Hit, L2C data hit: 0
STLB Hit, LLC data hit: 0
STLB Hit, LLC data miss: 0
STLB STLB hints to L2: 0
L1D TOTAL     ACCESS:   70047515  HIT:   68038216  MISS:    2009299  HIT %:    97.1315  MISS %:    2.86848   MPKI: 20.093
L1D LOAD      ACCESS:   33236907  HIT:   33137230  MISS:      99677  HIT %:    99.7001  MISS %:   0.299899   MPKI: 0.99677
L1D RFO       ACCESS:    5592030  HIT:    5543306  MISS:      48724  HIT %:    99.1287  MISS %:   0.871311   MPKI: 0.48724
L1D PREFETCH  ACCESS:   31218578  HIT:   29357680  MISS:    1860898  HIT %:    94.0391  MISS %:    5.96087   MPKI: 18.609
L1D PREFETCH  REQUESTED:   91322875  ISSUED:   64498510  USEFUL:    1850774  USELESS:      10126
L1D USEFUL LOAD PREFETCHES:    1850774 PREFETCH ISSUED TO LOWER LEVEL:    1880705  ACCURACY: 98.4085
L1D TIMELY PREFETCHES:    1850774 LATE PREFETCHES: 19803 DROPPED PREFETCHES: 0
L1D PREFETCHES SAME FILL-ORIGIN LEVEL: 1880705 DIFFERENT FILL-ORIGIN LEVEL: 0
L1D AVERAGE MISS LATENCY: 636484 cycles
L1D RQ	ACCESS:   42688516	FORWARD:          0	MERGED:    9232549	TO_CACHE:   33256114
L1D WQ	ACCESS:    5633399	FORWARD:     199853	MERGED:         72	TO_CACHE:    5633327
L1D PQ	ACCESS:   32306258	FORWARD:          0	MERGED:     114006	TO_CACHE:   32192252

L1D UNIQUE REGIONS ACCESSED: 0
L1D REGIONS CONFLICTS: 0
L1D Cross Page Prefetch Requests: 0
L1D Same Page Prefetch Requests: 45856428
L1D ROI Sum of L1D PQ occupancy: 498669163
L1D PREFETCHES PUSHED FROM L2C: 0
L1I TOTAL     ACCESS:   17173031  HIT:   17173031  MISS:          0  HIT %:        100  MISS %:          0   MPKI: 0
L1I LOAD      ACCESS:   17173031  HIT:   17173031  MISS:          0  HIT %:        100  MISS %:          0   MPKI: 0
L1I PREFETCH  REQUESTED:          0  ISSUED:          0  USEFUL:          0  USELESS:          0
L1I USEFUL LOAD PREFETCHES:          0 PREFETCH ISSUED TO LOWER LEVEL:          0  ACCURACY: -nan
L1I TIMELY PREFETCHES:          0 LATE PREFETCHES: 0 DROPPED PREFETCHES: 0
L1I PREFETCHES SAME FILL-ORIGIN LEVEL: 0 DIFFERENT FILL-ORIGIN LEVEL: 0
L1I AVERAGE MISS LATENCY: -nan cycles
L1I RQ	ACCESS:   22884199	FORWARD:          0	MERGED:    5711168	TO_CACHE:   17173031

BTB TOTAL     ACCESS:    2417447  HIT:    2417442  MISS:          5  HIT %:    99.9998  MISS %: 0.00020683   MPKI: 5e-05
BTB BRANCH_DIRECT_JUMP	ACCESS:          0  HIT:          0  MISS:          0
BTB BRANCH_INDIRECT	ACCESS:          0  HIT:          0  MISS:          0
BTB BRANCH_CONDITIONAL	ACCESS:    2417447  HIT:    2417442  MISS:          5
BTB BRANCH_DIRECT_CALL	ACCESS:          0  HIT:          0  MISS:          0
BTB BRANCH_INDIRECT_CALL	ACCESS:          0  HIT:          0  MISS:          0
BTB BRANCH_RETURN	ACCESS:          0  HIT:          0  MISS:          0
BTB BRANCH_OTHER ACCESS:          0  HIT:          0  MISS:          0

L2C TOTAL     ACCESS:    2088452  HIT:     184424  MISS:    1904028  HIT %:    8.83066  MISS %:    91.1693   MPKI: 19.0403
L2C LOAD      ACCESS:      79874  HIT:       3013  MISS:      76861  HIT %:    3.77219  MISS %:    96.2278   MPKI: 0.76861
L2C DATA LOAD MPKI: 0.76861
L2C INSTRUCTION LOAD MPKI: 0
L2C RFO       ACCESS:      48724  HIT:          0  MISS:      48724  HIT %:          0  MISS %:        100   MPKI: 0.48724
L2C PREFETCH  ACCESS:    1880701  HIT:     106029  MISS:    1774672  HIT %:    5.63774  MISS %:    94.3623   MPKI: 17.7467
L2C DATA PREFETCH MPKI: 17.7467
L2C INSTRUCTION PREFETCH MPKI: 0
L2C WRITEBACK ACCESS:      49464  HIT:      49464  MISS:          0  HIT %:        100  MISS %:          0   MPKI: 0
L2C LOAD TRANSLATION ACCESS:      29689  HIT:      25918  MISS:       3771  HIT %:    87.2983  MISS %:    12.7017   MPKI: 0.03771
L2C PREFETCH  REQUESTED:          0  ISSUED:          0  USEFUL:         48  USELESS:    1774760
L2C USEFUL LOAD PREFETCHES:         48 PREFETCH ISSUED TO LOWER LEVEL:    1774676  ACCURACY: 0.00270472
L2C TIMELY PREFETCHES:         48 LATE PREFETCHES: 0 DROPPED PREFETCHES: 0
L2C PREFETCHES SAME FILL-ORIGIN LEVEL: 0 DIFFERENT FILL-ORIGIN LEVEL: 0
L2C AVERAGE MISS LATENCY: 183.828 cycles
L2C RQ	ACCESS:     158287	FORWARD:          0	MERGED:          0	TO_CACHE:     158287
L2C WQ	ACCESS:      49464	FORWARD:          0	MERGED:          0	TO_CACHE:      49464
L2C PQ	ACCESS:    1880705	FORWARD:          0	MERGED:          0	TO_CACHE:    1880705

L2C Instructions Evicting Data 0
L2C Translations Evicting Data 3769
L2C Data Evicting Data 1896494
L2C Instructions Evicting Instructions 0
L2C Translations Evicting Instructions 0
L2C Data Evicting Instructions 0
L2C Instructions Evicting Translations 0
L2C Translations Evicting Translations 2
L2C Data Evicting Translations 3763
L2C Dense regions hint from L2: 0
PSCL5 TOTAL     ACCESS:      29687  HIT:      29687  MISS:          0  HIT %:        100  MISS %:          0   MPKI: 0
PSCL5 LOAD TRANSLATION ACCESS:      29687  HIT:      29687  MISS:          0  HIT %:        100  MISS %:          0   MPKI: 0
PSCL5 PREFETCH  REQUESTED:          0  ISSUED:          0  USEFUL:          0  USELESS:          0
PSCL5 USEFUL LOAD PREFETCHES:          0 PREFETCH ISSUED TO LOWER LEVEL:          0  ACCURACY: -nan
PSCL5 TIMELY PREFETCHES:          0 LATE PREFETCHES: 0 DROPPED PREFETCHES: 0
PSCL5 PREFETCHES SAME FILL-ORIGIN LEVEL: 0 DIFFERENT FILL-ORIGIN LEVEL: 0

PSCL4 TOTAL     ACCESS:      29687  HIT:      29687  MISS:          0  HIT %:        100  MISS %:          0   MPKI: 0
PSCL4 LOAD TRANSLATION ACCESS:      29687  HIT:      29687  MISS:          0  HIT %:        100  MISS %:          0   MPKI: 0
PSCL4 PREFETCH  REQUESTED:          0  ISSUED:          0  USEFUL:          0  USELESS:          0
PSCL4 USEFUL LOAD PREFETCHES:          0 PREFETCH ISSUED TO LOWER LEVEL:          0  ACCURACY: -nan
PSCL4 TIMELY PREFETCHES:          0 LATE PREFETCHES: 0 DROPPED PREFETCHES: 0
PSCL4 PREFETCHES SAME FILL-ORIGIN LEVEL: 0 DIFFERENT FILL-ORIGIN LEVEL: 0

PSCL3 TOTAL     ACCESS:      29687  HIT:      29687  MISS:          0  HIT %:        100  MISS %:          0   MPKI: 0
PSCL3 LOAD TRANSLATION ACCESS:      29687  HIT:      29687  MISS:          0  HIT %:        100  MISS %:          0   MPKI: 0
PSCL3 PREFETCH  REQUESTED:          0  ISSUED:          0  USEFUL:          0  USELESS:          0
PSCL3 USEFUL LOAD PREFETCHES:          0 PREFETCH ISSUED TO LOWER LEVEL:          0  ACCURACY: -nan
PSCL3 TIMELY PREFETCHES:          0 LATE PREFETCHES: 0 DROPPED PREFETCHES: 0
PSCL3 PREFETCHES SAME FILL-ORIGIN LEVEL: 0 DIFFERENT FILL-ORIGIN LEVEL: 0

PSCL2 TOTAL     ACCESS:      29687  HIT:      29628  MISS:         59  HIT %:    99.8013  MISS %:    0.19874   MPKI: 0.00059
PSCL2 LOAD TRANSLATION ACCESS:      29687  HIT:      29628  MISS:         59  HIT %:    99.8013  MISS %:    0.19874   MPKI: 0.00059
PSCL2 PREFETCH  REQUESTED:          0  ISSUED:          0  USEFUL:          0  USELESS:          0
PSCL2 USEFUL LOAD PREFETCHES:          0 PREFETCH ISSUED TO LOWER LEVEL:          0  ACCURACY: -nan
PSCL2 TIMELY PREFETCHES:          0 LATE PREFETCHES: 0 DROPPED PREFETCHES: 0
PSCL2 PREFETCHES SAME FILL-ORIGIN LEVEL: 0 DIFFERENT FILL-ORIGIN LEVEL: 0

LLC TOTAL     ACCESS:    1952789  HIT:      47953  MISS:    1904836  HIT %:    2.45562  MISS %:    97.5444   MPKI: 19.0484
LLC LOAD      ACCESS:      76861  HIT:          0  MISS:      76861  HIT %:          0  MISS %:        100   MPKI: 0.76861
LLC RFO       ACCESS:      48724  HIT:          0  MISS:      48724  HIT %:          0  MISS %:        100   MPKI: 0.48724
LLC PREFETCH  ACCESS:    1774672  HIT:         49  MISS:    1774623  HIT %: 0.00276107  MISS %:    99.9972   MPKI: 17.7462
LLC WRITEBACK ACCESS:      48761  HIT:      47904  MISS:        857  HIT %:    98.2424  MISS %:    1.75755   MPKI: 0.00857
LLC LOAD TRANSLATION ACCESS:       3771  HIT:          0  MISS:       3771  HIT %:          0  MISS %:        100   MPKI: 0.03771
LLC PREFETCH  REQUESTED:          0  ISSUED:          0  USEFUL:          0  USELESS:    1775326
LLC USEFUL LOAD PREFETCHES:          0 PREFETCH ISSUED TO LOWER LEVEL:    1774627  ACCURACY: 0
LLC TIMELY PREFETCHES:          0 LATE PREFETCHES: 0 DROPPED PREFETCHES: 0
LLC PREFETCHES SAME FILL-ORIGIN LEVEL: 0 DIFFERENT FILL-ORIGIN LEVEL: 0
LLC AVERAGE MISS LATENCY: 152.492 cycles
LLC RQ	ACCESS:     129356	FORWARD:          0	MERGED:          0	TO_CACHE:     129356
LLC WQ	ACCESS:      48761	FORWARD:          0	MERGED:          0	TO_CACHE:      48761
LLC PQ	ACCESS:    1774676	FORWARD:          0	MERGED:          0	TO_CACHE:    1774676

LLC Dense regions hint to LLC: 0

RAW hits: 291553
Loads Generated: 42980071
Loads sent to L1D: 42688516
Stores Generated: 5633399
Stores sent to L1D: 5633399
Major fault: 0 Minor fault: 42651
Allocated PAGES: 42651

stream: 
stream:times selected: 16068601
stream:pref_filled: 2746497
stream:pref_useful: 2746174
stream:pref_late: 20807
stream:misses: 492
stream:misses_by_poll: 0

CS: 
CS:times selected: 14310103
CS:pref_filled: 23260
CS:pref_useful: 23260
CS:pref_late: 766
CS:misses: 122224
CS:misses_by_poll: 116

CPLX: 
CPLX:times selected: 1758312
CPLX:pref_filled: 47441
CPLX:pref_useful: 33208
CPLX:pref_late: 194
CPLX:misses: 6530
CPLX:misses_by_poll: 156

NL_L1: 
NL:times selected: 4798
NL:pref_filled: 133
NL:pref_useful: 133
NL:pref_late: 18
NL:misses: 39
NL:misses_by_poll: 0

total selections: 32141814
total_filled: 1860898
total_useful: 1850774
total_late: 22076
total_polluted: 272
total_misses_after_warmup: 118887
conflicts: 269872
Degree Incremented Times: 369701
Degree Decremented Times: 0

L1 IP Table Write Accesses: 30424812
L1 IP Table Read Accesses: 30154940
L1 RST Write Accesses: 10764616
L1 RST Read Accesses: 21529232
L1 CSPT Write Accesses: 10764616
L1 CSPT Read Accesses: 13931809
L1 RR Filter Tag Write Accesses: 59130623
L1 RR Filter Tag Read Accesses: 2727983928
L1 IP Table Tag Write Accesses: 33256117
L1 IP Table Tag Read Accesses: 33256117
L1 RST Tag Write Accesses: 0
L1 RST Tag Read Accesses: 96865126
L1 RR Filter Write Accesses: 0
L1 RR Filter Read Accesses: 91617823
test: 314677

DRAM Statistics
 CHANNEL 0
 RQ ROW_BUFFER_HIT:    1315720  ROW_BUFFER_MISS:     588261
 DBUS_CONGESTED:        751
 WQ ROW_BUFFER_HIT:       7519  ROW_BUFFER_MISS:      41145  FULL:          0

 AVG_CONGESTED_CYCLE: 4
 All warmup complete: 2
Channel 0 Bank busy for read cycles: 0
Channel 0 Bank busy for write cycles: 0
Channel 0
Rank 0
0banks busy for read cycles: 32885045
0banks busy for write cycles: 14466
1banks busy for read cycles: 20350838
1banks busy for write cycles: 1267867
2banks busy for read cycles: 12956663
2banks busy for write cycles: 618498
3banks busy for read cycles: 11575722
3banks busy for write cycles: 688254
4banks busy for read cycles: 6900192
4banks busy for write cycles: 273640
5banks busy for read cycles: 3857828
5banks busy for write cycles: 199928
6banks busy for read cycles: 2271681
6banks busy for write cycles: 160482
7banks busy for read cycles: 1320472
7banks busy for write cycles: 145908
8banks busy for read cycles: 410323
8banks busy for write cycles: 153420

CPU 0 Branch Prediction Accuracy: 99.9707% MPKI: 0.00732 Average ROB Occupancy at Mispredict: 42.1448
Branch types
NOT_BRANCH: 97503533 97.5035%
BRANCH_DIRECT_JUMP: 0 0%
BRANCH_INDIRECT: 0 0%
BRANCH_CONDITIONAL: 2496132 2.49613%
BRANCH_DIRECT_CALL: 0 0%
BRANCH_INDIRECT_CALL: 0 0%
BRANCH_RETURN: 0 0%
BRANCH_OTHER: 0 0%

DRAM PAGES: 1048576
Allocated PAGES: 42651
