
*** ChampSim Multicore Out-of-Order Simulator ***

Warmup Instructions: 50000000
Simulation Instructions: 100000000
Number of CPUs: 1
LLC sets: 2048
LLC ways: 16
Off-chip DRAM Size: 4096 MB Channels: 1 Width: 64-bit Data Rate: 6400 MT/s
CPU 0 runs ../SPEC_2006_2017//603.bwaves_s-2931B.champsimtrace.xz
.xz
NUM_OF_IPS_IN_CRITICAL_IP_TRAINING: 64
NUM_OF_CRITICAL_IP_TRAINING_TABLE_WAYS: 2
NUM_OF_CRITICAL_IP_TRAINING_TABLE_SETS: 32
WOBBLY_CRITICAL_IP_CACHE_SETS: 32
WOBBLY_CRITICAL_IP_CACHE_WAYS: 4
BTB has LRU replacement policy
ITLB has LRU replacement policy
DTLB has LRU replacement policy
STLB has LRU replacement policy
L1I has LRU replacement policy
IP Table Entries: 64
L1D has LRU replacement policy
Initialize SRRIP state for L2C
Initialize DRRIP state for LLC
Heartbeat CPU 0 instructions: 10000003 cycles: 2946896 heartbeat IPC: 3.3934 cumulative IPC: 3.3934 (Simulation time: 0 hr 4 min 56 sec) 
Heartbeat CPU 0 instructions: 20000003 cycles: 5893518 heartbeat IPC: 3.39372 cumulative IPC: 3.39356 (Simulation time: 0 hr 9 min 53 sec) 
Heartbeat CPU 0 instructions: 30000003 cycles: 8840091 heartbeat IPC: 3.39377 cumulative IPC: 3.39363 (Simulation time: 0 hr 14 min 36 sec) 
Heartbeat CPU 0 instructions: 40000002 cycles: 11786816 heartbeat IPC: 3.3936 cumulative IPC: 3.39362 (Simulation time: 0 hr 19 min 22 sec) 
Heartbeat CPU 0 instructions: 50000003 cycles: 14733505 heartbeat IPC: 3.39364 cumulative IPC: 3.39363 (Simulation time: 0 hr 23 min 47 sec) 

Warmup complete CPU 0 instructions: 50000003 cycles: 14733505 (Simulation time: 0 hr 23 min 47 sec) 

% increase in all ip prefetch 188.642
% increase in all ip prefetch 1.99418
Heartbeat CPU 0 instructions: 60000000 cycles: 23331145 heartbeat IPC: 1.16311 cumulative IPC: 1.16311 (Simulation time: 0 hr 27 min 36 sec) 
Heartbeat CPU 0 instructions: 70000002 cycles: 31951455 heartbeat IPC: 1.16005 cumulative IPC: 1.16158 (Simulation time: 0 hr 31 min 14 sec) 
Heartbeat CPU 0 instructions: 80000003 cycles: 40574987 heartbeat IPC: 1.15962 cumulative IPC: 1.16092 (Simulation time: 0 hr 34 min 50 sec) 
Heartbeat CPU 0 instructions: 90000003 cycles: 49210236 heartbeat IPC: 1.15804 cumulative IPC: 1.1602 (Simulation time: 0 hr 38 min 17 sec) 
Heartbeat CPU 0 instructions: 100000000 cycles: 57837995 heartbeat IPC: 1.15905 cumulative IPC: 1.15997 (Simulation time: 0 hr 41 min 33 sec) 
Heartbeat CPU 0 instructions: 110000000 cycles: 66750592 heartbeat IPC: 1.12201 cumulative IPC: 1.15347 (Simulation time: 0 hr 44 min 57 sec) 
Heartbeat CPU 0 instructions: 120000000 cycles: 75867194 heartbeat IPC: 1.0969 cumulative IPC: 1.14503 (Simulation time: 0 hr 48 min 18 sec) 
Heartbeat CPU 0 instructions: 130000000 cycles: 84993828 heartbeat IPC: 1.09569 cumulative IPC: 1.13862 (Simulation time: 0 hr 51 min 21 sec) 
Heartbeat CPU 0 instructions: 140000002 cycles: 94107160 heartbeat IPC: 1.09729 cumulative IPC: 1.13388 (Simulation time: 0 hr 54 min 21 sec) 
Heartbeat CPU 0 instructions: 150000001 cycles: 103212302 heartbeat IPC: 1.09828 cumulative IPC: 1.13021 (Simulation time: 0 hr 57 min 0 sec) 
Finished CPU 0 instructions: 100000002 cycles: 88478798 cumulative IPC: 1.13021 (Simulation time: 0 hr 57 min 0 sec) 

ChampSim completed all CPUs

Region of Interest Statistics

CPU 0 cumulative IPC: 1.13021 instructions: 100000002 cycles: 88478798

CPU 0 Average Load ROB stall cycles: 1.52957e+07
CPU 0 Fraction of times ROB stalled by Loads: 26.2421
CPU 0 Percentage of Load stall cycles in Total stall cycles: 2.57924e+08
Issued all: 50577964
Issued LT all: 35945169
rob_not_full_when_issued_lt_all: 29523562
Issued LT one: 32330692
rob_not_full_when_issued_lt_one: 26288888
 Total stall cycles: 65236878
 Total load stall cycles: 168261619465691
CPU 0 NUM of IPS identified critical: 0
CPU 0 Num of Load IPs stalling ROB: 140
Threshold modification factor: -1
Max PIST entries: 59
Min PIST entries: 0
Avg PIST entries: 34.8067
Trouble in retire width: 0.803146
MaC = Marked as critical.
lt_50_percent_before_Mac: 0
gt_90_percent_before_Mac: 0
gt_75_percent_before_Mac: 0
gt_50_percent_before_Mac: 0
stall_proportion_bin_same_before_after: 0
stall_proportion_bin_lower_before_after: 0
stall_proportion_bin_upper_before_after: 0
average_stall_proportion_before: -nan
average_stall_proportion_after: -nan
Critical IP stalls, total frequency: 0
Non-critical IP stalls, total frequency: 2886796
Total Freq all stalling IPs: 2886796
stat_90_percent_critical_ip_stalls_freq: 2606107
stat_90_percent_non_critical_ip_stalls_freq: 280689
Critical_IP_ROB_Stalls_Bucket_0: 0
Non-critical_IP_ROB_Stalls_Bucket_0: 1177395
Critical_IP_ROB_Stalls_Bucket_1: 0
Non-critical_IP_ROB_Stalls_Bucket_1: 1206686
Critical_IP_ROB_Stalls_Bucket_2: 0
Non-critical_IP_ROB_Stalls_Bucket_2: 161936
Critical_IP_ROB_Stalls_Bucket_3: 0
Non-critical_IP_ROB_Stalls_Bucket_3: 77623
Critical_IP_ROB_Stalls_Bucket_4: 0
Non-critical_IP_ROB_Stalls_Bucket_4: 90383
Critical_IP_ROB_Stalls_Bucket_5: 0
Non-critical_IP_ROB_Stalls_Bucket_5: 77937
Critical_IP_ROB_Stalls_Bucket_6: 0
Non-critical_IP_ROB_Stalls_Bucket_6: 94836
0 => IPs accounting for >50 percent of stalls, 1 => 55, 2 => 60, 3 => 65 and so on till 90.
percent50: 54.1563 num IPs:  3
percent55: 61.308 num IPs: 4
percent60: 61.308 num IPs: 4
percent65: 68.3435 num IPs: 5
percent70: 73.2017 num IPs: 6
percent75: 76.5646 num IPs: 7
percent80: 80.9931 num IPs: 9
percent85: 85.6372 num IPs: 13
percent90: 90.2768 num IPs: 19
Critical_ROB_Stalls_Percent_0_Bucket_0: 497216
Non-critical_ROB_Stalls_Percent_0_Bucket_0: 680179
Critical_ROB_Stalls_Percent_0_Bucket_1: 797136
Non-critical_ROB_Stalls_Percent_0_Bucket_1: 409550
Critical_ROB_Stalls_Percent_0_Bucket_2: 86021
Non-critical_ROB_Stalls_Percent_0_Bucket_2: 75915
Critical_ROB_Stalls_Percent_0_Bucket_3: 49970
Non-critical_ROB_Stalls_Percent_0_Bucket_3: 27653
Critical_ROB_Stalls_Percent_0_Bucket_4: 56960
Non-critical_ROB_Stalls_Percent_0_Bucket_4: 33423
Critical_ROB_Stalls_Percent_0_Bucket_5: 52126
Non-critical_ROB_Stalls_Percent_0_Bucket_5: 25811
Critical_ROB_Stalls_Percent_0_Bucket_6: 23952
Non-critical_ROB_Stalls_Percent_0_Bucket_6: 70884
Critical_ROB_Stalls_Percent_1_Bucket_0: 647951
Non-critical_ROB_Stalls_Percent_1_Bucket_0: 529444
Critical_ROB_Stalls_Percent_1_Bucket_1: 811508
Non-critical_ROB_Stalls_Percent_1_Bucket_1: 395178
Critical_ROB_Stalls_Percent_1_Bucket_2: 88452
Non-critical_ROB_Stalls_Percent_1_Bucket_2: 73484
Critical_ROB_Stalls_Percent_1_Bucket_3: 51587
Non-critical_ROB_Stalls_Percent_1_Bucket_3: 26036
Critical_ROB_Stalls_Percent_1_Bucket_4: 59245
Non-critical_ROB_Stalls_Percent_1_Bucket_4: 31138
Critical_ROB_Stalls_Percent_1_Bucket_5: 53611
Non-critical_ROB_Stalls_Percent_1_Bucket_5: 24326
Critical_ROB_Stalls_Percent_1_Bucket_6: 57483
Non-critical_ROB_Stalls_Percent_1_Bucket_6: 37353
Critical_ROB_Stalls_Percent_2_Bucket_0: 647951
Non-critical_ROB_Stalls_Percent_2_Bucket_0: 529444
Critical_ROB_Stalls_Percent_2_Bucket_1: 811508
Non-critical_ROB_Stalls_Percent_2_Bucket_1: 395178
Critical_ROB_Stalls_Percent_2_Bucket_2: 88452
Non-critical_ROB_Stalls_Percent_2_Bucket_2: 73484
Critical_ROB_Stalls_Percent_2_Bucket_3: 51587
Non-critical_ROB_Stalls_Percent_2_Bucket_3: 26036
Critical_ROB_Stalls_Percent_2_Bucket_4: 59245
Non-critical_ROB_Stalls_Percent_2_Bucket_4: 31138
Critical_ROB_Stalls_Percent_2_Bucket_5: 53611
Non-critical_ROB_Stalls_Percent_2_Bucket_5: 24326
Critical_ROB_Stalls_Percent_2_Bucket_6: 57483
Non-critical_ROB_Stalls_Percent_2_Bucket_6: 37353
Critical_ROB_Stalls_Percent_3_Bucket_0: 653827
Non-critical_ROB_Stalls_Percent_3_Bucket_0: 523568
Critical_ROB_Stalls_Percent_3_Bucket_1: 992898
Non-critical_ROB_Stalls_Percent_3_Bucket_1: 213788
Critical_ROB_Stalls_Percent_3_Bucket_2: 95503
Non-critical_ROB_Stalls_Percent_3_Bucket_2: 66433
Critical_ROB_Stalls_Percent_3_Bucket_3: 52740
Non-critical_ROB_Stalls_Percent_3_Bucket_3: 24883
Critical_ROB_Stalls_Percent_3_Bucket_4: 60980
Non-critical_ROB_Stalls_Percent_3_Bucket_4: 29403
Critical_ROB_Stalls_Percent_3_Bucket_5: 54825
Non-critical_ROB_Stalls_Percent_3_Bucket_5: 23112
Critical_ROB_Stalls_Percent_3_Bucket_6: 62163
Non-critical_ROB_Stalls_Percent_3_Bucket_6: 32673
Critical_ROB_Stalls_Percent_4_Bucket_0: 784393
Non-critical_ROB_Stalls_Percent_4_Bucket_0: 393002
Critical_ROB_Stalls_Percent_4_Bucket_1: 1000421
Non-critical_ROB_Stalls_Percent_4_Bucket_1: 206265
Critical_ROB_Stalls_Percent_4_Bucket_2: 95858
Non-critical_ROB_Stalls_Percent_4_Bucket_2: 66078
Critical_ROB_Stalls_Percent_4_Bucket_3: 53247
Non-critical_ROB_Stalls_Percent_4_Bucket_3: 24376
Critical_ROB_Stalls_Percent_4_Bucket_4: 61505
Non-critical_ROB_Stalls_Percent_4_Bucket_4: 28878
Critical_ROB_Stalls_Percent_4_Bucket_5: 55118
Non-critical_ROB_Stalls_Percent_4_Bucket_5: 22819
Critical_ROB_Stalls_Percent_4_Bucket_6: 62642
Non-critical_ROB_Stalls_Percent_4_Bucket_6: 32194
Critical_ROB_Stalls_Percent_5_Bucket_0: 878008
Non-critical_ROB_Stalls_Percent_5_Bucket_0: 299387
Critical_ROB_Stalls_Percent_5_Bucket_1: 1001001
Non-critical_ROB_Stalls_Percent_5_Bucket_1: 205685
Critical_ROB_Stalls_Percent_5_Bucket_2: 96478
Non-critical_ROB_Stalls_Percent_5_Bucket_2: 65458
Critical_ROB_Stalls_Percent_5_Bucket_3: 54355
Non-critical_ROB_Stalls_Percent_5_Bucket_3: 23268
Critical_ROB_Stalls_Percent_5_Bucket_4: 62097
Non-critical_ROB_Stalls_Percent_5_Bucket_4: 28286
Critical_ROB_Stalls_Percent_5_Bucket_5: 55523
Non-critical_ROB_Stalls_Percent_5_Bucket_5: 22414
Critical_ROB_Stalls_Percent_5_Bucket_6: 62802
Non-critical_ROB_Stalls_Percent_5_Bucket_6: 32034
Critical_ROB_Stalls_Percent_6_Bucket_0: 925671
Non-critical_ROB_Stalls_Percent_6_Bucket_0: 251724
Critical_ROB_Stalls_Percent_6_Bucket_1: 1052503
Non-critical_ROB_Stalls_Percent_6_Bucket_1: 154183
Critical_ROB_Stalls_Percent_6_Bucket_2: 102866
Non-critical_ROB_Stalls_Percent_6_Bucket_2: 59070
Critical_ROB_Stalls_Percent_6_Bucket_3: 59872
Non-critical_ROB_Stalls_Percent_6_Bucket_3: 17751
Critical_ROB_Stalls_Percent_6_Bucket_4: 68246
Non-critical_ROB_Stalls_Percent_6_Bucket_4: 22137
Critical_ROB_Stalls_Percent_6_Bucket_5: 59990
Non-critical_ROB_Stalls_Percent_6_Bucket_5: 17947
Critical_ROB_Stalls_Percent_6_Bucket_6: 68957
Non-critical_ROB_Stalls_Percent_6_Bucket_6: 25879
Critical_ROB_Stalls_Percent_7_Bucket_0: 1036707
Non-critical_ROB_Stalls_Percent_7_Bucket_0: 140688
Critical_ROB_Stalls_Percent_7_Bucket_1: 1067416
Non-critical_ROB_Stalls_Percent_7_Bucket_1: 139270
Critical_ROB_Stalls_Percent_7_Bucket_2: 103885
Non-critical_ROB_Stalls_Percent_7_Bucket_2: 58051
Critical_ROB_Stalls_Percent_7_Bucket_3: 61061
Non-critical_ROB_Stalls_Percent_7_Bucket_3: 16562
Critical_ROB_Stalls_Percent_7_Bucket_4: 69914
Non-critical_ROB_Stalls_Percent_7_Bucket_4: 20469
Critical_ROB_Stalls_Percent_7_Bucket_5: 61530
Non-critical_ROB_Stalls_Percent_7_Bucket_5: 16407
Critical_ROB_Stalls_Percent_7_Bucket_6: 71659
Non-critical_ROB_Stalls_Percent_7_Bucket_6: 23177
Critical_ROB_Stalls_Percent_8_Bucket_0: 1070922
Non-critical_ROB_Stalls_Percent_8_Bucket_0: 106473
Critical_ROB_Stalls_Percent_8_Bucket_1: 1096026
Non-critical_ROB_Stalls_Percent_8_Bucket_1: 110660
Critical_ROB_Stalls_Percent_8_Bucket_2: 146438
Non-critical_ROB_Stalls_Percent_8_Bucket_2: 15498
Critical_ROB_Stalls_Percent_8_Bucket_3: 66968
Non-critical_ROB_Stalls_Percent_8_Bucket_3: 10655
Critical_ROB_Stalls_Percent_8_Bucket_4: 76103
Non-critical_ROB_Stalls_Percent_8_Bucket_4: 14280
Critical_ROB_Stalls_Percent_8_Bucket_5: 68082
Non-critical_ROB_Stalls_Percent_8_Bucket_5: 9855
Critical_ROB_Stalls_Percent_8_Bucket_6: 81568
Non-critical_ROB_Stalls_Percent_8_Bucket_6: 13268
Average ROB occupancy Load Stall Begin: 64.6216
Average ROB occupancy Load Stall End: 80.5765
Min ROB occupancy Load Stall Begin: 2
Max ROB occupancy Load Stall Begin: 352
Min ROB occupancy Load Stall End: 2
Max ROB occupancy Load Stall End: 352
Average ROB occupancy Critical Load Stall Begin: -nan
Average ROB occupancy Critical Load Stall End: -nan
Min ROB occupancy Critical Load Stall Begin: 400
Max ROB occupancy Critical Load Stall Begin: 0
Min ROB occupancy Critical Load Stall End: 400
Max ROB occupancy Critical Load Stall End: 0
 ROB Load Stall Begin Bucket Count 0: 1806423
 ROB Load Stall End Bucket Count 0: 1177395
 ROB Critical Load Stall Begin Bucket Count 0: 0
 ROB Critical Load Stall End Bucket Count 0: 0
 ROB Load Stall Begin Bucket Count 1: 684105
 ROB Load Stall End Bucket Count 1: 1206686
 ROB Critical Load Stall Begin Bucket Count 1: 0
 ROB Critical Load Stall End Bucket Count 1: 0
 ROB Load Stall Begin Bucket Count 2: 114248
 ROB Load Stall End Bucket Count 2: 161936
 ROB Critical Load Stall Begin Bucket Count 2: 0
 ROB Critical Load Stall End Bucket Count 2: 0
 ROB Load Stall Begin Bucket Count 3: 84224
 ROB Load Stall End Bucket Count 3: 77623
 ROB Critical Load Stall Begin Bucket Count 3: 0
 ROB Critical Load Stall End Bucket Count 3: 0
 ROB Load Stall Begin Bucket Count 4: 83657
 ROB Load Stall End Bucket Count 4: 90383
 ROB Critical Load Stall Begin Bucket Count 4: 0
 ROB Critical Load Stall End Bucket Count 4: 0
 ROB Load Stall Begin Bucket Count 5: 71153
 ROB Load Stall End Bucket Count 5: 77937
 ROB Critical Load Stall Begin Bucket Count 5: 0
 ROB Critical Load Stall End Bucket Count 5: 0
 ROB Load Stall Begin Bucket Count 6: 42986
 ROB Load Stall End Bucket Count 6: 94836
 ROB Critical Load Stall Begin Bucket Count 6: 0
 ROB Critical Load Stall End Bucket Count 6: 0
PIST Tag Read Accesses: 261324
PIST Read Accesses: 130662
PIST Tag Write Accesses: 261324
PIST Write Accesses: 130662
Criticality detector called times: 396205
Max global_stall_cycles_count: 611900
Threshold Modified: 1 times, factor: -1
Sturdy critical IP cache stats: 
 Unused entries: 0
CIC Tag Read Accesses: 0
CIC Read Accesses: 0
CIC Tag Write Accesses: 0
CIC Write Accesses: 0
Wobbly critical IP cache stats: 
 Unused entries: 103
CIC Tag Read Accesses: 213104337
CIC Read Accesses: 0
CIC Tag Write Accesses: 9224771
CIC Write Accesses: 0
ITLB TOTAL     ACCESS:   12066642  HIT:   12066642  MISS:          0  HIT %:        100  MISS %:          0   MPKI: 0
ITLB LOAD TRANSLATION ACCESS:   12066642  HIT:   12066642  MISS:          0  HIT %:        100  MISS %:          0   MPKI: 0
ITLB PREFETCH  REQUESTED:          0  ISSUED:          0  USEFUL:          0  USELESS:          0
ITLB USEFUL LOAD PREFETCHES:          0 PREFETCH ISSUED TO LOWER LEVEL:          0  ACCURACY: -nan
ITLB TIMELY PREFETCHES:          0 LATE PREFETCHES: 0 DROPPED PREFETCHES: 0
ITLB PREFETCHES SAME FILL-ORIGIN LEVEL: 0 DIFFERENT FILL-ORIGIN LEVEL: 0
ITLB AVERAGE MISS LATENCY: -nan cycles
ITLB RQ	ACCESS:   13949626	FORWARD:          0	MERGED:    1882984	TO_CACHE:   12066642

DTLB TOTAL     ACCESS:   24203578  HIT:   23990864  MISS:     212714  HIT %:    99.1211  MISS %:   0.878854   MPKI: 2.12714
DTLB LOAD TRANSLATION ACCESS:   24203578  HIT:   23990864  MISS:     212714  HIT %:    99.1211  MISS %:   0.878854   MPKI: 2.12714
DTLB PREFETCH  REQUESTED:          0  ISSUED:          0  USEFUL:          0  USELESS:          0
DTLB USEFUL LOAD PREFETCHES:          0 PREFETCH ISSUED TO LOWER LEVEL:          0  ACCURACY: -nan
DTLB TIMELY PREFETCHES:          0 LATE PREFETCHES: 0 DROPPED PREFETCHES: 0
DTLB PREFETCHES SAME FILL-ORIGIN LEVEL: 0 DIFFERENT FILL-ORIGIN LEVEL: 0
DTLB AVERAGE MISS LATENCY: 43.58 cycles
DTLB RQ	ACCESS:   36447943	FORWARD:          0	MERGED:   12234034	TO_CACHE:   24213909

STLB TOTAL     ACCESS:    1199012  HIT:    1177708  MISS:      21304  HIT %:    98.2232  MISS %:     1.7768   MPKI: 0.21304
STLB LOAD TRANSLATION ACCESS:     212714  HIT:     191410  MISS:      21304  HIT %:    89.9847  MISS %:    10.0153   MPKI: 0.21304
STLB TRANSLATION FROM L1D PREFETCHER ACCESS:     986298  HIT:     986298  MISS:          0  HIT %:        100  MISS %:          0   MPKI: 0
STLB PREFETCH  REQUESTED:          0  ISSUED:          0  USEFUL:          0  USELESS:          0
STLB USEFUL LOAD PREFETCHES:          0 PREFETCH ISSUED TO LOWER LEVEL:          0  ACCURACY: -nan
STLB TIMELY PREFETCHES:          0 LATE PREFETCHES: 0 DROPPED PREFETCHES: 0
STLB PREFETCHES SAME FILL-ORIGIN LEVEL: 0 DIFFERENT FILL-ORIGIN LEVEL: 0
STLB AVERAGE MISS LATENCY: 339.013 cycles
STLB RQ	ACCESS:    5241339	FORWARD:          0	MERGED:    4042327	TO_CACHE:    1199012

STLB Hit, L1D data hit: 0
STLB Hit, L2C data hit: 0
STLB Hit, LLC data hit: 0
STLB Hit, LLC data miss: 0
STLB STLB hints to L2: 0
L1D TOTAL     ACCESS:   40147029  HIT:   38436749  MISS:    1710280  HIT %:      95.74  MISS %:    4.26004   MPKI: 17.1028
L1D LOAD      ACCESS:   18143445  HIT:   18042918  MISS:     100527  HIT %:    99.4459  MISS %:   0.554068   MPKI: 1.00527
L1D RFO       ACCESS:   16975048  HIT:   16342471  MISS:     632577  HIT %:    96.2735  MISS %:    3.72651   MPKI: 6.32577
L1D PREFETCH  ACCESS:    5028536  HIT:    4051360  MISS:     977176  HIT %:    80.5674  MISS %:    19.4326   MPKI: 9.77176
L1D PREFETCH  REQUESTED:   10260712  ISSUED:   10057250  USEFUL:     971324  USELESS:       5843
L1D USEFUL LOAD PREFETCHES:     971324 PREFETCH ISSUED TO LOWER LEVEL:     977180  ACCURACY: 99.4007
L1D TIMELY PREFETCHES:     971324 LATE PREFETCHES: 3 DROPPED PREFETCHES: 0
L1D PREFETCHES SAME FILL-ORIGIN LEVEL: 977180 DIFFERENT FILL-ORIGIN LEVEL: 0
L1D AVERAGE MISS LATENCY: 374.657 cycles
L1D RQ	ACCESS:   27315872	FORWARD:          0	MERGED:    8961415	TO_CACHE:   18152830
L1D WQ	ACCESS:   18324522	FORWARD:     201627	MERGED:      29409	TO_CACHE:   18295113
L1D PQ	ACCESS:    5028625	FORWARD:          0	MERGED:          0	TO_CACHE:    5028625

L1D UNIQUE REGIONS ACCESSED: 0
L1D REGIONS CONFLICTS: 0
L1D Cross Page Prefetch Requests: 0
L1D Same Page Prefetch Requests: 7571723
L1D ROI Sum of L1D PQ occupancy: 84323335
L1D PREFETCHES PUSHED FROM L2C: 0
L1I TOTAL     ACCESS:   13949625  HIT:   13949625  MISS:          0  HIT %:        100  MISS %:          0   MPKI: 0
L1I LOAD      ACCESS:   13949625  HIT:   13949625  MISS:          0  HIT %:        100  MISS %:          0   MPKI: 0
L1I PREFETCH  REQUESTED:          0  ISSUED:          0  USEFUL:          0  USELESS:          0
L1I USEFUL LOAD PREFETCHES:          0 PREFETCH ISSUED TO LOWER LEVEL:          0  ACCURACY: -nan
L1I TIMELY PREFETCHES:          0 LATE PREFETCHES: 0 DROPPED PREFETCHES: 0
L1I PREFETCHES SAME FILL-ORIGIN LEVEL: 0 DIFFERENT FILL-ORIGIN LEVEL: 0
L1I AVERAGE MISS LATENCY: -nan cycles
L1I RQ	ACCESS:   20478762	FORWARD:          0	MERGED:    6529136	TO_CACHE:   13949626

BTB TOTAL     ACCESS:     843995  HIT:     843990  MISS:          5  HIT %:    99.9994  MISS %: 0.000592421   MPKI: 5e-05
BTB BRANCH_DIRECT_JUMP	ACCESS:          0  HIT:          0  MISS:          0
BTB BRANCH_INDIRECT	ACCESS:          0  HIT:          0  MISS:          0
BTB BRANCH_CONDITIONAL	ACCESS:     843995  HIT:     843990  MISS:          5
BTB BRANCH_DIRECT_CALL	ACCESS:          0  HIT:          0  MISS:          0
BTB BRANCH_INDIRECT_CALL	ACCESS:          0  HIT:          0  MISS:          0
BTB BRANCH_RETURN	ACCESS:          0  HIT:          0  MISS:          0
BTB BRANCH_OTHER ACCESS:          0  HIT:          0  MISS:          0

L2C TOTAL     ACCESS:    2352717  HIT:     839170  MISS:    1513547  HIT %:    35.6681  MISS %:    64.3319   MPKI: 15.1355
L2C LOAD      ACCESS:     100218  HIT:      49332  MISS:      50886  HIT %:    49.2247  MISS %:    50.7753   MPKI: 0.50886
L2C DATA LOAD MPKI: 0.50886
L2C INSTRUCTION LOAD MPKI: 0
L2C RFO       ACCESS:     611905  HIT:      16520  MISS:     595385  HIT %:    2.69977  MISS %:    97.3002   MPKI: 5.95385
L2C PREFETCH  ACCESS:     977178  HIT:     116298  MISS:     860880  HIT %:    11.9014  MISS %:    88.0986   MPKI: 8.6088
L2C DATA PREFETCH MPKI: 8.6088
L2C INSTRUCTION PREFETCH MPKI: 0
L2C WRITEBACK ACCESS:     642095  HIT:     638622  MISS:       3473  HIT %:    99.4591  MISS %:   0.540886   MPKI: 0.03473
L2C LOAD TRANSLATION ACCESS:      21321  HIT:      18398  MISS:       2923  HIT %:    86.2905  MISS %:    13.7095   MPKI: 0.02923
L2C PREFETCH  REQUESTED:          0  ISSUED:          0  USEFUL:      21590  USELESS:     838967
L2C USEFUL LOAD PREFETCHES:      21590 PREFETCH ISSUED TO LOWER LEVEL:     860880  ACCURACY: 2.5079
L2C TIMELY PREFETCHES:      21590 LATE PREFETCHES: 0 DROPPED PREFETCHES: 0
L2C PREFETCHES SAME FILL-ORIGIN LEVEL: 0 DIFFERENT FILL-ORIGIN LEVEL: 0
L2C AVERAGE MISS LATENCY: 262.312 cycles
L2C RQ	ACCESS:     754422	FORWARD:          0	MERGED:          0	TO_CACHE:     733444
L2C WQ	ACCESS:     642095	FORWARD:      20978	MERGED:          0	TO_CACHE:     642095
L2C PQ	ACCESS:     977180	FORWARD:          0	MERGED:          0	TO_CACHE:     977180

L2C Instructions Evicting Data 0
L2C Translations Evicting Data 2921
L2C Data Evicting Data 1504244
L2C Instructions Evicting Instructions 0
L2C Translations Evicting Instructions 0
L2C Data Evicting Instructions 0
L2C Instructions Evicting Translations 0
L2C Translations Evicting Translations 2
L2C Data Evicting Translations 2907
L2C Dense regions hint from L2: 0
PSCL5 TOTAL     ACCESS:      21304  HIT:      21304  MISS:          0  HIT %:        100  MISS %:          0   MPKI: 0
PSCL5 LOAD TRANSLATION ACCESS:      21304  HIT:      21304  MISS:          0  HIT %:        100  MISS %:          0   MPKI: 0
PSCL5 PREFETCH  REQUESTED:          0  ISSUED:          0  USEFUL:          0  USELESS:          0
PSCL5 USEFUL LOAD PREFETCHES:          0 PREFETCH ISSUED TO LOWER LEVEL:          0  ACCURACY: -nan
PSCL5 TIMELY PREFETCHES:          0 LATE PREFETCHES: 0 DROPPED PREFETCHES: 0
PSCL5 PREFETCHES SAME FILL-ORIGIN LEVEL: 0 DIFFERENT FILL-ORIGIN LEVEL: 0

PSCL4 TOTAL     ACCESS:      21304  HIT:      21304  MISS:          0  HIT %:        100  MISS %:          0   MPKI: 0
PSCL4 LOAD TRANSLATION ACCESS:      21304  HIT:      21304  MISS:          0  HIT %:        100  MISS %:          0   MPKI: 0
PSCL4 PREFETCH  REQUESTED:          0  ISSUED:          0  USEFUL:          0  USELESS:          0
PSCL4 USEFUL LOAD PREFETCHES:          0 PREFETCH ISSUED TO LOWER LEVEL:          0  ACCURACY: -nan
PSCL4 TIMELY PREFETCHES:          0 LATE PREFETCHES: 0 DROPPED PREFETCHES: 0
PSCL4 PREFETCHES SAME FILL-ORIGIN LEVEL: 0 DIFFERENT FILL-ORIGIN LEVEL: 0

PSCL3 TOTAL     ACCESS:      17066  HIT:      17054  MISS:         12  HIT %:    99.9297  MISS %:  0.0703152   MPKI: 0.00012
PSCL3 LOAD TRANSLATION ACCESS:      17066  HIT:      17054  MISS:         12  HIT %:    99.9297  MISS %:  0.0703152   MPKI: 0.00012
PSCL3 PREFETCH  REQUESTED:          0  ISSUED:          0  USEFUL:          0  USELESS:          0
PSCL3 USEFUL LOAD PREFETCHES:          0 PREFETCH ISSUED TO LOWER LEVEL:          0  ACCURACY: -nan
PSCL3 TIMELY PREFETCHES:          0 LATE PREFETCHES: 0 DROPPED PREFETCHES: 0
PSCL3 PREFETCHES SAME FILL-ORIGIN LEVEL: 0 DIFFERENT FILL-ORIGIN LEVEL: 0

PSCL2 TOTAL     ACCESS:      21304  HIT:      21262  MISS:         42  HIT %:    99.8029  MISS %:   0.197146   MPKI: 0.00042
PSCL2 LOAD TRANSLATION ACCESS:      21304  HIT:      21262  MISS:         42  HIT %:    99.8029  MISS %:   0.197146   MPKI: 0.00042
PSCL2 PREFETCH  REQUESTED:          0  ISSUED:          0  USEFUL:          0  USELESS:          0
PSCL2 USEFUL LOAD PREFETCHES:          0 PREFETCH ISSUED TO LOWER LEVEL:          0  ACCURACY: -nan
PSCL2 TIMELY PREFETCHES:          0 LATE PREFETCHES: 0 DROPPED PREFETCHES: 0
PSCL2 PREFETCHES SAME FILL-ORIGIN LEVEL: 0 DIFFERENT FILL-ORIGIN LEVEL: 0

LLC TOTAL     ACCESS:    2104480  HIT:     721645  MISS:    1382835  HIT %:    34.2909  MISS %:    65.7091   MPKI: 13.8283
LLC LOAD      ACCESS:      50886  HIT:       2623  MISS:      48263  HIT %:    5.15466  MISS %:    94.8453   MPKI: 0.48263
LLC RFO       ACCESS:     595385  HIT:          0  MISS:     595385  HIT %:          0  MISS %:        100   MPKI: 5.95385
LLC PREFETCH  ACCESS:     860880  HIT:     137744  MISS:     723136  HIT %:    16.0004  MISS %:    83.9996   MPKI: 7.23136
LLC WRITEBACK ACCESS:     594406  HIT:     581073  MISS:      13333  HIT %:    97.7569  MISS %:    2.24308   MPKI: 0.13333
LLC LOAD TRANSLATION ACCESS:       2923  HIT:        205  MISS:       2718  HIT %:    7.01334  MISS %:    92.9867   MPKI: 0.02718
LLC PREFETCH  REQUESTED:          0  ISSUED:          0  USEFUL:        265  USELESS:     722645
LLC USEFUL LOAD PREFETCHES:        265 PREFETCH ISSUED TO LOWER LEVEL:     723136  ACCURACY: 0.0366459
LLC TIMELY PREFETCHES:        265 LATE PREFETCHES: 0 DROPPED PREFETCHES: 0
LLC PREFETCHES SAME FILL-ORIGIN LEVEL: 0 DIFFERENT FILL-ORIGIN LEVEL: 0
LLC AVERAGE MISS LATENCY: 253.583 cycles
LLC RQ	ACCESS:     649194	FORWARD:          0	MERGED:          0	TO_CACHE:     649194
LLC WQ	ACCESS:     594406	FORWARD:          0	MERGED:          0	TO_CACHE:     594406
LLC PQ	ACCESS:     860880	FORWARD:          0	MERGED:          0	TO_CACHE:     860880

LLC Dense regions hint to LLC: 0

RAW hits: 2007086
Loads Generated: 29322958
Loads sent to L1D: 27315872
Stores Generated: 18324517
Stores sent to L1D: 18324522
Major fault: 0 Minor fault: 30129
Allocated PAGES: 30129

stream: 
stream:times selected: 1490399
stream:pref_filled: 1479405
stream:pref_useful: 1454387
stream:pref_late: 3
stream:misses: 19
stream:misses_by_poll: 0

CS: 
CS:times selected: 1365212
CS:pref_filled: 3981
CS:pref_useful: 3922
CS:pref_late: 0
CS:misses: 112044
CS:misses_by_poll: 16

CPLX: 
CPLX:times selected: 125123
CPLX:pref_filled: 2313
CPLX:pref_useful: 2302
CPLX:pref_late: 0
CPLX:misses: 28219
CPLX:misses_by_poll: 0

NL_L1: 
NL:times selected: 5
NL:pref_filled: 5
NL:pref_useful: 5
NL:pref_late: 0
NL:misses: 0
NL:misses_by_poll: 0

total selections: 2980739
total_filled: 977176
total_useful: 971324
total_late: 3
total_polluted: 16
total_misses_after_warmup: 90349
conflicts: 95861
Degree Incremented Times: 211065
Degree Decremented Times: 0

L1 IP Table Write Accesses: 11802628
L1 IP Table Read Accesses: 11706767
L1 RST Write Accesses: 1012445
L1 RST Read Accesses: 2024890
L1 CSPT Write Accesses: 1012445
L1 CSPT Read Accesses: 1184669
L1 RR Filter Tag Write Accesses: 5232087
L1 RR Filter Tag Read Accesses: 255530762
L1 IP Table Tag Write Accesses: 13414542
L1 IP Table Tag Read Accesses: 13414542
L1 RST Tag Write Accesses: 0
L1 RST Tag Read Accesses: 9112364
L1 RR Filter Write Accesses: 0
L1 RR Filter Read Accesses: 8677058
test: 24063

DRAM Statistics
 CHANNEL 0
 RQ ROW_BUFFER_HIT:     630917  ROW_BUFFER_MISS:     738585
 DBUS_CONGESTED:        516
 WQ ROW_BUFFER_HIT:     151688  ROW_BUFFER_MISS:     443740  FULL:          0

 AVG_CONGESTED_CYCLE: 5
 All warmup complete: 2
Channel 0 Bank busy for read cycles: 0
Channel 0 Bank busy for write cycles: 0
Channel 0
Rank 0
0banks busy for read cycles: 478039
0banks busy for write cycles: 2683
1banks busy for read cycles: 29530959
1banks busy for write cycles: 488141
2banks busy for read cycles: 19030463
2banks busy for write cycles: 904228
3banks busy for read cycles: 8631424
3banks busy for write cycles: 1414822
4banks busy for read cycles: 4618384
4banks busy for write cycles: 1908154
5banks busy for read cycles: 2271912
5banks busy for write cycles: 2328642
6banks busy for read cycles: 1115535
6banks busy for write cycles: 2766512
7banks busy for read cycles: 1162435
7banks busy for write cycles: 3808166
8banks busy for read cycles: 561090
8banks busy for write cycles: 7457210

CPU 0 Branch Prediction Accuracy: 99.9697% MPKI: 0.00256 Average ROB Occupancy at Mispredict: 101.27
Branch types
NOT_BRANCH: 99155687 99.1557%
BRANCH_DIRECT_JUMP: 0 0%
BRANCH_INDIRECT: 0 0%
BRANCH_CONDITIONAL: 844000 0.844%
BRANCH_DIRECT_CALL: 0 0%
BRANCH_INDIRECT_CALL: 0 0%
BRANCH_RETURN: 0 0%
BRANCH_OTHER: 0 0%

DRAM PAGES: 1048576
Allocated PAGES: 30129
