Initialize SIGNATURE TABLE
ST_SET: 1
ST_WAY: 16
ST_TAG_BIT: 16
ST_TAG_MASK: ffff

Initialize PATTERN TABLE
PT_SET: 16
PT_WAY: 4
SIG_DELTA_BIT: 7
C_SIG_BIT: 4
C_DELTA_BIT: 4

Initialize PREFETCH FILTER
FILTER_SET: 1024

Initialize PERCEPTRON
PERC_ENTRIES: 64
PERC_FEATURES: 9

*** ChampSim Multicore Out-of-Order Simulator ***

Warmup Instructions: 50000000
Simulation Instructions: 100000000
Number of CPUs: 1
LLC sets: 2048
LLC ways: 16
Off-chip DRAM Size: 4096 MB Channels: 1 Width: 64-bit Data Rate: 6400 MT/s
CPU 0 runs ../SPEC2017//603.bwaves_s-2609B.champsimtrace.xz
.xz
NUM_OF_IPS_IN_CRITICAL_IP_TRAINING: 64
NUM_OF_CRITICAL_IP_TRAINING_TABLE_WAYS: 2
NUM_OF_CRITICAL_IP_TRAINING_TABLE_SETS: 32
WOBBLY_CRITICAL_IP_CACHE_SETS: 32
WOBBLY_CRITICAL_IP_CACHE_WAYS: 4
BTB has LRU replacement policy
ITLB has LRU replacement policy
DTLB has LRU replacement policy
STLB has LRU replacement policy
L1I has LRU replacement policy
L1D has LRU replacement policy
Initialize SRRIP state for L2C
Initialize DRRIP state for LLC
Heartbeat CPU 0 instructions: 10000001 cycles: 3316983 heartbeat IPC: 3.01479 cumulative IPC: 3.01479 (Simulation time: 0 hr 5 min 46 sec) 
Heartbeat CPU 0 instructions: 20000003 cycles: 6634005 heartbeat IPC: 3.01475 cumulative IPC: 3.01477 (Simulation time: 0 hr 11 min 5 sec) 
Heartbeat CPU 0 instructions: 30000001 cycles: 9951370 heartbeat IPC: 3.01444 cumulative IPC: 3.01466 (Simulation time: 0 hr 15 min 29 sec) 
Heartbeat CPU 0 instructions: 40000002 cycles: 13268271 heartbeat IPC: 3.01486 cumulative IPC: 3.01471 (Simulation time: 0 hr 19 min 30 sec) 
Heartbeat CPU 0 instructions: 50000003 cycles: 16584917 heartbeat IPC: 3.01509 cumulative IPC: 3.01479 (Simulation time: 0 hr 23 min 17 sec) 

Warmup complete CPU 0 instructions: 50000003 cycles: 16584917 (Simulation time: 0 hr 23 min 17 sec) 

Heartbeat CPU 0 instructions: 60000000 cycles: 26231154 heartbeat IPC: 1.03667 cumulative IPC: 1.03667 (Simulation time: 0 hr 27 min 4 sec) 
Heartbeat CPU 0 instructions: 70000000 cycles: 35851249 heartbeat IPC: 1.03949 cumulative IPC: 1.03808 (Simulation time: 0 hr 30 min 40 sec) 
Heartbeat CPU 0 instructions: 80000003 cycles: 45470573 heartbeat IPC: 1.03957 cumulative IPC: 1.03858 (Simulation time: 0 hr 34 min 1 sec) 
Heartbeat CPU 0 instructions: 90000003 cycles: 55084398 heartbeat IPC: 1.04017 cumulative IPC: 1.03898 (Simulation time: 0 hr 37 min 3 sec) 
Heartbeat CPU 0 instructions: 100000001 cycles: 64702944 heartbeat IPC: 1.03966 cumulative IPC: 1.03911 (Simulation time: 0 hr 39 min 58 sec) 
Heartbeat CPU 0 instructions: 110000000 cycles: 74314016 heartbeat IPC: 1.04047 cumulative IPC: 1.03934 (Simulation time: 0 hr 42 min 31 sec) 
Heartbeat CPU 0 instructions: 120000000 cycles: 83924006 heartbeat IPC: 1.04058 cumulative IPC: 1.03952 (Simulation time: 0 hr 44 min 58 sec) 
Heartbeat CPU 0 instructions: 130000002 cycles: 93541497 heartbeat IPC: 1.03977 cumulative IPC: 1.03955 (Simulation time: 0 hr 47 min 22 sec) 
Heartbeat CPU 0 instructions: 140000000 cycles: 103153674 heartbeat IPC: 1.04035 cumulative IPC: 1.03964 (Simulation time: 0 hr 49 min 40 sec) 
Heartbeat CPU 0 instructions: 150000001 cycles: 112767141 heartbeat IPC: 1.04021 cumulative IPC: 1.03969 (Simulation time: 0 hr 52 min 16 sec) 
Finished CPU 0 instructions: 100000002 cycles: 96182225 cumulative IPC: 1.03969 (Simulation time: 0 hr 52 min 16 sec) 

ChampSim completed all CPUs

Region of Interest Statistics

CPU 0 cumulative IPC: 1.03969 instructions: 100000002 cycles: 96182225

CPU 0 Average Load ROB stall cycles: 3.27787e+07
CPU 0 Fraction of times ROB stalled by Loads: 50.6338
CPU 0 Percentage of Load stall cycles in Total stall cycles: 6.7741e+08
Issued all: 50173824
Issued LT all: 36787303
rob_not_full_when_issued_lt_all: 35343166
Issued LT one: 31718681
rob_not_full_when_issued_lt_one: 30353752
 Total stall cycles: 72796724
 Total load stall cycles: 493132411444721
CPU 0 NUM of IPS identified critical: 0
CPU 0 Num of Load IPs stalling ROB: 88
Threshold modification factor: 0
Max PIST entries: 47
Min PIST entries: 0
Avg PIST entries: 22.0733
Trouble in retire width: 0.805465
MaC = Marked as critical.
lt_50_percent_before_Mac: 0
gt_90_percent_before_Mac: 0
gt_75_percent_before_Mac: 0
gt_50_percent_before_Mac: 0
stall_proportion_bin_same_before_after: 0
stall_proportion_bin_lower_before_after: 0
stall_proportion_bin_upper_before_after: 0
average_stall_proportion_before: -nan
average_stall_proportion_after: -nan
Critical IP stalls, total frequency: 0
Non-critical IP stalls, total frequency: 7617498
Total Freq all stalling IPs: 7617498
stat_90_percent_critical_ip_stalls_freq: 6903733
stat_90_percent_non_critical_ip_stalls_freq: 713765
Critical_IP_ROB_Stalls_Bucket_0: 0
Non-critical_IP_ROB_Stalls_Bucket_0: 5943404
Critical_IP_ROB_Stalls_Bucket_1: 0
Non-critical_IP_ROB_Stalls_Bucket_1: 1444962
Critical_IP_ROB_Stalls_Bucket_2: 0
Non-critical_IP_ROB_Stalls_Bucket_2: 66873
Critical_IP_ROB_Stalls_Bucket_3: 0
Non-critical_IP_ROB_Stalls_Bucket_3: 47359
Critical_IP_ROB_Stalls_Bucket_4: 0
Non-critical_IP_ROB_Stalls_Bucket_4: 32536
Critical_IP_ROB_Stalls_Bucket_5: 0
Non-critical_IP_ROB_Stalls_Bucket_5: 34644
Critical_IP_ROB_Stalls_Bucket_6: 0
Non-critical_IP_ROB_Stalls_Bucket_6: 47720
0 => IPs accounting for >50 percent of stalls, 1 => 55, 2 => 60, 3 => 65 and so on till 90.
percent50: 56.8209 num IPs:  3
percent55: 56.8209 num IPs: 3
percent60: 69.4735 num IPs: 4
percent65: 69.4735 num IPs: 4
percent70: 77.0751 num IPs: 5
percent75: 77.0751 num IPs: 5
percent80: 81.2864 num IPs: 6
percent85: 85.5557 num IPs: 8
percent90: 90.6299 num IPs: 12
Critical_ROB_Stalls_Percent_0_Bucket_0: 3577154
Non-critical_ROB_Stalls_Percent_0_Bucket_0: 2366250
Critical_ROB_Stalls_Percent_0_Bucket_1: 678331
Non-critical_ROB_Stalls_Percent_0_Bucket_1: 766631
Critical_ROB_Stalls_Percent_0_Bucket_2: 23711
Non-critical_ROB_Stalls_Percent_0_Bucket_2: 43162
Critical_ROB_Stalls_Percent_0_Bucket_3: 16449
Non-critical_ROB_Stalls_Percent_0_Bucket_3: 30910
Critical_ROB_Stalls_Percent_0_Bucket_4: 10732
Non-critical_ROB_Stalls_Percent_0_Bucket_4: 21804
Critical_ROB_Stalls_Percent_0_Bucket_5: 10274
Non-critical_ROB_Stalls_Percent_0_Bucket_5: 24370
Critical_ROB_Stalls_Percent_0_Bucket_6: 11683
Non-critical_ROB_Stalls_Percent_0_Bucket_6: 36037
Critical_ROB_Stalls_Percent_1_Bucket_0: 3577154
Non-critical_ROB_Stalls_Percent_1_Bucket_0: 2366250
Critical_ROB_Stalls_Percent_1_Bucket_1: 678331
Non-critical_ROB_Stalls_Percent_1_Bucket_1: 766631
Critical_ROB_Stalls_Percent_1_Bucket_2: 23711
Non-critical_ROB_Stalls_Percent_1_Bucket_2: 43162
Critical_ROB_Stalls_Percent_1_Bucket_3: 16449
Non-critical_ROB_Stalls_Percent_1_Bucket_3: 30910
Critical_ROB_Stalls_Percent_1_Bucket_4: 10732
Non-critical_ROB_Stalls_Percent_1_Bucket_4: 21804
Critical_ROB_Stalls_Percent_1_Bucket_5: 10274
Non-critical_ROB_Stalls_Percent_1_Bucket_5: 24370
Critical_ROB_Stalls_Percent_1_Bucket_6: 11683
Non-critical_ROB_Stalls_Percent_1_Bucket_6: 36037
Critical_ROB_Stalls_Percent_2_Bucket_0: 4195889
Non-critical_ROB_Stalls_Percent_2_Bucket_0: 1747515
Critical_ROB_Stalls_Percent_2_Bucket_1: 1007406
Non-critical_ROB_Stalls_Percent_2_Bucket_1: 437556
Critical_ROB_Stalls_Percent_2_Bucket_2: 29909
Non-critical_ROB_Stalls_Percent_2_Bucket_2: 36964
Critical_ROB_Stalls_Percent_2_Bucket_3: 19812
Non-critical_ROB_Stalls_Percent_2_Bucket_3: 27547
Critical_ROB_Stalls_Percent_2_Bucket_4: 12793
Non-critical_ROB_Stalls_Percent_2_Bucket_4: 19743
Critical_ROB_Stalls_Percent_2_Bucket_5: 12165
Non-critical_ROB_Stalls_Percent_2_Bucket_5: 22479
Critical_ROB_Stalls_Percent_2_Bucket_6: 14166
Non-critical_ROB_Stalls_Percent_2_Bucket_6: 33554
Critical_ROB_Stalls_Percent_3_Bucket_0: 4195889
Non-critical_ROB_Stalls_Percent_3_Bucket_0: 1747515
Critical_ROB_Stalls_Percent_3_Bucket_1: 1007406
Non-critical_ROB_Stalls_Percent_3_Bucket_1: 437556
Critical_ROB_Stalls_Percent_3_Bucket_2: 29909
Non-critical_ROB_Stalls_Percent_3_Bucket_2: 36964
Critical_ROB_Stalls_Percent_3_Bucket_3: 19812
Non-critical_ROB_Stalls_Percent_3_Bucket_3: 27547
Critical_ROB_Stalls_Percent_3_Bucket_4: 12793
Non-critical_ROB_Stalls_Percent_3_Bucket_4: 19743
Critical_ROB_Stalls_Percent_3_Bucket_5: 12165
Non-critical_ROB_Stalls_Percent_3_Bucket_5: 22479
Critical_ROB_Stalls_Percent_3_Bucket_6: 14166
Non-critical_ROB_Stalls_Percent_3_Bucket_6: 33554
Critical_ROB_Stalls_Percent_4_Bucket_0: 4619840
Non-critical_ROB_Stalls_Percent_4_Bucket_0: 1323564
Critical_ROB_Stalls_Percent_4_Bucket_1: 1143996
Non-critical_ROB_Stalls_Percent_4_Bucket_1: 300966
Critical_ROB_Stalls_Percent_4_Bucket_2: 37780
Non-critical_ROB_Stalls_Percent_4_Bucket_2: 29093
Critical_ROB_Stalls_Percent_4_Bucket_3: 22976
Non-critical_ROB_Stalls_Percent_4_Bucket_3: 24383
Critical_ROB_Stalls_Percent_4_Bucket_4: 15142
Non-critical_ROB_Stalls_Percent_4_Bucket_4: 17394
Critical_ROB_Stalls_Percent_4_Bucket_5: 14616
Non-critical_ROB_Stalls_Percent_4_Bucket_5: 20028
Critical_ROB_Stalls_Percent_4_Bucket_6: 16841
Non-critical_ROB_Stalls_Percent_4_Bucket_6: 30879
Critical_ROB_Stalls_Percent_5_Bucket_0: 4619840
Non-critical_ROB_Stalls_Percent_5_Bucket_0: 1323564
Critical_ROB_Stalls_Percent_5_Bucket_1: 1143996
Non-critical_ROB_Stalls_Percent_5_Bucket_1: 300966
Critical_ROB_Stalls_Percent_5_Bucket_2: 37780
Non-critical_ROB_Stalls_Percent_5_Bucket_2: 29093
Critical_ROB_Stalls_Percent_5_Bucket_3: 22976
Non-critical_ROB_Stalls_Percent_5_Bucket_3: 24383
Critical_ROB_Stalls_Percent_5_Bucket_4: 15142
Non-critical_ROB_Stalls_Percent_5_Bucket_4: 17394
Critical_ROB_Stalls_Percent_5_Bucket_5: 14616
Non-critical_ROB_Stalls_Percent_5_Bucket_5: 20028
Critical_ROB_Stalls_Percent_5_Bucket_6: 16841
Non-critical_ROB_Stalls_Percent_5_Bucket_6: 30879
Critical_ROB_Stalls_Percent_6_Bucket_0: 4878880
Non-critical_ROB_Stalls_Percent_6_Bucket_0: 1064524
Critical_ROB_Stalls_Percent_6_Bucket_1: 1189911
Non-critical_ROB_Stalls_Percent_6_Bucket_1: 255051
Critical_ROB_Stalls_Percent_6_Bucket_2: 42681
Non-critical_ROB_Stalls_Percent_6_Bucket_2: 24192
Critical_ROB_Stalls_Percent_6_Bucket_3: 26856
Non-critical_ROB_Stalls_Percent_6_Bucket_3: 20503
Critical_ROB_Stalls_Percent_6_Bucket_4: 17233
Non-critical_ROB_Stalls_Percent_6_Bucket_4: 15303
Critical_ROB_Stalls_Percent_6_Bucket_5: 16947
Non-critical_ROB_Stalls_Percent_6_Bucket_5: 17697
Critical_ROB_Stalls_Percent_6_Bucket_6: 19480
Non-critical_ROB_Stalls_Percent_6_Bucket_6: 28240
Critical_ROB_Stalls_Percent_7_Bucket_0: 5203718
Non-critical_ROB_Stalls_Percent_7_Bucket_0: 739686
Critical_ROB_Stalls_Percent_7_Bucket_1: 1190019
Non-critical_ROB_Stalls_Percent_7_Bucket_1: 254943
Critical_ROB_Stalls_Percent_7_Bucket_2: 42750
Non-critical_ROB_Stalls_Percent_7_Bucket_2: 24123
Critical_ROB_Stalls_Percent_7_Bucket_3: 26927
Non-critical_ROB_Stalls_Percent_7_Bucket_3: 20432
Critical_ROB_Stalls_Percent_7_Bucket_4: 17281
Non-critical_ROB_Stalls_Percent_7_Bucket_4: 15255
Critical_ROB_Stalls_Percent_7_Bucket_5: 16986
Non-critical_ROB_Stalls_Percent_7_Bucket_5: 17658
Critical_ROB_Stalls_Percent_7_Bucket_6: 19522
Non-critical_ROB_Stalls_Percent_7_Bucket_6: 28198
Critical_ROB_Stalls_Percent_8_Bucket_0: 5502615
Non-critical_ROB_Stalls_Percent_8_Bucket_0: 440789
Critical_ROB_Stalls_Percent_8_Bucket_1: 1234678
Non-critical_ROB_Stalls_Percent_8_Bucket_1: 210284
Critical_ROB_Stalls_Percent_8_Bucket_2: 53544
Non-critical_ROB_Stalls_Percent_8_Bucket_2: 13329
Critical_ROB_Stalls_Percent_8_Bucket_3: 35537
Non-critical_ROB_Stalls_Percent_8_Bucket_3: 11822
Critical_ROB_Stalls_Percent_8_Bucket_4: 25026
Non-critical_ROB_Stalls_Percent_8_Bucket_4: 7510
Critical_ROB_Stalls_Percent_8_Bucket_5: 22551
Non-critical_ROB_Stalls_Percent_8_Bucket_5: 12093
Critical_ROB_Stalls_Percent_8_Bucket_6: 29782
Non-critical_ROB_Stalls_Percent_8_Bucket_6: 17938
Average ROB occupancy Load Stall Begin: 39.1239
Average ROB occupancy Load Stall End: 47.3736
Min ROB occupancy Load Stall Begin: 2
Max ROB occupancy Load Stall Begin: 352
Min ROB occupancy Load Stall End: 2
Max ROB occupancy Load Stall End: 352
Average ROB occupancy Critical Load Stall Begin: -nan
Average ROB occupancy Critical Load Stall End: -nan
Min ROB occupancy Critical Load Stall Begin: 400
Max ROB occupancy Critical Load Stall Begin: 0
Min ROB occupancy Critical Load Stall End: 400
Max ROB occupancy Critical Load Stall End: 0
 ROB Load Stall Begin Bucket Count 0: 6651998
 ROB Load Stall End Bucket Count 0: 5943404
 ROB Critical Load Stall Begin Bucket Count 0: 0
 ROB Critical Load Stall End Bucket Count 0: 0
 ROB Load Stall Begin Bucket Count 1: 778470
 ROB Load Stall End Bucket Count 1: 1444962
 ROB Critical Load Stall Begin Bucket Count 1: 0
 ROB Critical Load Stall End Bucket Count 1: 0
 ROB Load Stall Begin Bucket Count 2: 52539
 ROB Load Stall End Bucket Count 2: 66873
 ROB Critical Load Stall Begin Bucket Count 2: 0
 ROB Critical Load Stall End Bucket Count 2: 0
 ROB Load Stall Begin Bucket Count 3: 41784
 ROB Load Stall End Bucket Count 3: 47359
 ROB Critical Load Stall Begin Bucket Count 3: 0
 ROB Critical Load Stall End Bucket Count 3: 0
 ROB Load Stall Begin Bucket Count 4: 30185
 ROB Load Stall End Bucket Count 4: 32536
 ROB Critical Load Stall Begin Bucket Count 4: 0
 ROB Critical Load Stall End Bucket Count 4: 0
 ROB Load Stall Begin Bucket Count 5: 30657
 ROB Load Stall End Bucket Count 5: 34644
 ROB Critical Load Stall Begin Bucket Count 5: 0
 ROB Critical Load Stall End Bucket Count 5: 0
 ROB Load Stall Begin Bucket Count 6: 31865
 ROB Load Stall End Bucket Count 6: 47720
 ROB Critical Load Stall Begin Bucket Count 6: 0
 ROB Critical Load Stall End Bucket Count 6: 0
PIST Tag Read Accesses: 113730
PIST Read Accesses: 56865
PIST Tag Write Accesses: 113730
PIST Write Accesses: 56865
Criticality detector called times: 1046733
Max global_stall_cycles_count: 432239
Threshold Modified: 0 times, factor: 0
Sturdy critical IP cache stats: 
 Unused entries: 0
CIC Tag Read Accesses: 0
CIC Read Accesses: 0
CIC Tag Write Accesses: 0
CIC Write Accesses: 0
Wobbly critical IP cache stats: 
 Unused entries: 112
CIC Tag Read Accesses: 353848958
CIC Read Accesses: 0
CIC Tag Write Accesses: 156850
CIC Write Accesses: 0
ITLB TOTAL     ACCESS:   12653811  HIT:   12653811  MISS:          0  HIT %:        100  MISS %:          0   MPKI: 0
ITLB LOAD TRANSLATION ACCESS:   12653811  HIT:   12653811  MISS:          0  HIT %:        100  MISS %:          0   MPKI: 0
ITLB PREFETCH  REQUESTED:          0  ISSUED:          0  USEFUL:          0  USELESS:          0
ITLB USEFUL LOAD PREFETCHES:          0 PREFETCH ISSUED TO LOWER LEVEL:          0  ACCURACY: -nan
ITLB TIMELY PREFETCHES:          0 LATE PREFETCHES: 0 DROPPED PREFETCHES: 0
ITLB PREFETCHES SAME FILL-ORIGIN LEVEL: 0 DIFFERENT FILL-ORIGIN LEVEL: 0
ITLB AVERAGE MISS LATENCY: -nan cycles
ITLB RQ	ACCESS:   17174225	FORWARD:          0	MERGED:    4520414	TO_CACHE:   12653811

DTLB TOTAL     ACCESS:   33053135  HIT:   32983159  MISS:      69976  HIT %:    99.7883  MISS %:   0.211708   MPKI: 0.69976
DTLB LOAD TRANSLATION ACCESS:   33053135  HIT:   32983159  MISS:      69976  HIT %:    99.7883  MISS %:   0.211708   MPKI: 0.69976
DTLB PREFETCH  REQUESTED:          0  ISSUED:          0  USEFUL:          0  USELESS:          0
DTLB USEFUL LOAD PREFETCHES:          0 PREFETCH ISSUED TO LOWER LEVEL:          0  ACCURACY: -nan
DTLB TIMELY PREFETCHES:          0 LATE PREFETCHES: 0 DROPPED PREFETCHES: 0
DTLB PREFETCHES SAME FILL-ORIGIN LEVEL: 0 DIFFERENT FILL-ORIGIN LEVEL: 0
DTLB AVERAGE MISS LATENCY: 218.424 cycles
DTLB RQ	ACCESS:   38924641	FORWARD:          0	MERGED:    5860674	TO_CACHE:   33063967

STLB TOTAL     ACCESS:      69976  HIT:      40282  MISS:      29694  HIT %:    57.5655  MISS %:    42.4345   MPKI: 0.29694
STLB LOAD TRANSLATION ACCESS:      69976  HIT:      40282  MISS:      29694  HIT %:    57.5655  MISS %:    42.4345   MPKI: 0.29694
STLB PREFETCH  REQUESTED:          0  ISSUED:          0  USEFUL:          0  USELESS:          0
STLB USEFUL LOAD PREFETCHES:          0 PREFETCH ISSUED TO LOWER LEVEL:          0  ACCURACY: -nan
STLB TIMELY PREFETCHES:          0 LATE PREFETCHES: 0 DROPPED PREFETCHES: 0
STLB PREFETCHES SAME FILL-ORIGIN LEVEL: 0 DIFFERENT FILL-ORIGIN LEVEL: 0
STLB AVERAGE MISS LATENCY: 467.539 cycles
STLB RQ	ACCESS:      69976	FORWARD:          0	MERGED:          0	TO_CACHE:      69976

STLB Hit, L1D data hit: 0
STLB Hit, L2C data hit: 0
STLB Hit, LLC data hit: 0
STLB Hit, LLC data miss: 0
STLB STLB hints to L2: 0
L1D TOTAL     ACCESS:   38859714  HIT:   36860519  MISS:    1999195  HIT %:    94.8554  MISS %:    5.14465   MPKI: 19.9919
L1D LOAD      ACCESS:   33256288  HIT:   31305817  MISS:    1950471  HIT %:     94.135  MISS %:    5.86497   MPKI: 19.5047
L1D RFO       ACCESS:    5603426  HIT:    5554702  MISS:      48724  HIT %:    99.1305  MISS %:   0.869539   MPKI: 0.48724
L1D PREFETCH  REQUESTED:          0  ISSUED:          0  USEFUL:          0  USELESS:          0
L1D USEFUL LOAD PREFETCHES:          0 PREFETCH ISSUED TO LOWER LEVEL:          0  ACCURACY: -nan
L1D TIMELY PREFETCHES:          0 LATE PREFETCHES: 0 DROPPED PREFETCHES: 0
L1D PREFETCHES SAME FILL-ORIGIN LEVEL: 0 DIFFERENT FILL-ORIGIN LEVEL: 0
L1D AVERAGE MISS LATENCY: 27.2037 cycles
L1D RQ	ACCESS:   42679644	FORWARD:          0	MERGED:    9165403	TO_CACHE:   33291288
L1D WQ	ACCESS:    5633425	FORWARD:     222953	MERGED:         72	TO_CACHE:    5633353

L1D UNIQUE REGIONS ACCESSED: 0
L1D REGIONS CONFLICTS: 0
L1D Cross Page Prefetch Requests: 0
L1D Same Page Prefetch Requests: 0
L1D ROI Sum of L1D PQ occupancy: 0
L1D PREFETCHES PUSHED FROM L2C: 0
L1I TOTAL     ACCESS:   17174224  HIT:   17174224  MISS:          0  HIT %:        100  MISS %:          0   MPKI: 0
L1I LOAD      ACCESS:   17174224  HIT:   17174224  MISS:          0  HIT %:        100  MISS %:          0   MPKI: 0
L1I PREFETCH  REQUESTED:          0  ISSUED:          0  USEFUL:          0  USELESS:          0
L1I USEFUL LOAD PREFETCHES:          0 PREFETCH ISSUED TO LOWER LEVEL:          0  ACCURACY: -nan
L1I TIMELY PREFETCHES:          0 LATE PREFETCHES: 0 DROPPED PREFETCHES: 0
L1I PREFETCHES SAME FILL-ORIGIN LEVEL: 0 DIFFERENT FILL-ORIGIN LEVEL: 0
L1I AVERAGE MISS LATENCY: -nan cycles
L1I RQ	ACCESS:   22885214	FORWARD:          0	MERGED:    5710989	TO_CACHE:   17174225

BTB TOTAL     ACCESS:    2417447  HIT:    2417442  MISS:          5  HIT %:    99.9998  MISS %: 0.00020683   MPKI: 5e-05
BTB BRANCH_DIRECT_JUMP	ACCESS:          0  HIT:          0  MISS:          0
BTB BRANCH_INDIRECT	ACCESS:          0  HIT:          0  MISS:          0
BTB BRANCH_CONDITIONAL	ACCESS:    2417447  HIT:    2417442  MISS:          5
BTB BRANCH_DIRECT_CALL	ACCESS:          0  HIT:          0  MISS:          0
BTB BRANCH_INDIRECT_CALL	ACCESS:          0  HIT:          0  MISS:          0
BTB BRANCH_RETURN	ACCESS:          0  HIT:          0  MISS:          0
BTB BRANCH_OTHER ACCESS:          0  HIT:          0  MISS:          0

L2C TOTAL     ACCESS:    4588361  HIT:    2674620  MISS:    1913741  HIT %:    58.2914  MISS %:    41.7086   MPKI: 19.1374
L2C LOAD      ACCESS:    1950471  HIT:    1885145  MISS:      65326  HIT %:    96.6508  MISS %:    3.34924   MPKI: 0.65326
L2C DATA LOAD MPKI: 0.65326
L2C INSTRUCTION LOAD MPKI: 0
L2C RFO       ACCESS:      48724  HIT:          0  MISS:      48724  HIT %:          0  MISS %:        100   MPKI: 0.48724
L2C PREFETCH  ACCESS:    2510009  HIT:     719462  MISS:    1790547  HIT %:    28.6637  MISS %:    71.3363   MPKI: 17.9055
L2C DATA PREFETCH MPKI: 17.9055
L2C INSTRUCTION PREFETCH MPKI: 0
L2C WRITEBACK ACCESS:      49460  HIT:      44509  MISS:       4951  HIT %:    89.9899  MISS %:    10.0101   MPKI: 0.04951
L2C LOAD TRANSLATION ACCESS:      29697  HIT:      25504  MISS:       4193  HIT %:    85.8807  MISS %:    14.1193   MPKI: 0.04193
L2C PREFETCH  REQUESTED:    2589394  ISSUED:    2589370  USEFUL:    1786388  USELESS:       4092
L2C USEFUL LOAD PREFETCHES:    1786388 PREFETCH ISSUED TO LOWER LEVEL:    1801130  ACCURACY: 99.1815
L2C TIMELY PREFETCHES:    1786388 LATE PREFETCHES: 10583 DROPPED PREFETCHES: 0
L2C PREFETCHES SAME FILL-ORIGIN LEVEL: 1801130 DIFFERENT FILL-ORIGIN LEVEL: 0
L2C AVERAGE MISS LATENCY: 254.649 cycles
L2C RQ	ACCESS:    2028892	FORWARD:          0	MERGED:          0	TO_CACHE:    2028892
L2C WQ	ACCESS:      49460	FORWARD:          0	MERGED:          0	TO_CACHE:      49460
L2C PQ	ACCESS:    2589370	FORWARD:          0	MERGED:       3418	TO_CACHE:    2585952

L2C Instructions Evicting Data 0
L2C Translations Evicting Data 4188
L2C Data Evicting Data 1900402
L2C Instructions Evicting Instructions 0
L2C Translations Evicting Instructions 0
L2C Data Evicting Instructions 0
L2C Instructions Evicting Translations 0
L2C Translations Evicting Translations 5
L2C Data Evicting Translations 4195
L2C Dense regions hint from L2: 0
PSCL5 TOTAL     ACCESS:      29694  HIT:      29694  MISS:          0  HIT %:        100  MISS %:          0   MPKI: 0
PSCL5 LOAD TRANSLATION ACCESS:      29694  HIT:      29694  MISS:          0  HIT %:        100  MISS %:          0   MPKI: 0
PSCL5 PREFETCH  REQUESTED:          0  ISSUED:          0  USEFUL:          0  USELESS:          0
PSCL5 USEFUL LOAD PREFETCHES:          0 PREFETCH ISSUED TO LOWER LEVEL:          0  ACCURACY: -nan
PSCL5 TIMELY PREFETCHES:          0 LATE PREFETCHES: 0 DROPPED PREFETCHES: 0
PSCL5 PREFETCHES SAME FILL-ORIGIN LEVEL: 0 DIFFERENT FILL-ORIGIN LEVEL: 0

PSCL4 TOTAL     ACCESS:      29694  HIT:      29694  MISS:          0  HIT %:        100  MISS %:          0   MPKI: 0
PSCL4 LOAD TRANSLATION ACCESS:      29694  HIT:      29694  MISS:          0  HIT %:        100  MISS %:          0   MPKI: 0
PSCL4 PREFETCH  REQUESTED:          0  ISSUED:          0  USEFUL:          0  USELESS:          0
PSCL4 USEFUL LOAD PREFETCHES:          0 PREFETCH ISSUED TO LOWER LEVEL:          0  ACCURACY: -nan
PSCL4 TIMELY PREFETCHES:          0 LATE PREFETCHES: 0 DROPPED PREFETCHES: 0
PSCL4 PREFETCHES SAME FILL-ORIGIN LEVEL: 0 DIFFERENT FILL-ORIGIN LEVEL: 0

PSCL3 TOTAL     ACCESS:      29694  HIT:      29694  MISS:          0  HIT %:        100  MISS %:          0   MPKI: 0
PSCL3 LOAD TRANSLATION ACCESS:      29694  HIT:      29694  MISS:          0  HIT %:        100  MISS %:          0   MPKI: 0
PSCL3 PREFETCH  REQUESTED:          0  ISSUED:          0  USEFUL:          0  USELESS:          0
PSCL3 USEFUL LOAD PREFETCHES:          0 PREFETCH ISSUED TO LOWER LEVEL:          0  ACCURACY: -nan
PSCL3 TIMELY PREFETCHES:          0 LATE PREFETCHES: 0 DROPPED PREFETCHES: 0
PSCL3 PREFETCHES SAME FILL-ORIGIN LEVEL: 0 DIFFERENT FILL-ORIGIN LEVEL: 0

PSCL2 TOTAL     ACCESS:      29694  HIT:      29635  MISS:         59  HIT %:    99.8013  MISS %:   0.198693   MPKI: 0.00059
PSCL2 LOAD TRANSLATION ACCESS:      29694  HIT:      29635  MISS:         59  HIT %:    99.8013  MISS %:   0.198693   MPKI: 0.00059
PSCL2 PREFETCH  REQUESTED:          0  ISSUED:          0  USEFUL:          0  USELESS:          0
PSCL2 USEFUL LOAD PREFETCHES:          0 PREFETCH ISSUED TO LOWER LEVEL:          0  ACCURACY: -nan
PSCL2 TIMELY PREFETCHES:          0 LATE PREFETCHES: 0 DROPPED PREFETCHES: 0
PSCL2 PREFETCHES SAME FILL-ORIGIN LEVEL: 0 DIFFERENT FILL-ORIGIN LEVEL: 0

LLC TOTAL     ACCESS:    1957933  HIT:      53122  MISS:    1904811  HIT %:    2.71317  MISS %:    97.2868   MPKI: 19.0481
LLC LOAD      ACCESS:      54743  HIT:        548  MISS:      54195  HIT %:    1.00104  MISS %:     98.999   MPKI: 0.54195
LLC RFO       ACCESS:      48724  HIT:          0  MISS:      48724  HIT %:          0  MISS %:        100   MPKI: 0.48724
LLC PREFETCH  ACCESS:    1801130  HIT:       3757  MISS:    1797373  HIT %:   0.208591  MISS %:    99.7914   MPKI: 17.9737
LLC WRITEBACK ACCESS:      49143  HIT:      48395  MISS:        748  HIT %:    98.4779  MISS %:    1.52209   MPKI: 0.00748
LLC LOAD TRANSLATION ACCESS:       4193  HIT:        422  MISS:       3771  HIT %:    10.0644  MISS %:    89.9356   MPKI: 0.03771
LLC PREFETCH  REQUESTED:          0  ISSUED:          0  USEFUL:        541  USELESS:    1766286
LLC USEFUL LOAD PREFETCHES:        541 PREFETCH ISSUED TO LOWER LEVEL:    1797373  ACCURACY: 0.0300995
LLC TIMELY PREFETCHES:        541 LATE PREFETCHES: 0 DROPPED PREFETCHES: 0
LLC PREFETCHES SAME FILL-ORIGIN LEVEL: 0 DIFFERENT FILL-ORIGIN LEVEL: 0
LLC AVERAGE MISS LATENCY: 225.321 cycles
LLC RQ	ACCESS:     107660	FORWARD:          0	MERGED:          0	TO_CACHE:     107660
LLC WQ	ACCESS:      49143	FORWARD:          0	MERGED:          0	TO_CACHE:      49143
LLC PQ	ACCESS:    1801130	FORWARD:          0	MERGED:          0	TO_CACHE:    1801130

LLC Dense regions hint to LLC: 0

RAW hits: 300454
Loads Generated: 42980104
Loads sent to L1D: 42679644
Stores Generated: 5633426
Stores sent to L1D: 5633425
Major fault: 0 Minor fault: 42652
Allocated PAGES: 42652
------------------
Depth Distribution
------------------
depth 0: 13295
depth 1: 239
depth 2: 609
depth 3: 602
depth 4: 1499
depth 5: 4583
depth 6: 7737
depth 7: 673148
depth 8: 1162622
depth 9: 82551
depth 10: 707
depth 11: 469
depth 12: 0
depth 13: 0
depth 14: 0
depth 15: 0
depth 16: 0
depth 17: 0
depth 18: 0
depth 19: 0
depth 20: 0
depth 21: 0
depth 22: 0
depth 23: 0
depth 24: 0
depth 25: 0
depth 26: 0
depth 27: 0
depth 28: 0
depth 29: 0
Total: 1948061
------------------
ST read accesses: 1904099
ST write accesses: 43962
PT read accesses: 83929663
PT write accesses: 2837487
FILTER read accesses: 16660490
FILTER write accesses: 8195386
GHR read accesses: 6676958
GHR write accesses: 1077413
PERC read accesses: 607513509
PERC write accesses: 19823500
GHR counter read accesses: 3896122
GHR counter write accesses: 6462601
GHR ip read accesses: 13612293
GHR ip write accesses: 7792244
ST tag read accesses: 49143165
ST tag write accesses: 16383896

DRAM Statistics
 CHANNEL 0
 RQ ROW_BUFFER_HIT:    1410159  ROW_BUFFER_MISS:     493904
 DBUS_CONGESTED:        219
 WQ ROW_BUFFER_HIT:       2837  ROW_BUFFER_MISS:      46089  FULL:          0

 AVG_CONGESTED_CYCLE: 3
 All warmup complete: 2
Channel 0 Bank busy for read cycles: 0
Channel 0 Bank busy for write cycles: 0
Channel 0
Rank 0
0banks busy for read cycles: 38705104
0banks busy for write cycles: 21754
1banks busy for read cycles: 14627645
1banks busy for write cycles: 1871755
2banks busy for read cycles: 12458082
2banks busy for write cycles: 951227
3banks busy for read cycles: 12552342
3banks busy for write cycles: 639354
4banks busy for read cycles: 7043920
4banks busy for write cycles: 252131
5banks busy for read cycles: 3587597
5banks busy for write cycles: 99641
6banks busy for read cycles: 1955171
6banks busy for write cycles: 63573
7banks busy for read cycles: 808845
7banks busy for write cycles: 33100
8banks busy for read cycles: 487467
8banks busy for write cycles: 23518

CPU 0 Branch Prediction Accuracy: 99.9706% MPKI: 0.00734 Average ROB Occupancy at Mispredict: 45.3937
Branch types
NOT_BRANCH: 97503611 97.5036%
BRANCH_DIRECT_JUMP: 0 0%
BRANCH_INDIRECT: 0 0%
BRANCH_CONDITIONAL: 2496135 2.49613%
BRANCH_DIRECT_CALL: 0 0%
BRANCH_INDIRECT_CALL: 0 0%
BRANCH_RETURN: 0 0%
BRANCH_OTHER: 0 0%

DRAM PAGES: 1048576
Allocated PAGES: 42652
