Initialize SIGNATURE TABLE
ST_SET: 1
ST_WAY: 256
ST_TAG_BIT: 16
ST_TAG_MASK: ffff

Initialize PATTERN TABLE
PT_SET: 512
PT_WAY: 4
SIG_DELTA_BIT: 7
C_SIG_BIT: 4
C_DELTA_BIT: 4

Initialize PREFETCH FILTER
FILTER_SET: 1024

Initialize PERCEPTRON
PERC_ENTRIES: 4096
PERC_FEATURES: 9

*** ChampSim Multicore Out-of-Order Simulator ***

Warmup Instructions: 50000000
Simulation Instructions: 100000000
Number of CPUs: 1
LLC sets: 2048
LLC ways: 16
Off-chip DRAM Size: 4096 MB Channels: 1 Width: 64-bit Data Rate: 6400 MT/s
CPU 0 runs ../SPEC2017//603.bwaves_s-1740B.champsimtrace.xz
.xz
NUM_OF_IPS_IN_CRITICAL_IP_TRAINING: 128
NUM_OF_CRITICAL_IP_TRAINING_TABLE_WAYS: 8
NUM_OF_CRITICAL_IP_TRAINING_TABLE_SETS: 16
BTB has LRU replacement policy
ITLB has LRU replacement policy
DTLB has LRU replacement policy
STLB has LRU replacement policy
L1I has LRU replacement policy
L1D has LRU replacement policy
Initialize SRRIP state for L2C
Initialize DRRIP state for LLC
Heartbeat CPU 0 instructions: 10000000 cycles: 3311908 heartbeat IPC: 3.01941 cumulative IPC: 3.01941 (Simulation time: 0 hr 5 min 36 sec) 
Heartbeat CPU 0 instructions: 20000002 cycles: 6622917 heartbeat IPC: 3.02023 cumulative IPC: 3.01982 (Simulation time: 0 hr 10 min 45 sec) 
Heartbeat CPU 0 instructions: 30000003 cycles: 9934631 heartbeat IPC: 3.01958 cumulative IPC: 3.01974 (Simulation time: 0 hr 15 min 18 sec) 
Heartbeat CPU 0 instructions: 40000001 cycles: 13246565 heartbeat IPC: 3.01938 cumulative IPC: 3.01965 (Simulation time: 0 hr 19 min 28 sec) 
Heartbeat CPU 0 instructions: 50000003 cycles: 16558610 heartbeat IPC: 3.01928 cumulative IPC: 3.01958 (Simulation time: 0 hr 23 min 41 sec) 

Warmup complete CPU 0 instructions: 50000003 cycles: 16558610 (Simulation time: 0 hr 23 min 41 sec) 

% increase in all ip prefetch 180.211
% increase in all ip prefetch 0.0508674
Heartbeat CPU 0 instructions: 60000000 cycles: 26168765 heartbeat IPC: 1.04057 cumulative IPC: 1.04057 (Simulation time: 0 hr 27 min 27 sec) 
Heartbeat CPU 0 instructions: 70000000 cycles: 35783894 heartbeat IPC: 1.04003 cumulative IPC: 1.0403 (Simulation time: 0 hr 30 min 58 sec) 
Heartbeat CPU 0 instructions: 80000003 cycles: 45396488 heartbeat IPC: 1.0403 cumulative IPC: 1.0403 (Simulation time: 0 hr 34 min 28 sec) 
Heartbeat CPU 0 instructions: 90000001 cycles: 55014367 heartbeat IPC: 1.03973 cumulative IPC: 1.04016 (Simulation time: 0 hr 37 min 38 sec) 
Heartbeat CPU 0 instructions: 100000002 cycles: 64632778 heartbeat IPC: 1.03967 cumulative IPC: 1.04006 (Simulation time: 0 hr 40 min 34 sec) 
Heartbeat CPU 0 instructions: 110000000 cycles: 74246656 heartbeat IPC: 1.04016 cumulative IPC: 1.04008 (Simulation time: 0 hr 43 min 8 sec) 
Heartbeat CPU 0 instructions: 120000002 cycles: 83864712 heartbeat IPC: 1.03971 cumulative IPC: 1.04002 (Simulation time: 0 hr 45 min 43 sec) 
Heartbeat CPU 0 instructions: 130000000 cycles: 93484456 heartbeat IPC: 1.03953 cumulative IPC: 1.03996 (Simulation time: 0 hr 48 min 8 sec) 
Heartbeat CPU 0 instructions: 140000003 cycles: 103100064 heartbeat IPC: 1.03998 cumulative IPC: 1.03996 (Simulation time: 0 hr 50 min 26 sec) 
Heartbeat CPU 0 instructions: 150000002 cycles: 112713149 heartbeat IPC: 1.04025 cumulative IPC: 1.03999 (Simulation time: 0 hr 55 min 57 sec) 
Finished CPU 0 instructions: 100000001 cycles: 96154540 cumulative IPC: 1.03999 (Simulation time: 0 hr 55 min 57 sec) 

ChampSim completed all CPUs

Region of Interest Statistics

CPU 0 cumulative IPC: 1.03999 instructions: 100000001 cycles: 96154540

CPU 0 Average Load ROB stall cycles: 1.99305e+07
CPU 0 Fraction of times ROB stalled by Loads: 30.8298
CPU 0 Percentage of Load stall cycles in Total stall cycles: 3.94271e+08
 Total stall cycles: 64081226
 Total load stall cycles: 252653557435539
CPU 0 NUM of IPS identified critical: 11

Threshold modification factor: -1
Max PIST entries: 33
Min PIST entries: 0
Avg PIST entries: 18.5
Average ROB occupancy Load Stall Begin: 41.8869
Average ROB occupancy Load Stall End: 46.9374
Min ROB occupancy Load Stall Begin: 2
Max ROB occupancy Load Stall Begin: 351
Min ROB occupancy Load Stall End: 2
Max ROB occupancy Load Stall End: 352
Average ROB occupancy Critical Load Stall Begin: 42.7293
Average ROB occupancy Critical Load Stall End: 47.5236
Min ROB occupancy Critical Load Stall Begin: 16
Max ROB occupancy Critical Load Stall Begin: 351
Min ROB occupancy Critical Load Stall End: 16
Max ROB occupancy Critical Load Stall End: 352
 ROB Load Stall Begin Bucket Count 0: 3321836
 ROB Load Stall End Bucket Count 0: 3266927
 ROB Critical Load Stall Begin Bucket Count 0: 2997135
 ROB Critical Load Stall End Bucket Count 0: 2953971
 ROB Load Stall Begin Bucket Count 1: 524724
 ROB Load Stall End Bucket Count 1: 561375
 ROB Critical Load Stall Begin Bucket Count 1: 478674
 ROB Critical Load Stall End Bucket Count 1: 507875
 ROB Load Stall Begin Bucket Count 2: 18465
 ROB Load Stall End Bucket Count 2: 22805
 ROB Critical Load Stall Begin Bucket Count 2: 12951
 ROB Critical Load Stall End Bucket Count 2: 16527
 ROB Load Stall Begin Bucket Count 3: 16298
 ROB Load Stall End Bucket Count 3: 17487
 ROB Critical Load Stall Begin Bucket Count 3: 11912
 ROB Critical Load Stall End Bucket Count 3: 12618
 ROB Load Stall Begin Bucket Count 4: 10036
 ROB Load Stall End Bucket Count 4: 11253
 ROB Critical Load Stall Begin Bucket Count 4: 6868
 ROB Critical Load Stall End Bucket Count 4: 8023
 ROB Load Stall Begin Bucket Count 5: 8511
 ROB Load Stall End Bucket Count 5: 14398
 ROB Critical Load Stall Begin Bucket Count 5: 6340
 ROB Critical Load Stall End Bucket Count 5: 10085
 ROB Load Stall Begin Bucket Count 6: 8341
 ROB Load Stall End Bucket Count 6: 13966
 ROB Critical Load Stall Begin Bucket Count 6: 6789
 ROB Critical Load Stall End Bucket Count 6: 11570
Threshold Modified: 1 times, factor: -1
ITLB TOTAL     ACCESS:   12652852  HIT:   12652852  MISS:          0  HIT %:        100  MISS %:          0   MPKI: 0
ITLB LOAD TRANSLATION ACCESS:   12652852  HIT:   12652852  MISS:          0  HIT %:        100  MISS %:          0   MPKI: 0
ITLB AVERAGE MISS LATENCY: -nan cycles
ITLB RQ	ACCESS:   17173304	FORWARD:          0	MERGED:    4520453	TO_CACHE:   12652851

DTLB TOTAL     ACCESS:   33026498  HIT:   32825655  MISS:     200843  HIT %:    99.3919  MISS %:   0.608127   MPKI: 2.00843
DTLB LOAD TRANSLATION ACCESS:   33026498  HIT:   32825655  MISS:     200843  HIT %:    99.3919  MISS %:   0.608127   MPKI: 2.00843
DTLB AVERAGE MISS LATENCY: 81.8086 cycles
DTLB RQ	ACCESS:   38911026	FORWARD:          0	MERGED:    5854210	TO_CACHE:   33056816

STLB TOTAL     ACCESS:     200843  HIT:     171156  MISS:      29687  HIT %:    85.2188  MISS %:    14.7812   MPKI: 0.29687
STLB LOAD TRANSLATION ACCESS:     200843  HIT:     171156  MISS:      29687  HIT %:    85.2188  MISS %:    14.7812   MPKI: 0.29687
STLB AVERAGE MISS LATENCY: 466.553 cycles
STLB RQ	ACCESS:     200843	FORWARD:          0	MERGED:          0	TO_CACHE:     200843

STLB Hit, L1D data hit: 0
STLB Hit, L2C data hit: 0
STLB Hit, LLC data hit: 0
STLB Hit, LLC data miss: 0
STLB STLB hints to L2: 0
L1D TOTAL     ACCESS:   38846552  HIT:   36847377  MISS:    1999175  HIT %:    94.8537  MISS %:    5.14634   MPKI: 19.9917
L1D LOAD      ACCESS:   33242959  HIT:   31292508  MISS:    1950451  HIT %:    94.1327  MISS %:    5.86726   MPKI: 19.5045
L1D RFO       ACCESS:    5603593  HIT:    5554869  MISS:      48724  HIT %:    99.1305  MISS %:   0.869514   MPKI: 0.48724
L1D AVERAGE MISS LATENCY: 27.032 cycles
L1D RQ	ACCESS:   42678275	FORWARD:          0	MERGED:    9178071	TO_CACHE:   33277694
L1D WQ	ACCESS:    5633399	FORWARD:     222510	MERGED:         67	TO_CACHE:    5633332

L1D UNIQUE REGIONS ACCESSED: 0
L1D REGIONS CONFLICTS: 0
L1D Cross Page Prefetch Requests: 0
L1D Same Page Prefetch Requests: 0
L1D ROI Sum of L1D PQ occupancy: 0
L1D PREFETCHES PUSHED FROM L2C: 0
L1I TOTAL     ACCESS:   17173302  HIT:   17173302  MISS:          0  HIT %:        100  MISS %:          0   MPKI: 0
L1I LOAD      ACCESS:   17173302  HIT:   17173302  MISS:          0  HIT %:        100  MISS %:          0   MPKI: 0
L1I AVERAGE MISS LATENCY: -nan cycles
L1I RQ	ACCESS:   22883882	FORWARD:          0	MERGED:    5710578	TO_CACHE:   17173304

BTB TOTAL     ACCESS:    2417447  HIT:    2417442  MISS:          5  HIT %:    99.9998  MISS %: 0.00020683   MPKI: 5e-05
BTB BRANCH_DIRECT_JUMP	ACCESS:          0  HIT:          0  MISS:          0
BTB BRANCH_INDIRECT	ACCESS:          0  HIT:          0  MISS:          0
BTB BRANCH_CONDITIONAL	ACCESS:    2417447  HIT:    2417442  MISS:          5
BTB BRANCH_DIRECT_CALL	ACCESS:          0  HIT:          0  MISS:          0
BTB BRANCH_INDIRECT_CALL	ACCESS:          0  HIT:          0  MISS:          0
BTB BRANCH_RETURN	ACCESS:          0  HIT:          0  MISS:          0
BTB BRANCH_OTHER ACCESS:          0  HIT:          0  MISS:          0

L2C TOTAL     ACCESS:    4593512  HIT:    2680474  MISS:    1913038  HIT %:    58.3535  MISS %:    41.6465   MPKI: 19.1304
L2C LOAD      ACCESS:    1950451  HIT:    1886039  MISS:      64412  HIT %:    96.6976  MISS %:    3.30242   MPKI: 0.64412
L2C DATA LOAD MPKI: 0.64412
L2C INSTRUCTION LOAD MPKI: 0
L2C RFO       ACCESS:      48724  HIT:          0  MISS:      48724  HIT %:          0  MISS %:        100   MPKI: 0.48724
L2C PREFETCH  ACCESS:    2515180  HIT:     724230  MISS:    1790950  HIT %:    28.7944  MISS %:    71.2056   MPKI: 17.9095
L2C DATA PREFETCH MPKI: 17.9095
L2C INSTRUCTION PREFETCH MPKI: 0
L2C WRITEBACK ACCESS:      49468  HIT:      44683  MISS:       4785  HIT %:    90.3271  MISS %:    9.67292   MPKI: 0.04785
L2C LOAD TRANSLATION ACCESS:      29689  HIT:      25522  MISS:       4167  HIT %:    85.9645  MISS %:    14.0355   MPKI: 0.04167
L2C PREFETCH  REQUESTED:    2594902  ISSUED:    2594893  USEFUL:    1787269  USELESS:       3684
L2C USEFUL LOAD PREFETCHES:    1787269 PREFETCH ISSUED TO LOWER LEVEL:    1801554  ACCURACY: 99.2071
L2C TIMELY PREFETCHES:    1787269 LATE PREFETCHES: 10549 DROPPED PREFETCHES: 0
L2C PREFETCHES SAME FILL-ORIGIN LEVEL: 1801499 DIFFERENT FILL-ORIGIN LEVEL: 55
L2C AVERAGE MISS LATENCY: 253.988 cycles
L2C RQ	ACCESS:    2028864	FORWARD:          0	MERGED:          0	TO_CACHE:    2028864
L2C WQ	ACCESS:      49468	FORWARD:          0	MERGED:          0	TO_CACHE:      49468
L2C PQ	ACCESS:    2594893	FORWARD:          0	MERGED:       3525	TO_CACHE:    2591368

L2C Instructions Evicting Data0
L2C Translations Evicting Data4164
L2C Data Evicting Data1899947
L2C Instructions Evicting Instructions0
L2C Translations Evicting Instructions0
L2C Data Evicting Instructions0
L2C Instructions Evicting Translations0
L2C Translations Evicting Translations3
L2C Data Evicting Translations4139
L2C Dense regions hint from L2: 0
PSCL5 TOTAL     ACCESS:      29687  HIT:      29687  MISS:          0  HIT %:        100  MISS %:          0   MPKI: 0
PSCL5 LOAD TRANSLATION ACCESS:      29687  HIT:      29687  MISS:          0  HIT %:        100  MISS %:          0   MPKI: 0

PSCL4 TOTAL     ACCESS:      29687  HIT:      29687  MISS:          0  HIT %:        100  MISS %:          0   MPKI: 0
PSCL4 LOAD TRANSLATION ACCESS:      29687  HIT:      29687  MISS:          0  HIT %:        100  MISS %:          0   MPKI: 0

PSCL3 TOTAL     ACCESS:      29687  HIT:      29687  MISS:          0  HIT %:        100  MISS %:          0   MPKI: 0
PSCL3 LOAD TRANSLATION ACCESS:      29687  HIT:      29687  MISS:          0  HIT %:        100  MISS %:          0   MPKI: 0

PSCL2 TOTAL     ACCESS:      29687  HIT:      29628  MISS:         59  HIT %:    99.8013  MISS %:    0.19874   MPKI: 0.00059
PSCL2 LOAD TRANSLATION ACCESS:      29687  HIT:      29628  MISS:         59  HIT %:    99.8013  MISS %:    0.19874   MPKI: 0.00059

LLC TOTAL     ACCESS:    1957026  HIT:      52253  MISS:    1904773  HIT %:    2.67002  MISS %:      97.33   MPKI: 19.0477
LLC LOAD      ACCESS:      53863  HIT:        569  MISS:      53294  HIT %:    1.05638  MISS %:    98.9436   MPKI: 0.53294
LLC RFO       ACCESS:      48724  HIT:          0  MISS:      48724  HIT %:          0  MISS %:        100   MPKI: 0.48724
LLC PREFETCH  ACCESS:    1801554  HIT:       3325  MISS:    1798229  HIT %:   0.184563  MISS %:    99.8154   MPKI: 17.9823
LLC WRITEBACK ACCESS:      48718  HIT:      47965  MISS:        753  HIT %:    98.4544  MISS %:    1.54563   MPKI: 0.00753
LLC LOAD TRANSLATION ACCESS:       4167  HIT:        394  MISS:       3773  HIT %:    9.45524  MISS %:    90.5448   MPKI: 0.03773
LLC AVERAGE MISS LATENCY: 224.571 cycles
LLC RQ	ACCESS:     106754	FORWARD:          0	MERGED:          0	TO_CACHE:     106754
LLC WQ	ACCESS:      48718	FORWARD:          0	MERGED:          0	TO_CACHE:      48718
LLC PQ	ACCESS:    1801554	FORWARD:          0	MERGED:          0	TO_CACHE:    1801554

LLC Dense regions hint to LLC: 0

RAW hits: 301792
Loads Generated: 42980072
Loads sent to L1D: 42678275
Stores Generated: 5633388
Stores sent to L1D: 5633399
Major fault: 0 Minor fault: 42651
Allocated PAGES: 42651
------------------
Depth Distribution
------------------
depth 0: 37797
depth 1: 2503
depth 2: 2819
depth 3: 3043
depth 4: 4182
depth 5: 5219
depth 6: 8273
depth 7: 904228
depth 8: 1798541
depth 9: 156542
depth 10: 1543
depth 11: 1023
depth 12: 2
depth 13: 0
depth 14: 0
depth 15: 0
depth 16: 0
depth 17: 0
depth 18: 0
depth 19: 0
depth 20: 0
depth 21: 0
depth 22: 0
depth 23: 0
depth 24: 0
depth 25: 0
depth 26: 0
depth 27: 0
depth 28: 0
depth 29: 0
Total: 2925715
------------------
ST read accesses: 1921559
ST write accesses: 28892
PT read accesses: 84063342
PT write accesses: 2882002
FILTER read accesses: 16658145
FILTER write accesses: 8203071
GHR read accesses: 5632345
GHR write accesses: 1086407
PERC read accesses: 608053653
PERC write accesses: 19847400
GHR counter read accesses: 3900902
GHR counter write accesses: 6470587
GHR ip read accesses: 13639404
GHR ip write accesses: 7801804
ST tag read accesses: 765316830
ST tag write accesses: 23410207

DRAM Statistics
 CHANNEL 0
 RQ ROW_BUFFER_HIT:    1410519  ROW_BUFFER_MISS:     493501
 DBUS_CONGESTED:        263
 WQ ROW_BUFFER_HIT:       2768  ROW_BUFFER_MISS:      46075  FULL:          0

 AVG_CONGESTED_CYCLE: 3
 All warmup complete: 2
Channel 0 Bank busy for read cycles: 0
Channel 0 Bank busy for write cycles: 0
Channel 0
Rank 0
0banks busy for read cycles: 38451678
0banks busy for write cycles: 23380
1banks busy for read cycles: 14591103
1banks busy for write cycles: 2146946
2banks busy for read cycles: 12526917
2banks busy for write cycles: 1065746
3banks busy for read cycles: 12445126
3banks busy for write cycles: 597445
4banks busy for read cycles: 7032190
4banks busy for write cycles: 221185
5banks busy for read cycles: 3611240
5banks busy for write cycles: 86651
6banks busy for read cycles: 1947075
6banks busy for write cycles: 50686
7banks busy for read cycles: 818648
7banks busy for write cycles: 25135
8banks busy for read cycles: 498360
8banks busy for write cycles: 15030

CPU 0 Branch Prediction Accuracy: 99.9707% MPKI: 0.00732 Average ROB Occupancy at Mispredict: 43.6571
Branch types
NOT_BRANCH: 97503533 97.5035%
BRANCH_DIRECT_JUMP: 0 0%
BRANCH_INDIRECT: 0 0%
BRANCH_CONDITIONAL: 2496132 2.49613%
BRANCH_DIRECT_CALL: 0 0%
BRANCH_INDIRECT_CALL: 0 0%
BRANCH_RETURN: 0 0%
BRANCH_OTHER: 0 0%

DRAM PAGES: 1048576
Allocated PAGES: 42651
