Initialize SIGNATURE TABLE
ST_SET: 1
ST_WAY: 256
ST_TAG_BIT: 16
ST_TAG_MASK: ffff

Initialize PATTERN TABLE
PT_SET: 512
PT_WAY: 4
SIG_DELTA_BIT: 7
C_SIG_BIT: 4
C_DELTA_BIT: 4

Initialize PREFETCH FILTER
FILTER_SET: 1024

Initialize PERCEPTRON
PERC_ENTRIES: 4096
PERC_FEATURES: 9

*** ChampSim Multicore Out-of-Order Simulator ***

Warmup Instructions: 50000000
Simulation Instructions: 100000000
Number of CPUs: 1
LLC sets: 2048
LLC ways: 16
Off-chip DRAM Size: 4096 MB Channels: 1 Width: 64-bit Data Rate: 6400 MT/s
CPU 0 runs ../SPEC2017//603.bwaves_s-1740B.champsimtrace.xz
.xz
NUM_OF_IPS_IN_CRITICAL_IP_TRAINING: 64
NUM_OF_CRITICAL_IP_TRAINING_TABLE_WAYS: 2
NUM_OF_CRITICAL_IP_TRAINING_TABLE_SETS: 32
WOBBLY_CRITICAL_IP_CACHE_SETS: 32
WOBBLY_CRITICAL_IP_CACHE_WAYS: 4
BTB has LRU replacement policy
ITLB has LRU replacement policy
DTLB has LRU replacement policy
STLB has LRU replacement policy
L1I has LRU replacement policy
L1D has LRU replacement policy
Initialize SRRIP state for L2C
Initialize DRRIP state for LLC
Heartbeat CPU 0 instructions: 10000000 cycles: 3311908 heartbeat IPC: 3.01941 cumulative IPC: 3.01941 (Simulation time: 0 hr 5 min 5 sec) 
Heartbeat CPU 0 instructions: 20000002 cycles: 6622917 heartbeat IPC: 3.02023 cumulative IPC: 3.01982 (Simulation time: 0 hr 9 min 43 sec) 
Heartbeat CPU 0 instructions: 30000003 cycles: 9934631 heartbeat IPC: 3.01958 cumulative IPC: 3.01974 (Simulation time: 0 hr 13 min 58 sec) 
Heartbeat CPU 0 instructions: 40000001 cycles: 13246565 heartbeat IPC: 3.01938 cumulative IPC: 3.01965 (Simulation time: 0 hr 17 min 57 sec) 
Heartbeat CPU 0 instructions: 50000003 cycles: 16558610 heartbeat IPC: 3.01928 cumulative IPC: 3.01958 (Simulation time: 0 hr 21 min 39 sec) 

Warmup complete CPU 0 instructions: 50000003 cycles: 16558610 (Simulation time: 0 hr 21 min 39 sec) 

% increase in all ip prefetch 183.051
% increase in all ip prefetch 0.000103111
Heartbeat CPU 0 instructions: 60000000 cycles: 26178669 heartbeat IPC: 1.03949 cumulative IPC: 1.03949 (Simulation time: 0 hr 25 min 15 sec) 
Heartbeat CPU 0 instructions: 70000000 cycles: 35794563 heartbeat IPC: 1.03994 cumulative IPC: 1.03972 (Simulation time: 0 hr 28 min 36 sec) 
Heartbeat CPU 0 instructions: 80000003 cycles: 45407151 heartbeat IPC: 1.0403 cumulative IPC: 1.03991 (Simulation time: 0 hr 31 min 47 sec) 
Heartbeat CPU 0 instructions: 90000001 cycles: 55023146 heartbeat IPC: 1.03993 cumulative IPC: 1.03992 (Simulation time: 0 hr 34 min 38 sec) 
Heartbeat CPU 0 instructions: 100000002 cycles: 64643433 heartbeat IPC: 1.03947 cumulative IPC: 1.03983 (Simulation time: 0 hr 37 min 26 sec) 
Heartbeat CPU 0 instructions: 110000000 cycles: 74257420 heartbeat IPC: 1.04015 cumulative IPC: 1.03988 (Simulation time: 0 hr 40 min 7 sec) 
Heartbeat CPU 0 instructions: 120000002 cycles: 83875011 heartbeat IPC: 1.03976 cumulative IPC: 1.03987 (Simulation time: 0 hr 42 min 39 sec) 
Heartbeat CPU 0 instructions: 130000000 cycles: 93494219 heartbeat IPC: 1.03959 cumulative IPC: 1.03983 (Simulation time: 0 hr 45 min 9 sec) 
Heartbeat CPU 0 instructions: 140000003 cycles: 103107627 heartbeat IPC: 1.04021 cumulative IPC: 1.03987 (Simulation time: 0 hr 47 min 38 sec) 
Heartbeat CPU 0 instructions: 150000002 cycles: 112720741 heartbeat IPC: 1.04025 cumulative IPC: 1.03991 (Simulation time: 0 hr 52 min 11 sec) 
Finished CPU 0 instructions: 100000001 cycles: 96162132 cumulative IPC: 1.03991 (Simulation time: 0 hr 52 min 11 sec) 

ChampSim completed all CPUs

Region of Interest Statistics

CPU 0 cumulative IPC: 1.03991 instructions: 100000001 cycles: 96162132

CPU 0 Average Load ROB stall cycles: 3.27652e+07
CPU 0 Fraction of times ROB stalled by Loads: 50.6683
CPU 0 Percentage of Load stall cycles in Total stall cycles: 6.74669e+08
Issued all: 50153745
Issued LT all: 36766697
rob_not_full_when_issued_lt_all: 35344262
Issued LT one: 31699964
rob_not_full_when_issued_lt_one: 30354710
 Total stall cycles: 72746520
 Total load stall cycles: 490798539642797
CPU 0 NUM of IPS identified critical: 0
CPU 0 Num of Load IPs stalling ROB: 86
Threshold modification factor: -1
Max PIST entries: 43
Min PIST entries: 0
Avg PIST entries: 23.98
Trouble in retire width: 0.804348
MaC = Marked as critical.
lt_50_percent_before_Mac: 0
gt_90_percent_before_Mac: 0
gt_75_percent_before_Mac: 0
gt_50_percent_before_Mac: 0
stall_proportion_bin_same_before_after: 0
stall_proportion_bin_lower_before_after: 0
stall_proportion_bin_upper_before_after: 0
average_stall_proportion_before: -nan
average_stall_proportion_after: -nan
Critical IP stalls, total frequency: 0
Non-critical IP stalls, total frequency: 7589731
Total Freq all stalling IPs: 7589731
stat_90_percent_critical_ip_stalls_freq: 6877102
stat_90_percent_non_critical_ip_stalls_freq: 712629
Critical_IP_ROB_Stalls_Bucket_0: 0
Non-critical_IP_ROB_Stalls_Bucket_0: 5900341
Critical_IP_ROB_Stalls_Bucket_1: 0
Non-critical_IP_ROB_Stalls_Bucket_1: 1461515
Critical_IP_ROB_Stalls_Bucket_2: 0
Non-critical_IP_ROB_Stalls_Bucket_2: 67324
Critical_IP_ROB_Stalls_Bucket_3: 0
Non-critical_IP_ROB_Stalls_Bucket_3: 47079
Critical_IP_ROB_Stalls_Bucket_4: 0
Non-critical_IP_ROB_Stalls_Bucket_4: 32221
Critical_IP_ROB_Stalls_Bucket_5: 0
Non-critical_IP_ROB_Stalls_Bucket_5: 34973
Critical_IP_ROB_Stalls_Bucket_6: 0
Non-critical_IP_ROB_Stalls_Bucket_6: 46278
0 => IPs accounting for >50 percent of stalls, 1 => 55, 2 => 60, 3 => 65 and so on till 90.
percent50: 56.6548 num IPs:  3
percent55: 56.6548 num IPs: 3
percent60: 69.2012 num IPs: 4
percent65: 69.2012 num IPs: 4
percent70: 76.8781 num IPs: 5
percent75: 76.8781 num IPs: 5
percent80: 81.28 num IPs: 6
percent85: 85.5305 num IPs: 8
percent90: 90.6106 num IPs: 12
Critical_ROB_Stalls_Percent_0_Bucket_0: 3527102
Non-critical_ROB_Stalls_Percent_0_Bucket_0: 2373239
Critical_ROB_Stalls_Percent_0_Bucket_1: 700343
Non-critical_ROB_Stalls_Percent_0_Bucket_1: 761172
Critical_ROB_Stalls_Percent_0_Bucket_2: 23804
Non-critical_ROB_Stalls_Percent_0_Bucket_2: 43520
Critical_ROB_Stalls_Percent_0_Bucket_3: 16398
Non-critical_ROB_Stalls_Percent_0_Bucket_3: 30681
Critical_ROB_Stalls_Percent_0_Bucket_4: 10705
Non-critical_ROB_Stalls_Percent_0_Bucket_4: 21516
Critical_ROB_Stalls_Percent_0_Bucket_5: 10400
Non-critical_ROB_Stalls_Percent_0_Bucket_5: 24573
Critical_ROB_Stalls_Percent_0_Bucket_6: 11197
Non-critical_ROB_Stalls_Percent_0_Bucket_6: 35081
Critical_ROB_Stalls_Percent_1_Bucket_0: 3527102
Non-critical_ROB_Stalls_Percent_1_Bucket_0: 2373239
Critical_ROB_Stalls_Percent_1_Bucket_1: 700343
Non-critical_ROB_Stalls_Percent_1_Bucket_1: 761172
Critical_ROB_Stalls_Percent_1_Bucket_2: 23804
Non-critical_ROB_Stalls_Percent_1_Bucket_2: 43520
Critical_ROB_Stalls_Percent_1_Bucket_3: 16398
Non-critical_ROB_Stalls_Percent_1_Bucket_3: 30681
Critical_ROB_Stalls_Percent_1_Bucket_4: 10705
Non-critical_ROB_Stalls_Percent_1_Bucket_4: 21516
Critical_ROB_Stalls_Percent_1_Bucket_5: 10400
Non-critical_ROB_Stalls_Percent_1_Bucket_5: 24573
Critical_ROB_Stalls_Percent_1_Bucket_6: 11197
Non-critical_ROB_Stalls_Percent_1_Bucket_6: 35081
Critical_ROB_Stalls_Percent_2_Bucket_0: 4142096
Non-critical_ROB_Stalls_Percent_2_Bucket_0: 1758245
Critical_ROB_Stalls_Percent_2_Bucket_1: 1021552
Non-critical_ROB_Stalls_Percent_2_Bucket_1: 439963
Critical_ROB_Stalls_Percent_2_Bucket_2: 30135
Non-critical_ROB_Stalls_Percent_2_Bucket_2: 37189
Critical_ROB_Stalls_Percent_2_Bucket_3: 19654
Non-critical_ROB_Stalls_Percent_2_Bucket_3: 27425
Critical_ROB_Stalls_Percent_2_Bucket_4: 12728
Non-critical_ROB_Stalls_Percent_2_Bucket_4: 19493
Critical_ROB_Stalls_Percent_2_Bucket_5: 12324
Non-critical_ROB_Stalls_Percent_2_Bucket_5: 22649
Critical_ROB_Stalls_Percent_2_Bucket_6: 13698
Non-critical_ROB_Stalls_Percent_2_Bucket_6: 32580
Critical_ROB_Stalls_Percent_3_Bucket_0: 4142096
Non-critical_ROB_Stalls_Percent_3_Bucket_0: 1758245
Critical_ROB_Stalls_Percent_3_Bucket_1: 1021552
Non-critical_ROB_Stalls_Percent_3_Bucket_1: 439963
Critical_ROB_Stalls_Percent_3_Bucket_2: 30135
Non-critical_ROB_Stalls_Percent_3_Bucket_2: 37189
Critical_ROB_Stalls_Percent_3_Bucket_3: 19654
Non-critical_ROB_Stalls_Percent_3_Bucket_3: 27425
Critical_ROB_Stalls_Percent_3_Bucket_4: 12728
Non-critical_ROB_Stalls_Percent_3_Bucket_4: 19493
Critical_ROB_Stalls_Percent_3_Bucket_5: 12324
Non-critical_ROB_Stalls_Percent_3_Bucket_5: 22649
Critical_ROB_Stalls_Percent_3_Bucket_6: 13698
Non-critical_ROB_Stalls_Percent_3_Bucket_6: 32580
Critical_ROB_Stalls_Percent_4_Bucket_0: 4568030
Non-critical_ROB_Stalls_Percent_4_Bucket_0: 1332311
Critical_ROB_Stalls_Percent_4_Bucket_1: 1159715
Non-critical_ROB_Stalls_Percent_4_Bucket_1: 301800
Critical_ROB_Stalls_Percent_4_Bucket_2: 37970
Non-critical_ROB_Stalls_Percent_4_Bucket_2: 29354
Critical_ROB_Stalls_Percent_4_Bucket_3: 22900
Non-critical_ROB_Stalls_Percent_4_Bucket_3: 24179
Critical_ROB_Stalls_Percent_4_Bucket_4: 15053
Non-critical_ROB_Stalls_Percent_4_Bucket_4: 17168
Critical_ROB_Stalls_Percent_4_Bucket_5: 14790
Non-critical_ROB_Stalls_Percent_4_Bucket_5: 20183
Critical_ROB_Stalls_Percent_4_Bucket_6: 16380
Non-critical_ROB_Stalls_Percent_4_Bucket_6: 29898
Critical_ROB_Stalls_Percent_5_Bucket_0: 4568030
Non-critical_ROB_Stalls_Percent_5_Bucket_0: 1332311
Critical_ROB_Stalls_Percent_5_Bucket_1: 1159715
Non-critical_ROB_Stalls_Percent_5_Bucket_1: 301800
Critical_ROB_Stalls_Percent_5_Bucket_2: 37970
Non-critical_ROB_Stalls_Percent_5_Bucket_2: 29354
Critical_ROB_Stalls_Percent_5_Bucket_3: 22900
Non-critical_ROB_Stalls_Percent_5_Bucket_3: 24179
Critical_ROB_Stalls_Percent_5_Bucket_4: 15053
Non-critical_ROB_Stalls_Percent_5_Bucket_4: 17168
Critical_ROB_Stalls_Percent_5_Bucket_5: 14790
Non-critical_ROB_Stalls_Percent_5_Bucket_5: 20183
Critical_ROB_Stalls_Percent_5_Bucket_6: 16380
Non-critical_ROB_Stalls_Percent_5_Bucket_6: 29898
Critical_ROB_Stalls_Percent_6_Bucket_0: 4839729
Non-critical_ROB_Stalls_Percent_6_Bucket_0: 1060612
Critical_ROB_Stalls_Percent_6_Bucket_1: 1206168
Non-critical_ROB_Stalls_Percent_6_Bucket_1: 255347
Critical_ROB_Stalls_Percent_6_Bucket_2: 42877
Non-critical_ROB_Stalls_Percent_6_Bucket_2: 24447
Critical_ROB_Stalls_Percent_6_Bucket_3: 26896
Non-critical_ROB_Stalls_Percent_6_Bucket_3: 20183
Critical_ROB_Stalls_Percent_6_Bucket_4: 17142
Non-critical_ROB_Stalls_Percent_6_Bucket_4: 15079
Critical_ROB_Stalls_Percent_6_Bucket_5: 17186
Non-critical_ROB_Stalls_Percent_6_Bucket_5: 17787
Critical_ROB_Stalls_Percent_6_Bucket_6: 18938
Non-critical_ROB_Stalls_Percent_6_Bucket_6: 27340
Critical_ROB_Stalls_Percent_7_Bucket_0: 5161937
Non-critical_ROB_Stalls_Percent_7_Bucket_0: 738404
Critical_ROB_Stalls_Percent_7_Bucket_1: 1206278
Non-critical_ROB_Stalls_Percent_7_Bucket_1: 255237
Critical_ROB_Stalls_Percent_7_Bucket_2: 42945
Non-critical_ROB_Stalls_Percent_7_Bucket_2: 24379
Critical_ROB_Stalls_Percent_7_Bucket_3: 26975
Non-critical_ROB_Stalls_Percent_7_Bucket_3: 20104
Critical_ROB_Stalls_Percent_7_Bucket_4: 17177
Non-critical_ROB_Stalls_Percent_7_Bucket_4: 15044
Critical_ROB_Stalls_Percent_7_Bucket_5: 17238
Non-critical_ROB_Stalls_Percent_7_Bucket_5: 17735
Critical_ROB_Stalls_Percent_7_Bucket_6: 18987
Non-critical_ROB_Stalls_Percent_7_Bucket_6: 27291
Critical_ROB_Stalls_Percent_8_Bucket_0: 5453232
Non-critical_ROB_Stalls_Percent_8_Bucket_0: 447109
Critical_ROB_Stalls_Percent_8_Bucket_1: 1291889
Non-critical_ROB_Stalls_Percent_8_Bucket_1: 169626
Critical_ROB_Stalls_Percent_8_Bucket_2: 45450
Non-critical_ROB_Stalls_Percent_8_Bucket_2: 21874
Critical_ROB_Stalls_Percent_8_Bucket_3: 29149
Non-critical_ROB_Stalls_Percent_8_Bucket_3: 17930
Critical_ROB_Stalls_Percent_8_Bucket_4: 18695
Non-critical_ROB_Stalls_Percent_8_Bucket_4: 13526
Critical_ROB_Stalls_Percent_8_Bucket_5: 18440
Non-critical_ROB_Stalls_Percent_8_Bucket_5: 16533
Critical_ROB_Stalls_Percent_8_Bucket_6: 20247
Non-critical_ROB_Stalls_Percent_8_Bucket_6: 26031
Average ROB occupancy Load Stall Begin: 39.1062
Average ROB occupancy Load Stall End: 47.3796
Min ROB occupancy Load Stall Begin: 2
Max ROB occupancy Load Stall Begin: 352
Min ROB occupancy Load Stall End: 2
Max ROB occupancy Load Stall End: 352
Average ROB occupancy Critical Load Stall Begin: -nan
Average ROB occupancy Critical Load Stall End: -nan
Min ROB occupancy Critical Load Stall Begin: 400
Max ROB occupancy Critical Load Stall Begin: 0
Min ROB occupancy Critical Load Stall End: 400
Max ROB occupancy Critical Load Stall End: 0
 ROB Load Stall Begin Bucket Count 0: 6625371
 ROB Load Stall End Bucket Count 0: 5900341
 ROB Critical Load Stall Begin Bucket Count 0: 0
 ROB Critical Load Stall End Bucket Count 0: 0
 ROB Load Stall Begin Bucket Count 1: 778969
 ROB Load Stall End Bucket Count 1: 1461515
 ROB Critical Load Stall Begin Bucket Count 1: 0
 ROB Critical Load Stall End Bucket Count 1: 0
 ROB Load Stall Begin Bucket Count 2: 52365
 ROB Load Stall End Bucket Count 2: 67324
 ROB Critical Load Stall Begin Bucket Count 2: 0
 ROB Critical Load Stall End Bucket Count 2: 0
 ROB Load Stall Begin Bucket Count 3: 41753
 ROB Load Stall End Bucket Count 3: 47079
 ROB Critical Load Stall Begin Bucket Count 3: 0
 ROB Critical Load Stall End Bucket Count 3: 0
 ROB Load Stall Begin Bucket Count 4: 29854
 ROB Load Stall End Bucket Count 4: 32221
 ROB Critical Load Stall Begin Bucket Count 4: 0
 ROB Critical Load Stall End Bucket Count 4: 0
 ROB Load Stall Begin Bucket Count 5: 30747
 ROB Load Stall End Bucket Count 5: 34973
 ROB Critical Load Stall Begin Bucket Count 5: 0
 ROB Critical Load Stall End Bucket Count 5: 0
 ROB Load Stall Begin Bucket Count 6: 30673
 ROB Load Stall End Bucket Count 6: 46278
 ROB Critical Load Stall Begin Bucket Count 6: 0
 ROB Critical Load Stall End Bucket Count 6: 0
PIST Tag Read Accesses: 149828
PIST Read Accesses: 74914
PIST Tag Write Accesses: 149828
PIST Write Accesses: 74914
Criticality detector called times: 1053149
Max global_stall_cycles_count: 370676
Threshold Modified: 1 times, factor: -1
Sturdy critical IP cache stats: 
 Unused entries: 0
CIC Tag Read Accesses: 0
CIC Read Accesses: 0
CIC Tag Write Accesses: 0
CIC Write Accesses: 0
Wobbly critical IP cache stats: 
 Unused entries: 112
CIC Tag Read Accesses: 255141655
CIC Read Accesses: 0
CIC Tag Write Accesses: 156916
CIC Write Accesses: 0
ITLB TOTAL     ACCESS:   12653043  HIT:   12653043  MISS:          0  HIT %:        100  MISS %:          0   MPKI: 0
ITLB LOAD TRANSLATION ACCESS:   12653043  HIT:   12653043  MISS:          0  HIT %:        100  MISS %:          0   MPKI: 0
ITLB PREFETCH  REQUESTED:          0  ISSUED:          0  USEFUL:          0  USELESS:          0
ITLB USEFUL LOAD PREFETCHES:          0 PREFETCH ISSUED TO LOWER LEVEL:          0  ACCURACY: -nan
ITLB TIMELY PREFETCHES:          0 LATE PREFETCHES: 0 DROPPED PREFETCHES: 0
ITLB PREFETCHES SAME FILL-ORIGIN LEVEL: 0 DIFFERENT FILL-ORIGIN LEVEL: 0
ITLB AVERAGE MISS LATENCY: -nan cycles
ITLB RQ	ACCESS:   17173438	FORWARD:          0	MERGED:    4520396	TO_CACHE:   12653042

DTLB TOTAL     ACCESS:   33026268  HIT:   32825455  MISS:     200813  HIT %:     99.392  MISS %:    0.60804   MPKI: 2.00813
DTLB LOAD TRANSLATION ACCESS:   33026268  HIT:   32825455  MISS:     200813  HIT %:     99.392  MISS %:    0.60804   MPKI: 2.00813
DTLB PREFETCH  REQUESTED:          0  ISSUED:          0  USEFUL:          0  USELESS:          0
DTLB USEFUL LOAD PREFETCHES:          0 PREFETCH ISSUED TO LOWER LEVEL:          0  ACCURACY: -nan
DTLB TIMELY PREFETCHES:          0 LATE PREFETCHES: 0 DROPPED PREFETCHES: 0
DTLB PREFETCHES SAME FILL-ORIGIN LEVEL: 0 DIFFERENT FILL-ORIGIN LEVEL: 0
DTLB AVERAGE MISS LATENCY: 81.8262 cycles
DTLB RQ	ACCESS:   38910852	FORWARD:          0	MERGED:    5854241	TO_CACHE:   33056611

STLB TOTAL     ACCESS:     200813  HIT:     171126  MISS:      29687  HIT %:    85.2166  MISS %:    14.7834   MPKI: 0.29687
STLB LOAD TRANSLATION ACCESS:     200813  HIT:     171126  MISS:      29687  HIT %:    85.2166  MISS %:    14.7834   MPKI: 0.29687
STLB PREFETCH  REQUESTED:          0  ISSUED:          0  USEFUL:          0  USELESS:          0
STLB USEFUL LOAD PREFETCHES:          0 PREFETCH ISSUED TO LOWER LEVEL:          0  ACCURACY: -nan
STLB TIMELY PREFETCHES:          0 LATE PREFETCHES: 0 DROPPED PREFETCHES: 0
STLB PREFETCHES SAME FILL-ORIGIN LEVEL: 0 DIFFERENT FILL-ORIGIN LEVEL: 0
STLB AVERAGE MISS LATENCY: 466.541 cycles
STLB RQ	ACCESS:     200813	FORWARD:          0	MERGED:          0	TO_CACHE:     200813

STLB Hit, L1D data hit: 0
STLB Hit, L2C data hit: 0
STLB Hit, LLC data hit: 0
STLB Hit, LLC data miss: 0
STLB STLB hints to L2: 0
L1D TOTAL     ACCESS:   38846400  HIT:   36847225  MISS:    1999175  HIT %:    94.8536  MISS %:    5.14636   MPKI: 19.9917
L1D LOAD      ACCESS:   33242645  HIT:   31292194  MISS:    1950451  HIT %:    94.1327  MISS %:    5.86732   MPKI: 19.5045
L1D RFO       ACCESS:    5603755  HIT:    5555031  MISS:      48724  HIT %:    99.1305  MISS %:   0.869488   MPKI: 0.48724
L1D PREFETCH  REQUESTED:          0  ISSUED:          0  USEFUL:          0  USELESS:          0
L1D USEFUL LOAD PREFETCHES:          0 PREFETCH ISSUED TO LOWER LEVEL:          0  ACCURACY: -nan
L1D TIMELY PREFETCHES:          0 LATE PREFETCHES: 0 DROPPED PREFETCHES: 0
L1D PREFETCHES SAME FILL-ORIGIN LEVEL: 0 DIFFERENT FILL-ORIGIN LEVEL: 0
L1D AVERAGE MISS LATENCY: 27.0637 cycles
L1D RQ	ACCESS:   42678405	FORWARD:          0	MERGED:    9178367	TO_CACHE:   33277523
L1D WQ	ACCESS:    5633399	FORWARD:     222515	MERGED:         70	TO_CACHE:    5633329

L1D UNIQUE REGIONS ACCESSED: 0
L1D REGIONS CONFLICTS: 0
L1D Cross Page Prefetch Requests: 0
L1D Same Page Prefetch Requests: 0
L1D ROI Sum of L1D PQ occupancy: 0
L1D PREFETCHES PUSHED FROM L2C: 0
L1I TOTAL     ACCESS:   17173436  HIT:   17173436  MISS:          0  HIT %:        100  MISS %:          0   MPKI: 0
L1I LOAD      ACCESS:   17173436  HIT:   17173436  MISS:          0  HIT %:        100  MISS %:          0   MPKI: 0
L1I PREFETCH  REQUESTED:          0  ISSUED:          0  USEFUL:          0  USELESS:          0
L1I USEFUL LOAD PREFETCHES:          0 PREFETCH ISSUED TO LOWER LEVEL:          0  ACCURACY: -nan
L1I TIMELY PREFETCHES:          0 LATE PREFETCHES: 0 DROPPED PREFETCHES: 0
L1I PREFETCHES SAME FILL-ORIGIN LEVEL: 0 DIFFERENT FILL-ORIGIN LEVEL: 0
L1I AVERAGE MISS LATENCY: -nan cycles
L1I RQ	ACCESS:   22884202	FORWARD:          0	MERGED:    5710764	TO_CACHE:   17173438

BTB TOTAL     ACCESS:    2417447  HIT:    2417442  MISS:          5  HIT %:    99.9998  MISS %: 0.00020683   MPKI: 5e-05
BTB BRANCH_DIRECT_JUMP	ACCESS:          0  HIT:          0  MISS:          0
BTB BRANCH_INDIRECT	ACCESS:          0  HIT:          0  MISS:          0
BTB BRANCH_CONDITIONAL	ACCESS:    2417447  HIT:    2417442  MISS:          5
BTB BRANCH_DIRECT_CALL	ACCESS:          0  HIT:          0  MISS:          0
BTB BRANCH_INDIRECT_CALL	ACCESS:          0  HIT:          0  MISS:          0
BTB BRANCH_RETURN	ACCESS:          0  HIT:          0  MISS:          0
BTB BRANCH_OTHER ACCESS:          0  HIT:          0  MISS:          0

L2C TOTAL     ACCESS:    4587457  HIT:    2674484  MISS:    1912973  HIT %:    58.2999  MISS %:    41.7001   MPKI: 19.1297
L2C LOAD      ACCESS:    1950451  HIT:    1885651  MISS:      64800  HIT %:    96.6777  MISS %:    3.32231   MPKI: 0.648
L2C DATA LOAD MPKI: 0.648
L2C INSTRUCTION LOAD MPKI: 0
L2C RFO       ACCESS:      48724  HIT:          0  MISS:      48724  HIT %:          0  MISS %:        100   MPKI: 0.48724
L2C PREFETCH  ACCESS:    2509125  HIT:     718685  MISS:    1790440  HIT %:    28.6429  MISS %:    71.3571   MPKI: 17.9044
L2C DATA PREFETCH MPKI: 17.9044
L2C INSTRUCTION PREFETCH MPKI: 0
L2C WRITEBACK ACCESS:      49468  HIT:      44620  MISS:       4848  HIT %:    90.1997  MISS %:    9.80027   MPKI: 0.04848
L2C LOAD TRANSLATION ACCESS:      29689  HIT:      25528  MISS:       4161  HIT %:    85.9847  MISS %:    14.0153   MPKI: 0.04161
L2C PREFETCH  REQUESTED:    2588510  ISSUED:    2588501  USEFUL:    1786878  USELESS:       3565
L2C USEFUL LOAD PREFETCHES:    1786878 PREFETCH ISSUED TO LOWER LEVEL:    1801037  ACCURACY: 99.2138
L2C TIMELY PREFETCHES:    1786878 LATE PREFETCHES: 10593 DROPPED PREFETCHES: 0
L2C PREFETCHES SAME FILL-ORIGIN LEVEL: 1801033 DIFFERENT FILL-ORIGIN LEVEL: 4
L2C AVERAGE MISS LATENCY: 254.309 cycles
L2C RQ	ACCESS:    2028864	FORWARD:          0	MERGED:          0	TO_CACHE:    2028864
L2C WQ	ACCESS:      49468	FORWARD:          0	MERGED:          0	TO_CACHE:      49468
L2C PQ	ACCESS:    2588501	FORWARD:          0	MERGED:       3348	TO_CACHE:    2585153

L2C Instructions Evicting Data 0
L2C Translations Evicting Data 4160
L2C Data Evicting Data 1899825
L2C Instructions Evicting Instructions 0
L2C Translations Evicting Instructions 0
L2C Data Evicting Instructions 0
L2C Instructions Evicting Translations 0
L2C Translations Evicting Translations 1
L2C Data Evicting Translations 4139
L2C Dense regions hint from L2: 0
PSCL5 TOTAL     ACCESS:      29687  HIT:      29687  MISS:          0  HIT %:        100  MISS %:          0   MPKI: 0
PSCL5 LOAD TRANSLATION ACCESS:      29687  HIT:      29687  MISS:          0  HIT %:        100  MISS %:          0   MPKI: 0
PSCL5 PREFETCH  REQUESTED:          0  ISSUED:          0  USEFUL:          0  USELESS:          0
PSCL5 USEFUL LOAD PREFETCHES:          0 PREFETCH ISSUED TO LOWER LEVEL:          0  ACCURACY: -nan
PSCL5 TIMELY PREFETCHES:          0 LATE PREFETCHES: 0 DROPPED PREFETCHES: 0
PSCL5 PREFETCHES SAME FILL-ORIGIN LEVEL: 0 DIFFERENT FILL-ORIGIN LEVEL: 0

PSCL4 TOTAL     ACCESS:      29687  HIT:      29687  MISS:          0  HIT %:        100  MISS %:          0   MPKI: 0
PSCL4 LOAD TRANSLATION ACCESS:      29687  HIT:      29687  MISS:          0  HIT %:        100  MISS %:          0   MPKI: 0
PSCL4 PREFETCH  REQUESTED:          0  ISSUED:          0  USEFUL:          0  USELESS:          0
PSCL4 USEFUL LOAD PREFETCHES:          0 PREFETCH ISSUED TO LOWER LEVEL:          0  ACCURACY: -nan
PSCL4 TIMELY PREFETCHES:          0 LATE PREFETCHES: 0 DROPPED PREFETCHES: 0
PSCL4 PREFETCHES SAME FILL-ORIGIN LEVEL: 0 DIFFERENT FILL-ORIGIN LEVEL: 0

PSCL3 TOTAL     ACCESS:      29687  HIT:      29687  MISS:          0  HIT %:        100  MISS %:          0   MPKI: 0
PSCL3 LOAD TRANSLATION ACCESS:      29687  HIT:      29687  MISS:          0  HIT %:        100  MISS %:          0   MPKI: 0
PSCL3 PREFETCH  REQUESTED:          0  ISSUED:          0  USEFUL:          0  USELESS:          0
PSCL3 USEFUL LOAD PREFETCHES:          0 PREFETCH ISSUED TO LOWER LEVEL:          0  ACCURACY: -nan
PSCL3 TIMELY PREFETCHES:          0 LATE PREFETCHES: 0 DROPPED PREFETCHES: 0
PSCL3 PREFETCHES SAME FILL-ORIGIN LEVEL: 0 DIFFERENT FILL-ORIGIN LEVEL: 0

PSCL2 TOTAL     ACCESS:      29687  HIT:      29628  MISS:         59  HIT %:    99.8013  MISS %:    0.19874   MPKI: 0.00059
PSCL2 LOAD TRANSLATION ACCESS:      29687  HIT:      29628  MISS:         59  HIT %:    99.8013  MISS %:    0.19874   MPKI: 0.00059
PSCL2 PREFETCH  REQUESTED:          0  ISSUED:          0  USEFUL:          0  USELESS:          0
PSCL2 USEFUL LOAD PREFETCHES:          0 PREFETCH ISSUED TO LOWER LEVEL:          0  ACCURACY: -nan
PSCL2 TIMELY PREFETCHES:          0 LATE PREFETCHES: 0 DROPPED PREFETCHES: 0
PSCL2 PREFETCHES SAME FILL-ORIGIN LEVEL: 0 DIFFERENT FILL-ORIGIN LEVEL: 0

LLC TOTAL     ACCESS:    1956846  HIT:      52113  MISS:    1904733  HIT %:    2.66311  MISS %:    97.3369   MPKI: 19.0473
LLC LOAD      ACCESS:      54207  HIT:        564  MISS:      53643  HIT %:    1.04046  MISS %:    98.9595   MPKI: 0.53643
LLC RFO       ACCESS:      48724  HIT:          0  MISS:      48724  HIT %:          0  MISS %:        100   MPKI: 0.48724
LLC PREFETCH  ACCESS:    1801037  HIT:       3199  MISS:    1797838  HIT %:    0.17762  MISS %:    99.8224   MPKI: 17.9784
LLC WRITEBACK ACCESS:      48717  HIT:      47963  MISS:        754  HIT %:    98.4523  MISS %:    1.54771   MPKI: 0.00754
LLC LOAD TRANSLATION ACCESS:       4161  HIT:        387  MISS:       3774  HIT %:    9.30065  MISS %:    90.6994   MPKI: 0.03774
LLC PREFETCH  REQUESTED:          0  ISSUED:          0  USEFUL:        557  USELESS:    1797084
LLC USEFUL LOAD PREFETCHES:        557 PREFETCH ISSUED TO LOWER LEVEL:    1797838  ACCURACY: 0.0309817
LLC TIMELY PREFETCHES:        557 LATE PREFETCHES: 0 DROPPED PREFETCHES: 0
LLC PREFETCHES SAME FILL-ORIGIN LEVEL: 1 DIFFERENT FILL-ORIGIN LEVEL: 0
LLC AVERAGE MISS LATENCY: 224.896 cycles
LLC RQ	ACCESS:     107092	FORWARD:          0	MERGED:          0	TO_CACHE:     107092
LLC WQ	ACCESS:      48717	FORWARD:          0	MERGED:          0	TO_CACHE:      48717
LLC PQ	ACCESS:    1801037	FORWARD:          0	MERGED:          0	TO_CACHE:    1801037

LLC Dense regions hint to LLC: 0

RAW hits: 301662
Loads Generated: 42980072
Loads sent to L1D: 42678405
Stores Generated: 5633388
Stores sent to L1D: 5633399
Major fault: 0 Minor fault: 42651
Allocated PAGES: 42651
------------------
Depth Distribution
------------------
depth 0: 37543
depth 1: 2019
depth 2: 2805
depth 3: 3379
depth 4: 4773
depth 5: 5649
depth 6: 9031
depth 7: 943693
depth 8: 1765737
depth 9: 148594
depth 10: 1469
depth 11: 1018
depth 12: 5
depth 13: 0
depth 14: 0
depth 15: 0
depth 16: 0
depth 17: 0
depth 18: 0
depth 19: 0
depth 20: 0
depth 21: 0
depth 22: 0
depth 23: 0
depth 24: 0
depth 25: 0
depth 26: 0
depth 27: 0
depth 28: 0
depth 29: 0
Total: 2925715
------------------
ST read accesses: 1921559
ST write accesses: 28892
PT read accesses: 83818640
PT write accesses: 2882002
FILTER read accesses: 16632576
FILTER write accesses: 8194931
GHR read accesses: 5661908
GHR write accesses: 1079048
PERC read accesses: 606279420
PERC write accesses: 19820335
GHR counter read accesses: 3900902
GHR counter write accesses: 6474992
GHR ip read accesses: 13617885
GHR ip write accesses: 7801804
ST tag read accesses: 765403587
ST tag write accesses: 23410210

DRAM Statistics
 CHANNEL 0
 RQ ROW_BUFFER_HIT:    1410386  ROW_BUFFER_MISS:     493593
 DBUS_CONGESTED:        259
 WQ ROW_BUFFER_HIT:       2771  ROW_BUFFER_MISS:      46086  FULL:          0

 AVG_CONGESTED_CYCLE: 4
 All warmup complete: 2
Channel 0 Bank busy for read cycles: 0
Channel 0 Bank busy for write cycles: 0
Channel 0
Rank 0
0banks busy for read cycles: 38448092
0banks busy for write cycles: 23276
1banks busy for read cycles: 14621017
1banks busy for write cycles: 2120651
2banks busy for read cycles: 12527714
2banks busy for write cycles: 1052020
3banks busy for read cycles: 12447805
3banks busy for write cycles: 610893
4banks busy for read cycles: 7052479
4banks busy for write cycles: 218531
5banks busy for read cycles: 3615195
5banks busy for write cycles: 87236
6banks busy for read cycles: 1934403
6banks busy for write cycles: 52315
7banks busy for read cycles: 815356
7banks busy for write cycles: 25312
8banks busy for read cycles: 494082
8banks busy for write cycles: 15756

CPU 0 Branch Prediction Accuracy: 99.9707% MPKI: 0.00732 Average ROB Occupancy at Mispredict: 44.5096
Branch types
NOT_BRANCH: 97503533 97.5035%
BRANCH_DIRECT_JUMP: 0 0%
BRANCH_INDIRECT: 0 0%
BRANCH_CONDITIONAL: 2496132 2.49613%
BRANCH_DIRECT_CALL: 0 0%
BRANCH_INDIRECT_CALL: 0 0%
BRANCH_RETURN: 0 0%
BRANCH_OTHER: 0 0%

DRAM PAGES: 1048576
Allocated PAGES: 42651
