
*** ChampSim Multicore Out-of-Order Simulator ***

Warmup Instructions: 50000000
Simulation Instructions: 100000000
Number of CPUs: 1
LLC sets: 2048
LLC ways: 16
Off-chip DRAM Size: 4096 MB Channels: 1 Width: 64-bit Data Rate: 6400 MT/s
CPU 0 runs ../SPEC2017//603.bwaves_s-1740B.champsimtrace.xz
.xz
BTB has LRU replacement policy
ITLB has LRU replacement policy
DTLB has LRU replacement policy
STLB has LRU replacement policy
L1I has LRU replacement policy
L1D has LRU replacement policy
Bingo PHT WAYS: 16 and PHT_SIZE: 16384
Initialize SRRIP state for L2C
Initialize DRRIP state for LLC
Heartbeat CPU 0 instructions: 10000000 cycles: 3317051 heartbeat IPC: 3.01473 cumulative IPC: 3.01473 (Simulation time: 0 hr 7 min 9 sec) 
Heartbeat CPU 0 instructions: 20000002 cycles: 6633797 heartbeat IPC: 3.015 cumulative IPC: 3.01486 (Simulation time: 0 hr 13 min 52 sec) 
Heartbeat CPU 0 instructions: 30000003 cycles: 9951069 heartbeat IPC: 3.01453 cumulative IPC: 3.01475 (Simulation time: 0 hr 19 min 29 sec) 
Heartbeat CPU 0 instructions: 40000001 cycles: 13268586 heartbeat IPC: 3.0143 cumulative IPC: 3.01464 (Simulation time: 0 hr 24 min 40 sec) 
Heartbeat CPU 0 instructions: 50000003 cycles: 16586248 heartbeat IPC: 3.01417 cumulative IPC: 3.01455 (Simulation time: 0 hr 29 min 26 sec) 

Warmup complete CPU 0 instructions: 50000003 cycles: 16586248 (Simulation time: 0 hr 29 min 26 sec) 

Heartbeat CPU 0 instructions: 60000000 cycles: 26851483 heartbeat IPC: 0.974162 cumulative IPC: 0.974162 (Simulation time: 0 hr 34 min 25 sec) 
Heartbeat CPU 0 instructions: 70000000 cycles: 36984394 heartbeat IPC: 0.986883 cumulative IPC: 0.980481 (Simulation time: 0 hr 39 min 1 sec) 
Heartbeat CPU 0 instructions: 80000003 cycles: 47113370 heartbeat IPC: 0.987267 cumulative IPC: 0.982733 (Simulation time: 0 hr 43 min 40 sec) 
Heartbeat CPU 0 instructions: 90000001 cycles: 57248942 heartbeat IPC: 0.986624 cumulative IPC: 0.983703 (Simulation time: 0 hr 48 min 1 sec) 
Heartbeat CPU 0 instructions: 100000002 cycles: 67371162 heartbeat IPC: 0.987926 cumulative IPC: 0.984544 (Simulation time: 0 hr 52 min 2 sec) 
Heartbeat CPU 0 instructions: 110000000 cycles: 77497835 heartbeat IPC: 0.987491 cumulative IPC: 0.985034 (Simulation time: 0 hr 55 min 46 sec) 
Heartbeat CPU 0 instructions: 120000002 cycles: 87624057 heartbeat IPC: 0.987535 cumulative IPC: 0.985391 (Simulation time: 0 hr 59 min 8 sec) 
Heartbeat CPU 0 instructions: 130000000 cycles: 97749586 heartbeat IPC: 0.987603 cumulative IPC: 0.985667 (Simulation time: 1 hr 2 min 23 sec) 
Heartbeat CPU 0 instructions: 140000003 cycles: 107893896 heartbeat IPC: 0.985775 cumulative IPC: 0.985679 (Simulation time: 1 hr 5 min 16 sec) 
Heartbeat CPU 0 instructions: 150000002 cycles: 118029142 heartbeat IPC: 0.986656 cumulative IPC: 0.985776 (Simulation time: 1 hr 8 min 0 sec) 
Finished CPU 0 instructions: 100000001 cycles: 101442895 cumulative IPC: 0.985776 (Simulation time: 1 hr 8 min 0 sec) 

ChampSim completed all CPUs

Region of Interest Statistics

CPU 0 cumulative IPC: 0.985776 instructions: 100000001 cycles: 101442895

CPU 0 Average Load ROB stall cycles: 3.42892e+07
CPU 0 Fraction of times ROB stalled by Loads: 50.8313
CPU 0 Percentage of Load stall cycles in Total stall cycles: 5.42345e+08
Issued all: 55906200
Issued LT all: 42688925
rob_not_full_when_issued_lt_all: 35033830
Issued LT one: 37184822
rob_not_full_when_issued_lt_one: 30068663
FVP critical_dynamic_instances_0: 35803344
FVP unique_critical_ips_0: 49
 Total stall cycles: 77140217
 Total load stall cycles: 418366486348190
Unique Load IPs: 134
CPU 0 NUM of IPS identified critical: 0
CPU 0 Num of Load IPs stalling ROB: 0
Threshold modification factor: 0
Trouble in retire width: -nan
MaC = Marked as critical.
lt_50_percent_before_Mac: 0
gt_90_percent_before_Mac: 0
gt_75_percent_before_Mac: 0
gt_50_percent_before_Mac: 0
stall_proportion_bin_same_before_after: 0
stall_proportion_bin_lower_before_after: 0
stall_proportion_bin_upper_before_after: 0
average_stall_proportion_before: -nan
average_stall_proportion_after: -nan
Critical IP stalls, total frequency: 0
Non-critical IP stalls, total frequency: 0
Total Freq all stalling IPs: 0
Critical_IP_Detector_Accuracy_70: 0.0204082
Critical_IP_Detector_Accuracy_80: 0.0204082
Critical_IP_Detector_Accuracy_90: 0.0204082
Critical_IP_Detector_Coverage_70: 1
Critical_IP_Detector_Coverage_80: 1
Critical_IP_Detector_Coverage_90: 1
stat_90_percent_critical_ip_stalls_freq: 1297819
stat_90_percent_non_critical_ip_stalls_freq: 18446744073708253797
AVERAGE_ROB_Occupancy_90_Percent_Critical_IP_Stalls: 64.157
AVERAGE_ROB_Occupancy_90_Percent_Non_Critical_IP_Stalls: 2.01937e-11
Critical_IP_ROB_Stalls_Bucket_0: 0
Non-critical_IP_ROB_Stalls_Bucket_0: 4186597
Critical_IP_ROB_Stalls_Bucket_1: 0
Non-critical_IP_ROB_Stalls_Bucket_1: 1039190
Critical_IP_ROB_Stalls_Bucket_2: 0
Non-critical_IP_ROB_Stalls_Bucket_2: 166637
Critical_IP_ROB_Stalls_Bucket_3: 0
Non-critical_IP_ROB_Stalls_Bucket_3: 206035
Critical_IP_ROB_Stalls_Bucket_4: 0
Non-critical_IP_ROB_Stalls_Bucket_4: 143452
Critical_IP_ROB_Stalls_Bucket_5: 0
Non-critical_IP_ROB_Stalls_Bucket_5: 154271
Critical_IP_ROB_Stalls_Bucket_6: 0
Non-critical_IP_ROB_Stalls_Bucket_6: 305801
0 => IPs accounting for >50 percent of stalls, 1 => 55, 2 => 60, 3 => 65 and so on till 90.
percent50: inf num IPs:  1
percent55: inf num IPs: 1
percent60: inf num IPs: 1
percent65: inf num IPs: 1
percent70: inf num IPs: 1
percent75: inf num IPs: 1
percent80: inf num IPs: 1
percent85: inf num IPs: 1
percent90: inf num IPs: 1
Critical_ROB_Stalls_Percent_0_Bucket_0: 898800
Non-critical_ROB_Stalls_Percent_0_Bucket_0: 3287797
Critical_ROB_Stalls_Percent_0_Bucket_1: 248672
Non-critical_ROB_Stalls_Percent_0_Bucket_1: 790518
Critical_ROB_Stalls_Percent_0_Bucket_2: 39301
Non-critical_ROB_Stalls_Percent_0_Bucket_2: 127336
Critical_ROB_Stalls_Percent_0_Bucket_3: 39741
Non-critical_ROB_Stalls_Percent_0_Bucket_3: 166294
Critical_ROB_Stalls_Percent_0_Bucket_4: 32138
Non-critical_ROB_Stalls_Percent_0_Bucket_4: 111314
Critical_ROB_Stalls_Percent_0_Bucket_5: 19472
Non-critical_ROB_Stalls_Percent_0_Bucket_5: 134799
Critical_ROB_Stalls_Percent_0_Bucket_6: 19695
Non-critical_ROB_Stalls_Percent_0_Bucket_6: 286106
Critical_ROB_Stalls_Percent_1_Bucket_0: 898800
Non-critical_ROB_Stalls_Percent_1_Bucket_0: 3287797
Critical_ROB_Stalls_Percent_1_Bucket_1: 248672
Non-critical_ROB_Stalls_Percent_1_Bucket_1: 790518
Critical_ROB_Stalls_Percent_1_Bucket_2: 39301
Non-critical_ROB_Stalls_Percent_1_Bucket_2: 127336
Critical_ROB_Stalls_Percent_1_Bucket_3: 39741
Non-critical_ROB_Stalls_Percent_1_Bucket_3: 166294
Critical_ROB_Stalls_Percent_1_Bucket_4: 32138
Non-critical_ROB_Stalls_Percent_1_Bucket_4: 111314
Critical_ROB_Stalls_Percent_1_Bucket_5: 19472
Non-critical_ROB_Stalls_Percent_1_Bucket_5: 134799
Critical_ROB_Stalls_Percent_1_Bucket_6: 19695
Non-critical_ROB_Stalls_Percent_1_Bucket_6: 286106
Critical_ROB_Stalls_Percent_2_Bucket_0: 898800
Non-critical_ROB_Stalls_Percent_2_Bucket_0: 3287797
Critical_ROB_Stalls_Percent_2_Bucket_1: 248672
Non-critical_ROB_Stalls_Percent_2_Bucket_1: 790518
Critical_ROB_Stalls_Percent_2_Bucket_2: 39301
Non-critical_ROB_Stalls_Percent_2_Bucket_2: 127336
Critical_ROB_Stalls_Percent_2_Bucket_3: 39741
Non-critical_ROB_Stalls_Percent_2_Bucket_3: 166294
Critical_ROB_Stalls_Percent_2_Bucket_4: 32138
Non-critical_ROB_Stalls_Percent_2_Bucket_4: 111314
Critical_ROB_Stalls_Percent_2_Bucket_5: 19472
Non-critical_ROB_Stalls_Percent_2_Bucket_5: 134799
Critical_ROB_Stalls_Percent_2_Bucket_6: 19695
Non-critical_ROB_Stalls_Percent_2_Bucket_6: 286106
Critical_ROB_Stalls_Percent_3_Bucket_0: 898800
Non-critical_ROB_Stalls_Percent_3_Bucket_0: 3287797
Critical_ROB_Stalls_Percent_3_Bucket_1: 248672
Non-critical_ROB_Stalls_Percent_3_Bucket_1: 790518
Critical_ROB_Stalls_Percent_3_Bucket_2: 39301
Non-critical_ROB_Stalls_Percent_3_Bucket_2: 127336
Critical_ROB_Stalls_Percent_3_Bucket_3: 39741
Non-critical_ROB_Stalls_Percent_3_Bucket_3: 166294
Critical_ROB_Stalls_Percent_3_Bucket_4: 32138
Non-critical_ROB_Stalls_Percent_3_Bucket_4: 111314
Critical_ROB_Stalls_Percent_3_Bucket_5: 19472
Non-critical_ROB_Stalls_Percent_3_Bucket_5: 134799
Critical_ROB_Stalls_Percent_3_Bucket_6: 19695
Non-critical_ROB_Stalls_Percent_3_Bucket_6: 286106
Critical_ROB_Stalls_Percent_4_Bucket_0: 898800
Non-critical_ROB_Stalls_Percent_4_Bucket_0: 3287797
Critical_ROB_Stalls_Percent_4_Bucket_1: 248672
Non-critical_ROB_Stalls_Percent_4_Bucket_1: 790518
Critical_ROB_Stalls_Percent_4_Bucket_2: 39301
Non-critical_ROB_Stalls_Percent_4_Bucket_2: 127336
Critical_ROB_Stalls_Percent_4_Bucket_3: 39741
Non-critical_ROB_Stalls_Percent_4_Bucket_3: 166294
Critical_ROB_Stalls_Percent_4_Bucket_4: 32138
Non-critical_ROB_Stalls_Percent_4_Bucket_4: 111314
Critical_ROB_Stalls_Percent_4_Bucket_5: 19472
Non-critical_ROB_Stalls_Percent_4_Bucket_5: 134799
Critical_ROB_Stalls_Percent_4_Bucket_6: 19695
Non-critical_ROB_Stalls_Percent_4_Bucket_6: 286106
Critical_ROB_Stalls_Percent_5_Bucket_0: 898800
Non-critical_ROB_Stalls_Percent_5_Bucket_0: 3287797
Critical_ROB_Stalls_Percent_5_Bucket_1: 248672
Non-critical_ROB_Stalls_Percent_5_Bucket_1: 790518
Critical_ROB_Stalls_Percent_5_Bucket_2: 39301
Non-critical_ROB_Stalls_Percent_5_Bucket_2: 127336
Critical_ROB_Stalls_Percent_5_Bucket_3: 39741
Non-critical_ROB_Stalls_Percent_5_Bucket_3: 166294
Critical_ROB_Stalls_Percent_5_Bucket_4: 32138
Non-critical_ROB_Stalls_Percent_5_Bucket_4: 111314
Critical_ROB_Stalls_Percent_5_Bucket_5: 19472
Non-critical_ROB_Stalls_Percent_5_Bucket_5: 134799
Critical_ROB_Stalls_Percent_5_Bucket_6: 19695
Non-critical_ROB_Stalls_Percent_5_Bucket_6: 286106
Critical_ROB_Stalls_Percent_6_Bucket_0: 898800
Non-critical_ROB_Stalls_Percent_6_Bucket_0: 3287797
Critical_ROB_Stalls_Percent_6_Bucket_1: 248672
Non-critical_ROB_Stalls_Percent_6_Bucket_1: 790518
Critical_ROB_Stalls_Percent_6_Bucket_2: 39301
Non-critical_ROB_Stalls_Percent_6_Bucket_2: 127336
Critical_ROB_Stalls_Percent_6_Bucket_3: 39741
Non-critical_ROB_Stalls_Percent_6_Bucket_3: 166294
Critical_ROB_Stalls_Percent_6_Bucket_4: 32138
Non-critical_ROB_Stalls_Percent_6_Bucket_4: 111314
Critical_ROB_Stalls_Percent_6_Bucket_5: 19472
Non-critical_ROB_Stalls_Percent_6_Bucket_5: 134799
Critical_ROB_Stalls_Percent_6_Bucket_6: 19695
Non-critical_ROB_Stalls_Percent_6_Bucket_6: 286106
Critical_ROB_Stalls_Percent_7_Bucket_0: 898800
Non-critical_ROB_Stalls_Percent_7_Bucket_0: 3287797
Critical_ROB_Stalls_Percent_7_Bucket_1: 248672
Non-critical_ROB_Stalls_Percent_7_Bucket_1: 790518
Critical_ROB_Stalls_Percent_7_Bucket_2: 39301
Non-critical_ROB_Stalls_Percent_7_Bucket_2: 127336
Critical_ROB_Stalls_Percent_7_Bucket_3: 39741
Non-critical_ROB_Stalls_Percent_7_Bucket_3: 166294
Critical_ROB_Stalls_Percent_7_Bucket_4: 32138
Non-critical_ROB_Stalls_Percent_7_Bucket_4: 111314
Critical_ROB_Stalls_Percent_7_Bucket_5: 19472
Non-critical_ROB_Stalls_Percent_7_Bucket_5: 134799
Critical_ROB_Stalls_Percent_7_Bucket_6: 19695
Non-critical_ROB_Stalls_Percent_7_Bucket_6: 286106
Critical_ROB_Stalls_Percent_8_Bucket_0: 898800
Non-critical_ROB_Stalls_Percent_8_Bucket_0: 3287797
Critical_ROB_Stalls_Percent_8_Bucket_1: 248672
Non-critical_ROB_Stalls_Percent_8_Bucket_1: 790518
Critical_ROB_Stalls_Percent_8_Bucket_2: 39301
Non-critical_ROB_Stalls_Percent_8_Bucket_2: 127336
Critical_ROB_Stalls_Percent_8_Bucket_3: 39741
Non-critical_ROB_Stalls_Percent_8_Bucket_3: 166294
Critical_ROB_Stalls_Percent_8_Bucket_4: 32138
Non-critical_ROB_Stalls_Percent_8_Bucket_4: 111314
Critical_ROB_Stalls_Percent_8_Bucket_5: 19472
Non-critical_ROB_Stalls_Percent_8_Bucket_5: 134799
Critical_ROB_Stalls_Percent_8_Bucket_6: 19695
Non-critical_ROB_Stalls_Percent_8_Bucket_6: 286106
Average ROB occupancy Load Stall Begin: 63.3225
Average ROB occupancy Load Stall End: 73.4883
Min ROB occupancy Load Stall Begin: 2
Max ROB occupancy Load Stall Begin: 352
Min ROB occupancy Load Stall End: 2
Max ROB occupancy Load Stall End: 352
Average ROB occupancy Critical Load Stall Begin: -nan
Average ROB occupancy Critical Load Stall End: -nan
Min ROB occupancy Critical Load Stall Begin: 400
Max ROB occupancy Critical Load Stall Begin: 0
Min ROB occupancy Critical Load Stall End: 400
Max ROB occupancy Critical Load Stall End: 0
 ROB Load Stall Begin Bucket Count 0: 4709143
 ROB Load Stall End Bucket Count 0: 4186597
 ROB Critical Load Stall Begin Bucket Count 0: 0
 ROB Critical Load Stall End Bucket Count 0: 0
 ROB Load Stall Begin Bucket Count 1: 611828
 ROB Load Stall End Bucket Count 1: 1039190
 ROB Critical Load Stall Begin Bucket Count 1: 0
 ROB Critical Load Stall End Bucket Count 1: 0
 ROB Load Stall Begin Bucket Count 2: 174333
 ROB Load Stall End Bucket Count 2: 166637
 ROB Critical Load Stall Begin Bucket Count 2: 0
 ROB Critical Load Stall End Bucket Count 2: 0
 ROB Load Stall Begin Bucket Count 3: 191070
 ROB Load Stall End Bucket Count 3: 206035
 ROB Critical Load Stall Begin Bucket Count 3: 0
 ROB Critical Load Stall End Bucket Count 3: 0
 ROB Load Stall Begin Bucket Count 4: 132062
 ROB Load Stall End Bucket Count 4: 143452
 ROB Critical Load Stall Begin Bucket Count 4: 0
 ROB Critical Load Stall End Bucket Count 4: 0
 ROB Load Stall Begin Bucket Count 5: 151137
 ROB Load Stall End Bucket Count 5: 154271
 ROB Critical Load Stall Begin Bucket Count 5: 0
 ROB Critical Load Stall End Bucket Count 5: 0
 ROB Load Stall Begin Bucket Count 6: 232411
 ROB Load Stall End Bucket Count 6: 305801
 ROB Critical Load Stall Begin Bucket Count 6: 0
 ROB Critical Load Stall End Bucket Count 6: 0
PIST Tag Read Accesses: 0
PIST Read Accesses: 0
PIST Tag Write Accesses: 0
PIST Write Accesses: 0
Criticality detector called times: 0
Max global_stall_cycles_count: 0
Threshold Modified: 0 times, factor: 0
ITLB TOTAL     ACCESS:   12777407  HIT:   12777407  MISS:          0  HIT %:        100  MISS %:          0   MPKI: 0
ITLB LOAD TRANSLATION ACCESS:   12777407  HIT:   12777407  MISS:          0  HIT %:        100  MISS %:          0   MPKI: 0
ITLB PREFETCH  REQUESTED:          0  ISSUED:          0  USEFUL:          0  USELESS:          0
ITLB USEFUL LOAD PREFETCHES:          0 PREFETCH ISSUED TO LOWER LEVEL:          0  ACCURACY: -nan
ITLB TIMELY PREFETCHES:          0 LATE PREFETCHES: 0 DROPPED PREFETCHES: 0
ITLB PREFETCHES SAME FILL-ORIGIN LEVEL: 0 DIFFERENT FILL-ORIGIN LEVEL: 0
ITLB AVERAGE MISS LATENCY: -nan cycles
ITLB RQ	ACCESS:   17284831	FORWARD:          0	MERGED:    4507425	TO_CACHE:   12777406

DTLB TOTAL     ACCESS:   31184747  HIT:   31002089  MISS:     182658  HIT %:    99.4143  MISS %:   0.585729   MPKI: 1.82658
DTLB LOAD TRANSLATION ACCESS:   31184747  HIT:   31002089  MISS:     182658  HIT %:    99.4143  MISS %:   0.585729   MPKI: 1.82658
DTLB PREFETCH  REQUESTED:          0  ISSUED:          0  USEFUL:          0  USELESS:          0
DTLB USEFUL LOAD PREFETCHES:          0 PREFETCH ISSUED TO LOWER LEVEL:          0  ACCURACY: -nan
DTLB TIMELY PREFETCHES:          0 LATE PREFETCHES: 0 DROPPED PREFETCHES: 0
DTLB PREFETCHES SAME FILL-ORIGIN LEVEL: 0 DIFFERENT FILL-ORIGIN LEVEL: 0
DTLB AVERAGE MISS LATENCY: 89.5679 cycles
DTLB RQ	ACCESS:   37216194	FORWARD:          0	MERGED:    5997084	TO_CACHE:   31219110

STLB TOTAL     ACCESS:     182658  HIT:     152971  MISS:      29687  HIT %:    83.7472  MISS %:    16.2528   MPKI: 0.29687
STLB LOAD TRANSLATION ACCESS:     182658  HIT:     152971  MISS:      29687  HIT %:    83.7472  MISS %:    16.2528   MPKI: 0.29687
STLB PREFETCH  REQUESTED:          0  ISSUED:          0  USEFUL:          0  USELESS:          0
STLB USEFUL LOAD PREFETCHES:          0 PREFETCH ISSUED TO LOWER LEVEL:          0  ACCURACY: -nan
STLB TIMELY PREFETCHES:          0 LATE PREFETCHES: 0 DROPPED PREFETCHES: 0
STLB PREFETCHES SAME FILL-ORIGIN LEVEL: 0 DIFFERENT FILL-ORIGIN LEVEL: 0
STLB AVERAGE MISS LATENCY: 471.965 cycles
STLB RQ	ACCESS:     182658	FORWARD:          0	MERGED:          0	TO_CACHE:     182658

STLB Hit, L1D data hit: 0
STLB Hit, L2C data hit: 0
STLB Hit, LLC data hit: 0
STLB Hit, LLC data miss: 0
STLB STLB hints to L2: 0
L1D TOTAL     ACCESS:   37059233  HIT:   35060058  MISS:    1999175  HIT %:    94.6055  MISS %:    5.39454   MPKI: 19.9917
L1D LOAD      ACCESS:   31454975  HIT:   29504524  MISS:    1950451  HIT %:    93.7992  MISS %:    6.20077   MPKI: 19.5045
L1D RFO       ACCESS:    5604258  HIT:    5555534  MISS:      48724  HIT %:    99.1306  MISS %:    0.86941   MPKI: 0.48724
L1D PREFETCH  REQUESTED:          0  ISSUED:          0  USEFUL:          0  USELESS:          0
L1D USEFUL LOAD PREFETCHES:          0 PREFETCH ISSUED TO LOWER LEVEL:          0  ACCURACY: -nan
L1D TIMELY PREFETCHES:          0 LATE PREFETCHES: 0 DROPPED PREFETCHES: 0
L1D PREFETCHES SAME FILL-ORIGIN LEVEL: 0 DIFFERENT FILL-ORIGIN LEVEL: 0
L1D AVERAGE MISS LATENCY: 56.9331 cycles
L1D RQ	ACCESS:   42475852	FORWARD:          0	MERGED:   10699618	TO_CACHE:   31582858
L1D WQ	ACCESS:    5633399	FORWARD:     193376	MERGED:         63	TO_CACHE:    5633336

L1D UNIQUE REGIONS ACCESSED: 0
L1D REGIONS CONFLICTS: 0
L1D Cross Page Prefetch Requests: 0
L1D Same Page Prefetch Requests: 0
L1D ROI Sum of L1D PQ occupancy: 0
L1D PREFETCHES PUSHED FROM L2C: 0
L1I TOTAL     ACCESS:   17284829  HIT:   17284829  MISS:          0  HIT %:        100  MISS %:          0   MPKI: 0
L1I LOAD      ACCESS:   17284829  HIT:   17284829  MISS:          0  HIT %:        100  MISS %:          0   MPKI: 0
L1I PREFETCH  REQUESTED:          0  ISSUED:          0  USEFUL:          0  USELESS:          0
L1I USEFUL LOAD PREFETCHES:          0 PREFETCH ISSUED TO LOWER LEVEL:          0  ACCURACY: -nan
L1I TIMELY PREFETCHES:          0 LATE PREFETCHES: 0 DROPPED PREFETCHES: 0
L1I PREFETCHES SAME FILL-ORIGIN LEVEL: 0 DIFFERENT FILL-ORIGIN LEVEL: 0
L1I AVERAGE MISS LATENCY: -nan cycles
L1I RQ	ACCESS:   23051579	FORWARD:          0	MERGED:    5766748	TO_CACHE:   17284831

BTB TOTAL     ACCESS:    2417447  HIT:    2417442  MISS:          5  HIT %:    99.9998  MISS %: 0.00020683   MPKI: 5e-05
BTB BRANCH_DIRECT_JUMP	ACCESS:          0  HIT:          0  MISS:          0
BTB BRANCH_INDIRECT	ACCESS:          0  HIT:          0  MISS:          0
BTB BRANCH_CONDITIONAL	ACCESS:    2417447  HIT:    2417442  MISS:          5
BTB BRANCH_DIRECT_CALL	ACCESS:          0  HIT:          0  MISS:          0
BTB BRANCH_INDIRECT_CALL	ACCESS:          0  HIT:          0  MISS:          0
BTB BRANCH_RETURN	ACCESS:          0  HIT:          0  MISS:          0
BTB BRANCH_OTHER ACCESS:          0  HIT:          0  MISS:          0

L2C TOTAL     ACCESS:    3671280  HIT:    1757294  MISS:    1913986  HIT %:     47.866  MISS %:     52.134   MPKI: 19.1399
L2C LOAD      ACCESS:    1950451  HIT:    1616956  MISS:     333495  HIT %:    82.9016  MISS %:    17.0984   MPKI: 3.33495
L2C DATA LOAD MPKI: 3.33495
L2C INSTRUCTION LOAD MPKI: 0
L2C RFO       ACCESS:      48724  HIT:          0  MISS:      48724  HIT %:          0  MISS %:        100   MPKI: 0.48724
L2C PREFETCH  ACCESS:    1592948  HIT:      67896  MISS:    1525052  HIT %:    4.26229  MISS %:    95.7377   MPKI: 15.2505
L2C DATA PREFETCH MPKI: 15.2505
L2C INSTRUCTION PREFETCH MPKI: 0
L2C WRITEBACK ACCESS:      49468  HIT:      46792  MISS:       2676  HIT %:    94.5904  MISS %:    5.40956   MPKI: 0.02676
L2C LOAD TRANSLATION ACCESS:      29689  HIT:      25650  MISS:       4039  HIT %:    86.3956  MISS %:    13.6044   MPKI: 0.04039
L2C PREFETCH  REQUESTED:    1634874  ISSUED:    1634874  USEFUL:    1518313  USELESS:       6646
L2C USEFUL LOAD PREFETCHES:    1518313 PREFETCH ISSUED TO LOWER LEVEL:    1557007  ACCURACY: 97.5148
L2C TIMELY PREFETCHES:    1518313 LATE PREFETCHES: 31955 DROPPED PREFETCHES: 0
L2C PREFETCHES SAME FILL-ORIGIN LEVEL: 1557007 DIFFERENT FILL-ORIGIN LEVEL: 0
L2C AVERAGE MISS LATENCY: 189.703 cycles
L2C RQ	ACCESS:    2028864	FORWARD:          0	MERGED:          0	TO_CACHE:    2028864
L2C WQ	ACCESS:      49468	FORWARD:          0	MERGED:          0	TO_CACHE:      49468
L2C PQ	ACCESS:    1634874	FORWARD:          0	MERGED:          0	TO_CACHE:    1634874

L2C Instructions Evicting Data 0
L2C Translations Evicting Data 4034
L2C Data Evicting Data 1903222
L2C Instructions Evicting Instructions 0
L2C Translations Evicting Instructions 0
L2C Data Evicting Instructions 0
L2C Instructions Evicting Translations 0
L2C Translations Evicting Translations 5
L2C Data Evicting Translations 4049
L2C Dense regions hint from L2: 0
PSCL5 TOTAL     ACCESS:      29687  HIT:      29687  MISS:          0  HIT %:        100  MISS %:          0   MPKI: 0
PSCL5 LOAD TRANSLATION ACCESS:      29687  HIT:      29687  MISS:          0  HIT %:        100  MISS %:          0   MPKI: 0
PSCL5 PREFETCH  REQUESTED:          0  ISSUED:          0  USEFUL:          0  USELESS:          0
PSCL5 USEFUL LOAD PREFETCHES:          0 PREFETCH ISSUED TO LOWER LEVEL:          0  ACCURACY: -nan
PSCL5 TIMELY PREFETCHES:          0 LATE PREFETCHES: 0 DROPPED PREFETCHES: 0
PSCL5 PREFETCHES SAME FILL-ORIGIN LEVEL: 0 DIFFERENT FILL-ORIGIN LEVEL: 0

PSCL4 TOTAL     ACCESS:      29687  HIT:      29687  MISS:          0  HIT %:        100  MISS %:          0   MPKI: 0
PSCL4 LOAD TRANSLATION ACCESS:      29687  HIT:      29687  MISS:          0  HIT %:        100  MISS %:          0   MPKI: 0
PSCL4 PREFETCH  REQUESTED:          0  ISSUED:          0  USEFUL:          0  USELESS:          0
PSCL4 USEFUL LOAD PREFETCHES:          0 PREFETCH ISSUED TO LOWER LEVEL:          0  ACCURACY: -nan
PSCL4 TIMELY PREFETCHES:          0 LATE PREFETCHES: 0 DROPPED PREFETCHES: 0
PSCL4 PREFETCHES SAME FILL-ORIGIN LEVEL: 0 DIFFERENT FILL-ORIGIN LEVEL: 0

PSCL3 TOTAL     ACCESS:      29687  HIT:      29687  MISS:          0  HIT %:        100  MISS %:          0   MPKI: 0
PSCL3 LOAD TRANSLATION ACCESS:      29687  HIT:      29687  MISS:          0  HIT %:        100  MISS %:          0   MPKI: 0
PSCL3 PREFETCH  REQUESTED:          0  ISSUED:          0  USEFUL:          0  USELESS:          0
PSCL3 USEFUL LOAD PREFETCHES:          0 PREFETCH ISSUED TO LOWER LEVEL:          0  ACCURACY: -nan
PSCL3 TIMELY PREFETCHES:          0 LATE PREFETCHES: 0 DROPPED PREFETCHES: 0
PSCL3 PREFETCHES SAME FILL-ORIGIN LEVEL: 0 DIFFERENT FILL-ORIGIN LEVEL: 0

PSCL2 TOTAL     ACCESS:      29687  HIT:      29628  MISS:         59  HIT %:    99.8013  MISS %:    0.19874   MPKI: 0.00059
PSCL2 LOAD TRANSLATION ACCESS:      29687  HIT:      29628  MISS:         59  HIT %:    99.8013  MISS %:    0.19874   MPKI: 0.00059
PSCL2 PREFETCH  REQUESTED:          0  ISSUED:          0  USEFUL:          0  USELESS:          0
PSCL2 USEFUL LOAD PREFETCHES:          0 PREFETCH ISSUED TO LOWER LEVEL:          0  ACCURACY: -nan
PSCL2 TIMELY PREFETCHES:          0 LATE PREFETCHES: 0 DROPPED PREFETCHES: 0
PSCL2 PREFETCHES SAME FILL-ORIGIN LEVEL: 0 DIFFERENT FILL-ORIGIN LEVEL: 0

LLC TOTAL     ACCESS:    1960337  HIT:      55496  MISS:    1904841  HIT %:    2.83094  MISS %:    97.1691   MPKI: 19.0484
LLC LOAD      ACCESS:     301540  HIT:        953  MISS:     300587  HIT %:   0.316044  MISS %:     99.684   MPKI: 3.00587
LLC RFO       ACCESS:      48724  HIT:          0  MISS:      48724  HIT %:          0  MISS %:        100   MPKI: 0.48724
LLC PREFETCH  ACCESS:    1557007  HIT:       6006  MISS:    1551001  HIT %:    0.38574  MISS %:    99.6143   MPKI: 15.51
LLC WRITEBACK ACCESS:      49027  HIT:      48271  MISS:        756  HIT %:     98.458  MISS %:    1.54201   MPKI: 0.00756
LLC LOAD TRANSLATION ACCESS:       4039  HIT:        266  MISS:       3773  HIT %:    6.58579  MISS %:    93.4142   MPKI: 0.03773
LLC PREFETCH  REQUESTED:          0  ISSUED:          0  USEFUL:        898  USELESS:    1523727
LLC USEFUL LOAD PREFETCHES:        898 PREFETCH ISSUED TO LOWER LEVEL:    1551001  ACCURACY: 0.0578981
LLC TIMELY PREFETCHES:        898 LATE PREFETCHES: 0 DROPPED PREFETCHES: 0
LLC PREFETCHES SAME FILL-ORIGIN LEVEL: 0 DIFFERENT FILL-ORIGIN LEVEL: 0
LLC AVERAGE MISS LATENCY: 158.73 cycles
LLC RQ	ACCESS:     354303	FORWARD:          0	MERGED:          0	TO_CACHE:     354303
LLC WQ	ACCESS:      49027	FORWARD:          0	MERGED:          0	TO_CACHE:      49027
LLC PQ	ACCESS:    1557007	FORWARD:          0	MERGED:          0	TO_CACHE:    1557007

LLC Dense regions hint to LLC: 0

RAW hits: 504217
Loads Generated: 42980073
Loads sent to L1D: 42475852
Stores Generated: 5633399
Stores sent to L1D: 5633399
Major fault: 0 Minor fault: 42651
Allocated PAGES: 42651
[Bingo] PHT Access: 61750
[Bingo] PHT Hit PC+Addr: 330
[Bingo] PHT Hit PC+Offs: 61371
[Bingo] PHT Miss: 49
[Bingo] Prefetch PC+Addr: 0
[Bingo] Prefetch PC+Offs: 0
[Bingo] Useful PC+Addr: 0
[Bingo] Useful PC+Offs: 0
[Bingo] Useless PC+Addr: 0
[Bingo] Useless PC+Offs: 0
[Bingo] L1 Prefetch per Region: 0
[Bingo] L2 Prefetch per Region: 29.2456
[Bingo] L3 Prefetch per Region: 0
[Bingo] No Prefetch per Region: 2.75444
[Bingo] Number of Voters Mean: 15.4921
[Bingo] Number of Voters SD: 2.63955
PHT read accesses: 975554
PHT write accesses: 61042
AT read accesses: 1720539
AT write accesses: 1737142
FT read accesses: 185467
FT write accesses: 61750
PS read accesses: 472648
PS write accesses: 61701
PHT tag read accesses: 2926685
PHT tag write accesses: 61372
AT tag read accesses: 61028382
AT tag write accesses: 1781689
FT tag read accesses: 34661423
FT tag write accesses: 185362
PS tag read accesses: 30252653
PS tag write accesses: 533482

DRAM Statistics
 CHANNEL 0
 RQ ROW_BUFFER_HIT:    1559826  ROW_BUFFER_MISS:     344259
 DBUS_CONGESTED:        305
 WQ ROW_BUFFER_HIT:      10110  ROW_BUFFER_MISS:      38956  FULL:          0

 AVG_CONGESTED_CYCLE: 4
 All warmup complete: 2
Channel 0 Bank busy for read cycles: 0
Channel 0 Bank busy for write cycles: 0
Channel 0
Rank 0
0banks busy for read cycles: 64930978
0banks busy for write cycles: 13562
1banks busy for read cycles: 13329544
1banks busy for write cycles: 1189943
2banks busy for read cycles: 3982768
2banks busy for write cycles: 481531
3banks busy for read cycles: 1865216
3banks busy for write cycles: 302512
4banks busy for read cycles: 1320148
4banks busy for write cycles: 172105
5banks busy for read cycles: 1362328
5banks busy for write cycles: 137329
6banks busy for read cycles: 1255794
6banks busy for write cycles: 111909
7banks busy for read cycles: 2301828
7banks busy for write cycles: 128553
8banks busy for read cycles: 8378147
8banks busy for write cycles: 178701

CPU 0 Branch Prediction Accuracy: 99.9707% MPKI: 0.00732 Average ROB Occupancy at Mispredict: 76.8265
Branch types
NOT_BRANCH: 97503533 97.5035%
BRANCH_DIRECT_JUMP: 0 0%
BRANCH_INDIRECT: 0 0%
BRANCH_CONDITIONAL: 2496132 2.49613%
BRANCH_DIRECT_CALL: 0 0%
BRANCH_INDIRECT_CALL: 0 0%
BRANCH_RETURN: 0 0%
BRANCH_OTHER: 0 0%

DRAM PAGES: 1048576
Allocated PAGES: 42651
