Initialize SIGNATURE TABLE
ST_SET: 1
ST_WAY: 256
ST_TAG_BIT: 16
ST_TAG_MASK: ffff

Initialize PATTERN TABLE
PT_SET: 512
PT_WAY: 4
SIG_DELTA_BIT: 7
C_SIG_BIT: 4
C_DELTA_BIT: 4

Initialize PREFETCH FILTER
FILTER_SET: 1024

*** ChampSim Multicore Out-of-Order Simulator ***

Warmup Instructions: 50000000
Simulation Instructions: 100000000
Number of CPUs: 1
LLC sets: 2048
LLC ways: 16
Off-chip DRAM Size: 4096 MB Channels: 1 Width: 64-bit Data Rate: 6400 MT/s
CPU 0 runs ../SPEC2017//605.mcf_s-472B.champsimtrace.xz
.xz
NUM_OF_IPS_IN_CRITICAL_IP_TRAINING: 64
NUM_OF_CRITICAL_IP_TRAINING_TABLE_WAYS: 2
NUM_OF_CRITICAL_IP_TRAINING_TABLE_SETS: 32
WOBBLY_CRITICAL_IP_CACHE_SETS: 32
WOBBLY_CRITICAL_IP_CACHE_WAYS: 4
BTB has LRU replacement policy
ITLB has LRU replacement policy
DTLB has LRU replacement policy
STLB has LRU replacement policy
L1I has LRU replacement policy
L1D has LRU replacement policy
Initialize SRRIP state for L2C
Initialize DRRIP state for LLC
Heartbeat CPU 0 instructions: 10000001 cycles: 3221308 heartbeat IPC: 3.10433 cumulative IPC: 3.10433 (Simulation time: 0 hr 5 min 51 sec) 
Heartbeat CPU 0 instructions: 20000003 cycles: 6599350 heartbeat IPC: 2.9603 cumulative IPC: 3.0306 (Simulation time: 0 hr 11 min 48 sec) 
Heartbeat CPU 0 instructions: 30000002 cycles: 10058603 heartbeat IPC: 2.8908 cumulative IPC: 2.98252 (Simulation time: 0 hr 17 min 18 sec) 
Heartbeat CPU 0 instructions: 40000003 cycles: 13305439 heartbeat IPC: 3.07992 cumulative IPC: 3.00629 (Simulation time: 0 hr 21 min 47 sec) 
Heartbeat CPU 0 instructions: 50000001 cycles: 16576952 heartbeat IPC: 3.05669 cumulative IPC: 3.01624 (Simulation time: 0 hr 25 min 45 sec) 

Warmup complete CPU 0 instructions: 50000001 cycles: 16576952 (Simulation time: 0 hr 25 min 45 sec) 

% increase in all ip prefetch 385.922
% increase in all ip prefetch -41.7309
Heartbeat CPU 0 instructions: 60000001 cycles: 42243660 heartbeat IPC: 0.38961 cumulative IPC: 0.38961 (Simulation time: 0 hr 31 min 54 sec) 
Heartbeat CPU 0 instructions: 70000002 cycles: 66720613 heartbeat IPC: 0.408548 cumulative IPC: 0.398854 (Simulation time: 0 hr 37 min 19 sec) 
Heartbeat CPU 0 instructions: 80000002 cycles: 96597539 heartbeat IPC: 0.334706 cumulative IPC: 0.374904 (Simulation time: 0 hr 42 min 59 sec) 
Heartbeat CPU 0 instructions: 90000000 cycles: 120500524 heartbeat IPC: 0.418358 cumulative IPC: 0.384898 (Simulation time: 0 hr 47 min 30 sec) 
Heartbeat CPU 0 instructions: 100000002 cycles: 148793790 heartbeat IPC: 0.353441 cumulative IPC: 0.378167 (Simulation time: 0 hr 55 min 53 sec) 
Heartbeat CPU 0 instructions: 110000000 cycles: 173117499 heartbeat IPC: 0.411121 cumulative IPC: 0.383287 (Simulation time: 1 hr 5 min 45 sec) 
Heartbeat CPU 0 instructions: 120000002 cycles: 200024675 heartbeat IPC: 0.371648 cumulative IPC: 0.38158 (Simulation time: 1 hr 15 min 16 sec) 
Heartbeat CPU 0 instructions: 130000002 cycles: 227723332 heartbeat IPC: 0.361028 cumulative IPC: 0.378884 (Simulation time: 1 hr 24 min 22 sec) 
Heartbeat CPU 0 instructions: 140000003 cycles: 255704176 heartbeat IPC: 0.357387 cumulative IPC: 0.376369 (Simulation time: 1 hr 32 min 36 sec) 
Heartbeat CPU 0 instructions: 150000002 cycles: 283535403 heartbeat IPC: 0.359309 cumulative IPC: 0.37459 (Simulation time: 1 hr 39 min 31 sec) 
Finished CPU 0 instructions: 100000001 cycles: 266958451 cumulative IPC: 0.37459 (Simulation time: 1 hr 39 min 31 sec) 

ChampSim completed all CPUs

Region of Interest Statistics

CPU 0 cumulative IPC: 0.37459 instructions: 100000001 cycles: 266958451

CPU 0 Average Load ROB stall cycles: 5.04903e+07
CPU 0 Fraction of times ROB stalled by Loads: 34.2695
CPU 0 Percentage of Load stall cycles in Total stall cycles: 4.81418e+08
Issued all: 150197669
Issued LT all: 141105244
rob_not_full_when_issued_lt_all: 30483551
Issued LT one: 123719873
rob_not_full_when_issued_lt_one: 24676562
 Total stall cycles: 242893729
 Total load stall cycles: 1169334394990644
CPU 0 NUM of IPS identified critical: 0
CPU 0 Num of Load IPs stalling ROB: 85
Threshold modification factor: -1
Max PIST entries: 38
Min PIST entries: 0
Avg PIST entries: 16.22
Trouble in retire width: 0.995802
MaC = Marked as critical.
lt_50_percent_before_Mac: 0
gt_90_percent_before_Mac: 0
gt_75_percent_before_Mac: 0
gt_50_percent_before_Mac: 0
stall_proportion_bin_same_before_after: 0
stall_proportion_bin_lower_before_after: 0
stall_proportion_bin_upper_before_after: 0
average_stall_proportion_before: -nan
average_stall_proportion_after: -nan
Critical IP stalls, total frequency: 0
Non-critical IP stalls, total frequency: 7936673
Total Freq all stalling IPs: 7936673
stat_90_percent_critical_ip_stalls_freq: 7203682
stat_90_percent_non_critical_ip_stalls_freq: 732991
Critical_IP_ROB_Stalls_Bucket_0: 0
Non-critical_IP_ROB_Stalls_Bucket_0: 780262
Critical_IP_ROB_Stalls_Bucket_1: 0
Non-critical_IP_ROB_Stalls_Bucket_1: 353703
Critical_IP_ROB_Stalls_Bucket_2: 0
Non-critical_IP_ROB_Stalls_Bucket_2: 499883
Critical_IP_ROB_Stalls_Bucket_3: 0
Non-critical_IP_ROB_Stalls_Bucket_3: 744473
Critical_IP_ROB_Stalls_Bucket_4: 0
Non-critical_IP_ROB_Stalls_Bucket_4: 677170
Critical_IP_ROB_Stalls_Bucket_5: 0
Non-critical_IP_ROB_Stalls_Bucket_5: 970819
Critical_IP_ROB_Stalls_Bucket_6: 0
Non-critical_IP_ROB_Stalls_Bucket_6: 3910363
0 => IPs accounting for >50 percent of stalls, 1 => 55, 2 => 60, 3 => 65 and so on till 90.
percent50: 58.0746 num IPs:  3
percent55: 58.0746 num IPs: 3
percent60: 67.3427 num IPs: 4
percent65: 67.3427 num IPs: 4
percent70: 75.0624 num IPs: 5
percent75: 75.0624 num IPs: 5
percent80: 82.369 num IPs: 7
percent85: 85.4202 num IPs: 8
percent90: 90.7645 num IPs: 10
Critical_ROB_Stalls_Percent_0_Bucket_0: 229104
Non-critical_ROB_Stalls_Percent_0_Bucket_0: 551158
Critical_ROB_Stalls_Percent_0_Bucket_1: 124662
Non-critical_ROB_Stalls_Percent_0_Bucket_1: 229041
Critical_ROB_Stalls_Percent_0_Bucket_2: 250066
Non-critical_ROB_Stalls_Percent_0_Bucket_2: 249817
Critical_ROB_Stalls_Percent_0_Bucket_3: 474296
Non-critical_ROB_Stalls_Percent_0_Bucket_3: 270177
Critical_ROB_Stalls_Percent_0_Bucket_4: 462048
Non-critical_ROB_Stalls_Percent_0_Bucket_4: 215122
Critical_ROB_Stalls_Percent_0_Bucket_5: 762221
Non-critical_ROB_Stalls_Percent_0_Bucket_5: 208598
Critical_ROB_Stalls_Percent_0_Bucket_6: 2306794
Non-critical_ROB_Stalls_Percent_0_Bucket_6: 1603569
Critical_ROB_Stalls_Percent_1_Bucket_0: 229104
Non-critical_ROB_Stalls_Percent_1_Bucket_0: 551158
Critical_ROB_Stalls_Percent_1_Bucket_1: 124662
Non-critical_ROB_Stalls_Percent_1_Bucket_1: 229041
Critical_ROB_Stalls_Percent_1_Bucket_2: 250066
Non-critical_ROB_Stalls_Percent_1_Bucket_2: 249817
Critical_ROB_Stalls_Percent_1_Bucket_3: 474296
Non-critical_ROB_Stalls_Percent_1_Bucket_3: 270177
Critical_ROB_Stalls_Percent_1_Bucket_4: 462048
Non-critical_ROB_Stalls_Percent_1_Bucket_4: 215122
Critical_ROB_Stalls_Percent_1_Bucket_5: 762221
Non-critical_ROB_Stalls_Percent_1_Bucket_5: 208598
Critical_ROB_Stalls_Percent_1_Bucket_6: 2306794
Non-critical_ROB_Stalls_Percent_1_Bucket_6: 1603569
Critical_ROB_Stalls_Percent_2_Bucket_0: 290304
Non-critical_ROB_Stalls_Percent_2_Bucket_0: 489958
Critical_ROB_Stalls_Percent_2_Bucket_1: 159746
Non-critical_ROB_Stalls_Percent_2_Bucket_1: 193957
Critical_ROB_Stalls_Percent_2_Bucket_2: 291945
Non-critical_ROB_Stalls_Percent_2_Bucket_2: 207938
Critical_ROB_Stalls_Percent_2_Bucket_3: 516754
Non-critical_ROB_Stalls_Percent_2_Bucket_3: 227719
Critical_ROB_Stalls_Percent_2_Bucket_4: 485513
Non-critical_ROB_Stalls_Percent_2_Bucket_4: 191657
Critical_ROB_Stalls_Percent_2_Bucket_5: 780126
Non-critical_ROB_Stalls_Percent_2_Bucket_5: 190693
Critical_ROB_Stalls_Percent_2_Bucket_6: 2820378
Non-critical_ROB_Stalls_Percent_2_Bucket_6: 1089985
Critical_ROB_Stalls_Percent_3_Bucket_0: 290304
Non-critical_ROB_Stalls_Percent_3_Bucket_0: 489958
Critical_ROB_Stalls_Percent_3_Bucket_1: 159746
Non-critical_ROB_Stalls_Percent_3_Bucket_1: 193957
Critical_ROB_Stalls_Percent_3_Bucket_2: 291945
Non-critical_ROB_Stalls_Percent_3_Bucket_2: 207938
Critical_ROB_Stalls_Percent_3_Bucket_3: 516754
Non-critical_ROB_Stalls_Percent_3_Bucket_3: 227719
Critical_ROB_Stalls_Percent_3_Bucket_4: 485513
Non-critical_ROB_Stalls_Percent_3_Bucket_4: 191657
Critical_ROB_Stalls_Percent_3_Bucket_5: 780126
Non-critical_ROB_Stalls_Percent_3_Bucket_5: 190693
Critical_ROB_Stalls_Percent_3_Bucket_6: 2820378
Non-critical_ROB_Stalls_Percent_3_Bucket_6: 1089985
Critical_ROB_Stalls_Percent_4_Bucket_0: 306832
Non-critical_ROB_Stalls_Percent_4_Bucket_0: 473430
Critical_ROB_Stalls_Percent_4_Bucket_1: 203324
Non-critical_ROB_Stalls_Percent_4_Bucket_1: 150379
Critical_ROB_Stalls_Percent_4_Bucket_2: 355935
Non-critical_ROB_Stalls_Percent_4_Bucket_2: 143948
Critical_ROB_Stalls_Percent_4_Bucket_3: 619983
Non-critical_ROB_Stalls_Percent_4_Bucket_3: 124490
Critical_ROB_Stalls_Percent_4_Bucket_4: 601671
Non-critical_ROB_Stalls_Percent_4_Bucket_4: 75499
Critical_ROB_Stalls_Percent_4_Bucket_5: 869568
Non-critical_ROB_Stalls_Percent_4_Bucket_5: 101251
Critical_ROB_Stalls_Percent_4_Bucket_6: 3000146
Non-critical_ROB_Stalls_Percent_4_Bucket_6: 910217
Critical_ROB_Stalls_Percent_5_Bucket_0: 306832
Non-critical_ROB_Stalls_Percent_5_Bucket_0: 473430
Critical_ROB_Stalls_Percent_5_Bucket_1: 203324
Non-critical_ROB_Stalls_Percent_5_Bucket_1: 150379
Critical_ROB_Stalls_Percent_5_Bucket_2: 355935
Non-critical_ROB_Stalls_Percent_5_Bucket_2: 143948
Critical_ROB_Stalls_Percent_5_Bucket_3: 619983
Non-critical_ROB_Stalls_Percent_5_Bucket_3: 124490
Critical_ROB_Stalls_Percent_5_Bucket_4: 601671
Non-critical_ROB_Stalls_Percent_5_Bucket_4: 75499
Critical_ROB_Stalls_Percent_5_Bucket_5: 869568
Non-critical_ROB_Stalls_Percent_5_Bucket_5: 101251
Critical_ROB_Stalls_Percent_5_Bucket_6: 3000146
Non-critical_ROB_Stalls_Percent_5_Bucket_6: 910217
Critical_ROB_Stalls_Percent_6_Bucket_0: 371351
Non-critical_ROB_Stalls_Percent_6_Bucket_0: 408911
Critical_ROB_Stalls_Percent_6_Bucket_1: 237248
Non-critical_ROB_Stalls_Percent_6_Bucket_1: 116455
Critical_ROB_Stalls_Percent_6_Bucket_2: 413045
Non-critical_ROB_Stalls_Percent_6_Bucket_2: 86838
Critical_ROB_Stalls_Percent_6_Bucket_3: 654576
Non-critical_ROB_Stalls_Percent_6_Bucket_3: 89897
Critical_ROB_Stalls_Percent_6_Bucket_4: 618903
Non-critical_ROB_Stalls_Percent_6_Bucket_4: 58267
Critical_ROB_Stalls_Percent_6_Bucket_5: 886101
Non-critical_ROB_Stalls_Percent_6_Bucket_5: 84718
Critical_ROB_Stalls_Percent_6_Bucket_6: 3356138
Non-critical_ROB_Stalls_Percent_6_Bucket_6: 554225
Critical_ROB_Stalls_Percent_7_Bucket_0: 406971
Non-critical_ROB_Stalls_Percent_7_Bucket_0: 373291
Critical_ROB_Stalls_Percent_7_Bucket_1: 271444
Non-critical_ROB_Stalls_Percent_7_Bucket_1: 82259
Critical_ROB_Stalls_Percent_7_Bucket_2: 446058
Non-critical_ROB_Stalls_Percent_7_Bucket_2: 53825
Critical_ROB_Stalls_Percent_7_Bucket_3: 661872
Non-critical_ROB_Stalls_Percent_7_Bucket_3: 82601
Critical_ROB_Stalls_Percent_7_Bucket_4: 625346
Non-critical_ROB_Stalls_Percent_7_Bucket_4: 51824
Critical_ROB_Stalls_Percent_7_Bucket_5: 893666
Non-critical_ROB_Stalls_Percent_7_Bucket_5: 77153
Critical_ROB_Stalls_Percent_7_Bucket_6: 3474169
Non-critical_ROB_Stalls_Percent_7_Bucket_6: 436194
Critical_ROB_Stalls_Percent_8_Bucket_0: 474129
Non-critical_ROB_Stalls_Percent_8_Bucket_0: 306133
Critical_ROB_Stalls_Percent_8_Bucket_1: 301145
Non-critical_ROB_Stalls_Percent_8_Bucket_1: 52558
Critical_ROB_Stalls_Percent_8_Bucket_2: 475059
Non-critical_ROB_Stalls_Percent_8_Bucket_2: 24824
Critical_ROB_Stalls_Percent_8_Bucket_3: 691513
Non-critical_ROB_Stalls_Percent_8_Bucket_3: 52960
Critical_ROB_Stalls_Percent_8_Bucket_4: 642852
Non-critical_ROB_Stalls_Percent_8_Bucket_4: 34318
Critical_ROB_Stalls_Percent_8_Bucket_5: 917566
Non-critical_ROB_Stalls_Percent_8_Bucket_5: 53253
Critical_ROB_Stalls_Percent_8_Bucket_6: 3701418
Non-critical_ROB_Stalls_Percent_8_Bucket_6: 208945
Average ROB occupancy Load Stall Begin: 245.717
Average ROB occupancy Load Stall End: 252.03
Min ROB occupancy Load Stall Begin: 1
Max ROB occupancy Load Stall Begin: 352
Min ROB occupancy Load Stall End: 1
Max ROB occupancy Load Stall End: 352
Average ROB occupancy Critical Load Stall Begin: -nan
Average ROB occupancy Critical Load Stall End: -nan
Min ROB occupancy Critical Load Stall Begin: 400
Max ROB occupancy Critical Load Stall Begin: 0
Min ROB occupancy Critical Load Stall End: 400
Max ROB occupancy Critical Load Stall End: 0
 ROB Load Stall Begin Bucket Count 0: 866743
 ROB Load Stall End Bucket Count 0: 780262
 ROB Critical Load Stall Begin Bucket Count 0: 0
 ROB Critical Load Stall End Bucket Count 0: 0
 ROB Load Stall Begin Bucket Count 1: 348678
 ROB Load Stall End Bucket Count 1: 353703
 ROB Critical Load Stall Begin Bucket Count 1: 0
 ROB Critical Load Stall End Bucket Count 1: 0
 ROB Load Stall Begin Bucket Count 2: 547123
 ROB Load Stall End Bucket Count 2: 499883
 ROB Critical Load Stall Begin Bucket Count 2: 0
 ROB Critical Load Stall End Bucket Count 2: 0
 ROB Load Stall Begin Bucket Count 3: 748990
 ROB Load Stall End Bucket Count 3: 744473
 ROB Critical Load Stall Begin Bucket Count 3: 0
 ROB Critical Load Stall End Bucket Count 3: 0
 ROB Load Stall Begin Bucket Count 4: 672614
 ROB Load Stall End Bucket Count 4: 677170
 ROB Critical Load Stall Begin Bucket Count 4: 0
 ROB Critical Load Stall End Bucket Count 4: 0
 ROB Load Stall Begin Bucket Count 5: 1036405
 ROB Load Stall End Bucket Count 5: 970819
 ROB Critical Load Stall Begin Bucket Count 5: 0
 ROB Critical Load Stall End Bucket Count 5: 0
 ROB Load Stall Begin Bucket Count 6: 3716120
 ROB Load Stall End Bucket Count 6: 3910363
 ROB Critical Load Stall Begin Bucket Count 6: 0
 ROB Critical Load Stall End Bucket Count 6: 0
PIST Tag Read Accesses: 40886
PIST Read Accesses: 20443
PIST Tag Write Accesses: 40886
PIST Write Accesses: 20443
Criticality detector called times: 130626
Max global_stall_cycles_count: 434901
Threshold Modified: 1 times, factor: -1
Sturdy critical IP cache stats: 
 Unused entries: 0
CIC Tag Read Accesses: 0
CIC Read Accesses: 0
CIC Tag Write Accesses: 0
CIC Write Accesses: 0
Wobbly critical IP cache stats: 
 Unused entries: 101
CIC Tag Read Accesses: 307881951
CIC Read Accesses: 0
CIC Tag Write Accesses: 1568860
CIC Write Accesses: 0
ITLB TOTAL     ACCESS:   17039143  HIT:   17039143  MISS:          0  HIT %:        100  MISS %:          0   MPKI: 0
ITLB LOAD TRANSLATION ACCESS:   17039143  HIT:   17039143  MISS:          0  HIT %:        100  MISS %:          0   MPKI: 0
ITLB PREFETCH  REQUESTED:          0  ISSUED:          0  USEFUL:          0  USELESS:          0
ITLB USEFUL LOAD PREFETCHES:          0 PREFETCH ISSUED TO LOWER LEVEL:          0  ACCURACY: -nan
ITLB TIMELY PREFETCHES:          0 LATE PREFETCHES: 0 DROPPED PREFETCHES: 0
ITLB PREFETCHES SAME FILL-ORIGIN LEVEL: 0 DIFFERENT FILL-ORIGIN LEVEL: 0
ITLB AVERAGE MISS LATENCY: -nan cycles
ITLB RQ	ACCESS:   22196442	FORWARD:          0	MERGED:    5157300	TO_CACHE:   17039142

DTLB TOTAL     ACCESS:   27633497  HIT:   27331990  MISS:     301507  HIT %:    98.9089  MISS %:    1.09109   MPKI: 3.01507
DTLB LOAD TRANSLATION ACCESS:   27633497  HIT:   27331990  MISS:     301507  HIT %:    98.9089  MISS %:    1.09109   MPKI: 3.01507
DTLB PREFETCH  REQUESTED:          0  ISSUED:          0  USEFUL:          0  USELESS:          0
DTLB USEFUL LOAD PREFETCHES:          0 PREFETCH ISSUED TO LOWER LEVEL:          0  ACCURACY: -nan
DTLB TIMELY PREFETCHES:          0 LATE PREFETCHES: 0 DROPPED PREFETCHES: 0
DTLB PREFETCHES SAME FILL-ORIGIN LEVEL: 0 DIFFERENT FILL-ORIGIN LEVEL: 0
DTLB AVERAGE MISS LATENCY: 37.1532 cycles
DTLB RQ	ACCESS:   45430736	FORWARD:          0	MERGED:   17734197	TO_CACHE:   27696539

STLB TOTAL     ACCESS:     301507  HIT:     171687  MISS:     129820  HIT %:     56.943  MISS %:     43.057   MPKI: 1.2982
STLB LOAD TRANSLATION ACCESS:     301507  HIT:     171687  MISS:     129820  HIT %:     56.943  MISS %:     43.057   MPKI: 1.2982
STLB PREFETCH  REQUESTED:          0  ISSUED:          0  USEFUL:          0  USELESS:          0
STLB USEFUL LOAD PREFETCHES:          0 PREFETCH ISSUED TO LOWER LEVEL:          0  ACCURACY: -nan
STLB TIMELY PREFETCHES:          0 LATE PREFETCHES: 0 DROPPED PREFETCHES: 0
STLB PREFETCHES SAME FILL-ORIGIN LEVEL: 0 DIFFERENT FILL-ORIGIN LEVEL: 0
STLB AVERAGE MISS LATENCY: 65.2747 cycles
STLB RQ	ACCESS:     301507	FORWARD:          0	MERGED:          0	TO_CACHE:     301507

STLB Hit, L1D data hit: 0
STLB Hit, L2C data hit: 0
STLB Hit, LLC data hit: 0
STLB Hit, LLC data miss: 0
STLB STLB hints to L2: 0
L1D TOTAL     ACCESS:   44211281  HIT:   39233749  MISS:    4977532  HIT %:    88.7415  MISS %:    11.2585   MPKI: 49.7753
L1D LOAD      ACCESS:   20757051  HIT:   16010069  MISS:    4746982  HIT %:    77.1307  MISS %:    22.8693   MPKI: 47.4698
L1D RFO       ACCESS:   23454230  HIT:   23223680  MISS:     230550  HIT %:     99.017  MISS %:   0.982978   MPKI: 2.3055
L1D PREFETCH  REQUESTED:          0  ISSUED:          0  USEFUL:          0  USELESS:          0
L1D USEFUL LOAD PREFETCHES:          0 PREFETCH ISSUED TO LOWER LEVEL:          0  ACCURACY: -nan
L1D TIMELY PREFETCHES:          0 LATE PREFETCHES: 0 DROPPED PREFETCHES: 0
L1D PREFETCHES SAME FILL-ORIGIN LEVEL: 0 DIFFERENT FILL-ORIGIN LEVEL: 0
L1D AVERAGE MISS LATENCY: 108.582 cycles
L1D RQ	ACCESS:   33442028	FORWARD:          0	MERGED:   12157777	TO_CACHE:   21258834
L1D WQ	ACCESS:   24693640	FORWARD:      25417	MERGED:     521738	TO_CACHE:   24171902

L1D UNIQUE REGIONS ACCESSED: 0
L1D REGIONS CONFLICTS: 0
L1D Cross Page Prefetch Requests: 0
L1D Same Page Prefetch Requests: 0
L1D ROI Sum of L1D PQ occupancy: 0
L1D PREFETCHES PUSHED FROM L2C: 0
L1I TOTAL     ACCESS:   22196442  HIT:   22196442  MISS:          0  HIT %:        100  MISS %:          0   MPKI: 0
L1I LOAD      ACCESS:   22196442  HIT:   22196442  MISS:          0  HIT %:        100  MISS %:          0   MPKI: 0
L1I PREFETCH  REQUESTED:          0  ISSUED:          0  USEFUL:          0  USELESS:          0
L1I USEFUL LOAD PREFETCHES:          0 PREFETCH ISSUED TO LOWER LEVEL:          0  ACCURACY: -nan
L1I TIMELY PREFETCHES:          0 LATE PREFETCHES: 0 DROPPED PREFETCHES: 0
L1I PREFETCHES SAME FILL-ORIGIN LEVEL: 0 DIFFERENT FILL-ORIGIN LEVEL: 0
L1I AVERAGE MISS LATENCY: -nan cycles
L1I RQ	ACCESS:   30252513	FORWARD:          0	MERGED:    8056071	TO_CACHE:   22196442

BTB TOTAL     ACCESS:   11269119  HIT:   11269085  MISS:         34  HIT %:    99.9997  MISS %: 0.000301709   MPKI: 0.00034
BTB BRANCH_DIRECT_JUMP	ACCESS:    1149944  HIT:    1149938  MISS:          6
BTB BRANCH_INDIRECT	ACCESS:          0  HIT:          0  MISS:          0
BTB BRANCH_CONDITIONAL	ACCESS:   10118911  HIT:   10118887  MISS:         24
BTB BRANCH_DIRECT_CALL	ACCESS:        132  HIT:        130  MISS:          2
BTB BRANCH_INDIRECT_CALL	ACCESS:          0  HIT:          0  MISS:          0
BTB BRANCH_RETURN	ACCESS:        132  HIT:        130  MISS:          2
BTB BRANCH_OTHER ACCESS:          0  HIT:          0  MISS:          0

L2C TOTAL     ACCESS:    6405675  HIT:    1461412  MISS:    4944263  HIT %:    22.8143  MISS %:    77.1857   MPKI: 49.4426
L2C LOAD      ACCESS:    4746980  HIT:     583589  MISS:    4163391  HIT %:    12.2939  MISS %:    87.7061   MPKI: 41.6339
L2C DATA LOAD MPKI: 41.6339
L2C INSTRUCTION LOAD MPKI: 0
L2C RFO       ACCESS:     230548  HIT:       4478  MISS:     226070  HIT %:    1.94233  MISS %:    98.0577   MPKI: 2.2607
L2C PREFETCH  ACCESS:     801102  HIT:     272828  MISS:     528274  HIT %:    34.0566  MISS %:    65.9434   MPKI: 5.28274
L2C DATA PREFETCH MPKI: 5.28274
L2C INSTRUCTION PREFETCH MPKI: 0
L2C WRITEBACK ACCESS:     497032  HIT:     489372  MISS:       7660  HIT %:    98.4589  MISS %:    1.54115   MPKI: 0.0766
L2C LOAD TRANSLATION ACCESS:     130013  HIT:     111145  MISS:      18868  HIT %:    85.4876  MISS %:    14.5124   MPKI: 0.18868
L2C PREFETCH  REQUESTED:    9797343  ISSUED:    9795738  USEFUL:     515898  USELESS:      12376
L2C USEFUL LOAD PREFETCHES:     515898 PREFETCH ISSUED TO LOWER LEVEL:    8923070  ACCURACY: 5.78162
L2C TIMELY PREFETCHES:     515898 LATE PREFETCHES: 9823 DROPPED PREFETCHES: 0
L2C PREFETCHES SAME FILL-ORIGIN LEVEL: 538097 DIFFERENT FILL-ORIGIN LEVEL: 8384973
L2C AVERAGE MISS LATENCY: 98.7267 cycles
L2C RQ	ACCESS:    5107543	FORWARD:          0	MERGED:          0	TO_CACHE:    5107540
L2C WQ	ACCESS:     497032	FORWARD:          6	MERGED:          0	TO_CACHE:     497032
L2C PQ	ACCESS:    9795738	FORWARD:          0	MERGED:     265169	TO_CACHE:    9530566

L2C Instructions Evicting Data 0
L2C Translations Evicting Data 18824
L2C Data Evicting Data 4899010
L2C Instructions Evicting Instructions 0
L2C Translations Evicting Instructions 0
L2C Data Evicting Instructions 0
L2C Instructions Evicting Translations 0
L2C Translations Evicting Translations 44
L2C Data Evicting Translations 18725
L2C Dense regions hint from L2: 0
PSCL5 TOTAL     ACCESS:     129820  HIT:     129820  MISS:          0  HIT %:        100  MISS %:          0   MPKI: 0
PSCL5 LOAD TRANSLATION ACCESS:     129820  HIT:     129820  MISS:          0  HIT %:        100  MISS %:          0   MPKI: 0
PSCL5 PREFETCH  REQUESTED:          0  ISSUED:          0  USEFUL:          0  USELESS:          0
PSCL5 USEFUL LOAD PREFETCHES:          0 PREFETCH ISSUED TO LOWER LEVEL:          0  ACCURACY: -nan
PSCL5 TIMELY PREFETCHES:          0 LATE PREFETCHES: 0 DROPPED PREFETCHES: 0
PSCL5 PREFETCHES SAME FILL-ORIGIN LEVEL: 0 DIFFERENT FILL-ORIGIN LEVEL: 0

PSCL4 TOTAL     ACCESS:     129820  HIT:     129820  MISS:          0  HIT %:        100  MISS %:          0   MPKI: 0
PSCL4 LOAD TRANSLATION ACCESS:     129820  HIT:     129820  MISS:          0  HIT %:        100  MISS %:          0   MPKI: 0
PSCL4 PREFETCH  REQUESTED:          0  ISSUED:          0  USEFUL:          0  USELESS:          0
PSCL4 USEFUL LOAD PREFETCHES:          0 PREFETCH ISSUED TO LOWER LEVEL:          0  ACCURACY: -nan
PSCL4 TIMELY PREFETCHES:          0 LATE PREFETCHES: 0 DROPPED PREFETCHES: 0
PSCL4 PREFETCHES SAME FILL-ORIGIN LEVEL: 0 DIFFERENT FILL-ORIGIN LEVEL: 0

PSCL3 TOTAL     ACCESS:     128950  HIT:     128940  MISS:         10  HIT %:    99.9922  MISS %: 0.00775494   MPKI: 0.0001
PSCL3 LOAD TRANSLATION ACCESS:     128950  HIT:     128940  MISS:         10  HIT %:    99.9922  MISS %: 0.00775494   MPKI: 0.0001
PSCL3 PREFETCH  REQUESTED:          0  ISSUED:          0  USEFUL:          0  USELESS:          0
PSCL3 USEFUL LOAD PREFETCHES:          0 PREFETCH ISSUED TO LOWER LEVEL:          0  ACCURACY: -nan
PSCL3 TIMELY PREFETCHES:          0 LATE PREFETCHES: 0 DROPPED PREFETCHES: 0
PSCL3 PREFETCHES SAME FILL-ORIGIN LEVEL: 0 DIFFERENT FILL-ORIGIN LEVEL: 0

PSCL2 TOTAL     ACCESS:     129820  HIT:     129583  MISS:        237  HIT %:    99.8174  MISS %:    0.18256   MPKI: 0.00237
PSCL2 LOAD TRANSLATION ACCESS:     129820  HIT:     129583  MISS:        237  HIT %:    99.8174  MISS %:    0.18256   MPKI: 0.00237
PSCL2 PREFETCH  REQUESTED:          0  ISSUED:          0  USEFUL:          0  USELESS:          0
PSCL2 USEFUL LOAD PREFETCHES:          0 PREFETCH ISSUED TO LOWER LEVEL:          0  ACCURACY: -nan
PSCL2 TIMELY PREFETCHES:          0 LATE PREFETCHES: 0 DROPPED PREFETCHES: 0
PSCL2 PREFETCHES SAME FILL-ORIGIN LEVEL: 0 DIFFERENT FILL-ORIGIN LEVEL: 0

LLC TOTAL     ACCESS:   12143663  HIT:    6913685  MISS:    5229978  HIT %:    56.9325  MISS %:    43.0675   MPKI: 52.2998
LLC LOAD      ACCESS:    4153580  HIT:    1693691  MISS:    2459889  HIT %:    40.7767  MISS %:    59.2233   MPKI: 24.5989
LLC RFO       ACCESS:     226057  HIT:      11506  MISS:     214551  HIT %:    5.08987  MISS %:    94.9101   MPKI: 2.14551
LLC PREFETCH  ACCESS:    7306431  HIT:    5089714  MISS:    2216717  HIT %:    69.6607  MISS %:    30.3393   MPKI: 22.1672
LLC WRITEBACK ACCESS:     438727  HIT:     118611  MISS:     320116  HIT %:    27.0353  MISS %:    72.9647   MPKI: 3.20116
LLC LOAD TRANSLATION ACCESS:      18868  HIT:        163  MISS:      18705  HIT %:   0.863897  MISS %:    99.1361   MPKI: 0.18705
LLC PREFETCH  REQUESTED:          0  ISSUED:          0  USEFUL:    1218634  USELESS:     995381
LLC USEFUL LOAD PREFETCHES:    1218634 PREFETCH ISSUED TO LOWER LEVEL:    3119366  ACCURACY: 39.0667
LLC TIMELY PREFETCHES:    1218634 LATE PREFETCHES: 902649 DROPPED PREFETCHES: 0
LLC PREFETCHES SAME FILL-ORIGIN LEVEL: 3095943 DIFFERENT FILL-ORIGIN LEVEL: 0
LLC AVERAGE MISS LATENCY: 127.201 cycles
LLC RQ	ACCESS:    4398505	FORWARD:          0	MERGED:          0	TO_CACHE:    4398505
LLC WQ	ACCESS:     438727	FORWARD:          0	MERGED:          0	TO_CACHE:     438727
LLC PQ	ACCESS:    8923070	FORWARD:          0	MERGED:      94281	TO_CACHE:    8828789

LLC Dense regions hint to LLC: 0

RAW hits: 1302628
Loads Generated: 34744655
Loads sent to L1D: 33442028
Stores Generated: 24693636
Stores sent to L1D: 24693640
Major fault: 0 Minor fault: 29216
Allocated PAGES: 29216
 All Calls: 7301957
 Critical Calls: 7301957
------------------
Depth Distribution
------------------
depth 0: 0
depth 1: 6531132
depth 2: 3166160
depth 3: 2037300
depth 4: 1404480
depth 5: 893235
depth 6: 671195
depth 7: 473719
depth 8: 293068
depth 9: 89869
depth 10: 2659
depth 11: 88
depth 12: 0
depth 13: 0
depth 14: 0
depth 15: 0
depth 16: 0
depth 17: 0
depth 18: 0
depth 19: 0
depth 20: 0
depth 21: 0
depth 22: 0
depth 23: 0
depth 24: 0
depth 25: 0
depth 26: 0
depth 27: 0
depth 28: 0
depth 29: 0
Total: 15562905
-----------------------------
-----------------------------
	Captured at Filter
-----------------------------
depth 0: 0
depth 1: 43168
depth 2: 14584
depth 3: 7553
depth 4: 4239
depth 5: 2084
depth 6: 1253
depth 7: 783
depth 8: 480
depth 9: 126
depth 10: 7
depth 11: 0
depth 12: 0
depth 13: 0
depth 14: 0
depth 15: 0
depth 16: 0
depth 17: 0
depth 18: 0
depth 19: 0
depth 20: 0
depth 21: 0
depth 22: 0
depth 23: 0
depth 24: 0
depth 25: 0
depth 26: 0
depth 27: 0
depth 28: 0
depth 29: 0
-----------------------------
-----------------------------
		Lost at Page
-----------------------------
depth 0: 0
depth 1: 342195
depth 2: 204758
depth 3: 162537
depth 4: 140330
depth 5: 93474
depth 6: 72989
depth 7: 56987
depth 8: 39039
depth 9: 13954
depth 10: 505
depth 11: 18
depth 12: 0
depth 13: 0
depth 14: 0
depth 15: 0
depth 16: 0
depth 17: 0
depth 18: 0
depth 19: 0
depth 20: 0
depth 21: 0
depth 22: 0
depth 23: 0
depth 24: 0
depth 25: 0
depth 26: 0
depth 27: 0
depth 28: 0
depth 29: 0
-----------------------------
-----------------------------
	Lost due to PQ Size
-----------------------------
1320404
-----------------------------
ST read accesses: 4619088
ST write accesses: 127891
PT read accesses: 85215943
PT write accesses: 6890295
FILTER read accesses: 19521938
FILTER write accesses: 6076775
GHR read accesses: 4425794
GHR write accesses: 637181
GHR counter read accesses: 68697334
GHR counter write accesses: 5839234
ST tag read accesses: 1890894770
ST tag write accesses: 45633188

DRAM Statistics
 CHANNEL 0
 RQ ROW_BUFFER_HIT:    2747491  ROW_BUFFER_MISS:    2162360
 DBUS_CONGESTED:      11219
 WQ ROW_BUFFER_HIT:     114720  ROW_BUFFER_MISS:     321984  FULL:          0

 AVG_CONGESTED_CYCLE: 5
 All warmup complete: 2
Channel 0 Bank busy for read cycles: 0
Channel 0 Bank busy for write cycles: 0
Channel 0
Rank 0
0banks busy for read cycles: 77043963
0banks busy for write cycles: 53339
1banks busy for read cycles: 47223613
1banks busy for write cycles: 8704629
2banks busy for read cycles: 33391358
2banks busy for write cycles: 3613963
3banks busy for read cycles: 25875165
3banks busy for write cycles: 2076089
4banks busy for read cycles: 20024672
4banks busy for write cycles: 1538532
5banks busy for read cycles: 14668233
5banks busy for write cycles: 1345110
6banks busy for read cycles: 9725000
6banks busy for write cycles: 1422073
7banks busy for read cycles: 5546608
7banks busy for write cycles: 2397795
8banks busy for read cycles: 2467778
8banks busy for write cycles: 9840532

CPU 0 Branch Prediction Accuracy: 98.9588% MPKI: 1.19245 Average ROB Occupancy at Mispredict: 212.325
Branch types
NOT_BRANCH: 88547055 88.5471%
BRANCH_DIRECT_JUMP: 1149944 1.14994%
BRANCH_INDIRECT: 0 0%
BRANCH_CONDITIONAL: 10302639 10.3026%
BRANCH_DIRECT_CALL: 132 0.000132%
BRANCH_INDIRECT_CALL: 0 0%
BRANCH_RETURN: 132 0.000132%
BRANCH_OTHER: 0 0%

DRAM PAGES: 1048576
Allocated PAGES: 29216
