Initialize SIGNATURE TABLE
ST_SET: 1
ST_WAY: 16
ST_TAG_BIT: 16
ST_TAG_MASK: ffff

Initialize PATTERN TABLE
PT_SET: 16
PT_WAY: 4
SIG_DELTA_BIT: 7
C_SIG_BIT: 4
C_DELTA_BIT: 4

Initialize PREFETCH FILTER
FILTER_SET: 1024

Initialize PERCEPTRON
PERC_ENTRIES: 4096
PERC_FEATURES: 9

*** ChampSim Multicore Out-of-Order Simulator ***

Warmup Instructions: 50000000
Simulation Instructions: 100000000
Number of CPUs: 1
LLC sets: 2048
LLC ways: 16
Off-chip DRAM Size: 4096 MB Channels: 1 Width: 64-bit Data Rate: 6400 MT/s
CPU 0 runs ../SPEC2017//605.mcf_s-782B.champsimtrace.xz
.xz
BTB has LRU replacement policy
ITLB has LRU replacement policy
DTLB has LRU replacement policy
STLB has LRU replacement policy
L1I has LRU replacement policy
L1D has LRU replacement policy
Initialize SRRIP state for L2C
Initialize DRRIP state for LLC
Heartbeat CPU 0 instructions: 10000001 cycles: 3729334 heartbeat IPC: 2.68144 cumulative IPC: 2.68144 (Simulation time: 0 hr 9 min 45 sec) 
Heartbeat CPU 0 instructions: 20000000 cycles: 7436777 heartbeat IPC: 2.69728 cumulative IPC: 2.68934 (Simulation time: 0 hr 18 min 20 sec) 
Heartbeat CPU 0 instructions: 30000000 cycles: 11192773 heartbeat IPC: 2.66241 cumulative IPC: 2.6803 (Simulation time: 0 hr 25 min 47 sec) 
Heartbeat CPU 0 instructions: 40000002 cycles: 14923421 heartbeat IPC: 2.6805 cumulative IPC: 2.68035 (Simulation time: 0 hr 32 min 17 sec) 
Heartbeat CPU 0 instructions: 50000000 cycles: 18688642 heartbeat IPC: 2.65589 cumulative IPC: 2.67542 (Simulation time: 0 hr 37 min 55 sec) 

Warmup complete CPU 0 instructions: 50000001 cycles: 18688643 (Simulation time: 0 hr 37 min 55 sec) 

Heartbeat CPU 0 instructions: 60000000 cycles: 67734991 heartbeat IPC: 0.203889 cumulative IPC: 0.203889 (Simulation time: 0 hr 46 min 13 sec) 
Heartbeat CPU 0 instructions: 70000002 cycles: 112965746 heartbeat IPC: 0.221089 cumulative IPC: 0.212141 (Simulation time: 0 hr 53 min 24 sec) 
Heartbeat CPU 0 instructions: 80000002 cycles: 158355572 heartbeat IPC: 0.220314 cumulative IPC: 0.214797 (Simulation time: 0 hr 59 min 58 sec) 
Heartbeat CPU 0 instructions: 90000000 cycles: 206180614 heartbeat IPC: 0.209095 cumulative IPC: 0.213342 (Simulation time: 1 hr 6 min 3 sec) 
Heartbeat CPU 0 instructions: 100000001 cycles: 257852762 heartbeat IPC: 0.193528 cumulative IPC: 0.209061 (Simulation time: 1 hr 18 min 42 sec) 
Heartbeat CPU 0 instructions: 110000000 cycles: 310631212 heartbeat IPC: 0.189471 cumulative IPC: 0.20552 (Simulation time: 1 hr 33 min 40 sec) 
Heartbeat CPU 0 instructions: 120000000 cycles: 360267153 heartbeat IPC: 0.201467 cumulative IPC: 0.204931 (Simulation time: 1 hr 46 min 0 sec) 
Heartbeat CPU 0 instructions: 130000003 cycles: 407202527 heartbeat IPC: 0.213059 cumulative IPC: 0.205913 (Simulation time: 1 hr 56 min 8 sec) 
Heartbeat CPU 0 instructions: 140000001 cycles: 452603562 heartbeat IPC: 0.220259 cumulative IPC: 0.207414 (Simulation time: 2 hr 4 min 38 sec) 
Heartbeat CPU 0 instructions: 150000000 cycles: 499229998 heartbeat IPC: 0.214471 cumulative IPC: 0.208099 (Simulation time: 2 hr 12 min 43 sec) 
Finished CPU 0 instructions: 100000003 cycles: 480541384 cumulative IPC: 0.208099 (Simulation time: 2 hr 12 min 43 sec) 

ChampSim completed all CPUs

Region of Interest Statistics

CPU 0 cumulative IPC: 0.208099 instructions: 100000003 cycles: 480541384

CPU 0 Average Load ROB stall cycles: 8.63067e+07
CPU 0 Fraction of times ROB stalled by Loads: 33.3069
CPU 0 Percentage of Load stall cycles in Total stall cycles: 4.36833e+08
Issued all: 81483901
Issued LT all: 66758013
rob_not_full_when_issued_lt_all: 44454110
Issued LT one: 62486042
rob_not_full_when_issued_lt_one: 42324184
 Total stall cycles: 442591326
 Total load stall cycles: 1933386037585755
Unique Load IPs: 264
CPU 0 NUM of IPS identified critical: 18
CPU 0 Num of Load IPs stalling ROB: 0
Threshold modification factor: 0
Trouble in retire width: -nan
MaC = Marked as critical.
lt_50_percent_before_Mac: 12
gt_90_percent_before_Mac: 0
gt_75_percent_before_Mac: 3
gt_50_percent_before_Mac: 3
stall_proportion_bin_same_before_after: 0
stall_proportion_bin_lower_before_after: 0
stall_proportion_bin_upper_before_after: 0
average_stall_proportion_before: 0.0192572
average_stall_proportion_after: 0.0209462
Critical_IP_Detector_Accuracy_70: 0.0555556
Critical_IP_Detector_Accuracy_80: 0.0555556
Critical_IP_Detector_Accuracy_90: 0.0555556
Critical_IP_Detector_Coverage_70: 1
Critical_IP_Detector_Coverage_80: 1
Critical_IP_Detector_Coverage_90: 1
stat_90_percent_critical_ip_stalls_freq: 2555918
stat_90_percent_non_critical_ip_stalls_freq: 18446744073706995698
AVERAGE_ROB_Occupancy_90_Percent_Critical_IP_Stalls: 90.8861
AVERAGE_ROB_Occupancy_90_Percent_Non_Critical_IP_Stalls: 2.5691e-11
Critical_IP_ROB_Stalls_Bucket_0: 3032803
Non-critical_IP_ROB_Stalls_Bucket_0: 850083
Critical_IP_ROB_Stalls_Bucket_1: 955300
Non-critical_IP_ROB_Stalls_Bucket_1: 261322
Critical_IP_ROB_Stalls_Bucket_2: 478161
Non-critical_IP_ROB_Stalls_Bucket_2: 183776
Critical_IP_ROB_Stalls_Bucket_3: 238352
Non-critical_IP_ROB_Stalls_Bucket_3: 158206
Critical_IP_ROB_Stalls_Bucket_4: 213073
Non-critical_IP_ROB_Stalls_Bucket_4: 109832
Critical_IP_ROB_Stalls_Bucket_5: 153465
Non-critical_IP_ROB_Stalls_Bucket_5: 89153
Critical_IP_ROB_Stalls_Bucket_6: 341459
Non-critical_IP_ROB_Stalls_Bucket_6: 396209
0 => IPs accounting for >50 percent of stalls, 1 => 55, 2 => 60, 3 => 65 and so on till 90.
percent50: inf num IPs:  1
percent55: inf num IPs: 1
percent60: inf num IPs: 1
percent65: inf num IPs: 1
percent70: inf num IPs: 1
percent75: inf num IPs: 1
percent80: inf num IPs: 1
percent85: inf num IPs: 1
percent90: inf num IPs: 1
Critical_ROB_Stalls_Percent_0_Bucket_0: 1182123
Non-critical_ROB_Stalls_Percent_0_Bucket_0: 2700763
Critical_ROB_Stalls_Percent_0_Bucket_1: 534322
Non-critical_ROB_Stalls_Percent_0_Bucket_1: 682300
Critical_ROB_Stalls_Percent_0_Bucket_2: 333454
Non-critical_ROB_Stalls_Percent_0_Bucket_2: 328483
Critical_ROB_Stalls_Percent_0_Bucket_3: 106409
Non-critical_ROB_Stalls_Percent_0_Bucket_3: 290149
Critical_ROB_Stalls_Percent_0_Bucket_4: 132860
Non-critical_ROB_Stalls_Percent_0_Bucket_4: 190045
Critical_ROB_Stalls_Percent_0_Bucket_5: 81978
Non-critical_ROB_Stalls_Percent_0_Bucket_5: 160640
Critical_ROB_Stalls_Percent_0_Bucket_6: 184772
Non-critical_ROB_Stalls_Percent_0_Bucket_6: 552896
Critical_ROB_Stalls_Percent_1_Bucket_0: 1182123
Non-critical_ROB_Stalls_Percent_1_Bucket_0: 2700763
Critical_ROB_Stalls_Percent_1_Bucket_1: 534322
Non-critical_ROB_Stalls_Percent_1_Bucket_1: 682300
Critical_ROB_Stalls_Percent_1_Bucket_2: 333454
Non-critical_ROB_Stalls_Percent_1_Bucket_2: 328483
Critical_ROB_Stalls_Percent_1_Bucket_3: 106409
Non-critical_ROB_Stalls_Percent_1_Bucket_3: 290149
Critical_ROB_Stalls_Percent_1_Bucket_4: 132860
Non-critical_ROB_Stalls_Percent_1_Bucket_4: 190045
Critical_ROB_Stalls_Percent_1_Bucket_5: 81978
Non-critical_ROB_Stalls_Percent_1_Bucket_5: 160640
Critical_ROB_Stalls_Percent_1_Bucket_6: 184772
Non-critical_ROB_Stalls_Percent_1_Bucket_6: 552896
Critical_ROB_Stalls_Percent_2_Bucket_0: 1182123
Non-critical_ROB_Stalls_Percent_2_Bucket_0: 2700763
Critical_ROB_Stalls_Percent_2_Bucket_1: 534322
Non-critical_ROB_Stalls_Percent_2_Bucket_1: 682300
Critical_ROB_Stalls_Percent_2_Bucket_2: 333454
Non-critical_ROB_Stalls_Percent_2_Bucket_2: 328483
Critical_ROB_Stalls_Percent_2_Bucket_3: 106409
Non-critical_ROB_Stalls_Percent_2_Bucket_3: 290149
Critical_ROB_Stalls_Percent_2_Bucket_4: 132860
Non-critical_ROB_Stalls_Percent_2_Bucket_4: 190045
Critical_ROB_Stalls_Percent_2_Bucket_5: 81978
Non-critical_ROB_Stalls_Percent_2_Bucket_5: 160640
Critical_ROB_Stalls_Percent_2_Bucket_6: 184772
Non-critical_ROB_Stalls_Percent_2_Bucket_6: 552896
Critical_ROB_Stalls_Percent_3_Bucket_0: 1182123
Non-critical_ROB_Stalls_Percent_3_Bucket_0: 2700763
Critical_ROB_Stalls_Percent_3_Bucket_1: 534322
Non-critical_ROB_Stalls_Percent_3_Bucket_1: 682300
Critical_ROB_Stalls_Percent_3_Bucket_2: 333454
Non-critical_ROB_Stalls_Percent_3_Bucket_2: 328483
Critical_ROB_Stalls_Percent_3_Bucket_3: 106409
Non-critical_ROB_Stalls_Percent_3_Bucket_3: 290149
Critical_ROB_Stalls_Percent_3_Bucket_4: 132860
Non-critical_ROB_Stalls_Percent_3_Bucket_4: 190045
Critical_ROB_Stalls_Percent_3_Bucket_5: 81978
Non-critical_ROB_Stalls_Percent_3_Bucket_5: 160640
Critical_ROB_Stalls_Percent_3_Bucket_6: 184772
Non-critical_ROB_Stalls_Percent_3_Bucket_6: 552896
Critical_ROB_Stalls_Percent_4_Bucket_0: 1182123
Non-critical_ROB_Stalls_Percent_4_Bucket_0: 2700763
Critical_ROB_Stalls_Percent_4_Bucket_1: 534322
Non-critical_ROB_Stalls_Percent_4_Bucket_1: 682300
Critical_ROB_Stalls_Percent_4_Bucket_2: 333454
Non-critical_ROB_Stalls_Percent_4_Bucket_2: 328483
Critical_ROB_Stalls_Percent_4_Bucket_3: 106409
Non-critical_ROB_Stalls_Percent_4_Bucket_3: 290149
Critical_ROB_Stalls_Percent_4_Bucket_4: 132860
Non-critical_ROB_Stalls_Percent_4_Bucket_4: 190045
Critical_ROB_Stalls_Percent_4_Bucket_5: 81978
Non-critical_ROB_Stalls_Percent_4_Bucket_5: 160640
Critical_ROB_Stalls_Percent_4_Bucket_6: 184772
Non-critical_ROB_Stalls_Percent_4_Bucket_6: 552896
Critical_ROB_Stalls_Percent_5_Bucket_0: 1182123
Non-critical_ROB_Stalls_Percent_5_Bucket_0: 2700763
Critical_ROB_Stalls_Percent_5_Bucket_1: 534322
Non-critical_ROB_Stalls_Percent_5_Bucket_1: 682300
Critical_ROB_Stalls_Percent_5_Bucket_2: 333454
Non-critical_ROB_Stalls_Percent_5_Bucket_2: 328483
Critical_ROB_Stalls_Percent_5_Bucket_3: 106409
Non-critical_ROB_Stalls_Percent_5_Bucket_3: 290149
Critical_ROB_Stalls_Percent_5_Bucket_4: 132860
Non-critical_ROB_Stalls_Percent_5_Bucket_4: 190045
Critical_ROB_Stalls_Percent_5_Bucket_5: 81978
Non-critical_ROB_Stalls_Percent_5_Bucket_5: 160640
Critical_ROB_Stalls_Percent_5_Bucket_6: 184772
Non-critical_ROB_Stalls_Percent_5_Bucket_6: 552896
Critical_ROB_Stalls_Percent_6_Bucket_0: 1182123
Non-critical_ROB_Stalls_Percent_6_Bucket_0: 2700763
Critical_ROB_Stalls_Percent_6_Bucket_1: 534322
Non-critical_ROB_Stalls_Percent_6_Bucket_1: 682300
Critical_ROB_Stalls_Percent_6_Bucket_2: 333454
Non-critical_ROB_Stalls_Percent_6_Bucket_2: 328483
Critical_ROB_Stalls_Percent_6_Bucket_3: 106409
Non-critical_ROB_Stalls_Percent_6_Bucket_3: 290149
Critical_ROB_Stalls_Percent_6_Bucket_4: 132860
Non-critical_ROB_Stalls_Percent_6_Bucket_4: 190045
Critical_ROB_Stalls_Percent_6_Bucket_5: 81978
Non-critical_ROB_Stalls_Percent_6_Bucket_5: 160640
Critical_ROB_Stalls_Percent_6_Bucket_6: 184772
Non-critical_ROB_Stalls_Percent_6_Bucket_6: 552896
Critical_ROB_Stalls_Percent_7_Bucket_0: 1182123
Non-critical_ROB_Stalls_Percent_7_Bucket_0: 2700763
Critical_ROB_Stalls_Percent_7_Bucket_1: 534322
Non-critical_ROB_Stalls_Percent_7_Bucket_1: 682300
Critical_ROB_Stalls_Percent_7_Bucket_2: 333454
Non-critical_ROB_Stalls_Percent_7_Bucket_2: 328483
Critical_ROB_Stalls_Percent_7_Bucket_3: 106409
Non-critical_ROB_Stalls_Percent_7_Bucket_3: 290149
Critical_ROB_Stalls_Percent_7_Bucket_4: 132860
Non-critical_ROB_Stalls_Percent_7_Bucket_4: 190045
Critical_ROB_Stalls_Percent_7_Bucket_5: 81978
Non-critical_ROB_Stalls_Percent_7_Bucket_5: 160640
Critical_ROB_Stalls_Percent_7_Bucket_6: 184772
Non-critical_ROB_Stalls_Percent_7_Bucket_6: 552896
Critical_ROB_Stalls_Percent_8_Bucket_0: 1182123
Non-critical_ROB_Stalls_Percent_8_Bucket_0: 2700763
Critical_ROB_Stalls_Percent_8_Bucket_1: 534322
Non-critical_ROB_Stalls_Percent_8_Bucket_1: 682300
Critical_ROB_Stalls_Percent_8_Bucket_2: 333454
Non-critical_ROB_Stalls_Percent_8_Bucket_2: 328483
Critical_ROB_Stalls_Percent_8_Bucket_3: 106409
Non-critical_ROB_Stalls_Percent_8_Bucket_3: 290149
Critical_ROB_Stalls_Percent_8_Bucket_4: 132860
Non-critical_ROB_Stalls_Percent_8_Bucket_4: 190045
Critical_ROB_Stalls_Percent_8_Bucket_5: 81978
Non-critical_ROB_Stalls_Percent_8_Bucket_5: 160640
Critical_ROB_Stalls_Percent_8_Bucket_6: 184772
Non-critical_ROB_Stalls_Percent_8_Bucket_6: 552896
Average ROB occupancy Load Stall Begin: 85.0087
Average ROB occupancy Load Stall End: 94.6514
Min ROB occupancy Load Stall Begin: 1
Max ROB occupancy Load Stall Begin: 352
Min ROB occupancy Load Stall End: 1
Max ROB occupancy Load Stall End: 352
Average ROB occupancy Critical Load Stall Begin: 65.6834
Average ROB occupancy Critical Load Stall End: 77.2211
Min ROB occupancy Critical Load Stall Begin: 2
Max ROB occupancy Critical Load Stall Begin: 352
Min ROB occupancy Critical Load Stall End: 2
Max ROB occupancy Critical Load Stall End: 352
 ROB Load Stall Begin Bucket Count 0: 4230929
 ROB Load Stall End Bucket Count 0: 3882886
 ROB Critical Load Stall Begin Bucket Count 0: 3230376
 ROB Critical Load Stall End Bucket Count 0: 2940885
 ROB Load Stall Begin Bucket Count 1: 1191913
 ROB Load Stall End Bucket Count 1: 1216622
 ROB Critical Load Stall Begin Bucket Count 1: 920886
 ROB Critical Load Stall End Bucket Count 1: 919160
 ROB Load Stall Begin Bucket Count 2: 485341
 ROB Load Stall End Bucket Count 2: 661937
 ROB Critical Load Stall Begin Bucket Count 2: 283284
 ROB Critical Load Stall End Bucket Count 2: 458377
 ROB Load Stall Begin Bucket Count 3: 378586
 ROB Load Stall End Bucket Count 3: 396558
 ROB Critical Load Stall Begin Bucket Count 3: 214393
 ROB Critical Load Stall End Bucket Count 3: 220641
 ROB Load Stall Begin Bucket Count 4: 276362
 ROB Load Stall End Bucket Count 4: 322905
 ROB Critical Load Stall Begin Bucket Count 4: 157005
 ROB Critical Load Stall End Bucket Count 4: 201657
 ROB Load Stall Begin Bucket Count 5: 261001
 ROB Load Stall End Bucket Count 5: 242618
 ROB Critical Load Stall Begin Bucket Count 5: 169185
 ROB Critical Load Stall End Bucket Count 5: 145142
 ROB Load Stall Begin Bucket Count 6: 637062
 ROB Load Stall End Bucket Count 6: 737668
 ROB Critical Load Stall Begin Bucket Count 6: 208137
 ROB Critical Load Stall End Bucket Count 6: 297407
PIST Tag Read Accesses: 0
PIST Read Accesses: 0
PIST Tag Write Accesses: 0
PIST Write Accesses: 0
Criticality detector called times: 0
Max global_stall_cycles_count: 0
Threshold Modified: 0 times, factor: 0
Sturdy critical IP cache stats: 
 Unused entries: 0
CIC Tag Read Accesses: 0
CIC Read Accesses: 0
CIC Tag Write Accesses: 0
CIC Write Accesses: 0
Wobbly critical IP cache stats: 
 Unused entries: 6
CIC Tag Read Accesses: 351881265
CIC Read Accesses: 0
CIC Tag Write Accesses: 10604010
CIC Write Accesses: 0
ITLB TOTAL     ACCESS:   16303704  HIT:   16303704  MISS:          0  HIT %:        100  MISS %:          0   MPKI: 0
ITLB LOAD TRANSLATION ACCESS:   16303704  HIT:   16303704  MISS:          0  HIT %:        100  MISS %:          0   MPKI: 0
ITLB PREFETCH  REQUESTED:          0  ISSUED:          0  USEFUL:          0  USELESS:          0
ITLB USEFUL LOAD PREFETCHES:          0 PREFETCH ISSUED TO LOWER LEVEL:          0  ACCURACY: -nan
ITLB TIMELY PREFETCHES:          0 LATE PREFETCHES: 0 DROPPED PREFETCHES: 0
ITLB PREFETCHES SAME FILL-ORIGIN LEVEL: 0 DIFFERENT FILL-ORIGIN LEVEL: 0
ITLB AVERAGE MISS LATENCY: -nan cycles
ITLB RQ	ACCESS:   16521997	FORWARD:          0	MERGED:     218294	TO_CACHE:   16303703

DTLB TOTAL     ACCESS:   21147010  HIT:   12627173  MISS:    8519837  HIT %:    59.7114  MISS %:    40.2886   MPKI: 85.1984
DTLB LOAD TRANSLATION ACCESS:   21147010  HIT:   12627173  MISS:    8519837  HIT %:    59.7114  MISS %:    40.2886   MPKI: 85.1984
DTLB PREFETCH  REQUESTED:          0  ISSUED:          0  USEFUL:          0  USELESS:          0
DTLB USEFUL LOAD PREFETCHES:          0 PREFETCH ISSUED TO LOWER LEVEL:          0  ACCURACY: -nan
DTLB TIMELY PREFETCHES:          0 LATE PREFETCHES: 0 DROPPED PREFETCHES: 0
DTLB PREFETCHES SAME FILL-ORIGIN LEVEL: 0 DIFFERENT FILL-ORIGIN LEVEL: 0
DTLB AVERAGE MISS LATENCY: 11.1562 cycles
DTLB RQ	ACCESS:   23450904	FORWARD:          0	MERGED:    2155092	TO_CACHE:   21295812

STLB TOTAL     ACCESS:    8519836  HIT:    8406622  MISS:     113214  HIT %:    98.6712  MISS %:    1.32883   MPKI: 1.13214
STLB LOAD TRANSLATION ACCESS:    8519836  HIT:    8406622  MISS:     113214  HIT %:    98.6712  MISS %:    1.32883   MPKI: 1.13214
STLB PREFETCH  REQUESTED:          0  ISSUED:          0  USEFUL:          0  USELESS:          0
STLB USEFUL LOAD PREFETCHES:          0 PREFETCH ISSUED TO LOWER LEVEL:          0  ACCURACY: -nan
STLB TIMELY PREFETCHES:          0 LATE PREFETCHES: 0 DROPPED PREFETCHES: 0
STLB PREFETCHES SAME FILL-ORIGIN LEVEL: 0 DIFFERENT FILL-ORIGIN LEVEL: 0
STLB AVERAGE MISS LATENCY: 139.646 cycles
STLB RQ	ACCESS:    8519836	FORWARD:          0	MERGED:          0	TO_CACHE:    8519836

STLB Hit, L1D data hit: 0
STLB Hit, L2C data hit: 0
STLB Hit, LLC data hit: 0
STLB Hit, LLC data miss: 0
STLB STLB hints to L2: 0
L1D TOTAL     ACCESS:   23100298  HIT:    8164104  MISS:   14936194  HIT %:     35.342  MISS %:     64.658   MPKI: 149.362
L1D LOAD      ACCESS:   21060762  HIT:    6163447  MISS:   14897315  HIT %:    29.2651  MISS %:    70.7349   MPKI: 148.973
L1D RFO       ACCESS:    2039536  HIT:    2000657  MISS:      38879  HIT %:    98.0937  MISS %:    1.90627   MPKI: 0.38879
L1D PREFETCH  REQUESTED:          0  ISSUED:          0  USEFUL:          0  USELESS:          0
L1D USEFUL LOAD PREFETCHES:          0 PREFETCH ISSUED TO LOWER LEVEL:          0  ACCURACY: -nan
L1D TIMELY PREFETCHES:          0 LATE PREFETCHES: 0 DROPPED PREFETCHES: 0
L1D PREFETCHES SAME FILL-ORIGIN LEVEL: 0 DIFFERENT FILL-ORIGIN LEVEL: 0
L1D AVERAGE MISS LATENCY: 57.1527 cycles
L1D RQ	ACCESS:   35639063	FORWARD:          0	MERGED:   13961797	TO_CACHE:   21337830
L1D WQ	ACCESS:    2185912	FORWARD:     339436	MERGED:      72838	TO_CACHE:    2113074

L1D UNIQUE REGIONS ACCESSED: 0
L1D REGIONS CONFLICTS: 0
L1D Cross Page Prefetch Requests: 0
L1D Same Page Prefetch Requests: 0
L1D ROI Sum of L1D PQ occupancy: 0
L1D PREFETCHES PUSHED FROM L2C: 0
L1I TOTAL     ACCESS:   16521998  HIT:   16521998  MISS:          0  HIT %:        100  MISS %:          0   MPKI: 0
L1I LOAD      ACCESS:   16521998  HIT:   16521998  MISS:          0  HIT %:        100  MISS %:          0   MPKI: 0
L1I PREFETCH  REQUESTED:          0  ISSUED:          0  USEFUL:          0  USELESS:          0
L1I USEFUL LOAD PREFETCHES:          0 PREFETCH ISSUED TO LOWER LEVEL:          0  ACCURACY: -nan
L1I TIMELY PREFETCHES:          0 LATE PREFETCHES: 0 DROPPED PREFETCHES: 0
L1I PREFETCHES SAME FILL-ORIGIN LEVEL: 0 DIFFERENT FILL-ORIGIN LEVEL: 0
L1I AVERAGE MISS LATENCY: -nan cycles
L1I RQ	ACCESS:   22063330	FORWARD:          0	MERGED:    5541333	TO_CACHE:   16521997

BTB TOTAL     ACCESS:   29634397  HIT:   29518849  MISS:     115548  HIT %:    99.6101  MISS %:   0.389912   MPKI: 1.15548
BTB BRANCH_DIRECT_JUMP	ACCESS:    3793757  HIT:    3793720  MISS:         37
BTB BRANCH_INDIRECT	ACCESS:          0  HIT:          0  MISS:          0
BTB BRANCH_CONDITIONAL	ACCESS:   24997970  HIT:   24997888  MISS:         82
BTB BRANCH_DIRECT_CALL	ACCESS:     389591  HIT:     389573  MISS:         18
BTB BRANCH_INDIRECT_CALL	ACCESS:      31744  HIT:      31736  MISS:          8
BTB BRANCH_RETURN	ACCESS:     421335  HIT:     305932  MISS:     115403
BTB BRANCH_OTHER ACCESS:          0  HIT:          0  MISS:          0

L2C TOTAL     ACCESS:   20921768  HIT:    6885848  MISS:   14035920  HIT %:    32.9124  MISS %:    67.0876   MPKI: 140.359
L2C LOAD      ACCESS:   14897307  HIT:    6088325  MISS:    8808982  HIT %:    40.8686  MISS %:    59.1314   MPKI: 88.0898
L2C DATA LOAD MPKI: 88.0898
L2C INSTRUCTION LOAD MPKI: 0
L2C RFO       ACCESS:      38879  HIT:      20827  MISS:      18052  HIT %:    53.5688  MISS %:    46.4312   MPKI: 0.18052
L2C PREFETCH  ACCESS:    5566004  HIT:     398528  MISS:    5167476  HIT %:    7.16004  MISS %:      92.84   MPKI: 51.6748
L2C DATA PREFETCH MPKI: 51.6748
L2C INSTRUCTION PREFETCH MPKI: 0
L2C WRITEBACK ACCESS:     305315  HIT:     301502  MISS:       3813  HIT %:    98.7511  MISS %:    1.24887   MPKI: 0.03813
L2C LOAD TRANSLATION ACCESS:     114263  HIT:      76666  MISS:      37597  HIT %:    67.0961  MISS %:    32.9039   MPKI: 0.37597
L2C PREFETCH  REQUESTED:    8038011  ISSUED:    8037770  USEFUL:    4364500  USELESS:     802924
L2C USEFUL LOAD PREFETCHES:    4364500 PREFETCH ISSUED TO LOWER LEVEL:    7238911  ACCURACY: 60.2922
L2C TIMELY PREFETCHES:    4364500 LATE PREFETCHES: 613167 DROPPED PREFETCHES: 0
L2C PREFETCHES SAME FILL-ORIGIN LEVEL: 5780643 DIFFERENT FILL-ORIGIN LEVEL: 1458268
L2C AVERAGE MISS LATENCY: 94.1272 cycles
L2C RQ	ACCESS:   15050456	FORWARD:          0	MERGED:          0	TO_CACHE:   15050448
L2C WQ	ACCESS:     305315	FORWARD:          8	MERGED:          0	TO_CACHE:     305315
L2C PQ	ACCESS:    8037770	FORWARD:          0	MERGED:     116756	TO_CACHE:    7921014

L2C Instructions Evicting Data 0
L2C Translations Evicting Data 37500
L2C Data Evicting Data 13957000
L2C Instructions Evicting Instructions 0
L2C Translations Evicting Instructions 0
L2C Data Evicting Instructions 0
L2C Instructions Evicting Translations 0
L2C Translations Evicting Translations 97
L2C Data Evicting Translations 37510
L2C Dense regions hint from L2: 0
PSCL5 TOTAL     ACCESS:     113214  HIT:     113214  MISS:          0  HIT %:        100  MISS %:          0   MPKI: 0
PSCL5 LOAD TRANSLATION ACCESS:     113214  HIT:     113214  MISS:          0  HIT %:        100  MISS %:          0   MPKI: 0
PSCL5 PREFETCH  REQUESTED:          0  ISSUED:          0  USEFUL:          0  USELESS:          0
PSCL5 USEFUL LOAD PREFETCHES:          0 PREFETCH ISSUED TO LOWER LEVEL:          0  ACCURACY: -nan
PSCL5 TIMELY PREFETCHES:          0 LATE PREFETCHES: 0 DROPPED PREFETCHES: 0
PSCL5 PREFETCHES SAME FILL-ORIGIN LEVEL: 0 DIFFERENT FILL-ORIGIN LEVEL: 0

PSCL4 TOTAL     ACCESS:     113214  HIT:     113214  MISS:          0  HIT %:        100  MISS %:          0   MPKI: 0
PSCL4 LOAD TRANSLATION ACCESS:     113214  HIT:     113214  MISS:          0  HIT %:        100  MISS %:          0   MPKI: 0
PSCL4 PREFETCH  REQUESTED:          0  ISSUED:          0  USEFUL:          0  USELESS:          0
PSCL4 USEFUL LOAD PREFETCHES:          0 PREFETCH ISSUED TO LOWER LEVEL:          0  ACCURACY: -nan
PSCL4 TIMELY PREFETCHES:          0 LATE PREFETCHES: 0 DROPPED PREFETCHES: 0
PSCL4 PREFETCHES SAME FILL-ORIGIN LEVEL: 0 DIFFERENT FILL-ORIGIN LEVEL: 0

PSCL3 TOTAL     ACCESS:     113214  HIT:     113214  MISS:          0  HIT %:        100  MISS %:          0   MPKI: 0
PSCL3 LOAD TRANSLATION ACCESS:     113214  HIT:     113214  MISS:          0  HIT %:        100  MISS %:          0   MPKI: 0
PSCL3 PREFETCH  REQUESTED:          0  ISSUED:          0  USEFUL:          0  USELESS:          0
PSCL3 USEFUL LOAD PREFETCHES:          0 PREFETCH ISSUED TO LOWER LEVEL:          0  ACCURACY: -nan
PSCL3 TIMELY PREFETCHES:          0 LATE PREFETCHES: 0 DROPPED PREFETCHES: 0
PSCL3 PREFETCHES SAME FILL-ORIGIN LEVEL: 0 DIFFERENT FILL-ORIGIN LEVEL: 0

PSCL2 TOTAL     ACCESS:     113214  HIT:     111852  MISS:       1362  HIT %:     98.797  MISS %:    1.20303   MPKI: 0.01362
PSCL2 LOAD TRANSLATION ACCESS:     113214  HIT:     111852  MISS:       1362  HIT %:     98.797  MISS %:    1.20303   MPKI: 0.01362
PSCL2 PREFETCH  REQUESTED:          0  ISSUED:          0  USEFUL:          0  USELESS:          0
PSCL2 USEFUL LOAD PREFETCHES:          0 PREFETCH ISSUED TO LOWER LEVEL:          0  ACCURACY: -nan
PSCL2 TIMELY PREFETCHES:          0 LATE PREFETCHES: 0 DROPPED PREFETCHES: 0
PSCL2 PREFETCHES SAME FILL-ORIGIN LEVEL: 0 DIFFERENT FILL-ORIGIN LEVEL: 0

LLC TOTAL     ACCESS:   15684451  HIT:    7982627  MISS:    7701824  HIT %:    50.8952  MISS %:    49.1048   MPKI: 77.0182
LLC LOAD      ACCESS:    8195810  HIT:    6397745  MISS:    1798065  HIT %:    78.0612  MISS %:    21.9388   MPKI: 17.9806
LLC RFO       ACCESS:      18052  HIT:      15614  MISS:       2438  HIT %:    86.4946  MISS %:    13.5054   MPKI: 0.02438
LLC PREFETCH  ACCESS:    7235930  HIT:    1402705  MISS:    5833225  HIT %:    19.3853  MISS %:    80.6147   MPKI: 58.3322
LLC WRITEBACK ACCESS:     197062  HIT:     152347  MISS:      44715  HIT %:    77.3092  MISS %:    22.6908   MPKI: 0.44715
LLC LOAD TRANSLATION ACCESS:      37597  HIT:      14216  MISS:      23381  HIT %:    37.8115  MISS %:    62.1885   MPKI: 0.23381
LLC PREFETCH  REQUESTED:          0  ISSUED:          0  USEFUL:      13282  USELESS:    5817753
LLC USEFUL LOAD PREFETCHES:      13282 PREFETCH ISSUED TO LOWER LEVEL:    5833349  ACCURACY: 0.227691
LLC TIMELY PREFETCHES:      13282 LATE PREFETCHES: 124 DROPPED PREFETCHES: 0
LLC PREFETCHES SAME FILL-ORIGIN LEVEL: 637122 DIFFERENT FILL-ORIGIN LEVEL: 0
LLC AVERAGE MISS LATENCY: 140.608 cycles
LLC RQ	ACCESS:    8251463	FORWARD:          0	MERGED:          0	TO_CACHE:    8251459
LLC WQ	ACCESS:     197062	FORWARD:          4	MERGED:          0	TO_CACHE:     197062
LLC PQ	ACCESS:    7238911	FORWARD:          0	MERGED:       2645	TO_CACHE:    7236266

LLC Dense regions hint to LLC: 0

RAW hits: 286950
Loads Generated: 35926018
Loads sent to L1D: 35639063
Stores Generated: 2185912
Stores sent to L1D: 2185912
Major fault: 0 Minor fault: 128515
Allocated PAGES: 128515
------------------
Depth Distribution
------------------
depth 0: 9978636
depth 1: 1193784
depth 2: 2147309
depth 3: 313954
depth 4: 167010
depth 5: 443712
depth 6: 595225
depth 7: 1256198
depth 8: 1422999
depth 9: 972961
depth 10: 146018
depth 11: 297040
depth 12: 32889
depth 13: 2983
depth 14: 1271
depth 15: 0
depth 16: 0
depth 17: 0
depth 18: 0
depth 19: 0
depth 20: 0
depth 21: 0
depth 22: 0
depth 23: 0
depth 24: 0
depth 25: 0
depth 26: 0
depth 27: 0
depth 28: 0
depth 29: 0
Total: 18971989
------------------
ST read accesses: 5909876
ST write accesses: 8187744
PT read accesses: 280855821
PT write accesses: 8409051
FILTER read accesses: 100484461
FILTER write accesses: 54668358
GHR read accesses: 84851696
GHR write accesses: 3659138
PERC read accesses: 2056090203
PERC write accesses: 65667785
GHR counter read accesses: 28195240
GHR counter write accesses: 26361643
GHR ip read accesses: 106004742
GHR ip write accesses: 56390480
ST tag read accesses: 607348110
ST tag write accesses: 147506094

DRAM Statistics
 CHANNEL 0
 RQ ROW_BUFFER_HIT:    3654024  ROW_BUFFER_MISS:    4003053
 DBUS_CONGESTED:       2414
 WQ ROW_BUFFER_HIT:      21411  ROW_BUFFER_MISS:      39211  FULL:          0

 AVG_CONGESTED_CYCLE: 4
 All warmup complete: 2
Channel 0 Bank busy for read cycles: 0
Channel 0 Bank busy for write cycles: 0
Channel 0
Rank 0
0banks busy for read cycles: 158493187
0banks busy for write cycles: 42633
1banks busy for read cycles: 118235566
1banks busy for write cycles: 10459572
2banks busy for read cycles: 69974097
2banks busy for write cycles: 1513777
3banks busy for read cycles: 47170393
3banks busy for write cycles: 359331
4banks busy for read cycles: 30489805
4banks busy for write cycles: 140955
5banks busy for read cycles: 18894610
5banks busy for write cycles: 79948
6banks busy for read cycles: 11243330
6banks busy for write cycles: 57716
7banks busy for read cycles: 6532583
7banks busy for write cycles: 54099
8banks busy for read cycles: 6734920
8banks busy for write cycles: 64863

CPU 0 Branch Prediction Accuracy: 97.0234% MPKI: 8.99605 Average ROB Occupancy at Mispredict: 52.9917
Branch types
NOT_BRANCH: 69777207 69.7772%
BRANCH_DIRECT_JUMP: 3793757 3.79376%
BRANCH_INDIRECT: 0 0%
BRANCH_CONDITIONAL: 25586017 25.586%
BRANCH_DIRECT_CALL: 389591 0.389591%
BRANCH_INDIRECT_CALL: 31744 0.031744%
BRANCH_RETURN: 421335 0.421335%
BRANCH_OTHER: 0 0%

DRAM PAGES: 1048576
Allocated PAGES: 128515
