
*** ChampSim Multicore Out-of-Order Simulator ***

Warmup Instructions: 50000000
Simulation Instructions: 100000000
Number of CPUs: 1
LLC sets: 2048
LLC ways: 16
Off-chip DRAM Size: 4096 MB Channels: 1 Width: 64-bit Data Rate: 6400 MT/s
CPU 0 runs ../SPEC2017//605.mcf_s-484B.champsimtrace.xz
.xz
NUM_OF_IPS_IN_CRITICAL_IP_TRAINING: 64
NUM_OF_CRITICAL_IP_TRAINING_TABLE_WAYS: 2
NUM_OF_CRITICAL_IP_TRAINING_TABLE_SETS: 32
WOBBLY_CRITICAL_IP_CACHE_SETS: 32
WOBBLY_CRITICAL_IP_CACHE_WAYS: 4
BTB has LRU replacement policy
ITLB has LRU replacement policy
DTLB has LRU replacement policy
STLB has LRU replacement policy
L1I has LRU replacement policy
IP Table Entries: 64
L1D has LRU replacement policy
Initialize SRRIP state for L2C
Initialize DRRIP state for LLC
Heartbeat CPU 0 instructions: 10000001 cycles: 3225950 heartbeat IPC: 3.09986 cumulative IPC: 3.09986 (Simulation time: 0 hr 3 min 56 sec) 
Heartbeat CPU 0 instructions: 20000000 cycles: 6490498 heartbeat IPC: 3.06321 cumulative IPC: 3.08143 (Simulation time: 0 hr 7 min 13 sec) 
Heartbeat CPU 0 instructions: 30000001 cycles: 9701921 heartbeat IPC: 3.11388 cumulative IPC: 3.09217 (Simulation time: 0 hr 10 min 22 sec) 
Heartbeat CPU 0 instructions: 40000000 cycles: 12915625 heartbeat IPC: 3.11167 cumulative IPC: 3.09702 (Simulation time: 0 hr 13 min 0 sec) 
Heartbeat CPU 0 instructions: 50000000 cycles: 16154204 heartbeat IPC: 3.08777 cumulative IPC: 3.09517 (Simulation time: 0 hr 15 min 25 sec) 

Warmup complete CPU 0 instructions: 50000004 cycles: 16154205 (Simulation time: 0 hr 15 min 25 sec) 

% increase in all ip prefetch 640.333
% increase in all ip prefetch -30.1396
Heartbeat CPU 0 instructions: 60000003 cycles: 40856954 heartbeat IPC: 0.404813 cumulative IPC: 0.404813 (Simulation time: 0 hr 19 min 37 sec) 
Heartbeat CPU 0 instructions: 70000002 cycles: 70517291 heartbeat IPC: 0.337151 cumulative IPC: 0.367897 (Simulation time: 0 hr 24 min 21 sec) 
Heartbeat CPU 0 instructions: 80000000 cycles: 100446928 heartbeat IPC: 0.334117 cumulative IPC: 0.355903 (Simulation time: 0 hr 28 min 42 sec) 
Heartbeat CPU 0 instructions: 90000000 cycles: 127529399 heartbeat IPC: 0.369243 cumulative IPC: 0.359146 (Simulation time: 0 hr 32 min 50 sec) 
Heartbeat CPU 0 instructions: 100000000 cycles: 151786706 heartbeat IPC: 0.412247 cumulative IPC: 0.368643 (Simulation time: 0 hr 36 min 24 sec) 
Heartbeat CPU 0 instructions: 110000000 cycles: 176455991 heartbeat IPC: 0.405362 cumulative IPC: 0.374294 (Simulation time: 0 hr 39 min 33 sec) 
Heartbeat CPU 0 instructions: 120000001 cycles: 198202004 heartbeat IPC: 0.459854 cumulative IPC: 0.384514 (Simulation time: 0 hr 41 min 32 sec) 
Heartbeat CPU 0 instructions: 130000000 cycles: 220641564 heartbeat IPC: 0.445641 cumulative IPC: 0.391222 (Simulation time: 0 hr 43 min 19 sec) 
Heartbeat CPU 0 instructions: 140000001 cycles: 244966854 heartbeat IPC: 0.411095 cumulative IPC: 0.393335 (Simulation time: 0 hr 44 min 57 sec) 
Heartbeat CPU 0 instructions: 150000002 cycles: 267403509 heartbeat IPC: 0.445699 cumulative IPC: 0.398011 (Simulation time: 0 hr 46 min 11 sec) 
Finished CPU 0 instructions: 100000000 cycles: 251249305 cumulative IPC: 0.398011 (Simulation time: 0 hr 46 min 11 sec) 

ChampSim completed all CPUs

Region of Interest Statistics

CPU 0 cumulative IPC: 0.398011 instructions: 100000000 cycles: 251249305

CPU 0 Average Load ROB stall cycles: 4.77932e+07
CPU 0 Fraction of times ROB stalled by Loads: 32.3424
CPU 0 Percentage of Load stall cycles in Total stall cycles: 5.14431e+08
Issued all: 155106176
Issued LT all: 148436946
rob_not_full_when_issued_lt_all: 23612601
Issued LT one: 124492648
rob_not_full_when_issued_lt_one: 19223002
 Total stall cycles: 228080023
 Total load stall cycles: 1173314518391542
Unique Load IPs: 96
CPU 0 NUM of IPS identified critical: 33
CPU 0 Num of Load IPs stalling ROB: 77
Threshold modification factor: -1
Max PIST entries: 33
Min PIST entries: 0
Avg PIST entries: 9.02667
Trouble in retire width: 0.996982
MaC = Marked as critical.
lt_50_percent_before_Mac: 33
gt_90_percent_before_Mac: 0
gt_75_percent_before_Mac: 0
gt_50_percent_before_Mac: 0
stall_proportion_bin_same_before_after: 0
stall_proportion_bin_lower_before_after: 0
stall_proportion_bin_upper_before_after: 0
average_stall_proportion_before: 0.0436455
average_stall_proportion_after: 0.0371331
Critical IP stalls, total frequency: 7828495
Non-critical IP stalls, total frequency: 111499
Total Freq all stalling IPs: 7939994
Critical_IP_Detector_Accuracy_70: 0.0909091
Critical_IP_Detector_Accuracy_80: 0.151515
Critical_IP_Detector_Accuracy_90: 0.272727
Critical_IP_Detector_Coverage_70: 1
Critical_IP_Detector_Coverage_80: 1
Critical_IP_Detector_Coverage_90: 1
stat_90_percent_critical_ip_stalls_freq: 7195329
stat_90_percent_non_critical_ip_stalls_freq: 744665
AVERAGE_ROB_Occupancy_90_Percent_Critical_IP_Stalls: 296.57
AVERAGE_ROB_Occupancy_90_Percent_Non_Critical_IP_Stalls: 214.029
Critical_IP_ROB_Stalls_Bucket_0: 516010
Non-critical_IP_ROB_Stalls_Bucket_0: 77659
Critical_IP_ROB_Stalls_Bucket_1: 219036
Non-critical_IP_ROB_Stalls_Bucket_1: 2335
Critical_IP_ROB_Stalls_Bucket_2: 297703
Non-critical_IP_ROB_Stalls_Bucket_2: 1009
Critical_IP_ROB_Stalls_Bucket_3: 390281
Non-critical_IP_ROB_Stalls_Bucket_3: 1403
Critical_IP_ROB_Stalls_Bucket_4: 304921
Non-critical_IP_ROB_Stalls_Bucket_4: 1034
Critical_IP_ROB_Stalls_Bucket_5: 587330
Non-critical_IP_ROB_Stalls_Bucket_5: 1786
Critical_IP_ROB_Stalls_Bucket_6: 5513214
Non-critical_IP_ROB_Stalls_Bucket_6: 26273
0 => IPs accounting for >50 percent of stalls, 1 => 55, 2 => 60, 3 => 65 and so on till 90.
percent50: 56.398 num IPs:  2
percent55: 56.398 num IPs: 2
percent60: 70.643 num IPs: 3
percent65: 70.643 num IPs: 3
percent70: 70.643 num IPs: 3
percent75: 78.0053 num IPs: 4
percent80: 82.1099 num IPs: 5
percent85: 87.0675 num IPs: 7
percent90: 90.6213 num IPs: 9
Critical_ROB_Stalls_Percent_0_Bucket_0: 203142
Non-critical_ROB_Stalls_Percent_0_Bucket_0: 390527
Critical_ROB_Stalls_Percent_0_Bucket_1: 115852
Non-critical_ROB_Stalls_Percent_0_Bucket_1: 105519
Critical_ROB_Stalls_Percent_0_Bucket_2: 180857
Non-critical_ROB_Stalls_Percent_0_Bucket_2: 117855
Critical_ROB_Stalls_Percent_0_Bucket_3: 253002
Non-critical_ROB_Stalls_Percent_0_Bucket_3: 138682
Critical_ROB_Stalls_Percent_0_Bucket_4: 173222
Non-critical_ROB_Stalls_Percent_0_Bucket_4: 132733
Critical_ROB_Stalls_Percent_0_Bucket_5: 397470
Non-critical_ROB_Stalls_Percent_0_Bucket_5: 191646
Critical_ROB_Stalls_Percent_0_Bucket_6: 3154454
Non-critical_ROB_Stalls_Percent_0_Bucket_6: 2385033
Critical_ROB_Stalls_Percent_1_Bucket_0: 203142
Non-critical_ROB_Stalls_Percent_1_Bucket_0: 390527
Critical_ROB_Stalls_Percent_1_Bucket_1: 115852
Non-critical_ROB_Stalls_Percent_1_Bucket_1: 105519
Critical_ROB_Stalls_Percent_1_Bucket_2: 180857
Non-critical_ROB_Stalls_Percent_1_Bucket_2: 117855
Critical_ROB_Stalls_Percent_1_Bucket_3: 253002
Non-critical_ROB_Stalls_Percent_1_Bucket_3: 138682
Critical_ROB_Stalls_Percent_1_Bucket_4: 173222
Non-critical_ROB_Stalls_Percent_1_Bucket_4: 132733
Critical_ROB_Stalls_Percent_1_Bucket_5: 397470
Non-critical_ROB_Stalls_Percent_1_Bucket_5: 191646
Critical_ROB_Stalls_Percent_1_Bucket_6: 3154454
Non-critical_ROB_Stalls_Percent_1_Bucket_6: 2385033
Critical_ROB_Stalls_Percent_2_Bucket_0: 205356
Non-critical_ROB_Stalls_Percent_2_Bucket_0: 388313
Critical_ROB_Stalls_Percent_2_Bucket_1: 117447
Non-critical_ROB_Stalls_Percent_2_Bucket_1: 103924
Critical_ROB_Stalls_Percent_2_Bucket_2: 217398
Non-critical_ROB_Stalls_Percent_2_Bucket_2: 81314
Critical_ROB_Stalls_Percent_2_Bucket_3: 313298
Non-critical_ROB_Stalls_Percent_2_Bucket_3: 78386
Critical_ROB_Stalls_Percent_2_Bucket_4: 259442
Non-critical_ROB_Stalls_Percent_2_Bucket_4: 46513
Critical_ROB_Stalls_Percent_2_Bucket_5: 458436
Non-critical_ROB_Stalls_Percent_2_Bucket_5: 130680
Critical_ROB_Stalls_Percent_2_Bucket_6: 4037674
Non-critical_ROB_Stalls_Percent_2_Bucket_6: 1501813
Critical_ROB_Stalls_Percent_3_Bucket_0: 205356
Non-critical_ROB_Stalls_Percent_3_Bucket_0: 388313
Critical_ROB_Stalls_Percent_3_Bucket_1: 117447
Non-critical_ROB_Stalls_Percent_3_Bucket_1: 103924
Critical_ROB_Stalls_Percent_3_Bucket_2: 217398
Non-critical_ROB_Stalls_Percent_3_Bucket_2: 81314
Critical_ROB_Stalls_Percent_3_Bucket_3: 313298
Non-critical_ROB_Stalls_Percent_3_Bucket_3: 78386
Critical_ROB_Stalls_Percent_3_Bucket_4: 259442
Non-critical_ROB_Stalls_Percent_3_Bucket_4: 46513
Critical_ROB_Stalls_Percent_3_Bucket_5: 458436
Non-critical_ROB_Stalls_Percent_3_Bucket_5: 130680
Critical_ROB_Stalls_Percent_3_Bucket_6: 4037674
Non-critical_ROB_Stalls_Percent_3_Bucket_6: 1501813
Critical_ROB_Stalls_Percent_4_Bucket_0: 205356
Non-critical_ROB_Stalls_Percent_4_Bucket_0: 388313
Critical_ROB_Stalls_Percent_4_Bucket_1: 117447
Non-critical_ROB_Stalls_Percent_4_Bucket_1: 103924
Critical_ROB_Stalls_Percent_4_Bucket_2: 217398
Non-critical_ROB_Stalls_Percent_4_Bucket_2: 81314
Critical_ROB_Stalls_Percent_4_Bucket_3: 313298
Non-critical_ROB_Stalls_Percent_4_Bucket_3: 78386
Critical_ROB_Stalls_Percent_4_Bucket_4: 259442
Non-critical_ROB_Stalls_Percent_4_Bucket_4: 46513
Critical_ROB_Stalls_Percent_4_Bucket_5: 458436
Non-critical_ROB_Stalls_Percent_4_Bucket_5: 130680
Critical_ROB_Stalls_Percent_4_Bucket_6: 4037674
Non-critical_ROB_Stalls_Percent_4_Bucket_6: 1501813
Critical_ROB_Stalls_Percent_5_Bucket_0: 212717
Non-critical_ROB_Stalls_Percent_5_Bucket_0: 380952
Critical_ROB_Stalls_Percent_5_Bucket_1: 134523
Non-critical_ROB_Stalls_Percent_5_Bucket_1: 86848
Critical_ROB_Stalls_Percent_5_Bucket_2: 237692
Non-critical_ROB_Stalls_Percent_5_Bucket_2: 61020
Critical_ROB_Stalls_Percent_5_Bucket_3: 321520
Non-critical_ROB_Stalls_Percent_5_Bucket_3: 70164
Critical_ROB_Stalls_Percent_5_Bucket_4: 262327
Non-critical_ROB_Stalls_Percent_5_Bucket_4: 43628
Critical_ROB_Stalls_Percent_5_Bucket_5: 464274
Non-critical_ROB_Stalls_Percent_5_Bucket_5: 124842
Critical_ROB_Stalls_Percent_5_Bucket_6: 4560566
Non-critical_ROB_Stalls_Percent_5_Bucket_6: 978921
Critical_ROB_Stalls_Percent_6_Bucket_0: 241343
Non-critical_ROB_Stalls_Percent_6_Bucket_0: 352326
Critical_ROB_Stalls_Percent_6_Bucket_1: 150768
Non-critical_ROB_Stalls_Percent_6_Bucket_1: 70603
Critical_ROB_Stalls_Percent_6_Bucket_2: 251469
Non-critical_ROB_Stalls_Percent_6_Bucket_2: 47243
Critical_ROB_Stalls_Percent_6_Bucket_3: 333610
Non-critical_ROB_Stalls_Percent_6_Bucket_3: 58074
Critical_ROB_Stalls_Percent_6_Bucket_4: 270321
Non-critical_ROB_Stalls_Percent_6_Bucket_4: 35634
Critical_ROB_Stalls_Percent_6_Bucket_5: 480863
Non-critical_ROB_Stalls_Percent_6_Bucket_5: 108253
Critical_ROB_Stalls_Percent_6_Bucket_6: 4791147
Non-critical_ROB_Stalls_Percent_6_Bucket_6: 748340
Critical_ROB_Stalls_Percent_7_Bucket_0: 302079
Non-critical_ROB_Stalls_Percent_7_Bucket_0: 291590
Critical_ROB_Stalls_Percent_7_Bucket_1: 178185
Non-critical_ROB_Stalls_Percent_7_Bucket_1: 43186
Critical_ROB_Stalls_Percent_7_Bucket_2: 271597
Non-critical_ROB_Stalls_Percent_7_Bucket_2: 27115
Critical_ROB_Stalls_Percent_7_Bucket_3: 356317
Non-critical_ROB_Stalls_Percent_7_Bucket_3: 35367
Critical_ROB_Stalls_Percent_7_Bucket_4: 281113
Non-critical_ROB_Stalls_Percent_7_Bucket_4: 24842
Critical_ROB_Stalls_Percent_7_Bucket_5: 524831
Non-critical_ROB_Stalls_Percent_7_Bucket_5: 64285
Critical_ROB_Stalls_Percent_7_Bucket_6: 4999036
Non-critical_ROB_Stalls_Percent_7_Bucket_6: 540451
Critical_ROB_Stalls_Percent_8_Bucket_0: 337065
Non-critical_ROB_Stalls_Percent_8_Bucket_0: 256604
Critical_ROB_Stalls_Percent_8_Bucket_1: 198154
Non-critical_ROB_Stalls_Percent_8_Bucket_1: 23217
Critical_ROB_Stalls_Percent_8_Bucket_2: 281732
Non-critical_ROB_Stalls_Percent_8_Bucket_2: 16980
Critical_ROB_Stalls_Percent_8_Bucket_3: 368690
Non-critical_ROB_Stalls_Percent_8_Bucket_3: 22994
Critical_ROB_Stalls_Percent_8_Bucket_4: 289091
Non-critical_ROB_Stalls_Percent_8_Bucket_4: 16864
Critical_ROB_Stalls_Percent_8_Bucket_5: 564346
Non-critical_ROB_Stalls_Percent_8_Bucket_5: 24770
Critical_ROB_Stalls_Percent_8_Bucket_6: 5156251
Non-critical_ROB_Stalls_Percent_8_Bucket_6: 383236
Average ROB occupancy Load Stall Begin: 283.77
Average ROB occupancy Load Stall End: 288.829
Min ROB occupancy Load Stall Begin: 1
Max ROB occupancy Load Stall Begin: 352
Min ROB occupancy Load Stall End: 1
Max ROB occupancy Load Stall End: 352
Average ROB occupancy Critical Load Stall Begin: 286.989
Average ROB occupancy Critical Load Stall End: 291.98
Min ROB occupancy Critical Load Stall Begin: 2
Max ROB occupancy Critical Load Stall Begin: 352
Min ROB occupancy Critical Load Stall End: 2
Max ROB occupancy Critical Load Stall End: 352
 ROB Load Stall Begin Bucket Count 0: 663170
 ROB Load Stall End Bucket Count 0: 593669
 ROB Critical Load Stall Begin Bucket Count 0: 563360
 ROB Critical Load Stall End Bucket Count 0: 495585
 ROB Load Stall Begin Bucket Count 1: 218915
 ROB Load Stall End Bucket Count 1: 221371
 ROB Critical Load Stall Begin Bucket Count 1: 217481
 ROB Critical Load Stall End Bucket Count 1: 218797
 ROB Load Stall Begin Bucket Count 2: 315705
 ROB Load Stall End Bucket Count 2: 298712
 ROB Critical Load Stall Begin Bucket Count 2: 314519
 ROB Critical Load Stall End Bucket Count 2: 297567
 ROB Load Stall Begin Bucket Count 3: 388976
 ROB Load Stall End Bucket Count 3: 391684
 ROB Critical Load Stall Begin Bucket Count 3: 387586
 ROB Critical Load Stall End Bucket Count 3: 390179
 ROB Load Stall Begin Bucket Count 4: 290439
 ROB Load Stall End Bucket Count 4: 305955
 ROB Critical Load Stall Begin Bucket Count 4: 289382
 ROB Critical Load Stall End Bucket Count 4: 304833
 ROB Load Stall Begin Bucket Count 5: 647725
 ROB Load Stall End Bucket Count 5: 589116
 ROB Critical Load Stall Begin Bucket Count 5: 645714
 ROB Critical Load Stall End Bucket Count 5: 587036
 ROB Load Stall Begin Bucket Count 6: 5415064
 ROB Load Stall End Bucket Count 6: 5539487
 ROB Critical Load Stall Begin Bucket Count 6: 5386685
 ROB Critical Load Stall End Bucket Count 6: 5510730
PIST Tag Read Accesses: 28480
PIST Read Accesses: 14240
PIST Tag Write Accesses: 28480
PIST Write Accesses: 14240
Criticality detector called times: 39932
Max global_stall_cycles_count: 485163
Threshold Modified: 1 times, factor: -1
Sturdy critical IP cache stats: 
 Unused entries: 0
CIC Tag Read Accesses: 0
CIC Read Accesses: 0
CIC Tag Write Accesses: 0
CIC Write Accesses: 0
Wobbly critical IP cache stats: 
 Unused entries: 95
CIC Tag Read Accesses: 310791618
CIC Read Accesses: 0
CIC Tag Write Accesses: 1915899
CIC Write Accesses: 0
ITLB TOTAL     ACCESS:   16834056  HIT:   16834056  MISS:          0  HIT %:        100  MISS %:          0   MPKI: 0
ITLB LOAD TRANSLATION ACCESS:   16834056  HIT:   16834056  MISS:          0  HIT %:        100  MISS %:          0   MPKI: 0
ITLB PREFETCH  REQUESTED:          0  ISSUED:          0  USEFUL:          0  USELESS:          0
ITLB USEFUL LOAD PREFETCHES:          0 PREFETCH ISSUED TO LOWER LEVEL:          0  ACCURACY: -nan
ITLB TIMELY PREFETCHES:          0 LATE PREFETCHES: 0 DROPPED PREFETCHES: 0
ITLB PREFETCHES SAME FILL-ORIGIN LEVEL: 0 DIFFERENT FILL-ORIGIN LEVEL: 0
ITLB AVERAGE MISS LATENCY: -nan cycles
ITLB RQ	ACCESS:   21657469	FORWARD:          0	MERGED:    4823413	TO_CACHE:   16834056

DTLB TOTAL     ACCESS:   26314185  HIT:   26107681  MISS:     206504  HIT %:    99.2152  MISS %:   0.784763   MPKI: 2.06504
DTLB LOAD TRANSLATION ACCESS:   26314185  HIT:   26107681  MISS:     206504  HIT %:    99.2152  MISS %:   0.784763   MPKI: 2.06504
DTLB PREFETCH  REQUESTED:          0  ISSUED:          0  USEFUL:          0  USELESS:          0
DTLB USEFUL LOAD PREFETCHES:          0 PREFETCH ISSUED TO LOWER LEVEL:          0  ACCURACY: -nan
DTLB TIMELY PREFETCHES:          0 LATE PREFETCHES: 0 DROPPED PREFETCHES: 0
DTLB PREFETCHES SAME FILL-ORIGIN LEVEL: 0 DIFFERENT FILL-ORIGIN LEVEL: 0
DTLB AVERAGE MISS LATENCY: 36.5879 cycles
DTLB RQ	ACCESS:   46584608	FORWARD:          0	MERGED:   20241341	TO_CACHE:   26343267

STLB TOTAL     ACCESS:    7684240  HIT:    7614640  MISS:      69600  HIT %:    99.0943  MISS %:    0.90575   MPKI: 0.696
STLB LOAD TRANSLATION ACCESS:     206504  HIT:     136923  MISS:      69581  HIT %:    66.3053  MISS %:    33.6947   MPKI: 0.69581
STLB TRANSLATION FROM L1D PREFETCHER ACCESS:    7477736  HIT:    7477717  MISS:         19  HIT %:    99.9997  MISS %: 0.000254088   MPKI: 0.00019
STLB PREFETCH  REQUESTED:          0  ISSUED:          0  USEFUL:         13  USELESS:          6
STLB USEFUL LOAD PREFETCHES:         13 PREFETCH ISSUED TO LOWER LEVEL:          0  ACCURACY: inf
STLB TIMELY PREFETCHES:         13 LATE PREFETCHES: 0 DROPPED PREFETCHES: 0
STLB PREFETCHES SAME FILL-ORIGIN LEVEL: 0 DIFFERENT FILL-ORIGIN LEVEL: 0
STLB AVERAGE MISS LATENCY: 81.7391 cycles
STLB RQ	ACCESS:   12136357	FORWARD:          0	MERGED:    4452114	TO_CACHE:    7684243

STLB Hit, L1D data hit: 0
STLB Hit, L2C data hit: 0
STLB Hit, LLC data hit: 0
STLB Hit, LLC data miss: 0
STLB STLB hints to L2: 0
L1D TOTAL     ACCESS:   57092684  HIT:   53190822  MISS:    3901862  HIT %:    93.1657  MISS %:    6.83426   MPKI: 39.0186
L1D LOAD      ACCESS:   17970006  HIT:   16248750  MISS:    1721256  HIT %:    90.4215  MISS %:    9.57849   MPKI: 17.2126
L1D RFO       ACCESS:   27706163  HIT:   27486300  MISS:     219863  HIT %:    99.2064  MISS %:   0.793553   MPKI: 2.19863
L1D PREFETCH  ACCESS:   11416515  HIT:    9455772  MISS:    1960743  HIT %:    82.8254  MISS %:    17.1746   MPKI: 19.6074
L1D PREFETCH  REQUESTED:   23859769  ISSUED:   23859710  USEFUL:     660726  USELESS:    1299738
L1D USEFUL LOAD PREFETCHES:     660726 PREFETCH ISSUED TO LOWER LEVEL:    2337873  ACCURACY: 28.2618
L1D TIMELY PREFETCHES:     660726 LATE PREFETCHES: 373618 DROPPED PREFETCHES: 0
L1D PREFETCHES SAME FILL-ORIGIN LEVEL: 2337873 DIFFERENT FILL-ORIGIN LEVEL: 0
L1D AVERAGE MISS LATENCY: 1.23358e+07 cycles
L1D RQ	ACCESS:   31250109	FORWARD:          0	MERGED:   13067284	TO_CACHE:   18152881
L1D WQ	ACCESS:   28891366	FORWARD:      29948	MERGED:     459639	TO_CACHE:   28431727
L1D PQ	ACCESS:   11929857	FORWARD:          0	MERGED:          0	TO_CACHE:   11929853

L1D UNIQUE REGIONS ACCESSED: 0
L1D REGIONS CONFLICTS: 0
L1D Cross Page Prefetch Requests: 0
L1D Same Page Prefetch Requests: 11976415
L1D ROI Sum of L1D PQ occupancy: 160369648
L1D PREFETCHES PUSHED FROM L2C: 0
L1I TOTAL     ACCESS:   21657469  HIT:   21657469  MISS:          0  HIT %:        100  MISS %:          0   MPKI: 0
L1I LOAD      ACCESS:   21657469  HIT:   21657469  MISS:          0  HIT %:        100  MISS %:          0   MPKI: 0
L1I PREFETCH  REQUESTED:          0  ISSUED:          0  USEFUL:          0  USELESS:          0
L1I USEFUL LOAD PREFETCHES:          0 PREFETCH ISSUED TO LOWER LEVEL:          0  ACCURACY: -nan
L1I TIMELY PREFETCHES:          0 LATE PREFETCHES: 0 DROPPED PREFETCHES: 0
L1I PREFETCHES SAME FILL-ORIGIN LEVEL: 0 DIFFERENT FILL-ORIGIN LEVEL: 0
L1I AVERAGE MISS LATENCY: -nan cycles
L1I RQ	ACCESS:   30411792	FORWARD:          0	MERGED:    8754323	TO_CACHE:   21657469

BTB TOTAL     ACCESS:    9650941  HIT:    9650907  MISS:         34  HIT %:    99.9996  MISS %: 0.000352297   MPKI: 0.00034
BTB BRANCH_DIRECT_JUMP	ACCESS:     463202  HIT:     463196  MISS:          6
BTB BRANCH_INDIRECT	ACCESS:          0  HIT:          0  MISS:          0
BTB BRANCH_CONDITIONAL	ACCESS:    9187651  HIT:    9187627  MISS:         24
BTB BRANCH_DIRECT_CALL	ACCESS:         44  HIT:         42  MISS:          2
BTB BRANCH_INDIRECT_CALL	ACCESS:          0  HIT:          0  MISS:          0
BTB BRANCH_RETURN	ACCESS:         44  HIT:         42  MISS:          2
BTB BRANCH_OTHER ACCESS:          0  HIT:          0  MISS:          0

L2C TOTAL     ACCESS:    4614705  HIT:    1164146  MISS:    3450559  HIT %:    25.2269  MISS %:    74.7731   MPKI: 34.5056
L2C LOAD      ACCESS:    1347595  HIT:      75936  MISS:    1271659  HIT %:    5.63493  MISS %:    94.3651   MPKI: 12.7166
L2C DATA LOAD MPKI: 12.7166
L2C INSTRUCTION LOAD MPKI: 0
L2C RFO       ACCESS:     216349  HIT:       4026  MISS:     212323  HIT %:    1.86088  MISS %:    98.1391   MPKI: 2.12323
L2C PREFETCH  ACCESS:    2337853  HIT:     385097  MISS:    1952756  HIT %:    16.4723  MISS %:    83.5277   MPKI: 19.5276
L2C DATA PREFETCH MPKI: 19.5276
L2C INSTRUCTION PREFETCH MPKI: 0
L2C WRITEBACK ACCESS:     643165  HIT:     639404  MISS:       3761  HIT %:    99.4152  MISS %:   0.584764   MPKI: 0.03761
L2C LOAD TRANSLATION ACCESS:      69724  HIT:      59683  MISS:      10041  HIT %:    85.5989  MISS %:    14.4011   MPKI: 0.10041
L2C TRANSLATION FROM L1D PREFETCHER ACCESS:         19  HIT:          0  MISS:         19  HIT %:          0  MISS %:        100   MPKI: 0.00019
L2C PREFETCH  REQUESTED:          0  ISSUED:          0  USEFUL:      28288  USELESS:    1921101
L2C USEFUL LOAD PREFETCHES:      28288 PREFETCH ISSUED TO LOWER LEVEL:    1952756  ACCURACY: 1.44862
L2C TIMELY PREFETCHES:      28288 LATE PREFETCHES: 0 DROPPED PREFETCHES: 0
L2C PREFETCHES SAME FILL-ORIGIN LEVEL: 0 DIFFERENT FILL-ORIGIN LEVEL: 0
L2C AVERAGE MISS LATENCY: 173.287 cycles
L2C RQ	ACCESS:    1633732	FORWARD:          0	MERGED:          0	TO_CACHE:    1633687
L2C WQ	ACCESS:     643165	FORWARD:         65	MERGED:          0	TO_CACHE:     643165
L2C PQ	ACCESS:    2337873	FORWARD:          0	MERGED:          0	TO_CACHE:    2337853

L2C Instructions Evicting Data 0
L2C Translations Evicting Data 10038
L2C Data Evicting Data 3426729
L2C Instructions Evicting Instructions 0
L2C Translations Evicting Instructions 0
L2C Data Evicting Instructions 0
L2C Instructions Evicting Translations 0
L2C Translations Evicting Translations 22
L2C Data Evicting Translations 10009
L2C Dense regions hint from L2: 0
PSCL5 TOTAL     ACCESS:      69600  HIT:      69600  MISS:          0  HIT %:        100  MISS %:          0   MPKI: 0
PSCL5 LOAD TRANSLATION ACCESS:      69581  HIT:      69581  MISS:          0  HIT %:        100  MISS %:          0   MPKI: 0
PSCL5 TRANSLATION FROM L1D PREFETCHER ACCESS:         19  HIT:         19  MISS:          0  HIT %:        100  MISS %:          0   MPKI: 0
PSCL5 PREFETCH  REQUESTED:          0  ISSUED:          0  USEFUL:          0  USELESS:          0
PSCL5 USEFUL LOAD PREFETCHES:          0 PREFETCH ISSUED TO LOWER LEVEL:          0  ACCURACY: -nan
PSCL5 TIMELY PREFETCHES:          0 LATE PREFETCHES: 0 DROPPED PREFETCHES: 0
PSCL5 PREFETCHES SAME FILL-ORIGIN LEVEL: 0 DIFFERENT FILL-ORIGIN LEVEL: 0

PSCL4 TOTAL     ACCESS:      69600  HIT:      69600  MISS:          0  HIT %:        100  MISS %:          0   MPKI: 0
PSCL4 LOAD TRANSLATION ACCESS:      69581  HIT:      69581  MISS:          0  HIT %:        100  MISS %:          0   MPKI: 0
PSCL4 TRANSLATION FROM L1D PREFETCHER ACCESS:         19  HIT:         19  MISS:          0  HIT %:        100  MISS %:          0   MPKI: 0
PSCL4 PREFETCH  REQUESTED:          0  ISSUED:          0  USEFUL:          0  USELESS:          0
PSCL4 USEFUL LOAD PREFETCHES:          0 PREFETCH ISSUED TO LOWER LEVEL:          0  ACCURACY: -nan
PSCL4 TIMELY PREFETCHES:          0 LATE PREFETCHES: 0 DROPPED PREFETCHES: 0
PSCL4 PREFETCHES SAME FILL-ORIGIN LEVEL: 0 DIFFERENT FILL-ORIGIN LEVEL: 0

PSCL3 TOTAL     ACCESS:      69600  HIT:      69600  MISS:          0  HIT %:        100  MISS %:          0   MPKI: 0
PSCL3 LOAD TRANSLATION ACCESS:      69581  HIT:      69581  MISS:          0  HIT %:        100  MISS %:          0   MPKI: 0
PSCL3 TRANSLATION FROM L1D PREFETCHER ACCESS:         19  HIT:         19  MISS:          0  HIT %:        100  MISS %:          0   MPKI: 0
PSCL3 PREFETCH  REQUESTED:          0  ISSUED:          0  USEFUL:          0  USELESS:          0
PSCL3 USEFUL LOAD PREFETCHES:          0 PREFETCH ISSUED TO LOWER LEVEL:          0  ACCURACY: -nan
PSCL3 TIMELY PREFETCHES:          0 LATE PREFETCHES: 0 DROPPED PREFETCHES: 0
PSCL3 PREFETCHES SAME FILL-ORIGIN LEVEL: 0 DIFFERENT FILL-ORIGIN LEVEL: 0

PSCL2 TOTAL     ACCESS:      69600  HIT:      69406  MISS:        194  HIT %:    99.7213  MISS %:   0.278736   MPKI: 0.00194
PSCL2 LOAD TRANSLATION ACCESS:      69581  HIT:      69387  MISS:        194  HIT %:    99.7212  MISS %:   0.278812   MPKI: 0.00194
PSCL2 TRANSLATION FROM L1D PREFETCHER ACCESS:         19  HIT:         19  MISS:          0  HIT %:        100  MISS %:          0   MPKI: 0
PSCL2 PREFETCH  REQUESTED:          0  ISSUED:          0  USEFUL:          0  USELESS:          0
PSCL2 USEFUL LOAD PREFETCHES:          0 PREFETCH ISSUED TO LOWER LEVEL:          0  ACCURACY: -nan
PSCL2 TIMELY PREFETCHES:          0 LATE PREFETCHES: 0 DROPPED PREFETCHES: 0
PSCL2 PREFETCHES SAME FILL-ORIGIN LEVEL: 0 DIFFERENT FILL-ORIGIN LEVEL: 0

LLC TOTAL     ACCESS:    4029023  HIT:     268538  MISS:    3760485  HIT %:    6.66509  MISS %:    93.3349   MPKI: 37.6048
LLC LOAD      ACCESS:    1271659  HIT:     102917  MISS:    1168742  HIT %:    8.09313  MISS %:    91.9069   MPKI: 11.6874
LLC RFO       ACCESS:     212323  HIT:         95  MISS:     212228  HIT %:  0.0447432  MISS %:    99.9553   MPKI: 2.12228
LLC PREFETCH  ACCESS:    1952756  HIT:     135036  MISS:    1817720  HIT %:    6.91515  MISS %:    93.0849   MPKI: 18.1772
LLC WRITEBACK ACCESS:     582225  HIT:      29961  MISS:     552264  HIT %:    5.14595  MISS %:    94.8541   MPKI: 5.52264
LLC LOAD TRANSLATION ACCESS:      10041  HIT:        529  MISS:       9512  HIT %:     5.2684  MISS %:    94.7316   MPKI: 0.09512
LLC TRANSLATION FROM L1D PREFETCHER ACCESS:         19  HIT:          0  MISS:         19  HIT %:          0  MISS %:        100   MPKI: 0.00019
LLC PREFETCH  REQUESTED:          0  ISSUED:          0  USEFUL:       4825  USELESS:    1806298
LLC USEFUL LOAD PREFETCHES:       4825 PREFETCH ISSUED TO LOWER LEVEL:    1817720  ACCURACY: 0.265442
LLC TIMELY PREFETCHES:       4825 LATE PREFETCHES: 0 DROPPED PREFETCHES: 0
LLC PREFETCHES SAME FILL-ORIGIN LEVEL: 0 DIFFERENT FILL-ORIGIN LEVEL: 0
LLC AVERAGE MISS LATENCY: 131.361 cycles
LLC RQ	ACCESS:    1494042	FORWARD:          0	MERGED:          0	TO_CACHE:    1494042
LLC WQ	ACCESS:     582225	FORWARD:          0	MERGED:          0	TO_CACHE:     582225
LLC PQ	ACCESS:    1952756	FORWARD:          0	MERGED:          0	TO_CACHE:    1952756

LLC Dense regions hint to LLC: 0

RAW hits: 635020
Loads Generated: 31885130
Loads sent to L1D: 31250109
Stores Generated: 28891363
Stores sent to L1D: 28891366
Major fault: 0 Minor fault: 38413
Allocated PAGES: 38413

stream: 
stream:times selected: 11409425
stream:pref_filled: 976880
stream:pref_useful: 185853
stream:pref_late: 127763
stream:misses: 193428
stream:misses_by_poll: 0

CS: 
CS:times selected: 383598
CS:pref_filled: 250193
CS:pref_useful: 248661
CS:pref_late: 12581
CS:misses: 15296
CS:misses_by_poll: 314

CPLX: 
CPLX:times selected: 10949639
CPLX:pref_filled: 750213
CPLX:pref_useful: 231099
CPLX:pref_late: 229179
CPLX:misses: 1422807
CPLX:misses_by_poll: 4360

NL_L1: 
NL:times selected: 95287
NL:pref_filled: 13865
NL:pref_useful: 6518
NL:pref_late: 1395
NL:misses: 30296
NL:misses_by_poll: 2

total selections: 22837949
total_filled: 1960743
total_useful: 660726
total_late: 374858
total_polluted: 4676
total_misses_after_warmup: 1902220
conflicts: 105462
Degree Incremented Times: 67004
Degree Decremented Times: 133442

L1 IP Table Write Accesses: 17014463
L1 IP Table Read Accesses: 16909001
L1 RST Write Accesses: 11374548
L1 RST Read Accesses: 22749096
L1 CSPT Write Accesses: 11374548
L1 CSPT Read Accesses: 22294354
L1 RR Filter Tag Write Accesses: 11929916
L1 RR Filter Tag Read Accesses: 542212638
L1 IP Table Tag Write Accesses: 17542713
L1 IP Table Tag Read Accesses: 17542713
L1 RST Tag Write Accesses: 0
L1 RST Tag Read Accesses: 112720402
L1 RR Filter Write Accesses: 0
L1 RR Filter Read Accesses: 17799630
test: 6198134

DRAM Statistics
 CHANNEL 0
 RQ ROW_BUFFER_HIT:    1535532  ROW_BUFFER_MISS:    1672689
 DBUS_CONGESTED:       3135
 WQ ROW_BUFFER_HIT:     125173  ROW_BUFFER_MISS:     465069  FULL:          0

 AVG_CONGESTED_CYCLE: 5
 All warmup complete: 2
Channel 0 Bank busy for read cycles: 0
Channel 0 Bank busy for write cycles: 0
Channel 0
Rank 0
0banks busy for read cycles: 65887768
0banks busy for write cycles: 114715
1banks busy for read cycles: 56459134
1banks busy for write cycles: 17163769
2banks busy for read cycles: 32818675
2banks busy for write cycles: 10425870
3banks busy for read cycles: 16831786
3banks busy for write cycles: 6838262
4banks busy for read cycles: 9744186
4banks busy for write cycles: 4375801
5banks busy for read cycles: 6972148
5banks busy for write cycles: 2715921
6banks busy for read cycles: 5535404
6banks busy for write cycles: 1660232
7banks busy for read cycles: 4052848
7banks busy for write cycles: 1424157
8banks busy for read cycles: 2549258
8banks busy for write cycles: 5679372

CPU 0 Branch Prediction Accuracy: 99.1519% MPKI: 0.83374 Average ROB Occupancy at Mispredict: 264.662
Branch types
NOT_BRANCH: 90169469 90.1695%
BRANCH_DIRECT_JUMP: 463202 0.463202%
BRANCH_INDIRECT: 0 0%
BRANCH_CONDITIONAL: 9367125 9.36712%
BRANCH_DIRECT_CALL: 44 4.4e-05%
BRANCH_INDIRECT_CALL: 0 0%
BRANCH_RETURN: 44 4.4e-05%
BRANCH_OTHER: 0 0%

DRAM PAGES: 1048576
Allocated PAGES: 38413
