
*** ChampSim Multicore Out-of-Order Simulator ***

Warmup Instructions: 50000000
Simulation Instructions: 100000000
Number of CPUs: 1
LLC sets: 2048
LLC ways: 16
Off-chip DRAM Size: 4096 MB Channels: 1 Width: 64-bit Data Rate: 6400 MT/s
CPU 0 runs ../SPEC2017//605.mcf_s-994B.champsimtrace.xz
.xz
BTB has LRU replacement policy
ITLB has LRU replacement policy
DTLB has LRU replacement policy
STLB has LRU replacement policy
L1I has LRU replacement policy
IP Table Entries: 64
L1D has LRU replacement policy
Initialize SRRIP state for L2C
Initialize DRRIP state for LLC
Heartbeat CPU 0 instructions: 10000000 cycles: 3243816 heartbeat IPC: 3.08279 cumulative IPC: 3.08279 (Simulation time: 0 hr 6 min 8 sec) 
Heartbeat CPU 0 instructions: 20000003 cycles: 6522123 heartbeat IPC: 3.05036 cumulative IPC: 3.06649 (Simulation time: 0 hr 11 min 58 sec) 
Heartbeat CPU 0 instructions: 30000003 cycles: 9800045 heartbeat IPC: 3.05071 cumulative IPC: 3.06121 (Simulation time: 0 hr 17 min 33 sec) 
Heartbeat CPU 0 instructions: 40000002 cycles: 13059900 heartbeat IPC: 3.06762 cumulative IPC: 3.06281 (Simulation time: 0 hr 22 min 8 sec) 
Heartbeat CPU 0 instructions: 50000001 cycles: 16572735 heartbeat IPC: 2.8467 cumulative IPC: 3.017 (Simulation time: 0 hr 27 min 35 sec) 

Warmup complete CPU 0 instructions: 50000001 cycles: 16572735 (Simulation time: 0 hr 27 min 35 sec) 

Heartbeat CPU 0 instructions: 60000000 cycles: 58356035 heartbeat IPC: 0.23933 cumulative IPC: 0.23933 (Simulation time: 0 hr 32 min 35 sec) 
Heartbeat CPU 0 instructions: 70000000 cycles: 106534001 heartbeat IPC: 0.207564 cumulative IPC: 0.222318 (Simulation time: 0 hr 38 min 4 sec) 
Heartbeat CPU 0 instructions: 80000001 cycles: 139922637 heartbeat IPC: 0.299503 cumulative IPC: 0.243211 (Simulation time: 0 hr 42 min 10 sec) 
Heartbeat CPU 0 instructions: 90000002 cycles: 173007689 heartbeat IPC: 0.302251 cumulative IPC: 0.255697 (Simulation time: 0 hr 46 min 18 sec) 
Heartbeat CPU 0 instructions: 100000001 cycles: 205788443 heartbeat IPC: 0.305057 cumulative IPC: 0.264249 (Simulation time: 0 hr 50 min 22 sec) 
Heartbeat CPU 0 instructions: 110000000 cycles: 260176305 heartbeat IPC: 0.183865 cumulative IPC: 0.246302 (Simulation time: 0 hr 55 min 25 sec) 
Heartbeat CPU 0 instructions: 120000000 cycles: 303062991 heartbeat IPC: 0.233173 cumulative IPC: 0.244336 (Simulation time: 0 hr 59 min 34 sec) 
Heartbeat CPU 0 instructions: 130000000 cycles: 342662911 heartbeat IPC: 0.252526 cumulative IPC: 0.245331 (Simulation time: 1 hr 3 min 9 sec) 
Heartbeat CPU 0 instructions: 140000000 cycles: 389576870 heartbeat IPC: 0.213156 cumulative IPC: 0.241284 (Simulation time: 1 hr 5 min 46 sec) 
Heartbeat CPU 0 instructions: 150000001 cycles: 454766686 heartbeat IPC: 0.153398 cumulative IPC: 0.228209 (Simulation time: 1 hr 11 min 23 sec) 
Finished CPU 0 instructions: 100000000 cycles: 438193951 cumulative IPC: 0.228209 (Simulation time: 1 hr 11 min 23 sec) 

ChampSim completed all CPUs

Region of Interest Statistics

CPU 0 cumulative IPC: 0.228209 instructions: 100000000 cycles: 438193951

CPU 0 Average Load ROB stall cycles: 9.93376e+07
CPU 0 Fraction of times ROB stalled by Loads: 44.281
CPU 0 Percentage of Load stall cycles in Total stall cycles: 7.3384e+08
Issued all: 52454073
Issued LT all: 40916588
rob_not_full_when_issued_lt_all: 39472970
Issued LT one: 29907735
rob_not_full_when_issued_lt_one: 28561793
 Total stall cycles: 401339487
 Total load stall cycles: 2945190541742197
Unique Load IPs: 117
CPU 0 NUM of IPS identified critical: 15
CPU 0 Num of Load IPs stalling ROB: 0
Threshold modification factor: 0
Trouble in retire width: -nan
MaC = Marked as critical.
lt_50_percent_before_Mac: 14
gt_90_percent_before_Mac: 0
gt_75_percent_before_Mac: 1
gt_50_percent_before_Mac: 0
stall_proportion_bin_same_before_after: 0
stall_proportion_bin_lower_before_after: 0
stall_proportion_bin_upper_before_after: 0
average_stall_proportion_before: 0.0437412
average_stall_proportion_after: 0.057856
Critical_IP_Detector_Accuracy_70: 0.0666667
Critical_IP_Detector_Accuracy_80: 0.0666667
Critical_IP_Detector_Accuracy_90: 0.0666667
Critical_IP_Detector_Coverage_70: 1
Critical_IP_Detector_Coverage_80: 1
Critical_IP_Detector_Coverage_90: 1
stat_90_percent_critical_ip_stalls_freq: 2837175
stat_90_percent_non_critical_ip_stalls_freq: 18446744073706714441
AVERAGE_ROB_Occupancy_90_Percent_Critical_IP_Stalls: 40.4953
AVERAGE_ROB_Occupancy_90_Percent_Non_Critical_IP_Stalls: 1.706e-11
Critical_IP_ROB_Stalls_Bucket_0: 9796925
Non-critical_IP_ROB_Stalls_Bucket_0: 1323312
Critical_IP_ROB_Stalls_Bucket_1: 1240290
Non-critical_IP_ROB_Stalls_Bucket_1: 194839
Critical_IP_ROB_Stalls_Bucket_2: 295516
Non-critical_IP_ROB_Stalls_Bucket_2: 32000
Critical_IP_ROB_Stalls_Bucket_3: 113266
Non-critical_IP_ROB_Stalls_Bucket_3: 10699
Critical_IP_ROB_Stalls_Bucket_4: 46857
Non-critical_IP_ROB_Stalls_Bucket_4: 3204
Critical_IP_ROB_Stalls_Bucket_5: 24342
Non-critical_IP_ROB_Stalls_Bucket_5: 1495
Critical_IP_ROB_Stalls_Bucket_6: 43705
Non-critical_IP_ROB_Stalls_Bucket_6: 2110
0 => IPs accounting for >50 percent of stalls, 1 => 55, 2 => 60, 3 => 65 and so on till 90.
percent50: inf num IPs:  1
percent55: inf num IPs: 1
percent60: inf num IPs: 1
percent65: inf num IPs: 1
percent70: inf num IPs: 1
percent75: inf num IPs: 1
percent80: inf num IPs: 1
percent85: inf num IPs: 1
percent90: inf num IPs: 1
Critical_ROB_Stalls_Percent_0_Bucket_0: 2085892
Non-critical_ROB_Stalls_Percent_0_Bucket_0: 9034345
Critical_ROB_Stalls_Percent_0_Bucket_1: 540557
Non-critical_ROB_Stalls_Percent_0_Bucket_1: 894572
Critical_ROB_Stalls_Percent_0_Bucket_2: 120573
Non-critical_ROB_Stalls_Percent_0_Bucket_2: 206943
Critical_ROB_Stalls_Percent_0_Bucket_3: 47116
Non-critical_ROB_Stalls_Percent_0_Bucket_3: 76849
Critical_ROB_Stalls_Percent_0_Bucket_4: 17328
Non-critical_ROB_Stalls_Percent_0_Bucket_4: 32733
Critical_ROB_Stalls_Percent_0_Bucket_5: 9284
Non-critical_ROB_Stalls_Percent_0_Bucket_5: 16553
Critical_ROB_Stalls_Percent_0_Bucket_6: 16425
Non-critical_ROB_Stalls_Percent_0_Bucket_6: 29390
Critical_ROB_Stalls_Percent_1_Bucket_0: 2085892
Non-critical_ROB_Stalls_Percent_1_Bucket_0: 9034345
Critical_ROB_Stalls_Percent_1_Bucket_1: 540557
Non-critical_ROB_Stalls_Percent_1_Bucket_1: 894572
Critical_ROB_Stalls_Percent_1_Bucket_2: 120573
Non-critical_ROB_Stalls_Percent_1_Bucket_2: 206943
Critical_ROB_Stalls_Percent_1_Bucket_3: 47116
Non-critical_ROB_Stalls_Percent_1_Bucket_3: 76849
Critical_ROB_Stalls_Percent_1_Bucket_4: 17328
Non-critical_ROB_Stalls_Percent_1_Bucket_4: 32733
Critical_ROB_Stalls_Percent_1_Bucket_5: 9284
Non-critical_ROB_Stalls_Percent_1_Bucket_5: 16553
Critical_ROB_Stalls_Percent_1_Bucket_6: 16425
Non-critical_ROB_Stalls_Percent_1_Bucket_6: 29390
Critical_ROB_Stalls_Percent_2_Bucket_0: 2085892
Non-critical_ROB_Stalls_Percent_2_Bucket_0: 9034345
Critical_ROB_Stalls_Percent_2_Bucket_1: 540557
Non-critical_ROB_Stalls_Percent_2_Bucket_1: 894572
Critical_ROB_Stalls_Percent_2_Bucket_2: 120573
Non-critical_ROB_Stalls_Percent_2_Bucket_2: 206943
Critical_ROB_Stalls_Percent_2_Bucket_3: 47116
Non-critical_ROB_Stalls_Percent_2_Bucket_3: 76849
Critical_ROB_Stalls_Percent_2_Bucket_4: 17328
Non-critical_ROB_Stalls_Percent_2_Bucket_4: 32733
Critical_ROB_Stalls_Percent_2_Bucket_5: 9284
Non-critical_ROB_Stalls_Percent_2_Bucket_5: 16553
Critical_ROB_Stalls_Percent_2_Bucket_6: 16425
Non-critical_ROB_Stalls_Percent_2_Bucket_6: 29390
Critical_ROB_Stalls_Percent_3_Bucket_0: 2085892
Non-critical_ROB_Stalls_Percent_3_Bucket_0: 9034345
Critical_ROB_Stalls_Percent_3_Bucket_1: 540557
Non-critical_ROB_Stalls_Percent_3_Bucket_1: 894572
Critical_ROB_Stalls_Percent_3_Bucket_2: 120573
Non-critical_ROB_Stalls_Percent_3_Bucket_2: 206943
Critical_ROB_Stalls_Percent_3_Bucket_3: 47116
Non-critical_ROB_Stalls_Percent_3_Bucket_3: 76849
Critical_ROB_Stalls_Percent_3_Bucket_4: 17328
Non-critical_ROB_Stalls_Percent_3_Bucket_4: 32733
Critical_ROB_Stalls_Percent_3_Bucket_5: 9284
Non-critical_ROB_Stalls_Percent_3_Bucket_5: 16553
Critical_ROB_Stalls_Percent_3_Bucket_6: 16425
Non-critical_ROB_Stalls_Percent_3_Bucket_6: 29390
Critical_ROB_Stalls_Percent_4_Bucket_0: 2085892
Non-critical_ROB_Stalls_Percent_4_Bucket_0: 9034345
Critical_ROB_Stalls_Percent_4_Bucket_1: 540557
Non-critical_ROB_Stalls_Percent_4_Bucket_1: 894572
Critical_ROB_Stalls_Percent_4_Bucket_2: 120573
Non-critical_ROB_Stalls_Percent_4_Bucket_2: 206943
Critical_ROB_Stalls_Percent_4_Bucket_3: 47116
Non-critical_ROB_Stalls_Percent_4_Bucket_3: 76849
Critical_ROB_Stalls_Percent_4_Bucket_4: 17328
Non-critical_ROB_Stalls_Percent_4_Bucket_4: 32733
Critical_ROB_Stalls_Percent_4_Bucket_5: 9284
Non-critical_ROB_Stalls_Percent_4_Bucket_5: 16553
Critical_ROB_Stalls_Percent_4_Bucket_6: 16425
Non-critical_ROB_Stalls_Percent_4_Bucket_6: 29390
Critical_ROB_Stalls_Percent_5_Bucket_0: 2085892
Non-critical_ROB_Stalls_Percent_5_Bucket_0: 9034345
Critical_ROB_Stalls_Percent_5_Bucket_1: 540557
Non-critical_ROB_Stalls_Percent_5_Bucket_1: 894572
Critical_ROB_Stalls_Percent_5_Bucket_2: 120573
Non-critical_ROB_Stalls_Percent_5_Bucket_2: 206943
Critical_ROB_Stalls_Percent_5_Bucket_3: 47116
Non-critical_ROB_Stalls_Percent_5_Bucket_3: 76849
Critical_ROB_Stalls_Percent_5_Bucket_4: 17328
Non-critical_ROB_Stalls_Percent_5_Bucket_4: 32733
Critical_ROB_Stalls_Percent_5_Bucket_5: 9284
Non-critical_ROB_Stalls_Percent_5_Bucket_5: 16553
Critical_ROB_Stalls_Percent_5_Bucket_6: 16425
Non-critical_ROB_Stalls_Percent_5_Bucket_6: 29390
Critical_ROB_Stalls_Percent_6_Bucket_0: 2085892
Non-critical_ROB_Stalls_Percent_6_Bucket_0: 9034345
Critical_ROB_Stalls_Percent_6_Bucket_1: 540557
Non-critical_ROB_Stalls_Percent_6_Bucket_1: 894572
Critical_ROB_Stalls_Percent_6_Bucket_2: 120573
Non-critical_ROB_Stalls_Percent_6_Bucket_2: 206943
Critical_ROB_Stalls_Percent_6_Bucket_3: 47116
Non-critical_ROB_Stalls_Percent_6_Bucket_3: 76849
Critical_ROB_Stalls_Percent_6_Bucket_4: 17328
Non-critical_ROB_Stalls_Percent_6_Bucket_4: 32733
Critical_ROB_Stalls_Percent_6_Bucket_5: 9284
Non-critical_ROB_Stalls_Percent_6_Bucket_5: 16553
Critical_ROB_Stalls_Percent_6_Bucket_6: 16425
Non-critical_ROB_Stalls_Percent_6_Bucket_6: 29390
Critical_ROB_Stalls_Percent_7_Bucket_0: 2085892
Non-critical_ROB_Stalls_Percent_7_Bucket_0: 9034345
Critical_ROB_Stalls_Percent_7_Bucket_1: 540557
Non-critical_ROB_Stalls_Percent_7_Bucket_1: 894572
Critical_ROB_Stalls_Percent_7_Bucket_2: 120573
Non-critical_ROB_Stalls_Percent_7_Bucket_2: 206943
Critical_ROB_Stalls_Percent_7_Bucket_3: 47116
Non-critical_ROB_Stalls_Percent_7_Bucket_3: 76849
Critical_ROB_Stalls_Percent_7_Bucket_4: 17328
Non-critical_ROB_Stalls_Percent_7_Bucket_4: 32733
Critical_ROB_Stalls_Percent_7_Bucket_5: 9284
Non-critical_ROB_Stalls_Percent_7_Bucket_5: 16553
Critical_ROB_Stalls_Percent_7_Bucket_6: 16425
Non-critical_ROB_Stalls_Percent_7_Bucket_6: 29390
Critical_ROB_Stalls_Percent_8_Bucket_0: 2085892
Non-critical_ROB_Stalls_Percent_8_Bucket_0: 9034345
Critical_ROB_Stalls_Percent_8_Bucket_1: 540557
Non-critical_ROB_Stalls_Percent_8_Bucket_1: 894572
Critical_ROB_Stalls_Percent_8_Bucket_2: 120573
Non-critical_ROB_Stalls_Percent_8_Bucket_2: 206943
Critical_ROB_Stalls_Percent_8_Bucket_3: 47116
Non-critical_ROB_Stalls_Percent_8_Bucket_3: 76849
Critical_ROB_Stalls_Percent_8_Bucket_4: 17328
Non-critical_ROB_Stalls_Percent_8_Bucket_4: 32733
Critical_ROB_Stalls_Percent_8_Bucket_5: 9284
Non-critical_ROB_Stalls_Percent_8_Bucket_5: 16553
Critical_ROB_Stalls_Percent_8_Bucket_6: 16425
Non-critical_ROB_Stalls_Percent_8_Bucket_6: 29390
Average ROB occupancy Load Stall Begin: 27.9947
Average ROB occupancy Load Stall End: 32.7221
Min ROB occupancy Load Stall Begin: 1
Max ROB occupancy Load Stall Begin: 352
Min ROB occupancy Load Stall End: 1
Max ROB occupancy Load Stall End: 352
Average ROB occupancy Critical Load Stall Begin: 26.8303
Average ROB occupancy Critical Load Stall End: 31.0941
Min ROB occupancy Critical Load Stall Begin: 1
Max ROB occupancy Critical Load Stall Begin: 352
Min ROB occupancy Critical Load Stall End: 1
Max ROB occupancy Critical Load Stall End: 352
 ROB Load Stall Begin Bucket Count 0: 11558545
 ROB Load Stall End Bucket Count 0: 11120237
 ROB Critical Load Stall Begin Bucket Count 0: 8728584
 ROB Critical Load Stall End Bucket Count 0: 8419761
 ROB Load Stall Begin Bucket Count 1: 1079480
 ROB Load Stall End Bucket Count 1: 1435129
 ROB Critical Load Stall Begin Bucket Count 1: 718334
 ROB Critical Load Stall End Bucket Count 1: 973954
 ROB Load Stall Begin Bucket Count 2: 275911
 ROB Load Stall End Bucket Count 2: 327516
 ROB Critical Load Stall Begin Bucket Count 2: 202867
 ROB Critical Load Stall End Bucket Count 2: 237072
 ROB Load Stall Begin Bucket Count 3: 104549
 ROB Load Stall End Bucket Count 3: 123965
 ROB Critical Load Stall Begin Bucket Count 3: 80067
 ROB Critical Load Stall End Bucket Count 3: 91182
 ROB Load Stall Begin Bucket Count 4: 44609
 ROB Load Stall End Bucket Count 4: 50061
 ROB Critical Load Stall Begin Bucket Count 4: 34397
 ROB Critical Load Stall End Bucket Count 4: 38170
 ROB Load Stall Begin Bucket Count 5: 23404
 ROB Load Stall End Bucket Count 5: 25837
 ROB Critical Load Stall Begin Bucket Count 5: 18164
 ROB Critical Load Stall End Bucket Count 5: 19816
 ROB Load Stall Begin Bucket Count 6: 42063
 ROB Load Stall End Bucket Count 6: 45815
 ROB Critical Load Stall Begin Bucket Count 6: 32506
 ROB Critical Load Stall End Bucket Count 6: 34965
PIST Tag Read Accesses: 0
PIST Read Accesses: 0
PIST Tag Write Accesses: 0
PIST Write Accesses: 0
Criticality detector called times: 0
Max global_stall_cycles_count: 0
Threshold Modified: 0 times, factor: 0
Sturdy critical IP cache stats: 
 Unused entries: 0
CIC Tag Read Accesses: 0
CIC Read Accesses: 0
CIC Tag Write Accesses: 0
CIC Write Accesses: 0
Wobbly critical IP cache stats: 
 Unused entries: 17
CIC Tag Read Accesses: 416053573
CIC Read Accesses: 0
CIC Tag Write Accesses: 30785050
CIC Write Accesses: 0
ITLB TOTAL     ACCESS:   17689545  HIT:   17689545  MISS:          0  HIT %:        100  MISS %:          0   MPKI: 0
ITLB LOAD TRANSLATION ACCESS:   17689545  HIT:   17689545  MISS:          0  HIT %:        100  MISS %:          0   MPKI: 0
ITLB PREFETCH  REQUESTED:          0  ISSUED:          0  USEFUL:          0  USELESS:          0
ITLB USEFUL LOAD PREFETCHES:          0 PREFETCH ISSUED TO LOWER LEVEL:          0  ACCURACY: -nan
ITLB TIMELY PREFETCHES:          0 LATE PREFETCHES: 0 DROPPED PREFETCHES: 0
ITLB PREFETCHES SAME FILL-ORIGIN LEVEL: 0 DIFFERENT FILL-ORIGIN LEVEL: 0
ITLB AVERAGE MISS LATENCY: -nan cycles
ITLB RQ	ACCESS:   18118487	FORWARD:          0	MERGED:     428943	TO_CACHE:   17689544

DTLB TOTAL     ACCESS:   32475160  HIT:   30851629  MISS:    1623531  HIT %:    95.0007  MISS %:     4.9993   MPKI: 16.2353
DTLB LOAD TRANSLATION ACCESS:   32475160  HIT:   30851629  MISS:    1623531  HIT %:    95.0007  MISS %:     4.9993   MPKI: 16.2353
DTLB PREFETCH  REQUESTED:          0  ISSUED:          0  USEFUL:          0  USELESS:          0
DTLB USEFUL LOAD PREFETCHES:          0 PREFETCH ISSUED TO LOWER LEVEL:          0  ACCURACY: -nan
DTLB TIMELY PREFETCHES:          0 LATE PREFETCHES: 0 DROPPED PREFETCHES: 0
DTLB PREFETCHES SAME FILL-ORIGIN LEVEL: 0 DIFFERENT FILL-ORIGIN LEVEL: 0
DTLB AVERAGE MISS LATENCY: 71.8671 cycles
DTLB RQ	ACCESS:   38537046	FORWARD:          0	MERGED:    5621211	TO_CACHE:   32915835

STLB TOTAL     ACCESS:    5958588  HIT:    5150739  MISS:     807849  HIT %:    86.4423  MISS %:    13.5577   MPKI: 8.07849
STLB LOAD TRANSLATION ACCESS:    1623531  HIT:     815934  MISS:     807597  HIT %:    50.2568  MISS %:    49.7432   MPKI: 8.07597
STLB TRANSLATION FROM L1D PREFETCHER ACCESS:    4335057  HIT:    4334805  MISS:        252  HIT %:    99.9942  MISS %: 0.00581307   MPKI: 0.00252
STLB PREFETCH  REQUESTED:          0  ISSUED:          0  USEFUL:        228  USELESS:         24
STLB USEFUL LOAD PREFETCHES:        228 PREFETCH ISSUED TO LOWER LEVEL:          0  ACCURACY: inf
STLB TIMELY PREFETCHES:        228 LATE PREFETCHES: 0 DROPPED PREFETCHES: 0
STLB PREFETCHES SAME FILL-ORIGIN LEVEL: 0 DIFFERENT FILL-ORIGIN LEVEL: 0
STLB AVERAGE MISS LATENCY: 126.268 cycles
STLB RQ	ACCESS:    7026356	FORWARD:          0	MERGED:    1067724	TO_CACHE:    5958632

STLB Hit, L1D data hit: 0
STLB Hit, L2C data hit: 0
STLB Hit, LLC data hit: 0
STLB Hit, LLC data miss: 0
STLB STLB hints to L2: 0
L1D TOTAL     ACCESS:   42989862  HIT:   36921902  MISS:    6067960  HIT %:    85.8851  MISS %:    14.1149   MPKI: 60.6796
L1D LOAD      ACCESS:   28431770  HIT:   24910841  MISS:    3520929  HIT %:    87.6162  MISS %:    12.3838   MPKI: 35.2093
L1D RFO       ACCESS:    9986744  HIT:    9951796  MISS:      34948  HIT %:    99.6501  MISS %:   0.349944   MPKI: 0.34948
L1D PREFETCH  ACCESS:    4571348  HIT:    2059265  MISS:    2512083  HIT %:    45.0472  MISS %:    54.9528   MPKI: 25.1208
L1D PREFETCH  REQUESTED:   10807249  ISSUED:   10807249  USEFUL:     323312  USELESS:    2188548
L1D USEFUL LOAD PREFETCHES:     323312 PREFETCH ISSUED TO LOWER LEVEL:    2811879  ACCURACY: 11.4981
L1D TIMELY PREFETCHES:     323312 LATE PREFETCHES: 299795 DROPPED PREFETCHES: 0
L1D PREFETCHES SAME FILL-ORIGIN LEVEL: 2811879 DIFFERENT FILL-ORIGIN LEVEL: 0
L1D AVERAGE MISS LATENCY: 1.27361e+07 cycles
L1D RQ	ACCESS:   33840291	FORWARD:          0	MERGED:    2980652	TO_CACHE:   28496231
L1D WQ	ACCESS:   10094511	FORWARD:    2365007	MERGED:      53696	TO_CACHE:   10040815
L1D PQ	ACCESS:    5404424	FORWARD:          0	MERGED:          0	TO_CACHE:    5402825

L1D UNIQUE REGIONS ACCESSED: 0
L1D REGIONS CONFLICTS: 0
L1D Cross Page Prefetch Requests: 0
L1D Same Page Prefetch Requests: 7668132
L1D ROI Sum of L1D PQ occupancy: 70268586
L1D PREFETCHES PUSHED FROM L2C: 0
L1I TOTAL     ACCESS:   18118488  HIT:   18118488  MISS:          0  HIT %:        100  MISS %:          0   MPKI: 0
L1I LOAD      ACCESS:   18118488  HIT:   18118488  MISS:          0  HIT %:        100  MISS %:          0   MPKI: 0
L1I PREFETCH  REQUESTED:          0  ISSUED:          0  USEFUL:          0  USELESS:          0
L1I USEFUL LOAD PREFETCHES:          0 PREFETCH ISSUED TO LOWER LEVEL:          0  ACCURACY: -nan
L1I TIMELY PREFETCHES:          0 LATE PREFETCHES: 0 DROPPED PREFETCHES: 0
L1I PREFETCHES SAME FILL-ORIGIN LEVEL: 0 DIFFERENT FILL-ORIGIN LEVEL: 0
L1I AVERAGE MISS LATENCY: -nan cycles
L1I RQ	ACCESS:   28694599	FORWARD:          0	MERGED:   10576112	TO_CACHE:   18118487

BTB TOTAL     ACCESS:   23415583  HIT:   22036176  MISS:    1379407  HIT %:     94.109  MISS %:    5.89098   MPKI: 13.7941
BTB BRANCH_DIRECT_JUMP	ACCESS:    2277732  HIT:    2277711  MISS:         21
BTB BRANCH_INDIRECT	ACCESS:          0  HIT:          0  MISS:          0
BTB BRANCH_CONDITIONAL	ACCESS:   14850308  HIT:   14850266  MISS:         42
BTB BRANCH_DIRECT_CALL	ACCESS:    3040680  HIT:    3040667  MISS:         13
BTB BRANCH_INDIRECT_CALL	ACCESS:     103096  HIT:     103088  MISS:          8
BTB BRANCH_RETURN	ACCESS:    3143767  HIT:    1764444  MISS:    1379323
BTB BRANCH_OTHER ACCESS:          0  HIT:          0  MISS:          0

L2C TOTAL     ACCESS:    7676638  HIT:    2999407  MISS:    4677231  HIT %:    39.0719  MISS %:    60.9281   MPKI: 46.7723
L2C LOAD      ACCESS:    3221127  HIT:     967246  MISS:    2253881  HIT %:    30.0282  MISS %:    69.9718   MPKI: 22.5388
L2C DATA LOAD MPKI: 22.5388
L2C INSTRUCTION LOAD MPKI: 0
L2C RFO       ACCESS:      34945  HIT:      31724  MISS:       3221  HIT %:    90.7827  MISS %:    9.21734   MPKI: 0.03221
L2C PREFETCH  ACCESS:    2811871  HIT:     726113  MISS:    2085758  HIT %:    25.8231  MISS %:    74.1769   MPKI: 20.8576
L2C DATA PREFETCH MPKI: 20.8576
L2C INSTRUCTION PREFETCH MPKI: 0
L2C WRITEBACK ACCESS:     268225  HIT:     266948  MISS:       1277  HIT %:    99.5239  MISS %:   0.476093   MPKI: 0.01277
L2C LOAD TRANSLATION ACCESS:    1340038  HIT:    1007200  MISS:     332838  HIT %:     75.162  MISS %:     24.838   MPKI: 3.32838
L2C TRANSLATION FROM L1D PREFETCHER ACCESS:        432  HIT:        176  MISS:        256  HIT %:    40.7407  MISS %:    59.2593   MPKI: 0.00256
L2C PREFETCH  REQUESTED:          0  ISSUED:          0  USEFUL:      42586  USELESS:    2041824
L2C USEFUL LOAD PREFETCHES:      42586 PREFETCH ISSUED TO LOWER LEVEL:    2085758  ACCURACY: 2.04175
L2C TIMELY PREFETCHES:      42586 LATE PREFETCHES: 0 DROPPED PREFETCHES: 0
L2C PREFETCHES SAME FILL-ORIGIN LEVEL: 0 DIFFERENT FILL-ORIGIN LEVEL: 0
L2C AVERAGE MISS LATENCY: 164.52 cycles
L2C RQ	ACCESS:    4596551	FORWARD:          0	MERGED:          0	TO_CACHE:    4596542
L2C WQ	ACCESS:     268225	FORWARD:         17	MERGED:          0	TO_CACHE:     268225
L2C PQ	ACCESS:    2811879	FORWARD:          0	MERGED:          0	TO_CACHE:    2811871

L2C Instructions Evicting Data 0
L2C Translations Evicting Data 304098
L2C Data Evicting Data 4037471
L2C Instructions Evicting Instructions 0
L2C Translations Evicting Instructions 0
L2C Data Evicting Instructions 0
L2C Instructions Evicting Translations 0
L2C Translations Evicting Translations 28996
L2C Data Evicting Translations 305389
L2C Dense regions hint from L2: 0
PSCL5 TOTAL     ACCESS:     807849  HIT:     807849  MISS:          0  HIT %:        100  MISS %:          0   MPKI: 0
PSCL5 LOAD TRANSLATION ACCESS:     807597  HIT:     807597  MISS:          0  HIT %:        100  MISS %:          0   MPKI: 0
PSCL5 TRANSLATION FROM L1D PREFETCHER ACCESS:        252  HIT:        252  MISS:          0  HIT %:        100  MISS %:          0   MPKI: 0
PSCL5 PREFETCH  REQUESTED:          0  ISSUED:          0  USEFUL:          0  USELESS:          0
PSCL5 USEFUL LOAD PREFETCHES:          0 PREFETCH ISSUED TO LOWER LEVEL:          0  ACCURACY: -nan
PSCL5 TIMELY PREFETCHES:          0 LATE PREFETCHES: 0 DROPPED PREFETCHES: 0
PSCL5 PREFETCHES SAME FILL-ORIGIN LEVEL: 0 DIFFERENT FILL-ORIGIN LEVEL: 0

PSCL4 TOTAL     ACCESS:     807849  HIT:     807849  MISS:          0  HIT %:        100  MISS %:          0   MPKI: 0
PSCL4 LOAD TRANSLATION ACCESS:     807597  HIT:     807597  MISS:          0  HIT %:        100  MISS %:          0   MPKI: 0
PSCL4 TRANSLATION FROM L1D PREFETCHER ACCESS:        252  HIT:        252  MISS:          0  HIT %:        100  MISS %:          0   MPKI: 0
PSCL4 PREFETCH  REQUESTED:          0  ISSUED:          0  USEFUL:          0  USELESS:          0
PSCL4 USEFUL LOAD PREFETCHES:          0 PREFETCH ISSUED TO LOWER LEVEL:          0  ACCURACY: -nan
PSCL4 TIMELY PREFETCHES:          0 LATE PREFETCHES: 0 DROPPED PREFETCHES: 0
PSCL4 PREFETCHES SAME FILL-ORIGIN LEVEL: 0 DIFFERENT FILL-ORIGIN LEVEL: 0

PSCL3 TOTAL     ACCESS:     807849  HIT:     807849  MISS:          0  HIT %:        100  MISS %:          0   MPKI: 0
PSCL3 LOAD TRANSLATION ACCESS:     807597  HIT:     807597  MISS:          0  HIT %:        100  MISS %:          0   MPKI: 0
PSCL3 TRANSLATION FROM L1D PREFETCHER ACCESS:        252  HIT:        252  MISS:          0  HIT %:        100  MISS %:          0   MPKI: 0
PSCL3 PREFETCH  REQUESTED:          0  ISSUED:          0  USEFUL:          0  USELESS:          0
PSCL3 USEFUL LOAD PREFETCHES:          0 PREFETCH ISSUED TO LOWER LEVEL:          0  ACCURACY: -nan
PSCL3 TIMELY PREFETCHES:          0 LATE PREFETCHES: 0 DROPPED PREFETCHES: 0
PSCL3 PREFETCHES SAME FILL-ORIGIN LEVEL: 0 DIFFERENT FILL-ORIGIN LEVEL: 0

PSCL2 TOTAL     ACCESS:     807849  HIT:     275221  MISS:     532628  HIT %:    34.0684  MISS %:    65.9316   MPKI: 5.32628
PSCL2 LOAD TRANSLATION ACCESS:     807777  HIT:     275149  MISS:     532628  HIT %:    34.0625  MISS %:    65.9375   MPKI: 5.32628
PSCL2 TRANSLATION FROM L1D PREFETCHER ACCESS:         72  HIT:         72  MISS:          0  HIT %:        100  MISS %:          0   MPKI: 0
PSCL2 PREFETCH  REQUESTED:          0  ISSUED:          0  USEFUL:          0  USELESS:          0
PSCL2 USEFUL LOAD PREFETCHES:          0 PREFETCH ISSUED TO LOWER LEVEL:          0  ACCURACY: -nan
PSCL2 TIMELY PREFETCHES:          0 LATE PREFETCHES: 0 DROPPED PREFETCHES: 0
PSCL2 PREFETCHES SAME FILL-ORIGIN LEVEL: 0 DIFFERENT FILL-ORIGIN LEVEL: 0

LLC TOTAL     ACCESS:    4822633  HIT:    1300923  MISS:    3521710  HIT %:    26.9754  MISS %:    73.0246   MPKI: 35.2171
LLC LOAD      ACCESS:    2253881  HIT:     681430  MISS:    1572451  HIT %:    30.2336  MISS %:    69.7664   MPKI: 15.7245
LLC RFO       ACCESS:       3221  HIT:       1984  MISS:       1237  HIT %:    61.5958  MISS %:    38.4042   MPKI: 0.01237
LLC PREFETCH  ACCESS:    2085758  HIT:     388520  MISS:    1697238  HIT %:    18.6273  MISS %:    81.3727   MPKI: 16.9724
LLC WRITEBACK ACCESS:     146679  HIT:     129363  MISS:      17316  HIT %:    88.1946  MISS %:    11.8054   MPKI: 0.17316
LLC LOAD TRANSLATION ACCESS:     332838  HIT:      99404  MISS:     233434  HIT %:    29.8656  MISS %:    70.1344   MPKI: 2.33434
LLC TRANSLATION FROM L1D PREFETCHER ACCESS:        256  HIT:        222  MISS:         34  HIT %:    86.7188  MISS %:    13.2812   MPKI: 0.00034
LLC PREFETCH  REQUESTED:          0  ISSUED:          0  USEFUL:      29846  USELESS:    1657418
LLC USEFUL LOAD PREFETCHES:      29846 PREFETCH ISSUED TO LOWER LEVEL:    1697238  ACCURACY: 1.7585
LLC TIMELY PREFETCHES:      29846 LATE PREFETCHES: 0 DROPPED PREFETCHES: 0
LLC PREFETCHES SAME FILL-ORIGIN LEVEL: 0 DIFFERENT FILL-ORIGIN LEVEL: 0
LLC AVERAGE MISS LATENCY: 178.386 cycles
LLC RQ	ACCESS:    2590196	FORWARD:          0	MERGED:          0	TO_CACHE:    2590196
LLC WQ	ACCESS:     146679	FORWARD:          0	MERGED:          0	TO_CACHE:     146679
LLC PQ	ACCESS:    2085758	FORWARD:          0	MERGED:          0	TO_CACHE:    2085758

LLC Dense regions hint to LLC: 0

RAW hits: 856720
Loads Generated: 34697014
Loads sent to L1D: 33840291
Stores Generated: 10094507
Stores sent to L1D: 10094511
Major fault: 0 Minor fault: 167017
Allocated PAGES: 167017

stream: 
stream:times selected: 9370184
stream:pref_filled: 2597819
stream:pref_useful: 474845
stream:pref_late: 278648
stream:misses: 945570
stream:misses_by_poll: 0

CS: 
CS:times selected: 182863
CS:pref_filled: 110708
CS:pref_useful: 105771
CS:pref_late: 9
CS:misses: 1486
CS:misses_by_poll: 3

CPLX: 
CPLX:times selected: 9098634
CPLX:pref_filled: 812366
CPLX:pref_useful: 38403
CPLX:pref_late: 1746
CPLX:misses: 2796215
CPLX:misses_by_poll: 6031

NL_L1: 
NL:times selected: 89947
NL:pref_filled: 31474
NL:pref_useful: 7768
NL:pref_late: 4427
NL:misses: 37194
NL:misses_by_poll: 4

total selections: 18741628
total_filled: 2512083
total_useful: 323312
total_late: 312694
total_polluted: 6038
total_misses_after_warmup: 2760270
conflicts: 62201
Degree Incremented Times: 110776
Degree Decremented Times: 368339

L1 IP Table Write Accesses: 19765520
L1 IP Table Read Accesses: 19703319
L1 RST Write Accesses: 6459653
L1 RST Read Accesses: 12919306
L1 CSPT Write Accesses: 6459653
L1 CSPT Read Accesses: 12817798
L1 RR Filter Tag Write Accesses: 5404424
L1 RR Filter Tag Read Accesses: 214105868
L1 IP Table Tag Write Accesses: 21767700
L1 IP Table Tag Read Accesses: 21767700
L1 RST Tag Write Accesses: 0
L1 RST Tag Read Accesses: 58611037
L1 RR Filter Write Accesses: 0
L1 RR Filter Read Accesses: 7544797
test: 5836521

DRAM Statistics
 CHANNEL 0
 RQ ROW_BUFFER_HIT:     219933  ROW_BUFFER_MISS:    3284454
 DBUS_CONGESTED:        281
 WQ ROW_BUFFER_HIT:      36163  ROW_BUFFER_MISS:      75341  FULL:          0

 AVG_CONGESTED_CYCLE: 3
 All warmup complete: 2
Channel 0 Bank busy for read cycles: 0
Channel 0 Bank busy for write cycles: 0
Channel 0
Rank 0
0banks busy for read cycles: 179954941
0banks busy for write cycles: 82955
1banks busy for read cycles: 93692175
1banks busy for write cycles: 17719419
2banks busy for read cycles: 67567861
2banks busy for write cycles: 3605398
3banks busy for read cycles: 43099898
3banks busy for write cycles: 800381
4banks busy for read cycles: 18057373
4banks busy for write cycles: 192944
5banks busy for read cycles: 8305221
5banks busy for write cycles: 49244
6banks busy for read cycles: 3696735
6banks busy for write cycles: 18798
7banks busy for read cycles: 1112263
7banks busy for write cycles: 6222
8banks busy for read cycles: 227217
8banks busy for write cycles: 4907

CPU 0 Branch Prediction Accuracy: 94.6877% MPKI: 13.1818 Average ROB Occupancy at Mispredict: 23.4026
Branch types
NOT_BRANCH: 75185764 75.1858%
BRANCH_DIRECT_JUMP: 2277732 2.27773%
BRANCH_INDIRECT: 0 0%
BRANCH_CONDITIONAL: 16248591 16.2486%
BRANCH_DIRECT_CALL: 3040680 3.04068%
BRANCH_INDIRECT_CALL: 103096 0.103096%
BRANCH_RETURN: 3143767 3.14377%
BRANCH_OTHER: 0 0%

DRAM PAGES: 1048576
Allocated PAGES: 167017
