
*** ChampSim Multicore Out-of-Order Simulator ***

Warmup Instructions: 50000000
Simulation Instructions: 100000000
Number of CPUs: 1
LLC sets: 2048
LLC ways: 16
Off-chip DRAM Size: 4096 MB Channels: 1 Width: 64-bit Data Rate: 6400 MT/s
CPU 0 runs ../SPEC2017//605.mcf_s-782B.champsimtrace.xz
.xz
BTB has LRU replacement policy
ITLB has LRU replacement policy
DTLB has LRU replacement policy
STLB has LRU replacement policy
L1I has LRU replacement policy
IP Table Entries: 64
L1D has LRU replacement policy
Initialize SRRIP state for L2C
Initialize DRRIP state for LLC
Heartbeat CPU 0 instructions: 10000001 cycles: 3777406 heartbeat IPC: 2.64732 cumulative IPC: 2.64732 (Simulation time: 0 hr 4 min 8 sec) 
Heartbeat CPU 0 instructions: 20000000 cycles: 7527106 heartbeat IPC: 2.66688 cumulative IPC: 2.65706 (Simulation time: 0 hr 7 min 52 sec) 
Heartbeat CPU 0 instructions: 30000000 cycles: 11333735 heartbeat IPC: 2.627 cumulative IPC: 2.64697 (Simulation time: 0 hr 11 min 36 sec) 
Heartbeat CPU 0 instructions: 40000002 cycles: 15112965 heartbeat IPC: 2.64604 cumulative IPC: 2.64673 (Simulation time: 0 hr 15 min 12 sec) 
Heartbeat CPU 0 instructions: 50000000 cycles: 18928635 heartbeat IPC: 2.62077 cumulative IPC: 2.6415 (Simulation time: 0 hr 18 min 32 sec) 

Warmup complete CPU 0 instructions: 50000001 cycles: 18928636 (Simulation time: 0 hr 18 min 32 sec) 

Heartbeat CPU 0 instructions: 60000000 cycles: 71743286 heartbeat IPC: 0.189341 cumulative IPC: 0.189341 (Simulation time: 0 hr 24 min 40 sec) 
Heartbeat CPU 0 instructions: 70000002 cycles: 124288051 heartbeat IPC: 0.190314 cumulative IPC: 0.189826 (Simulation time: 0 hr 30 min 47 sec) 
Heartbeat CPU 0 instructions: 80000002 cycles: 177418931 heartbeat IPC: 0.188214 cumulative IPC: 0.189286 (Simulation time: 0 hr 36 min 52 sec) 
Heartbeat CPU 0 instructions: 90000000 cycles: 233665083 heartbeat IPC: 0.17779 cumulative IPC: 0.186275 (Simulation time: 0 hr 42 min 48 sec) 
Heartbeat CPU 0 instructions: 100000001 cycles: 292942137 heartbeat IPC: 0.168699 cumulative IPC: 0.182473 (Simulation time: 0 hr 49 min 27 sec) 
Heartbeat CPU 0 instructions: 110000000 cycles: 353234818 heartbeat IPC: 0.165858 cumulative IPC: 0.179476 (Simulation time: 1 hr 1 min 27 sec) 
Heartbeat CPU 0 instructions: 120000000 cycles: 410684366 heartbeat IPC: 0.174066 cumulative IPC: 0.178683 (Simulation time: 1 hr 12 min 32 sec) 
Heartbeat CPU 0 instructions: 130000000 cycles: 465839445 heartbeat IPC: 0.181307 cumulative IPC: 0.179007 (Simulation time: 1 hr 22 min 0 sec) 
Heartbeat CPU 0 instructions: 140000001 cycles: 519466202 heartbeat IPC: 0.186474 cumulative IPC: 0.179807 (Simulation time: 1 hr 30 min 31 sec) 
Heartbeat CPU 0 instructions: 150000000 cycles: 573908130 heartbeat IPC: 0.183682 cumulative IPC: 0.180187 (Simulation time: 1 hr 38 min 9 sec) 
Finished CPU 0 instructions: 100000003 cycles: 554979508 cumulative IPC: 0.180187 (Simulation time: 1 hr 38 min 9 sec) 

ChampSim completed all CPUs

Region of Interest Statistics

CPU 0 cumulative IPC: 0.180187 instructions: 100000003 cycles: 554979508

CPU 0 Average Load ROB stall cycles: 1.02615e+08
CPU 0 Fraction of times ROB stalled by Loads: 34.8787
CPU 0 Percentage of Load stall cycles in Total stall cycles: 4.55914e+08
Issued all: 91631194
Issued LT all: 77155542
rob_not_full_when_issued_lt_all: 43882473
Issued LT one: 72260973
rob_not_full_when_issued_lt_one: 41712369
FVP critical_dynamic_instances_0: 29516500
FVP unique_critical_ips_0: 207
 Total stall cycles: 517048976
 Total load stall cycles: 2357299628016188
Unique Load IPs: 264
CPU 0 NUM of IPS identified critical: 0
CPU 0 Num of Load IPs stalling ROB: 0
Threshold modification factor: 0
Trouble in retire width: -nan
MaC = Marked as critical.
lt_50_percent_before_Mac: 0
gt_90_percent_before_Mac: 0
gt_75_percent_before_Mac: 0
gt_50_percent_before_Mac: 0
stall_proportion_bin_same_before_after: 0
stall_proportion_bin_lower_before_after: 0
stall_proportion_bin_upper_before_after: 0
average_stall_proportion_before: -nan
average_stall_proportion_after: -nan
Critical IP stalls, total frequency: 0
Non-critical IP stalls, total frequency: 0
Total Freq all stalling IPs: 0
Critical_IP_Detector_Accuracy_70: 0.00483092
Critical_IP_Detector_Accuracy_80: 0.00483092
Critical_IP_Detector_Accuracy_90: 0.00483092
Critical_IP_Detector_Coverage_70: 1
Critical_IP_Detector_Coverage_80: 1
Critical_IP_Detector_Coverage_90: 1
stat_90_percent_critical_ip_stalls_freq: 2616175
stat_90_percent_non_critical_ip_stalls_freq: 18446744073706935441
AVERAGE_ROB_Occupancy_90_Percent_Critical_IP_Stalls: 100.301
AVERAGE_ROB_Occupancy_90_Percent_Non_Critical_IP_Stalls: 2.81889e-11
Critical_IP_ROB_Stalls_Bucket_0: 0
Non-critical_IP_ROB_Stalls_Bucket_0: 4161544
Critical_IP_ROB_Stalls_Bucket_1: 0
Non-critical_IP_ROB_Stalls_Bucket_1: 1283873
Critical_IP_ROB_Stalls_Bucket_2: 0
Non-critical_IP_ROB_Stalls_Bucket_2: 597923
Critical_IP_ROB_Stalls_Bucket_3: 0
Non-critical_IP_ROB_Stalls_Bucket_3: 455149
Critical_IP_ROB_Stalls_Bucket_4: 0
Non-critical_IP_ROB_Stalls_Bucket_4: 344092
Critical_IP_ROB_Stalls_Bucket_5: 0
Non-critical_IP_ROB_Stalls_Bucket_5: 268404
Critical_IP_ROB_Stalls_Bucket_6: 0
Non-critical_IP_ROB_Stalls_Bucket_6: 901458
0 => IPs accounting for >50 percent of stalls, 1 => 55, 2 => 60, 3 => 65 and so on till 90.
percent50: inf num IPs:  1
percent55: inf num IPs: 1
percent60: inf num IPs: 1
percent65: inf num IPs: 1
percent70: inf num IPs: 1
percent75: inf num IPs: 1
percent80: inf num IPs: 1
percent85: inf num IPs: 1
percent90: inf num IPs: 1
Critical_ROB_Stalls_Percent_0_Bucket_0: 1190562
Non-critical_ROB_Stalls_Percent_0_Bucket_0: 2970982
Critical_ROB_Stalls_Percent_0_Bucket_1: 576113
Non-critical_ROB_Stalls_Percent_0_Bucket_1: 707760
Critical_ROB_Stalls_Percent_0_Bucket_2: 219711
Non-critical_ROB_Stalls_Percent_0_Bucket_2: 378212
Critical_ROB_Stalls_Percent_0_Bucket_3: 132569
Non-critical_ROB_Stalls_Percent_0_Bucket_3: 322580
Critical_ROB_Stalls_Percent_0_Bucket_4: 133822
Non-critical_ROB_Stalls_Percent_0_Bucket_4: 210270
Critical_ROB_Stalls_Percent_0_Bucket_5: 94125
Non-critical_ROB_Stalls_Percent_0_Bucket_5: 174279
Critical_ROB_Stalls_Percent_0_Bucket_6: 269273
Non-critical_ROB_Stalls_Percent_0_Bucket_6: 632185
Critical_ROB_Stalls_Percent_1_Bucket_0: 1190562
Non-critical_ROB_Stalls_Percent_1_Bucket_0: 2970982
Critical_ROB_Stalls_Percent_1_Bucket_1: 576113
Non-critical_ROB_Stalls_Percent_1_Bucket_1: 707760
Critical_ROB_Stalls_Percent_1_Bucket_2: 219711
Non-critical_ROB_Stalls_Percent_1_Bucket_2: 378212
Critical_ROB_Stalls_Percent_1_Bucket_3: 132569
Non-critical_ROB_Stalls_Percent_1_Bucket_3: 322580
Critical_ROB_Stalls_Percent_1_Bucket_4: 133822
Non-critical_ROB_Stalls_Percent_1_Bucket_4: 210270
Critical_ROB_Stalls_Percent_1_Bucket_5: 94125
Non-critical_ROB_Stalls_Percent_1_Bucket_5: 174279
Critical_ROB_Stalls_Percent_1_Bucket_6: 269273
Non-critical_ROB_Stalls_Percent_1_Bucket_6: 632185
Critical_ROB_Stalls_Percent_2_Bucket_0: 1190562
Non-critical_ROB_Stalls_Percent_2_Bucket_0: 2970982
Critical_ROB_Stalls_Percent_2_Bucket_1: 576113
Non-critical_ROB_Stalls_Percent_2_Bucket_1: 707760
Critical_ROB_Stalls_Percent_2_Bucket_2: 219711
Non-critical_ROB_Stalls_Percent_2_Bucket_2: 378212
Critical_ROB_Stalls_Percent_2_Bucket_3: 132569
Non-critical_ROB_Stalls_Percent_2_Bucket_3: 322580
Critical_ROB_Stalls_Percent_2_Bucket_4: 133822
Non-critical_ROB_Stalls_Percent_2_Bucket_4: 210270
Critical_ROB_Stalls_Percent_2_Bucket_5: 94125
Non-critical_ROB_Stalls_Percent_2_Bucket_5: 174279
Critical_ROB_Stalls_Percent_2_Bucket_6: 269273
Non-critical_ROB_Stalls_Percent_2_Bucket_6: 632185
Critical_ROB_Stalls_Percent_3_Bucket_0: 1190562
Non-critical_ROB_Stalls_Percent_3_Bucket_0: 2970982
Critical_ROB_Stalls_Percent_3_Bucket_1: 576113
Non-critical_ROB_Stalls_Percent_3_Bucket_1: 707760
Critical_ROB_Stalls_Percent_3_Bucket_2: 219711
Non-critical_ROB_Stalls_Percent_3_Bucket_2: 378212
Critical_ROB_Stalls_Percent_3_Bucket_3: 132569
Non-critical_ROB_Stalls_Percent_3_Bucket_3: 322580
Critical_ROB_Stalls_Percent_3_Bucket_4: 133822
Non-critical_ROB_Stalls_Percent_3_Bucket_4: 210270
Critical_ROB_Stalls_Percent_3_Bucket_5: 94125
Non-critical_ROB_Stalls_Percent_3_Bucket_5: 174279
Critical_ROB_Stalls_Percent_3_Bucket_6: 269273
Non-critical_ROB_Stalls_Percent_3_Bucket_6: 632185
Critical_ROB_Stalls_Percent_4_Bucket_0: 1190562
Non-critical_ROB_Stalls_Percent_4_Bucket_0: 2970982
Critical_ROB_Stalls_Percent_4_Bucket_1: 576113
Non-critical_ROB_Stalls_Percent_4_Bucket_1: 707760
Critical_ROB_Stalls_Percent_4_Bucket_2: 219711
Non-critical_ROB_Stalls_Percent_4_Bucket_2: 378212
Critical_ROB_Stalls_Percent_4_Bucket_3: 132569
Non-critical_ROB_Stalls_Percent_4_Bucket_3: 322580
Critical_ROB_Stalls_Percent_4_Bucket_4: 133822
Non-critical_ROB_Stalls_Percent_4_Bucket_4: 210270
Critical_ROB_Stalls_Percent_4_Bucket_5: 94125
Non-critical_ROB_Stalls_Percent_4_Bucket_5: 174279
Critical_ROB_Stalls_Percent_4_Bucket_6: 269273
Non-critical_ROB_Stalls_Percent_4_Bucket_6: 632185
Critical_ROB_Stalls_Percent_5_Bucket_0: 1190562
Non-critical_ROB_Stalls_Percent_5_Bucket_0: 2970982
Critical_ROB_Stalls_Percent_5_Bucket_1: 576113
Non-critical_ROB_Stalls_Percent_5_Bucket_1: 707760
Critical_ROB_Stalls_Percent_5_Bucket_2: 219711
Non-critical_ROB_Stalls_Percent_5_Bucket_2: 378212
Critical_ROB_Stalls_Percent_5_Bucket_3: 132569
Non-critical_ROB_Stalls_Percent_5_Bucket_3: 322580
Critical_ROB_Stalls_Percent_5_Bucket_4: 133822
Non-critical_ROB_Stalls_Percent_5_Bucket_4: 210270
Critical_ROB_Stalls_Percent_5_Bucket_5: 94125
Non-critical_ROB_Stalls_Percent_5_Bucket_5: 174279
Critical_ROB_Stalls_Percent_5_Bucket_6: 269273
Non-critical_ROB_Stalls_Percent_5_Bucket_6: 632185
Critical_ROB_Stalls_Percent_6_Bucket_0: 1190562
Non-critical_ROB_Stalls_Percent_6_Bucket_0: 2970982
Critical_ROB_Stalls_Percent_6_Bucket_1: 576113
Non-critical_ROB_Stalls_Percent_6_Bucket_1: 707760
Critical_ROB_Stalls_Percent_6_Bucket_2: 219711
Non-critical_ROB_Stalls_Percent_6_Bucket_2: 378212
Critical_ROB_Stalls_Percent_6_Bucket_3: 132569
Non-critical_ROB_Stalls_Percent_6_Bucket_3: 322580
Critical_ROB_Stalls_Percent_6_Bucket_4: 133822
Non-critical_ROB_Stalls_Percent_6_Bucket_4: 210270
Critical_ROB_Stalls_Percent_6_Bucket_5: 94125
Non-critical_ROB_Stalls_Percent_6_Bucket_5: 174279
Critical_ROB_Stalls_Percent_6_Bucket_6: 269273
Non-critical_ROB_Stalls_Percent_6_Bucket_6: 632185
Critical_ROB_Stalls_Percent_7_Bucket_0: 1190562
Non-critical_ROB_Stalls_Percent_7_Bucket_0: 2970982
Critical_ROB_Stalls_Percent_7_Bucket_1: 576113
Non-critical_ROB_Stalls_Percent_7_Bucket_1: 707760
Critical_ROB_Stalls_Percent_7_Bucket_2: 219711
Non-critical_ROB_Stalls_Percent_7_Bucket_2: 378212
Critical_ROB_Stalls_Percent_7_Bucket_3: 132569
Non-critical_ROB_Stalls_Percent_7_Bucket_3: 322580
Critical_ROB_Stalls_Percent_7_Bucket_4: 133822
Non-critical_ROB_Stalls_Percent_7_Bucket_4: 210270
Critical_ROB_Stalls_Percent_7_Bucket_5: 94125
Non-critical_ROB_Stalls_Percent_7_Bucket_5: 174279
Critical_ROB_Stalls_Percent_7_Bucket_6: 269273
Non-critical_ROB_Stalls_Percent_7_Bucket_6: 632185
Critical_ROB_Stalls_Percent_8_Bucket_0: 1190562
Non-critical_ROB_Stalls_Percent_8_Bucket_0: 2970982
Critical_ROB_Stalls_Percent_8_Bucket_1: 576113
Non-critical_ROB_Stalls_Percent_8_Bucket_1: 707760
Critical_ROB_Stalls_Percent_8_Bucket_2: 219711
Non-critical_ROB_Stalls_Percent_8_Bucket_2: 378212
Critical_ROB_Stalls_Percent_8_Bucket_3: 132569
Non-critical_ROB_Stalls_Percent_8_Bucket_3: 322580
Critical_ROB_Stalls_Percent_8_Bucket_4: 133822
Non-critical_ROB_Stalls_Percent_8_Bucket_4: 210270
Critical_ROB_Stalls_Percent_8_Bucket_5: 94125
Non-critical_ROB_Stalls_Percent_8_Bucket_5: 174279
Critical_ROB_Stalls_Percent_8_Bucket_6: 269273
Non-critical_ROB_Stalls_Percent_8_Bucket_6: 632185
Average ROB occupancy Load Stall Begin: 88.8663
Average ROB occupancy Load Stall End: 97.6481
Min ROB occupancy Load Stall Begin: 1
Max ROB occupancy Load Stall Begin: 352
Min ROB occupancy Load Stall End: 1
Max ROB occupancy Load Stall End: 352
Average ROB occupancy Critical Load Stall Begin: -nan
Average ROB occupancy Critical Load Stall End: -nan
Min ROB occupancy Critical Load Stall Begin: 400
Max ROB occupancy Critical Load Stall Begin: 0
Min ROB occupancy Critical Load Stall End: 400
Max ROB occupancy Critical Load Stall End: 0
 ROB Load Stall Begin Bucket Count 0: 4510734
 ROB Load Stall End Bucket Count 0: 4161544
 ROB Critical Load Stall Begin Bucket Count 0: 0
 ROB Critical Load Stall End Bucket Count 0: 0
 ROB Load Stall Begin Bucket Count 1: 1131484
 ROB Load Stall End Bucket Count 1: 1283873
 ROB Critical Load Stall Begin Bucket Count 1: 0
 ROB Critical Load Stall End Bucket Count 1: 0
 ROB Load Stall Begin Bucket Count 2: 545616
 ROB Load Stall End Bucket Count 2: 597923
 ROB Critical Load Stall Begin Bucket Count 2: 0
 ROB Critical Load Stall End Bucket Count 2: 0
 ROB Load Stall Begin Bucket Count 3: 433180
 ROB Load Stall End Bucket Count 3: 455149
 ROB Critical Load Stall Begin Bucket Count 3: 0
 ROB Critical Load Stall End Bucket Count 3: 0
 ROB Load Stall Begin Bucket Count 4: 309181
 ROB Load Stall End Bucket Count 4: 344092
 ROB Critical Load Stall Begin Bucket Count 4: 0
 ROB Critical Load Stall End Bucket Count 4: 0
 ROB Load Stall Begin Bucket Count 5: 290310
 ROB Load Stall End Bucket Count 5: 268404
 ROB Critical Load Stall Begin Bucket Count 5: 0
 ROB Critical Load Stall End Bucket Count 5: 0
 ROB Load Stall Begin Bucket Count 6: 791938
 ROB Load Stall End Bucket Count 6: 901458
 ROB Critical Load Stall Begin Bucket Count 6: 0
 ROB Critical Load Stall End Bucket Count 6: 0
PIST Tag Read Accesses: 0
PIST Read Accesses: 0
PIST Tag Write Accesses: 0
PIST Write Accesses: 0
Criticality detector called times: 0
Max global_stall_cycles_count: 0
Threshold Modified: 0 times, factor: 0
ITLB TOTAL     ACCESS:   16387047  HIT:   16387047  MISS:          0  HIT %:        100  MISS %:          0   MPKI: 0
ITLB LOAD TRANSLATION ACCESS:   16387047  HIT:   16387047  MISS:          0  HIT %:        100  MISS %:          0   MPKI: 0
ITLB PREFETCH  REQUESTED:          0  ISSUED:          0  USEFUL:          0  USELESS:          0
ITLB USEFUL LOAD PREFETCHES:          0 PREFETCH ISSUED TO LOWER LEVEL:          0  ACCURACY: -nan
ITLB TIMELY PREFETCHES:          0 LATE PREFETCHES: 0 DROPPED PREFETCHES: 0
ITLB PREFETCHES SAME FILL-ORIGIN LEVEL: 0 DIFFERENT FILL-ORIGIN LEVEL: 0
ITLB AVERAGE MISS LATENCY: -nan cycles
ITLB RQ	ACCESS:   16605938	FORWARD:          0	MERGED:     218892	TO_CACHE:   16387046

DTLB TOTAL     ACCESS:   21138533  HIT:   12616718  MISS:    8521815  HIT %:    59.6859  MISS %:    40.3141   MPKI: 85.2181
DTLB LOAD TRANSLATION ACCESS:   21138533  HIT:   12616718  MISS:    8521815  HIT %:    59.6859  MISS %:    40.3141   MPKI: 85.2181
DTLB PREFETCH  REQUESTED:          0  ISSUED:          0  USEFUL:          0  USELESS:          0
DTLB USEFUL LOAD PREFETCHES:          0 PREFETCH ISSUED TO LOWER LEVEL:          0  ACCURACY: -nan
DTLB TIMELY PREFETCHES:          0 LATE PREFETCHES: 0 DROPPED PREFETCHES: 0
DTLB PREFETCHES SAME FILL-ORIGIN LEVEL: 0 DIFFERENT FILL-ORIGIN LEVEL: 0
DTLB AVERAGE MISS LATENCY: 11.2647 cycles
DTLB RQ	ACCESS:   23433836	FORWARD:          0	MERGED:    2161883	TO_CACHE:   21271953

STLB TOTAL     ACCESS:   22034874  HIT:   21921721  MISS:     113153  HIT %:    99.4865  MISS %:   0.513518   MPKI: 1.13153
STLB LOAD TRANSLATION ACCESS:    8521815  HIT:    8408662  MISS:     113153  HIT %:    98.6722  MISS %:     1.3278   MPKI: 1.13153
STLB TRANSLATION FROM L1D PREFETCHER ACCESS:   13513059  HIT:   13513059  MISS:          0  HIT %:        100  MISS %:          0   MPKI: 0
STLB PREFETCH  REQUESTED:          0  ISSUED:          0  USEFUL:          0  USELESS:          0
STLB USEFUL LOAD PREFETCHES:          0 PREFETCH ISSUED TO LOWER LEVEL:          0  ACCURACY: -nan
STLB TIMELY PREFETCHES:          0 LATE PREFETCHES: 0 DROPPED PREFETCHES: 0
STLB PREFETCHES SAME FILL-ORIGIN LEVEL: 0 DIFFERENT FILL-ORIGIN LEVEL: 0
STLB AVERAGE MISS LATENCY: 146.74 cycles
STLB RQ	ACCESS:   24554294	FORWARD:          0	MERGED:    2519419	TO_CACHE:   22034875

STLB Hit, L1D data hit: 0
STLB Hit, L2C data hit: 0
STLB Hit, LLC data hit: 0
STLB Hit, LLC data miss: 0
STLB STLB hints to L2: 0
L1D TOTAL     ACCESS:   36034300  HIT:   11533385  MISS:   24500915  HIT %:    32.0067  MISS %:    67.9933   MPKI: 245.009
L1D LOAD      ACCESS:   20888753  HIT:    8406988  MISS:   12481765  HIT %:    40.2465  MISS %:    59.7535   MPKI: 124.818
L1D RFO       ACCESS:    2034976  HIT:    1996735  MISS:      38241  HIT %:    98.1208  MISS %:    1.87919   MPKI: 0.38241
L1D PREFETCH  ACCESS:   13110571  HIT:    1129662  MISS:   11980909  HIT %:    8.61642  MISS %:    91.3836   MPKI: 119.809
L1D PREFETCH  REQUESTED:   32065244  ISSUED:   32065221  USEFUL:    2557083  USELESS:    9423582
L1D USEFUL LOAD PREFETCHES:    2557083 PREFETCH ISSUED TO LOWER LEVEL:   14007556  ACCURACY: 18.255
L1D TIMELY PREFETCHES:    2557083 LATE PREFETCHES: 2026644 DROPPED PREFETCHES: 0
L1D PREFETCHES SAME FILL-ORIGIN LEVEL: 14007556 DIFFERENT FILL-ORIGIN LEVEL: 0
L1D AVERAGE MISS LATENCY: 2.43319e+07 cycles
L1D RQ	ACCESS:   35643171	FORWARD:          0	MERGED:   13979565	TO_CACHE:   21320317
L1D WQ	ACCESS:    2185912	FORWARD:     343552	MERGED:      72393	TO_CACHE:    2113519
L1D PQ	ACCESS:   16032742	FORWARD:          0	MERGED:          0	TO_CACHE:   16032479

L1D UNIQUE REGIONS ACCESSED: 0
L1D REGIONS CONFLICTS: 0
L1D Cross Page Prefetch Requests: 0
L1D Same Page Prefetch Requests: 16821897
L1D ROI Sum of L1D PQ occupancy: 211870345
L1D PREFETCHES PUSHED FROM L2C: 0
L1I TOTAL     ACCESS:   16605938  HIT:   16605938  MISS:          0  HIT %:        100  MISS %:          0   MPKI: 0
L1I LOAD      ACCESS:   16605938  HIT:   16605938  MISS:          0  HIT %:        100  MISS %:          0   MPKI: 0
L1I PREFETCH  REQUESTED:          0  ISSUED:          0  USEFUL:          0  USELESS:          0
L1I USEFUL LOAD PREFETCHES:          0 PREFETCH ISSUED TO LOWER LEVEL:          0  ACCURACY: -nan
L1I TIMELY PREFETCHES:          0 LATE PREFETCHES: 0 DROPPED PREFETCHES: 0
L1I PREFETCHES SAME FILL-ORIGIN LEVEL: 0 DIFFERENT FILL-ORIGIN LEVEL: 0
L1I AVERAGE MISS LATENCY: -nan cycles
L1I RQ	ACCESS:   22208823	FORWARD:          0	MERGED:    5602885	TO_CACHE:   16605938

BTB TOTAL     ACCESS:   29634397  HIT:   29518849  MISS:     115548  HIT %:    99.6101  MISS %:   0.389912   MPKI: 1.15548
BTB BRANCH_DIRECT_JUMP	ACCESS:    3793757  HIT:    3793720  MISS:         37
BTB BRANCH_INDIRECT	ACCESS:          0  HIT:          0  MISS:          0
BTB BRANCH_CONDITIONAL	ACCESS:   24997970  HIT:   24997888  MISS:         82
BTB BRANCH_DIRECT_CALL	ACCESS:     389591  HIT:     389573  MISS:         18
BTB BRANCH_INDIRECT_CALL	ACCESS:      31744  HIT:      31736  MISS:          8
BTB BRANCH_RETURN	ACCESS:     421335  HIT:     305932  MISS:     115403
BTB BRANCH_OTHER ACCESS:          0  HIT:          0  MISS:          0

L2C TOTAL     ACCESS:   24925532  HIT:    4023455  MISS:   20902077  HIT %:    16.1419  MISS %:    83.8581   MPKI: 209.021
L2C LOAD      ACCESS:   10455098  HIT:    2038550  MISS:    8416548  HIT %:    19.4981  MISS %:    80.5019   MPKI: 84.1655
L2C DATA LOAD MPKI: 84.1655
L2C INSTRUCTION LOAD MPKI: 0
L2C RFO       ACCESS:      38238  HIT:      18385  MISS:      19853  HIT %:    48.0804  MISS %:    51.9196   MPKI: 0.19853
L2C PREFETCH  ACCESS:   14007556  HIT:    1581201  MISS:   12426355  HIT %:    11.2882  MISS %:    88.7118   MPKI: 124.264
L2C DATA PREFETCH MPKI: 124.264
L2C INSTRUCTION PREFETCH MPKI: 0
L2C WRITEBACK ACCESS:     310441  HIT:     308851  MISS:       1590  HIT %:    99.4878  MISS %:   0.512175   MPKI: 0.0159
L2C LOAD TRANSLATION ACCESS:     114199  HIT:      76468  MISS:      37731  HIT %:    66.9603  MISS %:    33.0397   MPKI: 0.37731
L2C PREFETCH  REQUESTED:          0  ISSUED:          0  USEFUL:     152070  USELESS:   12270361
L2C USEFUL LOAD PREFETCHES:     152070 PREFETCH ISSUED TO LOWER LEVEL:   12426355  ACCURACY: 1.22377
L2C TIMELY PREFETCHES:     152070 LATE PREFETCHES: 0 DROPPED PREFETCHES: 0
L2C PREFETCHES SAME FILL-ORIGIN LEVEL: 0 DIFFERENT FILL-ORIGIN LEVEL: 0
L2C AVERAGE MISS LATENCY: 111.431 cycles
L2C RQ	ACCESS:   10607557	FORWARD:          0	MERGED:          0	TO_CACHE:   10607534
L2C WQ	ACCESS:     310441	FORWARD:         23	MERGED:          0	TO_CACHE:     310441
L2C PQ	ACCESS:   14007556	FORWARD:          0	MERGED:          0	TO_CACHE:   14007556

L2C Instructions Evicting Data 0
L2C Translations Evicting Data 37668
L2C Data Evicting Data 20825058
L2C Instructions Evicting Instructions 0
L2C Translations Evicting Instructions 0
L2C Data Evicting Instructions 0
L2C Instructions Evicting Translations 0
L2C Translations Evicting Translations 63
L2C Data Evicting Translations 37698
L2C Dense regions hint from L2: 0
PSCL5 TOTAL     ACCESS:     113153  HIT:     113153  MISS:          0  HIT %:        100  MISS %:          0   MPKI: 0
PSCL5 LOAD TRANSLATION ACCESS:     113153  HIT:     113153  MISS:          0  HIT %:        100  MISS %:          0   MPKI: 0
PSCL5 PREFETCH  REQUESTED:          0  ISSUED:          0  USEFUL:          0  USELESS:          0
PSCL5 USEFUL LOAD PREFETCHES:          0 PREFETCH ISSUED TO LOWER LEVEL:          0  ACCURACY: -nan
PSCL5 TIMELY PREFETCHES:          0 LATE PREFETCHES: 0 DROPPED PREFETCHES: 0
PSCL5 PREFETCHES SAME FILL-ORIGIN LEVEL: 0 DIFFERENT FILL-ORIGIN LEVEL: 0

PSCL4 TOTAL     ACCESS:     113153  HIT:     113153  MISS:          0  HIT %:        100  MISS %:          0   MPKI: 0
PSCL4 LOAD TRANSLATION ACCESS:     113153  HIT:     113153  MISS:          0  HIT %:        100  MISS %:          0   MPKI: 0
PSCL4 PREFETCH  REQUESTED:          0  ISSUED:          0  USEFUL:          0  USELESS:          0
PSCL4 USEFUL LOAD PREFETCHES:          0 PREFETCH ISSUED TO LOWER LEVEL:          0  ACCURACY: -nan
PSCL4 TIMELY PREFETCHES:          0 LATE PREFETCHES: 0 DROPPED PREFETCHES: 0
PSCL4 PREFETCHES SAME FILL-ORIGIN LEVEL: 0 DIFFERENT FILL-ORIGIN LEVEL: 0

PSCL3 TOTAL     ACCESS:     113153  HIT:     113153  MISS:          0  HIT %:        100  MISS %:          0   MPKI: 0
PSCL3 LOAD TRANSLATION ACCESS:     113153  HIT:     113153  MISS:          0  HIT %:        100  MISS %:          0   MPKI: 0
PSCL3 PREFETCH  REQUESTED:          0  ISSUED:          0  USEFUL:          0  USELESS:          0
PSCL3 USEFUL LOAD PREFETCHES:          0 PREFETCH ISSUED TO LOWER LEVEL:          0  ACCURACY: -nan
PSCL3 TIMELY PREFETCHES:          0 LATE PREFETCHES: 0 DROPPED PREFETCHES: 0
PSCL3 PREFETCHES SAME FILL-ORIGIN LEVEL: 0 DIFFERENT FILL-ORIGIN LEVEL: 0

PSCL2 TOTAL     ACCESS:     113153  HIT:     111794  MISS:       1359  HIT %:     98.799  MISS %:    1.20103   MPKI: 0.01359
PSCL2 LOAD TRANSLATION ACCESS:     113153  HIT:     111794  MISS:       1359  HIT %:     98.799  MISS %:    1.20103   MPKI: 0.01359
PSCL2 PREFETCH  REQUESTED:          0  ISSUED:          0  USEFUL:          0  USELESS:          0
PSCL2 USEFUL LOAD PREFETCHES:          0 PREFETCH ISSUED TO LOWER LEVEL:          0  ACCURACY: -nan
PSCL2 TIMELY PREFETCHES:          0 LATE PREFETCHES: 0 DROPPED PREFETCHES: 0
PSCL2 PREFETCHES SAME FILL-ORIGIN LEVEL: 0 DIFFERENT FILL-ORIGIN LEVEL: 0

LLC TOTAL     ACCESS:   21108637  HIT:   11156887  MISS:    9951750  HIT %:    52.8546  MISS %:    47.1454   MPKI: 99.5175
LLC LOAD      ACCESS:    8416543  HIT:    5634548  MISS:    2781995  HIT %:    66.9461  MISS %:    33.0539   MPKI: 27.8199
LLC RFO       ACCESS:      19853  HIT:      17453  MISS:       2400  HIT %:    87.9111  MISS %:    12.0889   MPKI: 0.024
LLC PREFETCH  ACCESS:   12426354  HIT:    5340382  MISS:    7085972  HIT %:    42.9763  MISS %:    57.0237   MPKI: 70.8597
LLC WRITEBACK ACCESS:     208156  HIT:     152796  MISS:      55360  HIT %:    73.4046  MISS %:    26.5954   MPKI: 0.5536
LLC LOAD TRANSLATION ACCESS:      37731  HIT:      11708  MISS:      26023  HIT %:    31.0302  MISS %:    68.9698   MPKI: 0.26023
LLC PREFETCH  REQUESTED:          0  ISSUED:          0  USEFUL:      21537  USELESS:    7056046
LLC USEFUL LOAD PREFETCHES:      21537 PREFETCH ISSUED TO LOWER LEVEL:    7085972  ACCURACY: 0.303939
LLC TIMELY PREFETCHES:      21537 LATE PREFETCHES: 0 DROPPED PREFETCHES: 0
LLC PREFETCHES SAME FILL-ORIGIN LEVEL: 0 DIFFERENT FILL-ORIGIN LEVEL: 0
LLC AVERAGE MISS LATENCY: 170.145 cycles
LLC RQ	ACCESS:    8474131	FORWARD:          0	MERGED:          0	TO_CACHE:    8474126
LLC WQ	ACCESS:     208156	FORWARD:          6	MERGED:          0	TO_CACHE:     208156
LLC PQ	ACCESS:   12426355	FORWARD:          0	MERGED:          0	TO_CACHE:   12426354

LLC Dense regions hint to LLC: 0

RAW hits: 282843
Loads Generated: 35926015
Loads sent to L1D: 35643171
Stores Generated: 2185912
Stores sent to L1D: 2185912
Major fault: 0 Minor fault: 128515
Allocated PAGES: 128515

stream: 
stream:times selected: 18361479
stream:pref_filled: 9591294
stream:pref_useful: 142306
stream:pref_late: 70517
stream:misses: 2420273
stream:misses_by_poll: 0

CS: 
CS:times selected: 4751392
CS:pref_filled: 2416680
CS:pref_useful: 2383460
CS:pref_late: 1975689
CS:misses: 2563879
CS:misses_by_poll: 6091

CPLX: 
CPLX:times selected: 13485716
CPLX:pref_filled: 523076
CPLX:pref_useful: 68525
CPLX:pref_late: 8190
CPLX:misses: 8498133
CPLX:misses_by_poll: 612

NL_L1: 
NL:times selected: 7326
NL:pref_filled: 5611
NL:pref_useful: 95
NL:pref_late: 438
NL:misses: 7097
NL:misses_by_poll: 0

total selections: 36605913
total_filled: 11980909
total_useful: 2557083
total_late: 2080503
total_polluted: 6703
total_misses_after_warmup: 12753743
conflicts: 28848
Degree Incremented Times: 83046
Degree Decremented Times: 162885

L1 IP Table Write Accesses: 19442460
L1 IP Table Read Accesses: 19413612
L1 RST Write Accesses: 17531768
L1 RST Read Accesses: 35063536
L1 CSPT Write Accesses: 17531768
L1 CSPT Read Accesses: 30202576
L1 RR Filter Tag Write Accesses: 16032765
L1 RR Filter Tag Read Accesses: 958252626
L1 IP Table Tag Write Accesses: 19500470
L1 IP Table Tag Read Accesses: 19500470
L1 RST Tag Write Accesses: 0
L1 RST Tag Read Accesses: 158852487
L1 RR Filter Write Accesses: 0
L1 RR Filter Read Accesses: 32384710
test: 8758622

DRAM Statistics
 CHANNEL 0
 RQ ROW_BUFFER_HIT:    2593912  ROW_BUFFER_MISS:    7302430
 DBUS_CONGESTED:       2456
 WQ ROW_BUFFER_HIT:      29900  ROW_BUFFER_MISS:      45074  FULL:          0

 AVG_CONGESTED_CYCLE: 5
 All warmup complete: 2
Channel 0 Bank busy for read cycles: 0
Channel 0 Bank busy for write cycles: 0
Channel 0
Rank 0
0banks busy for read cycles: 110326624
0banks busy for write cycles: 42487
1banks busy for read cycles: 114575260
1banks busy for write cycles: 12525796
2banks busy for read cycles: 103458591
2banks busy for write cycles: 2729465
3banks busy for read cycles: 74603172
3banks busy for write cycles: 826023
4banks busy for read cycles: 56249519
4banks busy for write cycles: 339188
5banks busy for read cycles: 39105217
5banks busy for write cycles: 175790
6banks busy for read cycles: 23253014
6banks busy for write cycles: 120464
7banks busy for read cycles: 10714195
7banks busy for write cycles: 121754
8banks busy for read cycles: 5596042
8banks busy for write cycles: 216908

CPU 0 Branch Prediction Accuracy: 97.0234% MPKI: 8.99605 Average ROB Occupancy at Mispredict: 56.0814
Branch types
NOT_BRANCH: 69777207 69.7772%
BRANCH_DIRECT_JUMP: 3793757 3.79376%
BRANCH_INDIRECT: 0 0%
BRANCH_CONDITIONAL: 25586017 25.586%
BRANCH_DIRECT_CALL: 389591 0.389591%
BRANCH_INDIRECT_CALL: 31744 0.031744%
BRANCH_RETURN: 421335 0.421335%
BRANCH_OTHER: 0 0%

DRAM PAGES: 1048576
Allocated PAGES: 128515
