
*** ChampSim Multicore Out-of-Order Simulator ***

Warmup Instructions: 50000000
Simulation Instructions: 100000000
Number of CPUs: 1
LLC sets: 2048
LLC ways: 16
Off-chip DRAM Size: 4096 MB Channels: 1 Width: 64-bit Data Rate: 6400 MT/s
CPU 0 runs ../SPEC2017//605.mcf_s-484B.champsimtrace.xz
.xz
BTB has LRU replacement policy
ITLB has LRU replacement policy
DTLB has LRU replacement policy
STLB has LRU replacement policy
L1I has LRU replacement policy
IP Table Entries: 64
L1D has LRU replacement policy
Initialize SRRIP state for L2C
Initialize DRRIP state for LLC
Heartbeat CPU 0 instructions: 10000001 cycles: 3176191 heartbeat IPC: 3.14843 cumulative IPC: 3.14843 (Simulation time: 0 hr 5 min 29 sec) 
Heartbeat CPU 0 instructions: 20000003 cycles: 6384416 heartbeat IPC: 3.11699 cumulative IPC: 3.13263 (Simulation time: 0 hr 10 min 44 sec) 
Heartbeat CPU 0 instructions: 30000001 cycles: 9561855 heartbeat IPC: 3.14719 cumulative IPC: 3.13747 (Simulation time: 0 hr 16 min 0 sec) 
Heartbeat CPU 0 instructions: 40000000 cycles: 12724571 heartbeat IPC: 3.16184 cumulative IPC: 3.14352 (Simulation time: 0 hr 20 min 52 sec) 
Heartbeat CPU 0 instructions: 50000000 cycles: 15914730 heartbeat IPC: 3.13464 cumulative IPC: 3.14174 (Simulation time: 0 hr 25 min 15 sec) 

Warmup complete CPU 0 instructions: 50000004 cycles: 15914731 (Simulation time: 0 hr 25 min 15 sec) 

Heartbeat CPU 0 instructions: 60000003 cycles: 47449747 heartbeat IPC: 0.317108 cumulative IPC: 0.317108 (Simulation time: 0 hr 31 min 11 sec) 
Heartbeat CPU 0 instructions: 70000002 cycles: 81895259 heartbeat IPC: 0.290314 cumulative IPC: 0.30312 (Simulation time: 0 hr 37 min 34 sec) 
Heartbeat CPU 0 instructions: 80000000 cycles: 115951294 heartbeat IPC: 0.293634 cumulative IPC: 0.29989 (Simulation time: 0 hr 43 min 42 sec) 
Heartbeat CPU 0 instructions: 90000000 cycles: 145301303 heartbeat IPC: 0.340715 cumulative IPC: 0.309151 (Simulation time: 0 hr 49 min 41 sec) 
Heartbeat CPU 0 instructions: 100000000 cycles: 171588628 heartbeat IPC: 0.380411 cumulative IPC: 0.321184 (Simulation time: 0 hr 55 min 17 sec) 
Heartbeat CPU 0 instructions: 110000000 cycles: 196770371 heartbeat IPC: 0.397113 cumulative IPC: 0.331756 (Simulation time: 1 hr 0 min 25 sec) 
Heartbeat CPU 0 instructions: 120000001 cycles: 219831671 heartbeat IPC: 0.433627 cumulative IPC: 0.343277 (Simulation time: 1 hr 4 min 16 sec) 
Heartbeat CPU 0 instructions: 130000000 cycles: 243752676 heartbeat IPC: 0.418043 cumulative IPC: 0.351127 (Simulation time: 1 hr 7 min 3 sec) 
Heartbeat CPU 0 instructions: 140000001 cycles: 268606283 heartbeat IPC: 0.402356 cumulative IPC: 0.356165 (Simulation time: 1 hr 16 min 14 sec) 
Heartbeat CPU 0 instructions: 150000002 cycles: 291828891 heartbeat IPC: 0.430615 cumulative IPC: 0.362432 (Simulation time: 1 hr 24 min 47 sec) 
Finished CPU 0 instructions: 100000000 cycles: 275914161 cumulative IPC: 0.362432 (Simulation time: 1 hr 24 min 47 sec) 

ChampSim completed all CPUs

Region of Interest Statistics

CPU 0 cumulative IPC: 0.362432 instructions: 100000000 cycles: 275914161

CPU 0 Average Load ROB stall cycles: 5.39122e+07
CPU 0 Fraction of times ROB stalled by Loads: 32.6398
CPU 0 Percentage of Load stall cycles in Total stall cycles: 5.30574e+08
Issued all: 160224188
Issued LT all: 152454488
rob_not_full_when_issued_lt_all: 26077542
Issued LT one: 131173687
rob_not_full_when_issued_lt_one: 21399738
 Total stall cycles: 252888538
 Total load stall cycles: 1341761594929966
Unique Load IPs: 96
CPU 0 NUM of IPS identified critical: 11
CPU 0 Num of Load IPs stalling ROB: 0
Threshold modification factor: 0
Trouble in retire width: -nan
MaC = Marked as critical.
lt_50_percent_before_Mac: 8
gt_90_percent_before_Mac: 2
gt_75_percent_before_Mac: 0
gt_50_percent_before_Mac: 1
stall_proportion_bin_same_before_after: 0
stall_proportion_bin_lower_before_after: 0
stall_proportion_bin_upper_before_after: 0
average_stall_proportion_before: 0.0164587
average_stall_proportion_after: 0.0224984
Critical_IP_Detector_Accuracy_70: 0
Critical_IP_Detector_Accuracy_80: 0
Critical_IP_Detector_Accuracy_90: 0
Critical_IP_Detector_Coverage_70: 0
Critical_IP_Detector_Coverage_80: 0
Critical_IP_Detector_Coverage_90: 0
stat_90_percent_critical_ip_stalls_freq: 2259553
stat_90_percent_non_critical_ip_stalls_freq: 18446744073707292063
AVERAGE_ROB_Occupancy_90_Percent_Critical_IP_Stalls: 284.476
AVERAGE_ROB_Occupancy_90_Percent_Non_Critical_IP_Stalls: 8.48632e-11
Critical_IP_ROB_Stalls_Bucket_0: 210070
Non-critical_IP_ROB_Stalls_Bucket_0: 386849
Critical_IP_ROB_Stalls_Bucket_1: 134883
Non-critical_IP_ROB_Stalls_Bucket_1: 217531
Critical_IP_ROB_Stalls_Bucket_2: 38586
Non-critical_IP_ROB_Stalls_Bucket_2: 322073
Critical_IP_ROB_Stalls_Bucket_3: 36996
Non-critical_IP_ROB_Stalls_Bucket_3: 524419
Critical_IP_ROB_Stalls_Bucket_4: 27080
Non-critical_IP_ROB_Stalls_Bucket_4: 739062
Critical_IP_ROB_Stalls_Bucket_5: 62830
Non-critical_IP_ROB_Stalls_Bucket_5: 700506
Critical_IP_ROB_Stalls_Bucket_6: 495370
Non-critical_IP_ROB_Stalls_Bucket_6: 4227095
0 => IPs accounting for >50 percent of stalls, 1 => 55, 2 => 60, 3 => 65 and so on till 90.
percent50: inf num IPs:  1
percent55: inf num IPs: 1
percent60: inf num IPs: 1
percent65: inf num IPs: 1
percent70: inf num IPs: 1
percent75: inf num IPs: 1
percent80: inf num IPs: 1
percent85: inf num IPs: 1
percent90: inf num IPs: 1
Critical_ROB_Stalls_Percent_0_Bucket_0: 102086
Non-critical_ROB_Stalls_Percent_0_Bucket_0: 494833
Critical_ROB_Stalls_Percent_0_Bucket_1: 58183
Non-critical_ROB_Stalls_Percent_0_Bucket_1: 294231
Critical_ROB_Stalls_Percent_0_Bucket_2: 107946
Non-critical_ROB_Stalls_Percent_0_Bucket_2: 252713
Critical_ROB_Stalls_Percent_0_Bucket_3: 133110
Non-critical_ROB_Stalls_Percent_0_Bucket_3: 428305
Critical_ROB_Stalls_Percent_0_Bucket_4: 252044
Non-critical_ROB_Stalls_Percent_0_Bucket_4: 514098
Critical_ROB_Stalls_Percent_0_Bucket_5: 243764
Non-critical_ROB_Stalls_Percent_0_Bucket_5: 519572
Critical_ROB_Stalls_Percent_0_Bucket_6: 1362420
Non-critical_ROB_Stalls_Percent_0_Bucket_6: 3360045
Critical_ROB_Stalls_Percent_1_Bucket_0: 102086
Non-critical_ROB_Stalls_Percent_1_Bucket_0: 494833
Critical_ROB_Stalls_Percent_1_Bucket_1: 58183
Non-critical_ROB_Stalls_Percent_1_Bucket_1: 294231
Critical_ROB_Stalls_Percent_1_Bucket_2: 107946
Non-critical_ROB_Stalls_Percent_1_Bucket_2: 252713
Critical_ROB_Stalls_Percent_1_Bucket_3: 133110
Non-critical_ROB_Stalls_Percent_1_Bucket_3: 428305
Critical_ROB_Stalls_Percent_1_Bucket_4: 252044
Non-critical_ROB_Stalls_Percent_1_Bucket_4: 514098
Critical_ROB_Stalls_Percent_1_Bucket_5: 243764
Non-critical_ROB_Stalls_Percent_1_Bucket_5: 519572
Critical_ROB_Stalls_Percent_1_Bucket_6: 1362420
Non-critical_ROB_Stalls_Percent_1_Bucket_6: 3360045
Critical_ROB_Stalls_Percent_2_Bucket_0: 102086
Non-critical_ROB_Stalls_Percent_2_Bucket_0: 494833
Critical_ROB_Stalls_Percent_2_Bucket_1: 58183
Non-critical_ROB_Stalls_Percent_2_Bucket_1: 294231
Critical_ROB_Stalls_Percent_2_Bucket_2: 107946
Non-critical_ROB_Stalls_Percent_2_Bucket_2: 252713
Critical_ROB_Stalls_Percent_2_Bucket_3: 133110
Non-critical_ROB_Stalls_Percent_2_Bucket_3: 428305
Critical_ROB_Stalls_Percent_2_Bucket_4: 252044
Non-critical_ROB_Stalls_Percent_2_Bucket_4: 514098
Critical_ROB_Stalls_Percent_2_Bucket_5: 243764
Non-critical_ROB_Stalls_Percent_2_Bucket_5: 519572
Critical_ROB_Stalls_Percent_2_Bucket_6: 1362420
Non-critical_ROB_Stalls_Percent_2_Bucket_6: 3360045
Critical_ROB_Stalls_Percent_3_Bucket_0: 102086
Non-critical_ROB_Stalls_Percent_3_Bucket_0: 494833
Critical_ROB_Stalls_Percent_3_Bucket_1: 58183
Non-critical_ROB_Stalls_Percent_3_Bucket_1: 294231
Critical_ROB_Stalls_Percent_3_Bucket_2: 107946
Non-critical_ROB_Stalls_Percent_3_Bucket_2: 252713
Critical_ROB_Stalls_Percent_3_Bucket_3: 133110
Non-critical_ROB_Stalls_Percent_3_Bucket_3: 428305
Critical_ROB_Stalls_Percent_3_Bucket_4: 252044
Non-critical_ROB_Stalls_Percent_3_Bucket_4: 514098
Critical_ROB_Stalls_Percent_3_Bucket_5: 243764
Non-critical_ROB_Stalls_Percent_3_Bucket_5: 519572
Critical_ROB_Stalls_Percent_3_Bucket_6: 1362420
Non-critical_ROB_Stalls_Percent_3_Bucket_6: 3360045
Critical_ROB_Stalls_Percent_4_Bucket_0: 102086
Non-critical_ROB_Stalls_Percent_4_Bucket_0: 494833
Critical_ROB_Stalls_Percent_4_Bucket_1: 58183
Non-critical_ROB_Stalls_Percent_4_Bucket_1: 294231
Critical_ROB_Stalls_Percent_4_Bucket_2: 107946
Non-critical_ROB_Stalls_Percent_4_Bucket_2: 252713
Critical_ROB_Stalls_Percent_4_Bucket_3: 133110
Non-critical_ROB_Stalls_Percent_4_Bucket_3: 428305
Critical_ROB_Stalls_Percent_4_Bucket_4: 252044
Non-critical_ROB_Stalls_Percent_4_Bucket_4: 514098
Critical_ROB_Stalls_Percent_4_Bucket_5: 243764
Non-critical_ROB_Stalls_Percent_4_Bucket_5: 519572
Critical_ROB_Stalls_Percent_4_Bucket_6: 1362420
Non-critical_ROB_Stalls_Percent_4_Bucket_6: 3360045
Critical_ROB_Stalls_Percent_5_Bucket_0: 102086
Non-critical_ROB_Stalls_Percent_5_Bucket_0: 494833
Critical_ROB_Stalls_Percent_5_Bucket_1: 58183
Non-critical_ROB_Stalls_Percent_5_Bucket_1: 294231
Critical_ROB_Stalls_Percent_5_Bucket_2: 107946
Non-critical_ROB_Stalls_Percent_5_Bucket_2: 252713
Critical_ROB_Stalls_Percent_5_Bucket_3: 133110
Non-critical_ROB_Stalls_Percent_5_Bucket_3: 428305
Critical_ROB_Stalls_Percent_5_Bucket_4: 252044
Non-critical_ROB_Stalls_Percent_5_Bucket_4: 514098
Critical_ROB_Stalls_Percent_5_Bucket_5: 243764
Non-critical_ROB_Stalls_Percent_5_Bucket_5: 519572
Critical_ROB_Stalls_Percent_5_Bucket_6: 1362420
Non-critical_ROB_Stalls_Percent_5_Bucket_6: 3360045
Critical_ROB_Stalls_Percent_6_Bucket_0: 102086
Non-critical_ROB_Stalls_Percent_6_Bucket_0: 494833
Critical_ROB_Stalls_Percent_6_Bucket_1: 58183
Non-critical_ROB_Stalls_Percent_6_Bucket_1: 294231
Critical_ROB_Stalls_Percent_6_Bucket_2: 107946
Non-critical_ROB_Stalls_Percent_6_Bucket_2: 252713
Critical_ROB_Stalls_Percent_6_Bucket_3: 133110
Non-critical_ROB_Stalls_Percent_6_Bucket_3: 428305
Critical_ROB_Stalls_Percent_6_Bucket_4: 252044
Non-critical_ROB_Stalls_Percent_6_Bucket_4: 514098
Critical_ROB_Stalls_Percent_6_Bucket_5: 243764
Non-critical_ROB_Stalls_Percent_6_Bucket_5: 519572
Critical_ROB_Stalls_Percent_6_Bucket_6: 1362420
Non-critical_ROB_Stalls_Percent_6_Bucket_6: 3360045
Critical_ROB_Stalls_Percent_7_Bucket_0: 102086
Non-critical_ROB_Stalls_Percent_7_Bucket_0: 494833
Critical_ROB_Stalls_Percent_7_Bucket_1: 58183
Non-critical_ROB_Stalls_Percent_7_Bucket_1: 294231
Critical_ROB_Stalls_Percent_7_Bucket_2: 107946
Non-critical_ROB_Stalls_Percent_7_Bucket_2: 252713
Critical_ROB_Stalls_Percent_7_Bucket_3: 133110
Non-critical_ROB_Stalls_Percent_7_Bucket_3: 428305
Critical_ROB_Stalls_Percent_7_Bucket_4: 252044
Non-critical_ROB_Stalls_Percent_7_Bucket_4: 514098
Critical_ROB_Stalls_Percent_7_Bucket_5: 243764
Non-critical_ROB_Stalls_Percent_7_Bucket_5: 519572
Critical_ROB_Stalls_Percent_7_Bucket_6: 1362420
Non-critical_ROB_Stalls_Percent_7_Bucket_6: 3360045
Critical_ROB_Stalls_Percent_8_Bucket_0: 102086
Non-critical_ROB_Stalls_Percent_8_Bucket_0: 494833
Critical_ROB_Stalls_Percent_8_Bucket_1: 58183
Non-critical_ROB_Stalls_Percent_8_Bucket_1: 294231
Critical_ROB_Stalls_Percent_8_Bucket_2: 107946
Non-critical_ROB_Stalls_Percent_8_Bucket_2: 252713
Critical_ROB_Stalls_Percent_8_Bucket_3: 133110
Non-critical_ROB_Stalls_Percent_8_Bucket_3: 428305
Critical_ROB_Stalls_Percent_8_Bucket_4: 252044
Non-critical_ROB_Stalls_Percent_8_Bucket_4: 514098
Critical_ROB_Stalls_Percent_8_Bucket_5: 243764
Non-critical_ROB_Stalls_Percent_8_Bucket_5: 519572
Critical_ROB_Stalls_Percent_8_Bucket_6: 1362420
Non-critical_ROB_Stalls_Percent_8_Bucket_6: 3360045
Average ROB occupancy Load Stall Begin: 266.612
Average ROB occupancy Load Stall End: 271.839
Min ROB occupancy Load Stall Begin: 1
Max ROB occupancy Load Stall Begin: 352
Min ROB occupancy Load Stall End: 1
Max ROB occupancy Load Stall End: 352
Average ROB occupancy Critical Load Stall Begin: 178.735
Average ROB occupancy Critical Load Stall End: 192.305
Min ROB occupancy Critical Load Stall Begin: 2
Max ROB occupancy Critical Load Stall Begin: 352
Min ROB occupancy Critical Load Stall End: 2
Max ROB occupancy Critical Load Stall End: 352
 ROB Load Stall Begin Bucket Count 0: 661559
 ROB Load Stall End Bucket Count 0: 596919
 ROB Critical Load Stall Begin Bucket Count 0: 185905
 ROB Critical Load Stall End Bucket Count 0: 140292
 ROB Load Stall Begin Bucket Count 1: 355070
 ROB Load Stall End Bucket Count 1: 352414
 ROB Critical Load Stall Begin Bucket Count 1: 79026
 ROB Critical Load Stall End Bucket Count 1: 106625
 ROB Load Stall Begin Bucket Count 2: 377820
 ROB Load Stall End Bucket Count 2: 360659
 ROB Critical Load Stall Begin Bucket Count 2: 16298
 ROB Critical Load Stall End Bucket Count 2: 18662
 ROB Load Stall Begin Bucket Count 3: 615320
 ROB Load Stall End Bucket Count 3: 561415
 ROB Critical Load Stall Begin Bucket Count 3: 15981
 ROB Critical Load Stall End Bucket Count 3: 18659
 ROB Load Stall Begin Bucket Count 4: 737517
 ROB Load Stall End Bucket Count 4: 766142
 ROB Critical Load Stall Begin Bucket Count 4: 11173
 ROB Critical Load Stall End Bucket Count 4: 11416
 ROB Load Stall Begin Bucket Count 5: 777865
 ROB Load Stall End Bucket Count 5: 763336
 ROB Critical Load Stall Begin Bucket Count 5: 24645
 ROB Critical Load Stall End Bucket Count 5: 26945
 ROB Load Stall Begin Bucket Count 6: 4598199
 ROB Load Stall End Bucket Count 6: 4722465
 ROB Critical Load Stall Begin Bucket Count 6: 217760
 ROB Critical Load Stall End Bucket Count 6: 228191
PIST Tag Read Accesses: 0
PIST Read Accesses: 0
PIST Tag Write Accesses: 0
PIST Write Accesses: 0
Criticality detector called times: 0
Max global_stall_cycles_count: 0
Threshold Modified: 0 times, factor: 0
Sturdy critical IP cache stats: 
 Unused entries: 0
CIC Tag Read Accesses: 0
CIC Read Accesses: 0
CIC Tag Write Accesses: 0
CIC Write Accesses: 0
Wobbly critical IP cache stats: 
 Unused entries: 16
CIC Tag Read Accesses: 493888532
CIC Read Accesses: 0
CIC Tag Write Accesses: 3747922
CIC Write Accesses: 0
ITLB TOTAL     ACCESS:   16572243  HIT:   16572243  MISS:          0  HIT %:        100  MISS %:          0   MPKI: 0
ITLB LOAD TRANSLATION ACCESS:   16572243  HIT:   16572243  MISS:          0  HIT %:        100  MISS %:          0   MPKI: 0
ITLB PREFETCH  REQUESTED:          0  ISSUED:          0  USEFUL:          0  USELESS:          0
ITLB USEFUL LOAD PREFETCHES:          0 PREFETCH ISSUED TO LOWER LEVEL:          0  ACCURACY: -nan
ITLB TIMELY PREFETCHES:          0 LATE PREFETCHES: 0 DROPPED PREFETCHES: 0
ITLB PREFETCHES SAME FILL-ORIGIN LEVEL: 0 DIFFERENT FILL-ORIGIN LEVEL: 0
ITLB AVERAGE MISS LATENCY: -nan cycles
ITLB RQ	ACCESS:   21515358	FORWARD:          0	MERGED:    4943116	TO_CACHE:   16572242

DTLB TOTAL     ACCESS:   26453284  HIT:   26247369  MISS:     205915  HIT %:    99.2216  MISS %:    0.77841   MPKI: 2.05915
DTLB LOAD TRANSLATION ACCESS:   26453284  HIT:   26247369  MISS:     205915  HIT %:    99.2216  MISS %:    0.77841   MPKI: 2.05915
DTLB PREFETCH  REQUESTED:          0  ISSUED:          0  USEFUL:          0  USELESS:          0
DTLB USEFUL LOAD PREFETCHES:          0 PREFETCH ISSUED TO LOWER LEVEL:          0  ACCURACY: -nan
DTLB TIMELY PREFETCHES:          0 LATE PREFETCHES: 0 DROPPED PREFETCHES: 0
DTLB PREFETCHES SAME FILL-ORIGIN LEVEL: 0 DIFFERENT FILL-ORIGIN LEVEL: 0
DTLB AVERAGE MISS LATENCY: 36.4463 cycles
DTLB RQ	ACCESS:   46695446	FORWARD:          0	MERGED:   20214680	TO_CACHE:   26480766

STLB TOTAL     ACCESS:    1396977  HIT:    1327246  MISS:      69731  HIT %:    95.0084  MISS %:    4.99156   MPKI: 0.69731
STLB LOAD TRANSLATION ACCESS:     205915  HIT:     136185  MISS:      69730  HIT %:    66.1365  MISS %:    33.8635   MPKI: 0.6973
STLB TRANSLATION FROM L1D PREFETCHER ACCESS:    1191062  HIT:    1191061  MISS:          1  HIT %:    99.9999  MISS %: 8.39587e-05   MPKI: 1e-05
STLB PREFETCH  REQUESTED:          0  ISSUED:          0  USEFUL:          1  USELESS:          0
STLB USEFUL LOAD PREFETCHES:          1 PREFETCH ISSUED TO LOWER LEVEL:          0  ACCURACY: inf
STLB TIMELY PREFETCHES:          1 LATE PREFETCHES: 0 DROPPED PREFETCHES: 0
STLB PREFETCHES SAME FILL-ORIGIN LEVEL: 0 DIFFERENT FILL-ORIGIN LEVEL: 0
STLB AVERAGE MISS LATENCY: 80.9434 cycles
STLB RQ	ACCESS:    1961880	FORWARD:          0	MERGED:     564903	TO_CACHE:    1396977

STLB Hit, L1D data hit: 0
STLB Hit, L2C data hit: 0
STLB Hit, LLC data hit: 0
STLB Hit, LLC data miss: 0
STLB STLB hints to L2: 0
L1D TOTAL     ACCESS:   47091107  HIT:   43812837  MISS:    3278270  HIT %:    93.0385  MISS %:    6.96155   MPKI: 32.7827
L1D LOAD      ACCESS:   17938510  HIT:   16125915  MISS:    1812595  HIT %:    89.8955  MISS %:    10.1045   MPKI: 18.1259
L1D RFO       ACCESS:   27836326  HIT:   27602637  MISS:     233689  HIT %:    99.1605  MISS %:   0.839511   MPKI: 2.33689
L1D PREFETCH  ACCESS:    1316271  HIT:      84285  MISS:    1231986  HIT %:    6.40332  MISS %:    93.5967   MPKI: 12.3199
L1D PREFETCH  REQUESTED:    3511981  ISSUED:    3511930  USEFUL:     545875  USELESS:     686202
L1D USEFUL LOAD PREFETCHES:     545875 PREFETCH ISSUED TO LOWER LEVEL:    1513867  ACCURACY: 36.0583
L1D TIMELY PREFETCHES:     545875 LATE PREFETCHES: 281881 DROPPED PREFETCHES: 0
L1D PREFETCHES SAME FILL-ORIGIN LEVEL: 1513867 DIFFERENT FILL-ORIGIN LEVEL: 0
L1D AVERAGE MISS LATENCY: 1.45952e+07 cycles
L1D RQ	ACCESS:   31245584	FORWARD:          0	MERGED:   13076485	TO_CACHE:   18142138
L1D WQ	ACCESS:   28891366	FORWARD:      26961	MERGED:     338058	TO_CACHE:   28553308
L1D PQ	ACCESS:    1755965	FORWARD:          0	MERGED:          0	TO_CACHE:    1755965

L1D UNIQUE REGIONS ACCESSED: 0
L1D REGIONS CONFLICTS: 0
L1D Cross Page Prefetch Requests: 0
L1D Same Page Prefetch Requests: 5488148
L1D ROI Sum of L1D PQ occupancy: 27882736
L1D PREFETCHES PUSHED FROM L2C: 0
L1I TOTAL     ACCESS:   21515359  HIT:   21515359  MISS:          0  HIT %:        100  MISS %:          0   MPKI: 0
L1I LOAD      ACCESS:   21515359  HIT:   21515359  MISS:          0  HIT %:        100  MISS %:          0   MPKI: 0
L1I PREFETCH  REQUESTED:          0  ISSUED:          0  USEFUL:          0  USELESS:          0
L1I USEFUL LOAD PREFETCHES:          0 PREFETCH ISSUED TO LOWER LEVEL:          0  ACCURACY: -nan
L1I TIMELY PREFETCHES:          0 LATE PREFETCHES: 0 DROPPED PREFETCHES: 0
L1I PREFETCHES SAME FILL-ORIGIN LEVEL: 0 DIFFERENT FILL-ORIGIN LEVEL: 0
L1I AVERAGE MISS LATENCY: -nan cycles
L1I RQ	ACCESS:   29922928	FORWARD:          0	MERGED:    8407570	TO_CACHE:   21515358

BTB TOTAL     ACCESS:    9650941  HIT:    9650907  MISS:         34  HIT %:    99.9996  MISS %: 0.000352297   MPKI: 0.00034
BTB BRANCH_DIRECT_JUMP	ACCESS:     463202  HIT:     463196  MISS:          6
BTB BRANCH_INDIRECT	ACCESS:          0  HIT:          0  MISS:          0
BTB BRANCH_CONDITIONAL	ACCESS:    9187651  HIT:    9187627  MISS:         24
BTB BRANCH_DIRECT_CALL	ACCESS:         44  HIT:         42  MISS:          2
BTB BRANCH_INDIRECT_CALL	ACCESS:          0  HIT:          0  MISS:          0
BTB BRANCH_RETURN	ACCESS:         44  HIT:         42  MISS:          2
BTB BRANCH_OTHER ACCESS:          0  HIT:          0  MISS:          0

L2C TOTAL     ACCESS:    3980180  HIT:     753015  MISS:    3227165  HIT %:    18.9191  MISS %:    81.0809   MPKI: 32.2717
L2C LOAD      ACCESS:    1530712  HIT:      64466  MISS:    1466246  HIT %:     4.2115  MISS %:    95.7885   MPKI: 14.6625
L2C DATA LOAD MPKI: 14.6625
L2C INSTRUCTION LOAD MPKI: 0
L2C RFO       ACCESS:     233686  HIT:       2796  MISS:     230890  HIT %:    1.19648  MISS %:    98.8035   MPKI: 2.3089
L2C PREFETCH  ACCESS:    1513867  HIT:         40  MISS:    1513827  HIT %: 0.00264224  MISS %:    99.9974   MPKI: 15.1383
L2C DATA PREFETCH MPKI: 15.1383
L2C INSTRUCTION PREFETCH MPKI: 0
L2C WRITEBACK ACCESS:     632040  HIT:     625930  MISS:       6110  HIT %:    99.0333  MISS %:   0.966711   MPKI: 0.0611
L2C LOAD TRANSLATION ACCESS:      69874  HIT:      59783  MISS:      10091  HIT %:    85.5583  MISS %:    14.4417   MPKI: 0.10091
L2C TRANSLATION FROM L1D PREFETCHER ACCESS:          1  HIT:          0  MISS:          1  HIT %:          0  MISS %:        100   MPKI: 1e-05
L2C PREFETCH  REQUESTED:          0  ISSUED:          0  USEFUL:        100  USELESS:    1514321
L2C USEFUL LOAD PREFETCHES:        100 PREFETCH ISSUED TO LOWER LEVEL:    1513827  ACCURACY: 0.00660577
L2C TIMELY PREFETCHES:        100 LATE PREFETCHES: 0 DROPPED PREFETCHES: 0
L2C PREFETCHES SAME FILL-ORIGIN LEVEL: 0 DIFFERENT FILL-ORIGIN LEVEL: 0
L2C AVERAGE MISS LATENCY: 173.404 cycles
L2C RQ	ACCESS:    1834278	FORWARD:          0	MERGED:          0	TO_CACHE:    1834273
L2C WQ	ACCESS:     632040	FORWARD:          5	MERGED:          0	TO_CACHE:     632040
L2C PQ	ACCESS:    1513867	FORWARD:          0	MERGED:          0	TO_CACHE:    1513867

L2C Instructions Evicting Data 0
L2C Translations Evicting Data 10061
L2C Data Evicting Data 3200959
L2C Instructions Evicting Instructions 0
L2C Translations Evicting Instructions 0
L2C Data Evicting Instructions 0
L2C Instructions Evicting Translations 0
L2C Translations Evicting Translations 31
L2C Data Evicting Translations 10004
L2C Dense regions hint from L2: 0
PSCL5 TOTAL     ACCESS:      69731  HIT:      69731  MISS:          0  HIT %:        100  MISS %:          0   MPKI: 0
PSCL5 LOAD TRANSLATION ACCESS:      69730  HIT:      69730  MISS:          0  HIT %:        100  MISS %:          0   MPKI: 0
PSCL5 TRANSLATION FROM L1D PREFETCHER ACCESS:          1  HIT:          1  MISS:          0  HIT %:        100  MISS %:          0   MPKI: 0
PSCL5 PREFETCH  REQUESTED:          0  ISSUED:          0  USEFUL:          0  USELESS:          0
PSCL5 USEFUL LOAD PREFETCHES:          0 PREFETCH ISSUED TO LOWER LEVEL:          0  ACCURACY: -nan
PSCL5 TIMELY PREFETCHES:          0 LATE PREFETCHES: 0 DROPPED PREFETCHES: 0
PSCL5 PREFETCHES SAME FILL-ORIGIN LEVEL: 0 DIFFERENT FILL-ORIGIN LEVEL: 0

PSCL4 TOTAL     ACCESS:      69731  HIT:      69731  MISS:          0  HIT %:        100  MISS %:          0   MPKI: 0
PSCL4 LOAD TRANSLATION ACCESS:      69730  HIT:      69730  MISS:          0  HIT %:        100  MISS %:          0   MPKI: 0
PSCL4 TRANSLATION FROM L1D PREFETCHER ACCESS:          1  HIT:          1  MISS:          0  HIT %:        100  MISS %:          0   MPKI: 0
PSCL4 PREFETCH  REQUESTED:          0  ISSUED:          0  USEFUL:          0  USELESS:          0
PSCL4 USEFUL LOAD PREFETCHES:          0 PREFETCH ISSUED TO LOWER LEVEL:          0  ACCURACY: -nan
PSCL4 TIMELY PREFETCHES:          0 LATE PREFETCHES: 0 DROPPED PREFETCHES: 0
PSCL4 PREFETCHES SAME FILL-ORIGIN LEVEL: 0 DIFFERENT FILL-ORIGIN LEVEL: 0

PSCL3 TOTAL     ACCESS:      69731  HIT:      69731  MISS:          0  HIT %:        100  MISS %:          0   MPKI: 0
PSCL3 LOAD TRANSLATION ACCESS:      69730  HIT:      69730  MISS:          0  HIT %:        100  MISS %:          0   MPKI: 0
PSCL3 TRANSLATION FROM L1D PREFETCHER ACCESS:          1  HIT:          1  MISS:          0  HIT %:        100  MISS %:          0   MPKI: 0
PSCL3 PREFETCH  REQUESTED:          0  ISSUED:          0  USEFUL:          0  USELESS:          0
PSCL3 USEFUL LOAD PREFETCHES:          0 PREFETCH ISSUED TO LOWER LEVEL:          0  ACCURACY: -nan
PSCL3 TIMELY PREFETCHES:          0 LATE PREFETCHES: 0 DROPPED PREFETCHES: 0
PSCL3 PREFETCHES SAME FILL-ORIGIN LEVEL: 0 DIFFERENT FILL-ORIGIN LEVEL: 0

PSCL2 TOTAL     ACCESS:      69731  HIT:      69536  MISS:        195  HIT %:    99.7204  MISS %:   0.279646   MPKI: 0.00195
PSCL2 LOAD TRANSLATION ACCESS:      69730  HIT:      69535  MISS:        195  HIT %:    99.7203  MISS %:    0.27965   MPKI: 0.00195
PSCL2 TRANSLATION FROM L1D PREFETCHER ACCESS:          1  HIT:          1  MISS:          0  HIT %:        100  MISS %:          0   MPKI: 0
PSCL2 PREFETCH  REQUESTED:          0  ISSUED:          0  USEFUL:          0  USELESS:          0
PSCL2 USEFUL LOAD PREFETCHES:          0 PREFETCH ISSUED TO LOWER LEVEL:          0  ACCURACY: -nan
PSCL2 TIMELY PREFETCHES:          0 LATE PREFETCHES: 0 DROPPED PREFETCHES: 0
PSCL2 PREFETCHES SAME FILL-ORIGIN LEVEL: 0 DIFFERENT FILL-ORIGIN LEVEL: 0

LLC TOTAL     ACCESS:    3802529  HIT:     259925  MISS:    3542604  HIT %:    6.83558  MISS %:    93.1644   MPKI: 35.426
LLC LOAD      ACCESS:    1466246  HIT:      92485  MISS:    1373761  HIT %:     6.3076  MISS %:    93.6924   MPKI: 13.7376
LLC RFO       ACCESS:     230890  HIT:        102  MISS:     230788  HIT %:  0.0441769  MISS %:    99.9558   MPKI: 2.30788
LLC PREFETCH  ACCESS:    1513827  HIT:     137048  MISS:    1376779  HIT %:    9.05308  MISS %:    90.9469   MPKI: 13.7678
LLC WRITEBACK ACCESS:     581474  HIT:      29741  MISS:     551733  HIT %:    5.11476  MISS %:    94.8852   MPKI: 5.51733
LLC LOAD TRANSLATION ACCESS:      10091  HIT:        549  MISS:       9542  HIT %:    5.44049  MISS %:    94.5595   MPKI: 0.09542
LLC TRANSLATION FROM L1D PREFETCHER ACCESS:          1  HIT:          0  MISS:          1  HIT %:          0  MISS %:        100   MPKI: 1e-05
LLC PREFETCH  REQUESTED:          0  ISSUED:          0  USEFUL:       2906  USELESS:    1369154
LLC USEFUL LOAD PREFETCHES:       2906 PREFETCH ISSUED TO LOWER LEVEL:    1376779  ACCURACY: 0.211072
LLC TIMELY PREFETCHES:       2906 LATE PREFETCHES: 0 DROPPED PREFETCHES: 0
LLC PREFETCHES SAME FILL-ORIGIN LEVEL: 0 DIFFERENT FILL-ORIGIN LEVEL: 0
LLC AVERAGE MISS LATENCY: 130.587 cycles
LLC RQ	ACCESS:    1707228	FORWARD:          0	MERGED:          0	TO_CACHE:    1707228
LLC WQ	ACCESS:     581474	FORWARD:          0	MERGED:          0	TO_CACHE:     581474
LLC PQ	ACCESS:    1513827	FORWARD:          0	MERGED:          0	TO_CACHE:    1513827

LLC Dense regions hint to LLC: 0

RAW hits: 639545
Loads Generated: 31885130
Loads sent to L1D: 31245584
Stores Generated: 28891363
Stores sent to L1D: 28891366
Major fault: 0 Minor fault: 38413
Allocated PAGES: 38413

stream: 
stream:times selected: 5851174
stream:pref_filled: 1096415
stream:pref_useful: 174901
stream:pref_late: 73137
stream:misses: 112727
stream:misses_by_poll: 0

CS: 
CS:times selected: 449152
CS:pref_filled: 332390
CS:pref_useful: 330411
CS:pref_late: 10252
CS:misses: 13521
CS:misses_by_poll: 530

CPLX: 
CPLX:times selected: 5367134
CPLX:pref_filled: 540259
CPLX:pref_useful: 353597
CPLX:pref_late: 246918
CPLX:misses: 1146677
CPLX:misses_by_poll: 3184

NL_L1: 
NL:times selected: 86884
NL:pref_filled: 13416
NL:pref_useful: 6670
NL:pref_late: 1378
NL:misses: 30726
NL:misses_by_poll: 0

total selections: 11754344
total_filled: 1231986
total_useful: 545875
total_late: 334898
total_polluted: 3714
total_misses_after_warmup: 848458
conflicts: 1766
Degree Incremented Times: 34177
Degree Decremented Times: 54745

L1 IP Table Write Accesses: 2477628
L1 IP Table Read Accesses: 2475862
L1 RST Write Accesses: 1743197
L1 RST Read Accesses: 3486394
L1 CSPT Write Accesses: 1743197
L1 CSPT Read Accesses: 3163933
L1 RR Filter Tag Write Accesses: 1756016
L1 RR Filter Tag Read Accesses: 94496067
L1 IP Table Tag Write Accesses: 2487402
L1 IP Table Tag Read Accesses: 2487402
L1 RST Tag Write Accesses: 0
L1 RST Tag Read Accesses: 15676826
L1 RR Filter Write Accesses: 0
L1 RR Filter Read Accesses: 3508784
test: 2509805

DRAM Statistics
 CHANNEL 0
 RQ ROW_BUFFER_HIT:    1333186  ROW_BUFFER_MISS:    1657685
 DBUS_CONGESTED:       3315
 WQ ROW_BUFFER_HIT:     133381  ROW_BUFFER_MISS:     455734  FULL:          0

 AVG_CONGESTED_CYCLE: 5
 All warmup complete: 2
Channel 0 Bank busy for read cycles: 0
Channel 0 Bank busy for write cycles: 0
Channel 0
Rank 0
0banks busy for read cycles: 76755433
0banks busy for write cycles: 119662
1banks busy for read cycles: 75114368
1banks busy for write cycles: 19363703
2banks busy for read cycles: 23190288
2banks busy for write cycles: 12672948
3banks busy for read cycles: 15285832
3banks busy for write cycles: 8311179
4banks busy for read cycles: 11062500
4banks busy for write cycles: 5001858
5banks busy for read cycles: 7018705
5banks busy for write cycles: 2817826
6banks busy for read cycles: 4757123
6banks busy for write cycles: 1612709
7banks busy for read cycles: 3344088
7banks busy for write cycles: 1499081
8banks busy for read cycles: 2146116
8banks busy for write cycles: 5840743

CPU 0 Branch Prediction Accuracy: 99.1519% MPKI: 0.83374 Average ROB Occupancy at Mispredict: 255.188
Branch types
NOT_BRANCH: 90169467 90.1695%
BRANCH_DIRECT_JUMP: 463202 0.463202%
BRANCH_INDIRECT: 0 0%
BRANCH_CONDITIONAL: 9367125 9.36712%
BRANCH_DIRECT_CALL: 44 4.4e-05%
BRANCH_INDIRECT_CALL: 0 0%
BRANCH_RETURN: 44 4.4e-05%
BRANCH_OTHER: 0 0%

DRAM PAGES: 1048576
Allocated PAGES: 38413
