
*** ChampSim Multicore Out-of-Order Simulator ***

Warmup Instructions: 50000000
Simulation Instructions: 100000000
Number of CPUs: 1
LLC sets: 2048
LLC ways: 16
Off-chip DRAM Size: 4096 MB Channels: 1 Width: 64-bit Data Rate: 6400 MT/s
CPU 0 runs ../SPEC2017//605.mcf_s-1644B.champsimtrace.xz
.xz
NUM_OF_IPS_IN_CRITICAL_IP_TRAINING: 64
NUM_OF_CRITICAL_IP_TRAINING_TABLE_WAYS: 2
NUM_OF_CRITICAL_IP_TRAINING_TABLE_SETS: 32
WOBBLY_CRITICAL_IP_CACHE_SETS: 32
WOBBLY_CRITICAL_IP_CACHE_WAYS: 4
BTB has LRU replacement policy
ITLB has LRU replacement policy
DTLB has LRU replacement policy
STLB has LRU replacement policy
L1I has LRU replacement policy
IP Table Entries: 64
L1D has LRU replacement policy
IP_Table L2 entries: 64
Initialize SRRIP state for L2C
Initialize DRRIP state for LLC
Heartbeat CPU 0 instructions: 10000003 cycles: 5096325 heartbeat IPC: 1.9622 cumulative IPC: 1.9622 (Simulation time: 0 hr 11 min 51 sec) 
Heartbeat CPU 0 instructions: 20000001 cycles: 10190694 heartbeat IPC: 1.96295 cumulative IPC: 1.96257 (Simulation time: 0 hr 21 min 14 sec) 
Heartbeat CPU 0 instructions: 30000002 cycles: 15284091 heartbeat IPC: 1.96333 cumulative IPC: 1.96283 (Simulation time: 0 hr 29 min 57 sec) 
Heartbeat CPU 0 instructions: 40000000 cycles: 20365871 heartbeat IPC: 1.96781 cumulative IPC: 1.96407 (Simulation time: 0 hr 37 min 48 sec) 
Heartbeat CPU 0 instructions: 50000003 cycles: 25442059 heartbeat IPC: 1.96998 cumulative IPC: 1.96525 (Simulation time: 0 hr 44 min 27 sec) 

Warmup complete CPU 0 instructions: 50000003 cycles: 25442059 (Simulation time: 0 hr 44 min 27 sec) 

% increase in all ip prefetch 936.23
% increase in all ip prefetch -0.404893
Heartbeat CPU 0 instructions: 60000001 cycles: 90132632 heartbeat IPC: 0.154582 cumulative IPC: 0.154582 (Simulation time: 0 hr 52 min 38 sec) 
Heartbeat CPU 0 instructions: 70000003 cycles: 155079747 heartbeat IPC: 0.153971 cumulative IPC: 0.154276 (Simulation time: 1 hr 3 min 57 sec) 
Heartbeat CPU 0 instructions: 80000000 cycles: 220810278 heartbeat IPC: 0.152136 cumulative IPC: 0.153556 (Simulation time: 1 hr 16 min 38 sec) 
Heartbeat CPU 0 instructions: 90000000 cycles: 286332824 heartbeat IPC: 0.152619 cumulative IPC: 0.153321 (Simulation time: 1 hr 27 min 51 sec) 
Heartbeat CPU 0 instructions: 100000001 cycles: 353247111 heartbeat IPC: 0.149445 cumulative IPC: 0.15253 (Simulation time: 1 hr 37 min 57 sec) 
Heartbeat CPU 0 instructions: 110000000 cycles: 420347340 heartbeat IPC: 0.149031 cumulative IPC: 0.151935 (Simulation time: 1 hr 46 min 34 sec) 
Heartbeat CPU 0 instructions: 120000000 cycles: 487579338 heartbeat IPC: 0.148739 cumulative IPC: 0.15147 (Simulation time: 1 hr 57 min 31 sec) 
Heartbeat CPU 0 instructions: 130000000 cycles: 554238278 heartbeat IPC: 0.150017 cumulative IPC: 0.151287 (Simulation time: 2 hr 11 min 42 sec) 
Heartbeat CPU 0 instructions: 140000003 cycles: 619203389 heartbeat IPC: 0.153929 cumulative IPC: 0.151576 (Simulation time: 2 hr 23 min 27 sec) 
Heartbeat CPU 0 instructions: 150000002 cycles: 680532904 heartbeat IPC: 0.163054 cumulative IPC: 0.152651 (Simulation time: 2 hr 33 min 47 sec) 
Finished CPU 0 instructions: 100000000 cycles: 655090856 cumulative IPC: 0.152651 (Simulation time: 2 hr 33 min 47 sec) 

ChampSim completed all CPUs

Region of Interest Statistics

CPU 0 cumulative IPC: 0.152651 instructions: 100000000 cycles: 655090856

CPU 0 Average Load ROB stall cycles: 2.09507e+07
CPU 0 Fraction of times ROB stalled by Loads: 5.91911
CPU 0 Percentage of Load stall cycles in Total stall cycles: 8.12155e+07
 Total stall cycles: 476683297
 Total load stall cycles: 387140841807236
CPU 0 NUM of IPS identified critical: 3
CPU 0 Num of Load IPs stalling ROB: 9
Threshold modification factor: -1
Max PIST entries: 6
Min PIST entries: 0
Avg PIST entries: 2.74667
Trouble in retire width: 0.99088
MaC = Marked as critical.
lt_50_percent_before_Mac: 3
gt_90_percent_before_Mac: 0
gt_75_percent_before_Mac: 0
gt_50_percent_before_Mac: 0
stall_proportion_bin_same_before_after: 0
stall_proportion_bin_lower_before_after: 0
stall_proportion_bin_upper_before_after: 0
average_stall_proportion_before: 0.0393388
average_stall_proportion_after: 0.0456549
Critical IP stalls, total frequency: 840949
Non-critical IP stalls, total frequency: 252820
Critical_IP_ROB_Stalls_Bucket_0: 312366
Non-critical_IP_ROB_Stalls_Bucket_0: 247388
Critical_IP_ROB_Stalls_Bucket_1: 128101
Non-critical_IP_ROB_Stalls_Bucket_1: 1283
Critical_IP_ROB_Stalls_Bucket_2: 91961
Non-critical_IP_ROB_Stalls_Bucket_2: 898
Critical_IP_ROB_Stalls_Bucket_3: 62054
Non-critical_IP_ROB_Stalls_Bucket_3: 676
Critical_IP_ROB_Stalls_Bucket_4: 45917
Non-critical_IP_ROB_Stalls_Bucket_4: 535
Critical_IP_ROB_Stalls_Bucket_5: 42883
Non-critical_IP_ROB_Stalls_Bucket_5: 419
Critical_IP_ROB_Stalls_Bucket_6: 157667
Non-critical_IP_ROB_Stalls_Bucket_6: 1621
0 => IPs accounting for >50 percent of stalls, 1 => 55, 2 => 60, 3 => 65 and so on till 90.
percent50: 75.7809 num IPs:2
percent55: 75.7809 num IPs:2
percent60: 75.7809 num IPs:2
percent65: 75.7809 num IPs:2
percent70: 75.7809 num IPs:2
percent75: 75.7809 num IPs:2
percent80: 98.194 num IPs:3
percent85: 98.194 num IPs:3
percent90: 98.194 num IPs:3
Critical_ROB_Stalls_Percent_0_Bucket_0: 309118
Non-critical_ROB_Stalls_Percent_0_Bucket_0: 250636
Critical_ROB_Stalls_Percent_0_Bucket_1: 125797
Non-critical_ROB_Stalls_Percent_0_Bucket_1: 3587
Critical_ROB_Stalls_Percent_0_Bucket_2: 90734
Non-critical_ROB_Stalls_Percent_0_Bucket_2: 2125
Critical_ROB_Stalls_Percent_0_Bucket_3: 60547
Non-critical_ROB_Stalls_Percent_0_Bucket_3: 2183
Critical_ROB_Stalls_Percent_0_Bucket_4: 45295
Non-critical_ROB_Stalls_Percent_0_Bucket_4: 1157
Critical_ROB_Stalls_Percent_0_Bucket_5: 42328
Non-critical_ROB_Stalls_Percent_0_Bucket_5: 974
Critical_ROB_Stalls_Percent_0_Bucket_6: 155049
Non-critical_ROB_Stalls_Percent_0_Bucket_6: 4239
Critical_ROB_Stalls_Percent_1_Bucket_0: 309118
Non-critical_ROB_Stalls_Percent_1_Bucket_0: 250636
Critical_ROB_Stalls_Percent_1_Bucket_1: 125797
Non-critical_ROB_Stalls_Percent_1_Bucket_1: 3587
Critical_ROB_Stalls_Percent_1_Bucket_2: 90734
Non-critical_ROB_Stalls_Percent_1_Bucket_2: 2125
Critical_ROB_Stalls_Percent_1_Bucket_3: 60547
Non-critical_ROB_Stalls_Percent_1_Bucket_3: 2183
Critical_ROB_Stalls_Percent_1_Bucket_4: 45295
Non-critical_ROB_Stalls_Percent_1_Bucket_4: 1157
Critical_ROB_Stalls_Percent_1_Bucket_5: 42328
Non-critical_ROB_Stalls_Percent_1_Bucket_5: 974
Critical_ROB_Stalls_Percent_1_Bucket_6: 155049
Non-critical_ROB_Stalls_Percent_1_Bucket_6: 4239
Critical_ROB_Stalls_Percent_2_Bucket_0: 309118
Non-critical_ROB_Stalls_Percent_2_Bucket_0: 250636
Critical_ROB_Stalls_Percent_2_Bucket_1: 125797
Non-critical_ROB_Stalls_Percent_2_Bucket_1: 3587
Critical_ROB_Stalls_Percent_2_Bucket_2: 90734
Non-critical_ROB_Stalls_Percent_2_Bucket_2: 2125
Critical_ROB_Stalls_Percent_2_Bucket_3: 60547
Non-critical_ROB_Stalls_Percent_2_Bucket_3: 2183
Critical_ROB_Stalls_Percent_2_Bucket_4: 45295
Non-critical_ROB_Stalls_Percent_2_Bucket_4: 1157
Critical_ROB_Stalls_Percent_2_Bucket_5: 42328
Non-critical_ROB_Stalls_Percent_2_Bucket_5: 974
Critical_ROB_Stalls_Percent_2_Bucket_6: 155049
Non-critical_ROB_Stalls_Percent_2_Bucket_6: 4239
Critical_ROB_Stalls_Percent_3_Bucket_0: 309118
Non-critical_ROB_Stalls_Percent_3_Bucket_0: 250636
Critical_ROB_Stalls_Percent_3_Bucket_1: 125797
Non-critical_ROB_Stalls_Percent_3_Bucket_1: 3587
Critical_ROB_Stalls_Percent_3_Bucket_2: 90734
Non-critical_ROB_Stalls_Percent_3_Bucket_2: 2125
Critical_ROB_Stalls_Percent_3_Bucket_3: 60547
Non-critical_ROB_Stalls_Percent_3_Bucket_3: 2183
Critical_ROB_Stalls_Percent_3_Bucket_4: 45295
Non-critical_ROB_Stalls_Percent_3_Bucket_4: 1157
Critical_ROB_Stalls_Percent_3_Bucket_5: 42328
Non-critical_ROB_Stalls_Percent_3_Bucket_5: 974
Critical_ROB_Stalls_Percent_3_Bucket_6: 155049
Non-critical_ROB_Stalls_Percent_3_Bucket_6: 4239
Critical_ROB_Stalls_Percent_4_Bucket_0: 309118
Non-critical_ROB_Stalls_Percent_4_Bucket_0: 250636
Critical_ROB_Stalls_Percent_4_Bucket_1: 125797
Non-critical_ROB_Stalls_Percent_4_Bucket_1: 3587
Critical_ROB_Stalls_Percent_4_Bucket_2: 90734
Non-critical_ROB_Stalls_Percent_4_Bucket_2: 2125
Critical_ROB_Stalls_Percent_4_Bucket_3: 60547
Non-critical_ROB_Stalls_Percent_4_Bucket_3: 2183
Critical_ROB_Stalls_Percent_4_Bucket_4: 45295
Non-critical_ROB_Stalls_Percent_4_Bucket_4: 1157
Critical_ROB_Stalls_Percent_4_Bucket_5: 42328
Non-critical_ROB_Stalls_Percent_4_Bucket_5: 974
Critical_ROB_Stalls_Percent_4_Bucket_6: 155049
Non-critical_ROB_Stalls_Percent_4_Bucket_6: 4239
Critical_ROB_Stalls_Percent_5_Bucket_0: 309118
Non-critical_ROB_Stalls_Percent_5_Bucket_0: 250636
Critical_ROB_Stalls_Percent_5_Bucket_1: 125797
Non-critical_ROB_Stalls_Percent_5_Bucket_1: 3587
Critical_ROB_Stalls_Percent_5_Bucket_2: 90734
Non-critical_ROB_Stalls_Percent_5_Bucket_2: 2125
Critical_ROB_Stalls_Percent_5_Bucket_3: 60547
Non-critical_ROB_Stalls_Percent_5_Bucket_3: 2183
Critical_ROB_Stalls_Percent_5_Bucket_4: 45295
Non-critical_ROB_Stalls_Percent_5_Bucket_4: 1157
Critical_ROB_Stalls_Percent_5_Bucket_5: 42328
Non-critical_ROB_Stalls_Percent_5_Bucket_5: 974
Critical_ROB_Stalls_Percent_5_Bucket_6: 155049
Non-critical_ROB_Stalls_Percent_5_Bucket_6: 4239
Critical_ROB_Stalls_Percent_6_Bucket_0: 554244
Non-critical_ROB_Stalls_Percent_6_Bucket_0: 5510
Critical_ROB_Stalls_Percent_6_Bucket_1: 125806
Non-critical_ROB_Stalls_Percent_6_Bucket_1: 3578
Critical_ROB_Stalls_Percent_6_Bucket_2: 90735
Non-critical_ROB_Stalls_Percent_6_Bucket_2: 2124
Critical_ROB_Stalls_Percent_6_Bucket_3: 60549
Non-critical_ROB_Stalls_Percent_6_Bucket_3: 2181
Critical_ROB_Stalls_Percent_6_Bucket_4: 45295
Non-critical_ROB_Stalls_Percent_6_Bucket_4: 1157
Critical_ROB_Stalls_Percent_6_Bucket_5: 42330
Non-critical_ROB_Stalls_Percent_6_Bucket_5: 972
Critical_ROB_Stalls_Percent_6_Bucket_6: 155056
Non-critical_ROB_Stalls_Percent_6_Bucket_6: 4232
Critical_ROB_Stalls_Percent_7_Bucket_0: 554244
Non-critical_ROB_Stalls_Percent_7_Bucket_0: 5510
Critical_ROB_Stalls_Percent_7_Bucket_1: 125806
Non-critical_ROB_Stalls_Percent_7_Bucket_1: 3578
Critical_ROB_Stalls_Percent_7_Bucket_2: 90735
Non-critical_ROB_Stalls_Percent_7_Bucket_2: 2124
Critical_ROB_Stalls_Percent_7_Bucket_3: 60549
Non-critical_ROB_Stalls_Percent_7_Bucket_3: 2181
Critical_ROB_Stalls_Percent_7_Bucket_4: 45295
Non-critical_ROB_Stalls_Percent_7_Bucket_4: 1157
Critical_ROB_Stalls_Percent_7_Bucket_5: 42330
Non-critical_ROB_Stalls_Percent_7_Bucket_5: 972
Critical_ROB_Stalls_Percent_7_Bucket_6: 155056
Non-critical_ROB_Stalls_Percent_7_Bucket_6: 4232
Critical_ROB_Stalls_Percent_8_Bucket_0: 554244
Non-critical_ROB_Stalls_Percent_8_Bucket_0: 5510
Critical_ROB_Stalls_Percent_8_Bucket_1: 125806
Non-critical_ROB_Stalls_Percent_8_Bucket_1: 3578
Critical_ROB_Stalls_Percent_8_Bucket_2: 90735
Non-critical_ROB_Stalls_Percent_8_Bucket_2: 2124
Critical_ROB_Stalls_Percent_8_Bucket_3: 60549
Non-critical_ROB_Stalls_Percent_8_Bucket_3: 2181
Critical_ROB_Stalls_Percent_8_Bucket_4: 45295
Non-critical_ROB_Stalls_Percent_8_Bucket_4: 1157
Critical_ROB_Stalls_Percent_8_Bucket_5: 42330
Non-critical_ROB_Stalls_Percent_8_Bucket_5: 972
Critical_ROB_Stalls_Percent_8_Bucket_6: 155056
Non-critical_ROB_Stalls_Percent_8_Bucket_6: 4232
Average ROB occupancy Load Stall Begin: 104.911
Average ROB occupancy Load Stall End: 110.691
Min ROB occupancy Load Stall Begin: 4
Max ROB occupancy Load Stall Begin: 351
Min ROB occupancy Load Stall End: 4
Max ROB occupancy Load Stall End: 352
Average ROB occupancy Critical Load Stall Begin: 131.266
Average ROB occupancy Critical Load Stall End: 137.433
Min ROB occupancy Critical Load Stall Begin: 8
Max ROB occupancy Critical Load Stall Begin: 351
Min ROB occupancy Critical Load Stall End: 18
Max ROB occupancy Critical Load Stall End: 352
 ROB Load Stall Begin Bucket Count 0: 560411
 ROB Load Stall End Bucket Count 0: 559754
 ROB Critical Load Stall Begin Bucket Count 0: 311663
 ROB Critical Load Stall End Bucket Count 0: 311007
 ROB Load Stall Begin Bucket Count 1: 129264
 ROB Load Stall End Bucket Count 1: 129384
 ROB Critical Load Stall Begin Bucket Count 1: 127027
 ROB Critical Load Stall End Bucket Count 1: 127146
 ROB Load Stall Begin Bucket Count 2: 92712
 ROB Load Stall End Bucket Count 2: 92859
 ROB Critical Load Stall Begin Bucket Count 2: 91279
 ROB Critical Load Stall End Bucket Count 2: 91426
 ROB Load Stall Begin Bucket Count 3: 87906
 ROB Load Stall End Bucket Count 3: 62730
 ROB Critical Load Stall Begin Bucket Count 3: 86476
 ROB Critical Load Stall End Bucket Count 3: 61489
 ROB Load Stall Begin Bucket Count 4: 40542
 ROB Load Stall End Bucket Count 4: 46452
 ROB Critical Load Stall Begin Bucket Count 4: 39809
 ROB Critical Load Stall End Bucket Count 4: 45672
 ROB Load Stall Begin Bucket Count 5: 41186
 ROB Load Stall End Bucket Count 5: 43302
 ROB Critical Load Stall Begin Bucket Count 5: 40528
 ROB Critical Load Stall End Bucket Count 5: 42660
 ROB Load Stall Begin Bucket Count 6: 141748
 ROB Load Stall End Bucket Count 6: 159288
 ROB Critical Load Stall Begin Bucket Count 6: 139249
 ROB Critical Load Stall End Bucket Count 6: 156631
PIST Tag Read Accesses: 5280
PIST Read Accesses: 2640
PIST Tag Write Accesses: 5280
PIST Write Accesses: 2640
Criticality detector called times: 105992
Max global_stall_cycles_count: 48805
Threshold Modified: 1 times, factor: -1
ITLB TOTAL     ACCESS:   17771265  HIT:   17771265  MISS:          0  HIT %:        100  MISS %:          0   MPKI: 0
ITLB LOAD TRANSLATION ACCESS:   17771265  HIT:   17771265  MISS:          0  HIT %:        100  MISS %:          0   MPKI: 0
ITLB PREFETCH  REQUESTED:          0  ISSUED:          0  USEFUL:          0  USELESS:          0
ITLB USEFUL LOAD PREFETCHES:          0 PREFETCH ISSUED TO LOWER LEVEL:          0  ACCURACY: -nan
ITLB TIMELY PREFETCHES:          0 LATE PREFETCHES: 0 DROPPED PREFETCHES: 0
ITLB PREFETCHES SAME FILL-ORIGIN LEVEL: 0 DIFFERENT FILL-ORIGIN LEVEL: 0
ITLB AVERAGE MISS LATENCY: -nan cycles
ITLB RQ	ACCESS:   17835475	FORWARD:          0	MERGED:      64211	TO_CACHE:   17771264

DTLB TOTAL     ACCESS:   40740743  HIT:   37780237  MISS:    2960506  HIT %:    92.7333  MISS %:     7.2667   MPKI: 29.6051
DTLB LOAD TRANSLATION ACCESS:   40740743  HIT:   37780237  MISS:    2960506  HIT %:    92.7333  MISS %:     7.2667   MPKI: 29.6051
DTLB PREFETCH  REQUESTED:          0  ISSUED:          0  USEFUL:          0  USELESS:          0
DTLB USEFUL LOAD PREFETCHES:          0 PREFETCH ISSUED TO LOWER LEVEL:          0  ACCURACY: -nan
DTLB TIMELY PREFETCHES:          0 LATE PREFETCHES: 0 DROPPED PREFETCHES: 0
DTLB PREFETCHES SAME FILL-ORIGIN LEVEL: 0 DIFFERENT FILL-ORIGIN LEVEL: 0
DTLB AVERAGE MISS LATENCY: 964.107 cycles
DTLB RQ	ACCESS:   64220650	FORWARD:          0	MERGED:    7762107	TO_CACHE:   56458543

STLB TOTAL     ACCESS:    7256858  HIT:    4837174  MISS:    2419684  HIT %:    66.6566  MISS %:    33.3434   MPKI: 24.1968
STLB LOAD TRANSLATION ACCESS:    2960506  HIT:     540822  MISS:    2419684  HIT %:    18.2679  MISS %:    81.7321   MPKI: 24.1968
STLB TRANSLATION FROM L1D PREFETCHER ACCESS:    4296352  HIT:    4296352  MISS:          0  HIT %:        100  MISS %:          0   MPKI: 0
STLB PREFETCH  REQUESTED:          0  ISSUED:          0  USEFUL:          0  USELESS:          0
STLB USEFUL LOAD PREFETCHES:          0 PREFETCH ISSUED TO LOWER LEVEL:          0  ACCURACY: -nan
STLB TIMELY PREFETCHES:          0 LATE PREFETCHES: 0 DROPPED PREFETCHES: 0
STLB PREFETCHES SAME FILL-ORIGIN LEVEL: 0 DIFFERENT FILL-ORIGIN LEVEL: 0
STLB AVERAGE MISS LATENCY: 1168.53 cycles
STLB RQ	ACCESS:    8239243	FORWARD:          0	MERGED:     982378	TO_CACHE:    7256865

STLB Hit, L1D data hit: 0
STLB Hit, L2C data hit: 0
STLB Hit, LLC data hit: 0
STLB Hit, LLC data miss: 0
STLB STLB hints to L2: 0
L1D TOTAL     ACCESS:   53906400  HIT:   42728835  MISS:   11177565  HIT %:    79.2649  MISS %:    20.7351   MPKI: 111.776
L1D LOAD      ACCESS:   29199097  HIT:   26804898  MISS:    2394199  HIT %:    91.8004  MISS %:    8.19957   MPKI: 23.942
L1D RFO       ACCESS:   19679267  HIT:   15306044  MISS:    4373223  HIT %:    77.7775  MISS %:    22.2225   MPKI: 43.7322
L1D PREFETCH  ACCESS:    5028036  HIT:     617893  MISS:    4410143  HIT %:     12.289  MISS %:     87.711   MPKI: 44.1014
L1D PREFETCH  REQUESTED:   10557467  ISSUED:   10557467  USEFUL:    2224749  USELESS:    2185388
L1D USEFUL LOAD PREFETCHES:    2224749 PREFETCH ISSUED TO LOWER LEVEL:    4537611  ACCURACY: 49.0291
L1D TIMELY PREFETCHES:    2224749 LATE PREFETCHES: 127466 DROPPED PREFETCHES: 0
L1D PREFETCHES SAME FILL-ORIGIN LEVEL: 4537611 DIFFERENT FILL-ORIGIN LEVEL: 0
L1D AVERAGE MISS LATENCY: 4.09344e+06 cycles
L1D RQ	ACCESS:   38801532	FORWARD:          0	MERGED:    8868724	TO_CACHE:   29236053
L1D WQ	ACCESS:   34985916	FORWARD:     696762	MERGED:       1319	TO_CACHE:   34984597
L1D PQ	ACCESS:    5278737	FORWARD:          0	MERGED:          0	TO_CACHE:    5278730

L1D UNIQUE REGIONS ACCESSED: 0
L1D REGIONS CONFLICTS: 0
L1D Cross Page Prefetch Requests: 0
L1D Same Page Prefetch Requests: 7890459
L1D ROI Sum of L1D PQ occupancy: 68429059
L1D PREFETCHES PUSHED FROM L2C: 0
L1I TOTAL     ACCESS:   17835476  HIT:   17835476  MISS:          0  HIT %:        100  MISS %:          0   MPKI: 0
L1I LOAD      ACCESS:   17835476  HIT:   17835476  MISS:          0  HIT %:        100  MISS %:          0   MPKI: 0
L1I PREFETCH  REQUESTED:          0  ISSUED:          0  USEFUL:          0  USELESS:          0
L1I USEFUL LOAD PREFETCHES:          0 PREFETCH ISSUED TO LOWER LEVEL:          0  ACCURACY: -nan
L1I TIMELY PREFETCHES:          0 LATE PREFETCHES: 0 DROPPED PREFETCHES: 0
L1I PREFETCHES SAME FILL-ORIGIN LEVEL: 0 DIFFERENT FILL-ORIGIN LEVEL: 0
L1I AVERAGE MISS LATENCY: -nan cycles
L1I RQ	ACCESS:   29881471	FORWARD:          0	MERGED:   12045996	TO_CACHE:   17835475

BTB TOTAL     ACCESS:   10240262  HIT:   10240257  MISS:          5  HIT %:        100  MISS %: 4.88269e-05   MPKI: 5e-05
BTB BRANCH_DIRECT_JUMP	ACCESS:    1493832  HIT:    1493831  MISS:          1
BTB BRANCH_INDIRECT	ACCESS:          0  HIT:          0  MISS:          0
BTB BRANCH_CONDITIONAL	ACCESS:    4373200  HIT:    4373198  MISS:          2
BTB BRANCH_DIRECT_CALL	ACCESS:    2186615  HIT:    2186614  MISS:          1
BTB BRANCH_INDIRECT_CALL	ACCESS:          0  HIT:          0  MISS:          0
BTB BRANCH_RETURN	ACCESS:    2186615  HIT:    2186614  MISS:          1
BTB BRANCH_OTHER ACCESS:          0  HIT:          0  MISS:          0

L2C TOTAL     ACCESS:   25741328  HIT:   12876380  MISS:   12864948  HIT %:    50.0222  MISS %:    49.9778   MPKI: 128.649
L2C LOAD      ACCESS:    2266712  HIT:     647551  MISS:    1619161  HIT %:    28.5679  MISS %:    71.4321   MPKI: 16.1916
L2C DATA LOAD MPKI: 16.1916
L2C INSTRUCTION LOAD MPKI: 0
L2C RFO       ACCESS:    4373223  HIT:        181  MISS:    4373042  HIT %: 0.00413882  MISS %:    99.9959   MPKI: 43.7304
L2C PREFETCH  ACCESS:    6602874  HIT:    2375268  MISS:    4227606  HIT %:    35.9732  MISS %:    64.0268   MPKI: 42.2761
L2C DATA PREFETCH MPKI: 42.2761
L2C INSTRUCTION PREFETCH MPKI: 0
L2C WRITEBACK ACCESS:    8992177  HIT:    8507590  MISS:     484587  HIT %:     94.611  MISS %:    5.38898   MPKI: 4.84587
L2C LOAD TRANSLATION ACCESS:    3506342  HIT:    1345790  MISS:    2160552  HIT %:    38.3816  MISS %:    61.6184   MPKI: 21.6055
L2C PREFETCH  REQUESTED:    4668582  ISSUED:    4668579  USEFUL:      70909  USELESS:    4156642
L2C USEFUL LOAD PREFETCHES:      70909 PREFETCH ISSUED TO LOWER LEVEL:    4232544  ACCURACY: 1.67533
L2C TIMELY PREFETCHES:      70909 LATE PREFETCHES: 4935 DROPPED PREFETCHES: 0
L2C PREFETCHES SAME FILL-ORIGIN LEVEL: 1964499 DIFFERENT FILL-ORIGIN LEVEL: 0
L2C AVERAGE MISS LATENCY: 271.73 cycles
L2C RQ	ACCESS:   10146302	FORWARD:          0	MERGED:          0	TO_CACHE:   10146281
L2C WQ	ACCESS:    8992177	FORWARD:         30	MERGED:          0	TO_CACHE:    8992177
L2C PQ	ACCESS:    9206190	FORWARD:          0	MERGED:    1278939	TO_CACHE:    7927242

L2C Instructions Evicting Data 0
L2C Translations Evicting Data 1791447
L2C Data Evicting Data 8465300
L2C Instructions Evicting Instructions 0
L2C Translations Evicting Instructions 0
L2C Data Evicting Instructions 0
L2C Instructions Evicting Translations 0
L2C Translations Evicting Translations 369105
L2C Data Evicting Translations 1754509
L2C Dense regions hint from L2: 0
PSCL5 TOTAL     ACCESS:    2419685  HIT:    2419685  MISS:          0  HIT %:        100  MISS %:          0   MPKI: 0
PSCL5 LOAD TRANSLATION ACCESS:    2419685  HIT:    2419685  MISS:          0  HIT %:        100  MISS %:          0   MPKI: 0
PSCL5 PREFETCH  REQUESTED:          0  ISSUED:          0  USEFUL:          0  USELESS:          0
PSCL5 USEFUL LOAD PREFETCHES:          0 PREFETCH ISSUED TO LOWER LEVEL:          0  ACCURACY: -nan
PSCL5 TIMELY PREFETCHES:          0 LATE PREFETCHES: 0 DROPPED PREFETCHES: 0
PSCL5 PREFETCHES SAME FILL-ORIGIN LEVEL: 0 DIFFERENT FILL-ORIGIN LEVEL: 0

PSCL4 TOTAL     ACCESS:    2419685  HIT:    2419685  MISS:          0  HIT %:        100  MISS %:          0   MPKI: 0
PSCL4 LOAD TRANSLATION ACCESS:    2419685  HIT:    2419685  MISS:          0  HIT %:        100  MISS %:          0   MPKI: 0
PSCL4 PREFETCH  REQUESTED:          0  ISSUED:          0  USEFUL:          0  USELESS:          0
PSCL4 USEFUL LOAD PREFETCHES:          0 PREFETCH ISSUED TO LOWER LEVEL:          0  ACCURACY: -nan
PSCL4 TIMELY PREFETCHES:          0 LATE PREFETCHES: 0 DROPPED PREFETCHES: 0
PSCL4 PREFETCHES SAME FILL-ORIGIN LEVEL: 0 DIFFERENT FILL-ORIGIN LEVEL: 0

PSCL3 TOTAL     ACCESS:    2419685  HIT:    2419685  MISS:          0  HIT %:        100  MISS %:          0   MPKI: 0
PSCL3 LOAD TRANSLATION ACCESS:    2419685  HIT:    2419685  MISS:          0  HIT %:        100  MISS %:          0   MPKI: 0
PSCL3 PREFETCH  REQUESTED:          0  ISSUED:          0  USEFUL:          0  USELESS:          0
PSCL3 USEFUL LOAD PREFETCHES:          0 PREFETCH ISSUED TO LOWER LEVEL:          0  ACCURACY: -nan
PSCL3 TIMELY PREFETCHES:          0 LATE PREFETCHES: 0 DROPPED PREFETCHES: 0
PSCL3 PREFETCHES SAME FILL-ORIGIN LEVEL: 0 DIFFERENT FILL-ORIGIN LEVEL: 0

PSCL2 TOTAL     ACCESS:    2419684  HIT:    1332952  MISS:    1086732  HIT %:    55.0879  MISS %:    44.9121   MPKI: 10.8673
PSCL2 LOAD TRANSLATION ACCESS:    2419684  HIT:    1332952  MISS:    1086732  HIT %:    55.0879  MISS %:    44.9121   MPKI: 10.8673
PSCL2 PREFETCH  REQUESTED:          0  ISSUED:          0  USEFUL:          0  USELESS:          0
PSCL2 USEFUL LOAD PREFETCHES:          0 PREFETCH ISSUED TO LOWER LEVEL:          0  ACCURACY: -nan
PSCL2 TIMELY PREFETCHES:          0 LATE PREFETCHES: 0 DROPPED PREFETCHES: 0
PSCL2 PREFETCHES SAME FILL-ORIGIN LEVEL: 0 DIFFERENT FILL-ORIGIN LEVEL: 0

LLC TOTAL     ACCESS:   20784636  HIT:   10934174  MISS:    9850462  HIT %:     52.607  MISS %:     47.393   MPKI: 98.5046
LLC LOAD      ACCESS:    1614210  HIT:     908838  MISS:     705372  HIT %:    56.3023  MISS %:    43.6977   MPKI: 7.05372
LLC RFO       ACCESS:    4373042  HIT:      19122  MISS:    4353920  HIT %:    0.43727  MISS %:    99.5627   MPKI: 43.5392
LLC PREFETCH  ACCESS:    4232540  HIT:    1258367  MISS:    2974173  HIT %:    29.7308  MISS %:    70.2692   MPKI: 29.7417
LLC WRITEBACK ACCESS:    8404292  HIT:    8234546  MISS:     169746  HIT %:    97.9802  MISS %:    2.01975   MPKI: 1.69746
LLC LOAD TRANSLATION ACCESS:    2160552  HIT:     513301  MISS:    1647251  HIT %:    23.7579  MISS %:    76.2421   MPKI: 16.4725
LLC PREFETCH  REQUESTED:          0  ISSUED:          0  USEFUL:      53925  USELESS:    2920375
LLC USEFUL LOAD PREFETCHES:      53925 PREFETCH ISSUED TO LOWER LEVEL:    2974176  ACCURACY: 1.81311
LLC TIMELY PREFETCHES:      53925 LATE PREFETCHES: 0 DROPPED PREFETCHES: 0
LLC PREFETCHES SAME FILL-ORIGIN LEVEL: 0 DIFFERENT FILL-ORIGIN LEVEL: 0
LLC AVERAGE MISS LATENCY: 317.034 cycles
LLC RQ	ACCESS:    8147824	FORWARD:          0	MERGED:          0	TO_CACHE:    8147808
LLC WQ	ACCESS:    8404292	FORWARD:         17	MERGED:          0	TO_CACHE:    8404292
LLC PQ	ACCESS:    4232544	FORWARD:          0	MERGED:          0	TO_CACHE:    4232543

LLC Dense regions hint to LLC: 0

RAW hits: 2744272
Loads Generated: 41545803
Loads sent to L1D: 38801532
Stores Generated: 34985944
Stores sent to L1D: 34985916
Major fault: 0 Minor fault: 270333
Allocated PAGES: 270333

stream: 
stream:times selected: 16961675
stream:pref_filled: 3057553
stream:pref_useful: 47093
stream:pref_late: 6325
stream:misses: 466621
stream:misses_by_poll: 0

CS: 
CS:times selected: 9304498
CS:pref_filled: 3336203
CS:pref_useful: 3328901
CS:pref_late: 120965
CS:misses: 286009
CS:misses_by_poll: 15006

CPLX: 
CPLX:times selected: 7623345
CPLX:pref_filled: 298907
CPLX:pref_useful: 59726
CPLX:pref_late: 960
CPLX:misses: 2760019
CPLX:misses_by_poll: 729

NL_L1: 
NL:times selected: 51310
NL:pref_filled: 11630
NL:pref_useful: 338
NL:pref_late: 19
NL:misses: 17221
NL:misses_by_poll: 2

total selections: 33940828
total_filled: 4410143
total_useful: 2224749
total_late: 130818
total_polluted: 15737
total_misses_after_warmup: 2431156
conflicts: 0
Degree Incremented Times: 172980
Degree Decremented Times: 528170

L1 IP Table Write Accesses: 29236054
L1 IP Table Read Accesses: 29236054
L1 RST Write Accesses: 11338217
L1 RST Read Accesses: 22676434
L1 CSPT Write Accesses: 11338217
L1 CSPT Read Accesses: 16550089
L1 RR Filter Tag Write Accesses: 5278737
L1 RR Filter Tag Read Accesses: 815968841
L1 IP Table Tag Write Accesses: 29236054
L1 IP Table Tag Read Accesses: 29236054
L1 RST Tag Write Accesses: 0
L1 RST Tag Read Accesses: 101930721
L1 RR Filter Write Accesses: 0
L1 RR Filter Read Accesses: 30566166
test: 3174633
L2 IP Table Read Accesses: 12010004
L2 IP Table Write Accesses: 9743291
L2 IP Table Tag Read Accesses: 6005002
L2 IP Table Tag Write Accesses: 6005002

DRAM Statistics
 CHANNEL 0
 RQ ROW_BUFFER_HIT:      84261  ROW_BUFFER_MISS:    9594785
 DBUS_CONGESTED:         19
 WQ ROW_BUFFER_HIT:    1234981  ROW_BUFFER_MISS:    6260897  FULL:          0

 AVG_CONGESTED_CYCLE: 4
 All warmup complete: 2
Channel 0 Bank busy for read cycles: 0
Channel 0 Bank busy for write cycles: 0
Channel 0
Rank 0
0banks busy for read cycles: 721514
0banks busy for write cycles: 0
1banks busy for read cycles: 53372303
1banks busy for write cycles: 1108153
2banks busy for read cycles: 72462264
2banks busy for write cycles: 1107769
3banks busy for read cycles: 112958539
3banks busy for write cycles: 1126188
4banks busy for read cycles: 80046973
4banks busy for write cycles: 2156023
5banks busy for read cycles: 59557597
5banks busy for write cycles: 4486076
6banks busy for read cycles: 36533506
6banks busy for write cycles: 10841241
7banks busy for read cycles: 17139820
7banks busy for write cycles: 43165610
8banks busy for read cycles: 5107813
8banks busy for write cycles: 153199468

CPU 0 Branch Prediction Accuracy: 95.3107% MPKI: 5.82735 Average ROB Occupancy at Mispredict: 114.893
Branch types
NOT_BRANCH: 87572869 87.5729%
BRANCH_DIRECT_JUMP: 1493832 1.49383%
BRANCH_INDIRECT: 0 0%
BRANCH_CONDITIONAL: 6559846 6.55985%
BRANCH_DIRECT_CALL: 2186615 2.18662%
BRANCH_INDIRECT_CALL: 0 0%
BRANCH_RETURN: 2186615 2.18662%
BRANCH_OTHER: 0 0%

DRAM PAGES: 1048576
Allocated PAGES: 270333
