
*** ChampSim Multicore Out-of-Order Simulator ***

Warmup Instructions: 50000000
Simulation Instructions: 100000000
Number of CPUs: 1
LLC sets: 2048
LLC ways: 16
Off-chip DRAM Size: 4096 MB Channels: 1 Width: 64-bit Data Rate: 6400 MT/s
CPU 0 runs ../SPEC2017//605.mcf_s-665B.champsimtrace.xz
.xz
NUM_OF_IPS_IN_CRITICAL_IP_TRAINING: 64
NUM_OF_CRITICAL_IP_TRAINING_TABLE_WAYS: 2
NUM_OF_CRITICAL_IP_TRAINING_TABLE_SETS: 32
WOBBLY_CRITICAL_IP_CACHE_SETS: 32
WOBBLY_CRITICAL_IP_CACHE_WAYS: 4
BTB has LRU replacement policy
ITLB has LRU replacement policy
DTLB has LRU replacement policy
STLB has LRU replacement policy
L1I has LRU replacement policy
IP Table Entries: 64
L1D has LRU replacement policy
Initialize SRRIP state for L2C
Initialize DRRIP state for LLC
Heartbeat CPU 0 instructions: 10000000 cycles: 3318057 heartbeat IPC: 3.01381 cumulative IPC: 3.01381 (Simulation time: 0 hr 9 min 0 sec) 
Heartbeat CPU 0 instructions: 20000000 cycles: 6640927 heartbeat IPC: 3.00945 cumulative IPC: 3.01163 (Simulation time: 0 hr 16 min 32 sec) 
Heartbeat CPU 0 instructions: 30000002 cycles: 9955731 heartbeat IPC: 3.01677 cumulative IPC: 3.01334 (Simulation time: 0 hr 23 min 5 sec) 
Heartbeat CPU 0 instructions: 40000003 cycles: 13270463 heartbeat IPC: 3.01684 cumulative IPC: 3.01421 (Simulation time: 0 hr 29 min 27 sec) 
Heartbeat CPU 0 instructions: 50000002 cycles: 16579696 heartbeat IPC: 3.02185 cumulative IPC: 3.01574 (Simulation time: 0 hr 35 min 15 sec) 

Warmup complete CPU 0 instructions: 50000002 cycles: 16579696 (Simulation time: 0 hr 35 min 15 sec) 

% increase in all ip prefetch 811.263
% increase in all ip prefetch 0.61215
Heartbeat CPU 0 instructions: 60000003 cycles: 52820753 heartbeat IPC: 0.27593 cumulative IPC: 0.27593 (Simulation time: 0 hr 39 min 36 sec) 
Heartbeat CPU 0 instructions: 70000003 cycles: 88882196 heartbeat IPC: 0.277305 cumulative IPC: 0.276616 (Simulation time: 0 hr 43 min 34 sec) 
Heartbeat CPU 0 instructions: 80000001 cycles: 125038964 heartbeat IPC: 0.276573 cumulative IPC: 0.276602 (Simulation time: 0 hr 47 min 28 sec) 
Heartbeat CPU 0 instructions: 90000002 cycles: 161743938 heartbeat IPC: 0.272443 cumulative IPC: 0.27555 (Simulation time: 0 hr 51 min 7 sec) 
Heartbeat CPU 0 instructions: 100000000 cycles: 197500604 heartbeat IPC: 0.279668 cumulative IPC: 0.276364 (Simulation time: 0 hr 54 min 9 sec) 
Heartbeat CPU 0 instructions: 110000000 cycles: 233335973 heartbeat IPC: 0.279054 cumulative IPC: 0.276809 (Simulation time: 1 hr 0 min 19 sec) 
Heartbeat CPU 0 instructions: 120000000 cycles: 268971919 heartbeat IPC: 0.280616 cumulative IPC: 0.277346 (Simulation time: 1 hr 7 min 47 sec) 
Heartbeat CPU 0 instructions: 130000000 cycles: 304528944 heartbeat IPC: 0.281238 cumulative IPC: 0.277827 (Simulation time: 1 hr 13 min 38 sec) 
Heartbeat CPU 0 instructions: 140000002 cycles: 340685322 heartbeat IPC: 0.276576 cumulative IPC: 0.277687 (Simulation time: 1 hr 19 min 11 sec) 
Heartbeat CPU 0 instructions: 150000000 cycles: 376683874 heartbeat IPC: 0.277789 cumulative IPC: 0.277697 (Simulation time: 1 hr 24 min 31 sec) 
Finished CPU 0 instructions: 100000000 cycles: 360104180 cumulative IPC: 0.277697 (Simulation time: 1 hr 24 min 31 sec) 

ChampSim completed all CPUs

Region of Interest Statistics

CPU 0 cumulative IPC: 0.277697 instructions: 100000000 cycles: 360104180

CPU 0 Average Load ROB stall cycles: 2.47293e+07
CPU 0 Fraction of times ROB stalled by Loads: 12.5178
CPU 0 Percentage of Load stall cycles in Total stall cycles: 2.35024e+08
 Total stall cycles: 246352560
 Total load stall cycles: 578988033840665
CPU 0 NUM of IPS identified critical: 5
CPU 0 Num of Load IPs stalling ROB: 168
Threshold modification factor: -1
Max PIST entries: 51
Min PIST entries: 0
Avg PIST entries: 29.8133
Trouble in retire width: 0.955114
MaC = Marked as critical.
lt_50_percent_before_Mac: 5
gt_90_percent_before_Mac: 0
gt_75_percent_before_Mac: 0
gt_50_percent_before_Mac: 0
stall_proportion_bin_same_before_after: 0
stall_proportion_bin_lower_before_after: 0
stall_proportion_bin_upper_before_after: 0
average_stall_proportion_before: 0.227937
average_stall_proportion_after: 0.228399
Critical IP stalls, total frequency: 217015
Non-critical IP stalls, total frequency: 2664128
Critical_IP_ROB_Stalls_Bucket_0: 131109
Non-critical_IP_ROB_Stalls_Bucket_0: 2534829
Critical_IP_ROB_Stalls_Bucket_1: 38042
Non-critical_IP_ROB_Stalls_Bucket_1: 127385
Critical_IP_ROB_Stalls_Bucket_2: 17014
Non-critical_IP_ROB_Stalls_Bucket_2: 24015
Critical_IP_ROB_Stalls_Bucket_3: 8715
Non-critical_IP_ROB_Stalls_Bucket_3: 9464
Critical_IP_ROB_Stalls_Bucket_4: 5748
Non-critical_IP_ROB_Stalls_Bucket_4: 4737
Critical_IP_ROB_Stalls_Bucket_5: 3905
Non-critical_IP_ROB_Stalls_Bucket_5: 2735
Critical_IP_ROB_Stalls_Bucket_6: 12482
Non-critical_IP_ROB_Stalls_Bucket_6: 10612
0 => IPs accounting for >50 percent of stalls, 1 => 55, 2 => 60, 3 => 65 and so on till 90.
percent50: 53.0633 num IPs:6
percent55: 58.4719 num IPs:7
percent60: 63.8757 num IPs:8
percent65: 68.0394 num IPs:9
percent70: 71.9969 num IPs:10
percent75: 75.9246 num IPs:11
percent80: 81.2755 num IPs:13
percent85: 85.1815 num IPs:15
percent90: 90.3254 num IPs:20
Critical_ROB_Stalls_Percent_0_Bucket_0: 1453802
Non-critical_ROB_Stalls_Percent_0_Bucket_0: 1212136
Critical_ROB_Stalls_Percent_0_Bucket_1: 64635
Non-critical_ROB_Stalls_Percent_0_Bucket_1: 100792
Critical_ROB_Stalls_Percent_0_Bucket_2: 4715
Non-critical_ROB_Stalls_Percent_0_Bucket_2: 36314
Critical_ROB_Stalls_Percent_0_Bucket_3: 2334
Non-critical_ROB_Stalls_Percent_0_Bucket_3: 15845
Critical_ROB_Stalls_Percent_0_Bucket_4: 936
Non-critical_ROB_Stalls_Percent_0_Bucket_4: 9549
Critical_ROB_Stalls_Percent_0_Bucket_5: 605
Non-critical_ROB_Stalls_Percent_0_Bucket_5: 6035
Critical_ROB_Stalls_Percent_0_Bucket_6: 1803
Non-critical_ROB_Stalls_Percent_0_Bucket_6: 21291
Critical_ROB_Stalls_Percent_1_Bucket_0: 1609066
Non-critical_ROB_Stalls_Percent_1_Bucket_0: 1056872
Critical_ROB_Stalls_Percent_1_Bucket_1: 65001
Non-critical_ROB_Stalls_Percent_1_Bucket_1: 100426
Critical_ROB_Stalls_Percent_1_Bucket_2: 4807
Non-critical_ROB_Stalls_Percent_1_Bucket_2: 36222
Critical_ROB_Stalls_Percent_1_Bucket_3: 2411
Non-critical_ROB_Stalls_Percent_1_Bucket_3: 15768
Critical_ROB_Stalls_Percent_1_Bucket_4: 952
Non-critical_ROB_Stalls_Percent_1_Bucket_4: 9533
Critical_ROB_Stalls_Percent_1_Bucket_5: 617
Non-critical_ROB_Stalls_Percent_1_Bucket_5: 6023
Critical_ROB_Stalls_Percent_1_Bucket_6: 1806
Non-critical_ROB_Stalls_Percent_1_Bucket_6: 21288
Critical_ROB_Stalls_Percent_2_Bucket_0: 1763929
Non-critical_ROB_Stalls_Percent_2_Bucket_0: 902009
Critical_ROB_Stalls_Percent_2_Bucket_1: 65537
Non-critical_ROB_Stalls_Percent_2_Bucket_1: 99890
Critical_ROB_Stalls_Percent_2_Bucket_2: 4944
Non-critical_ROB_Stalls_Percent_2_Bucket_2: 36085
Critical_ROB_Stalls_Percent_2_Bucket_3: 2516
Non-critical_ROB_Stalls_Percent_2_Bucket_3: 15663
Critical_ROB_Stalls_Percent_2_Bucket_4: 976
Non-critical_ROB_Stalls_Percent_2_Bucket_4: 9509
Critical_ROB_Stalls_Percent_2_Bucket_5: 635
Non-critical_ROB_Stalls_Percent_2_Bucket_5: 6005
Critical_ROB_Stalls_Percent_2_Bucket_6: 1812
Non-critical_ROB_Stalls_Percent_2_Bucket_6: 21282
Critical_ROB_Stalls_Percent_3_Bucket_0: 1852650
Non-critical_ROB_Stalls_Percent_3_Bucket_0: 813288
Critical_ROB_Stalls_Percent_3_Bucket_1: 83110
Non-critical_ROB_Stalls_Percent_3_Bucket_1: 82317
Critical_ROB_Stalls_Percent_3_Bucket_2: 12860
Non-critical_ROB_Stalls_Percent_3_Bucket_2: 28169
Critical_ROB_Stalls_Percent_3_Bucket_3: 5492
Non-critical_ROB_Stalls_Percent_3_Bucket_3: 12687
Critical_ROB_Stalls_Percent_3_Bucket_4: 2181
Non-critical_ROB_Stalls_Percent_3_Bucket_4: 8304
Critical_ROB_Stalls_Percent_3_Bucket_5: 1179
Non-critical_ROB_Stalls_Percent_3_Bucket_5: 5461
Critical_ROB_Stalls_Percent_3_Bucket_6: 2840
Non-critical_ROB_Stalls_Percent_3_Bucket_6: 20254
Critical_ROB_Stalls_Percent_4_Bucket_0: 1960438
Non-critical_ROB_Stalls_Percent_4_Bucket_0: 705500
Critical_ROB_Stalls_Percent_4_Bucket_1: 87266
Non-critical_ROB_Stalls_Percent_4_Bucket_1: 78161
Critical_ROB_Stalls_Percent_4_Bucket_2: 13717
Non-critical_ROB_Stalls_Percent_4_Bucket_2: 27312
Critical_ROB_Stalls_Percent_4_Bucket_3: 5913
Non-critical_ROB_Stalls_Percent_4_Bucket_3: 12266
Critical_ROB_Stalls_Percent_4_Bucket_4: 2355
Non-critical_ROB_Stalls_Percent_4_Bucket_4: 8130
Critical_ROB_Stalls_Percent_4_Bucket_5: 1315
Non-critical_ROB_Stalls_Percent_4_Bucket_5: 5325
Critical_ROB_Stalls_Percent_4_Bucket_6: 3330
Non-critical_ROB_Stalls_Percent_4_Bucket_6: 19764
Critical_ROB_Stalls_Percent_5_Bucket_0: 2054698
Non-critical_ROB_Stalls_Percent_5_Bucket_0: 611240
Critical_ROB_Stalls_Percent_5_Bucket_1: 100311
Non-critical_ROB_Stalls_Percent_5_Bucket_1: 65116
Critical_ROB_Stalls_Percent_5_Bucket_2: 16775
Non-critical_ROB_Stalls_Percent_5_Bucket_2: 24254
Critical_ROB_Stalls_Percent_5_Bucket_3: 7071
Non-critical_ROB_Stalls_Percent_5_Bucket_3: 11108
Critical_ROB_Stalls_Percent_5_Bucket_4: 2911
Non-critical_ROB_Stalls_Percent_5_Bucket_4: 7574
Critical_ROB_Stalls_Percent_5_Bucket_5: 1613
Non-critical_ROB_Stalls_Percent_5_Bucket_5: 5027
Critical_ROB_Stalls_Percent_5_Bucket_6: 4118
Non-critical_ROB_Stalls_Percent_5_Bucket_6: 18976
Critical_ROB_Stalls_Percent_6_Bucket_0: 2193854
Non-critical_ROB_Stalls_Percent_6_Bucket_0: 472084
Critical_ROB_Stalls_Percent_6_Bucket_1: 111593
Non-critical_ROB_Stalls_Percent_6_Bucket_1: 53834
Critical_ROB_Stalls_Percent_6_Bucket_2: 19675
Non-critical_ROB_Stalls_Percent_6_Bucket_2: 21354
Critical_ROB_Stalls_Percent_6_Bucket_3: 7662
Non-critical_ROB_Stalls_Percent_6_Bucket_3: 10517
Critical_ROB_Stalls_Percent_6_Bucket_4: 3049
Non-critical_ROB_Stalls_Percent_6_Bucket_4: 7436
Critical_ROB_Stalls_Percent_6_Bucket_5: 1681
Non-critical_ROB_Stalls_Percent_6_Bucket_5: 4959
Critical_ROB_Stalls_Percent_6_Bucket_6: 4150
Non-critical_ROB_Stalls_Percent_6_Bucket_6: 18944
Critical_ROB_Stalls_Percent_7_Bucket_0: 2277856
Non-critical_ROB_Stalls_Percent_7_Bucket_0: 388082
Critical_ROB_Stalls_Percent_7_Bucket_1: 128111
Non-critical_ROB_Stalls_Percent_7_Bucket_1: 37316
Critical_ROB_Stalls_Percent_7_Bucket_2: 24747
Non-critical_ROB_Stalls_Percent_7_Bucket_2: 16282
Critical_ROB_Stalls_Percent_7_Bucket_3: 9968
Non-critical_ROB_Stalls_Percent_7_Bucket_3: 8211
Critical_ROB_Stalls_Percent_7_Bucket_4: 5072
Non-critical_ROB_Stalls_Percent_7_Bucket_4: 5413
Critical_ROB_Stalls_Percent_7_Bucket_5: 2666
Non-critical_ROB_Stalls_Percent_7_Bucket_5: 3974
Critical_ROB_Stalls_Percent_7_Bucket_6: 5782
Non-critical_ROB_Stalls_Percent_7_Bucket_6: 17312
Critical_ROB_Stalls_Percent_8_Bucket_0: 2403177
Non-critical_ROB_Stalls_Percent_8_Bucket_0: 262761
Critical_ROB_Stalls_Percent_8_Bucket_1: 138844
Non-critical_ROB_Stalls_Percent_8_Bucket_1: 26583
Critical_ROB_Stalls_Percent_8_Bucket_2: 32076
Non-critical_ROB_Stalls_Percent_8_Bucket_2: 8953
Critical_ROB_Stalls_Percent_8_Bucket_3: 12222
Non-critical_ROB_Stalls_Percent_8_Bucket_3: 5957
Critical_ROB_Stalls_Percent_8_Bucket_4: 6643
Non-critical_ROB_Stalls_Percent_8_Bucket_4: 3842
Critical_ROB_Stalls_Percent_8_Bucket_5: 3112
Non-critical_ROB_Stalls_Percent_8_Bucket_5: 3528
Critical_ROB_Stalls_Percent_8_Bucket_6: 6330
Non-critical_ROB_Stalls_Percent_8_Bucket_6: 16764
Average ROB occupancy Load Stall Begin: 26.2231
Average ROB occupancy Load Stall End: 28.0001
Min ROB occupancy Load Stall Begin: 1
Max ROB occupancy Load Stall Begin: 351
Min ROB occupancy Load Stall End: 1
Max ROB occupancy Load Stall End: 352
Average ROB occupancy Critical Load Stall Begin: 71.4649
Average ROB occupancy Critical Load Stall End: 73.3825
Min ROB occupancy Critical Load Stall Begin: 2
Max ROB occupancy Critical Load Stall Begin: 351
Min ROB occupancy Critical Load Stall End: 2
Max ROB occupancy Critical Load Stall End: 352
 ROB Load Stall Begin Bucket Count 0: 2709878
 ROB Load Stall End Bucket Count 0: 2665938
 ROB Critical Load Stall Begin Bucket Count 0: 106105
 ROB Critical Load Stall End Bucket Count 0: 105926
 ROB Load Stall Begin Bucket Count 1: 127237
 ROB Load Stall End Bucket Count 1: 165427
 ROB Critical Load Stall Begin Bucket Count 1: 33968
 ROB Critical Load Stall End Bucket Count 1: 32681
 ROB Load Stall Begin Bucket Count 2: 38400
 ROB Load Stall End Bucket Count 2: 41029
 ROB Critical Load Stall Begin Bucket Count 2: 14205
 ROB Critical Load Stall End Bucket Count 2: 14460
 ROB Load Stall Begin Bucket Count 3: 17416
 ROB Load Stall End Bucket Count 3: 18179
 ROB Critical Load Stall Begin Bucket Count 3: 7539
 ROB Critical Load Stall End Bucket Count 3: 7665
 ROB Load Stall Begin Bucket Count 4: 9448
 ROB Load Stall End Bucket Count 4: 10485
 ROB Critical Load Stall Begin Bucket Count 4: 4788
 ROB Critical Load Stall End Bucket Count 4: 5179
 ROB Load Stall Begin Bucket Count 5: 6497
 ROB Load Stall End Bucket Count 5: 6640
 ROB Critical Load Stall Begin Bucket Count 5: 3636
 ROB Critical Load Stall End Bucket Count 5: 3698
 ROB Load Stall Begin Bucket Count 6: 21916
 ROB Load Stall End Bucket Count 6: 23094
 ROB Critical Load Stall Begin Bucket Count 6: 11219
 ROB Critical Load Stall End Bucket Count 6: 11851
PIST Tag Read Accesses: 294052
PIST Read Accesses: 147026
PIST Tag Write Accesses: 294052
PIST Write Accesses: 147026
Criticality detector called times: 544785
Max global_stall_cycles_count: 200679
Threshold Modified: 1 times, factor: -1
ITLB TOTAL     ACCESS:   18144102  HIT:   18144102  MISS:          0  HIT %:        100  MISS %:          0   MPKI: 0
ITLB LOAD TRANSLATION ACCESS:   18144102  HIT:   18144102  MISS:          0  HIT %:        100  MISS %:          0   MPKI: 0
ITLB PREFETCH  REQUESTED:          0  ISSUED:          0  USEFUL:          0  USELESS:          0
ITLB USEFUL LOAD PREFETCHES:          0 PREFETCH ISSUED TO LOWER LEVEL:          0  ACCURACY: -nan
ITLB TIMELY PREFETCHES:          0 LATE PREFETCHES: 0 DROPPED PREFETCHES: 0
ITLB PREFETCHES SAME FILL-ORIGIN LEVEL: 0 DIFFERENT FILL-ORIGIN LEVEL: 0
ITLB AVERAGE MISS LATENCY: -nan cycles
ITLB RQ	ACCESS:   18994212	FORWARD:          0	MERGED:     850111	TO_CACHE:   18144101

DTLB TOTAL     ACCESS:   31053240  HIT:   29478555  MISS:    1574685  HIT %:    94.9291  MISS %:    5.07092   MPKI: 15.7469
DTLB LOAD TRANSLATION ACCESS:   31053240  HIT:   29478555  MISS:    1574685  HIT %:    94.9291  MISS %:    5.07092   MPKI: 15.7469
DTLB PREFETCH  REQUESTED:          0  ISSUED:          0  USEFUL:          0  USELESS:          0
DTLB USEFUL LOAD PREFETCHES:          0 PREFETCH ISSUED TO LOWER LEVEL:          0  ACCURACY: -nan
DTLB TIMELY PREFETCHES:          0 LATE PREFETCHES: 0 DROPPED PREFETCHES: 0
DTLB PREFETCHES SAME FILL-ORIGIN LEVEL: 0 DIFFERENT FILL-ORIGIN LEVEL: 0
DTLB AVERAGE MISS LATENCY: 10.8245 cycles
DTLB RQ	ACCESS:   37816217	FORWARD:          0	MERGED:    6572907	TO_CACHE:   31243310

STLB TOTAL     ACCESS:    7309889  HIT:    7286702  MISS:      23187  HIT %:    99.6828  MISS %:     0.3172   MPKI: 0.23187
STLB LOAD TRANSLATION ACCESS:    1574685  HIT:    1551498  MISS:      23187  HIT %:    98.5275  MISS %:    1.47248   MPKI: 0.23187
STLB TRANSLATION FROM L1D PREFETCHER ACCESS:    5735204  HIT:    5735204  MISS:          0  HIT %:        100  MISS %:          0   MPKI: 0
STLB PREFETCH  REQUESTED:          0  ISSUED:          0  USEFUL:          0  USELESS:          0
STLB USEFUL LOAD PREFETCHES:          0 PREFETCH ISSUED TO LOWER LEVEL:          0  ACCURACY: -nan
STLB TIMELY PREFETCHES:          0 LATE PREFETCHES: 0 DROPPED PREFETCHES: 0
STLB PREFETCHES SAME FILL-ORIGIN LEVEL: 0 DIFFERENT FILL-ORIGIN LEVEL: 0
STLB AVERAGE MISS LATENCY: 111.387 cycles
STLB RQ	ACCESS:    8112553	FORWARD:          0	MERGED:     802664	TO_CACHE:    7309889

STLB Hit, L1D data hit: 0
STLB Hit, L2C data hit: 0
STLB Hit, LLC data hit: 0
STLB Hit, LLC data miss: 0
STLB STLB hints to L2: 0
L1D TOTAL     ACCESS:   43359070  HIT:   37018817  MISS:    6340253  HIT %:    85.3773  MISS %:    14.6227   MPKI: 63.4025
L1D LOAD      ACCESS:   26067749  HIT:   23349242  MISS:    2718507  HIT %:    89.5714  MISS %:    10.4286   MPKI: 27.1851
L1D RFO       ACCESS:   11060836  HIT:   10674565  MISS:     386271  HIT %:    96.5078  MISS %:    3.49224   MPKI: 3.86271
L1D PREFETCH  ACCESS:    6230485  HIT:    2995010  MISS:    3235475  HIT %:    48.0703  MISS %:    51.9297   MPKI: 32.3548
L1D PREFETCH  REQUESTED:   13083904  ISSUED:   13083904  USEFUL:     835097  USELESS:    2400323
L1D USEFUL LOAD PREFETCHES:     835097 PREFETCH ISSUED TO LOWER LEVEL:    3435896  ACCURACY: 24.3051
L1D TIMELY PREFETCHES:     835097 LATE PREFETCHES: 199803 DROPPED PREFETCHES: 0
L1D PREFETCHES SAME FILL-ORIGIN LEVEL: 3435896 DIFFERENT FILL-ORIGIN LEVEL: 0
L1D AVERAGE MISS LATENCY: 5.48203e+06 cycles
L1D RQ	ACCESS:   33577643	FORWARD:          0	MERGED:    6333428	TO_CACHE:   26113261
L1D WQ	ACCESS:   11754634	FORWARD:    1139122	MERGED:      51678	TO_CACHE:   11702956
L1D PQ	ACCESS:    6546036	FORWARD:          0	MERGED:          0	TO_CACHE:    6537868

L1D UNIQUE REGIONS ACCESSED: 0
L1D REGIONS CONFLICTS: 0
L1D Cross Page Prefetch Requests: 0
L1D Same Page Prefetch Requests: 9918962
L1D ROI Sum of L1D PQ occupancy: 84942247
L1D PREFETCHES PUSHED FROM L2C: 0
L1I TOTAL     ACCESS:   18994213  HIT:   18994211  MISS:          2  HIT %:        100  MISS %: 1.05295e-05   MPKI: 2e-05
L1I LOAD      ACCESS:   18994213  HIT:   18994211  MISS:          2  HIT %:        100  MISS %: 1.05295e-05   MPKI: 2e-05
L1I PREFETCH  REQUESTED:          0  ISSUED:          0  USEFUL:          0  USELESS:          0
L1I USEFUL LOAD PREFETCHES:          0 PREFETCH ISSUED TO LOWER LEVEL:          0  ACCURACY: -nan
L1I TIMELY PREFETCHES:          0 LATE PREFETCHES: 0 DROPPED PREFETCHES: 0
L1I PREFETCHES SAME FILL-ORIGIN LEVEL: 0 DIFFERENT FILL-ORIGIN LEVEL: 0
L1I AVERAGE MISS LATENCY: 214 cycles
L1I RQ	ACCESS:   30758314	FORWARD:          0	MERGED:   11764102	TO_CACHE:   18994212

BTB TOTAL     ACCESS:   23681315  HIT:   22481474  MISS:    1199841  HIT %:    94.9334  MISS %:    5.06661   MPKI: 11.9984
BTB BRANCH_DIRECT_JUMP	ACCESS:    2599450  HIT:    2599413  MISS:         37
BTB BRANCH_INDIRECT	ACCESS:          0  HIT:          0  MISS:          0
BTB BRANCH_CONDITIONAL	ACCESS:   15578423  HIT:   15578344  MISS:         79
BTB BRANCH_DIRECT_CALL	ACCESS:    2602035  HIT:    2602017  MISS:         18
BTB BRANCH_INDIRECT_CALL	ACCESS:     149686  HIT:     149678  MISS:          8
BTB BRANCH_RETURN	ACCESS:    2751721  HIT:    1552022  MISS:    1199699
BTB BRANCH_OTHER ACCESS:          0  HIT:          0  MISS:          0

L2C TOTAL     ACCESS:    6935174  HIT:    3222765  MISS:    3712409  HIT %:    46.4699  MISS %:    53.5301   MPKI: 37.1241
L2C LOAD      ACCESS:    2518695  HIT:    1097879  MISS:    1420816  HIT %:    43.5892  MISS %:    56.4108   MPKI: 14.2082
L2C DATA LOAD MPKI: 14.2081
L2C INSTRUCTION LOAD MPKI: 2e-05
L2C RFO       ACCESS:     385644  HIT:     287340  MISS:      98304  HIT %:    74.5091  MISS %:    25.4909   MPKI: 0.98304
L2C PREFETCH  ACCESS:    3435888  HIT:    1254074  MISS:    2181814  HIT %:    36.4993  MISS %:    63.5007   MPKI: 21.8181
L2C DATA PREFETCH MPKI: 21.8181
L2C INSTRUCTION PREFETCH MPKI: 0
L2C WRITEBACK ACCESS:     571547  HIT:     570767  MISS:        780  HIT %:    99.8635  MISS %:   0.136472   MPKI: 0.0078
L2C LOAD TRANSLATION ACCESS:      23400  HIT:      12705  MISS:      10695  HIT %:    54.2949  MISS %:    45.7051   MPKI: 0.10695
L2C PREFETCH  REQUESTED:          0  ISSUED:          0  USEFUL:     129290  USELESS:    2052528
L2C USEFUL LOAD PREFETCHES:     129290 PREFETCH ISSUED TO LOWER LEVEL:    2181814  ACCURACY: 5.9258
L2C TIMELY PREFETCHES:     129290 LATE PREFETCHES: 0 DROPPED PREFETCHES: 0
L2C PREFETCHES SAME FILL-ORIGIN LEVEL: 0 DIFFERENT FILL-ORIGIN LEVEL: 0
L2C AVERAGE MISS LATENCY: 105.784 cycles
L2C RQ	ACCESS:    2927759	FORWARD:          0	MERGED:          0	TO_CACHE:    2927739
L2C WQ	ACCESS:     571547	FORWARD:         28	MERGED:          0	TO_CACHE:     571547
L2C PQ	ACCESS:    3435896	FORWARD:          0	MERGED:          0	TO_CACHE:    3435888

L2C Instructions Evicting Data 2
L2C Translations Evicting Data 10658
L2C Data Evicting Data 3690264
L2C Instructions Evicting Instructions 0
L2C Translations Evicting Instructions 0
L2C Data Evicting Instructions 2
L2C Instructions Evicting Translations 0
L2C Translations Evicting Translations 37
L2C Data Evicting Translations 10666
L2C Dense regions hint from L2: 0
PSCL5 TOTAL     ACCESS:      23187  HIT:      23187  MISS:          0  HIT %:        100  MISS %:          0   MPKI: 0
PSCL5 LOAD TRANSLATION ACCESS:      23187  HIT:      23187  MISS:          0  HIT %:        100  MISS %:          0   MPKI: 0
PSCL5 PREFETCH  REQUESTED:          0  ISSUED:          0  USEFUL:          0  USELESS:          0
PSCL5 USEFUL LOAD PREFETCHES:          0 PREFETCH ISSUED TO LOWER LEVEL:          0  ACCURACY: -nan
PSCL5 TIMELY PREFETCHES:          0 LATE PREFETCHES: 0 DROPPED PREFETCHES: 0
PSCL5 PREFETCHES SAME FILL-ORIGIN LEVEL: 0 DIFFERENT FILL-ORIGIN LEVEL: 0

PSCL4 TOTAL     ACCESS:      23187  HIT:      23187  MISS:          0  HIT %:        100  MISS %:          0   MPKI: 0
PSCL4 LOAD TRANSLATION ACCESS:      23187  HIT:      23187  MISS:          0  HIT %:        100  MISS %:          0   MPKI: 0
PSCL4 PREFETCH  REQUESTED:          0  ISSUED:          0  USEFUL:          0  USELESS:          0
PSCL4 USEFUL LOAD PREFETCHES:          0 PREFETCH ISSUED TO LOWER LEVEL:          0  ACCURACY: -nan
PSCL4 TIMELY PREFETCHES:          0 LATE PREFETCHES: 0 DROPPED PREFETCHES: 0
PSCL4 PREFETCHES SAME FILL-ORIGIN LEVEL: 0 DIFFERENT FILL-ORIGIN LEVEL: 0

PSCL3 TOTAL     ACCESS:      23187  HIT:      23187  MISS:          0  HIT %:        100  MISS %:          0   MPKI: 0
PSCL3 LOAD TRANSLATION ACCESS:      23187  HIT:      23187  MISS:          0  HIT %:        100  MISS %:          0   MPKI: 0
PSCL3 PREFETCH  REQUESTED:          0  ISSUED:          0  USEFUL:          0  USELESS:          0
PSCL3 USEFUL LOAD PREFETCHES:          0 PREFETCH ISSUED TO LOWER LEVEL:          0  ACCURACY: -nan
PSCL3 TIMELY PREFETCHES:          0 LATE PREFETCHES: 0 DROPPED PREFETCHES: 0
PSCL3 PREFETCHES SAME FILL-ORIGIN LEVEL: 0 DIFFERENT FILL-ORIGIN LEVEL: 0

PSCL2 TOTAL     ACCESS:      23187  HIT:      22859  MISS:        328  HIT %:    98.5854  MISS %:    1.41459   MPKI: 0.00328
PSCL2 LOAD TRANSLATION ACCESS:      23187  HIT:      22859  MISS:        328  HIT %:    98.5854  MISS %:    1.41459   MPKI: 0.00328
PSCL2 PREFETCH  REQUESTED:          0  ISSUED:          0  USEFUL:          0  USELESS:          0
PSCL2 USEFUL LOAD PREFETCHES:          0 PREFETCH ISSUED TO LOWER LEVEL:          0  ACCURACY: -nan
PSCL2 TIMELY PREFETCHES:          0 LATE PREFETCHES: 0 DROPPED PREFETCHES: 0
PSCL2 PREFETCHES SAME FILL-ORIGIN LEVEL: 0 DIFFERENT FILL-ORIGIN LEVEL: 0

LLC TOTAL     ACCESS:    3885899  HIT:    2281521  MISS:    1604378  HIT %:    58.7128  MISS %:    41.2872   MPKI: 16.0438
LLC LOAD      ACCESS:    1420814  HIT:     990972  MISS:     429842  HIT %:    69.7468  MISS %:    30.2532   MPKI: 4.29842
LLC RFO       ACCESS:      98299  HIT:      95017  MISS:       3282  HIT %:    96.6612  MISS %:    3.33879   MPKI: 0.03282
LLC PREFETCH  ACCESS:    2181813  HIT:    1031361  MISS:    1150452  HIT %:    47.2708  MISS %:    52.7292   MPKI: 11.5045
LLC WRITEBACK ACCESS:     174278  HIT:     157131  MISS:      17147  HIT %:    90.1611  MISS %:    9.83888   MPKI: 0.17147
LLC LOAD TRANSLATION ACCESS:      10695  HIT:       7040  MISS:       3655  HIT %:    65.8252  MISS %:    34.1748   MPKI: 0.03655
LLC PREFETCH  REQUESTED:          0  ISSUED:          0  USEFUL:     135732  USELESS:    1015230
LLC USEFUL LOAD PREFETCHES:     135732 PREFETCH ISSUED TO LOWER LEVEL:    1150452  ACCURACY: 11.7981
LLC TIMELY PREFETCHES:     135732 LATE PREFETCHES: 0 DROPPED PREFETCHES: 0
LLC PREFETCHES SAME FILL-ORIGIN LEVEL: 0 DIFFERENT FILL-ORIGIN LEVEL: 0
LLC AVERAGE MISS LATENCY: 174.862 cycles
LLC RQ	ACCESS:    1529815	FORWARD:          0	MERGED:          0	TO_CACHE:    1529808
LLC WQ	ACCESS:     174278	FORWARD:          8	MERGED:          0	TO_CACHE:     174278
LLC PQ	ACCESS:    2181814	FORWARD:          0	MERGED:          0	TO_CACHE:    2181813

LLC Dense regions hint to LLC: 0

RAW hits: 1544606
Loads Generated: 35122249
Loads sent to L1D: 33577643
Stores Generated: 11754604
Stores sent to L1D: 11754634
Major fault: 0 Minor fault: 20569
Allocated PAGES: 20569

stream: 
stream:times selected: 14086095
stream:pref_filled: 3651608
stream:pref_useful: 303800
stream:pref_late: 7088
stream:misses: 842627
stream:misses_by_poll: 0

CS: 
CS:times selected: 1767547
CS:pref_filled: 1035924
CS:pref_useful: 1017977
CS:pref_late: 232085
CS:misses: 301230
CS:misses_by_poll: 1362

CPLX: 
CPLX:times selected: 12212692
CPLX:pref_filled: 348080
CPLX:pref_useful: 44186
CPLX:pref_late: 768
CPLX:misses: 2980601
CPLX:misses_by_poll: 352

NL_L1: 
NL:times selected: 99908
NL:pref_filled: 30774
NL:pref_useful: 3004
NL:pref_late: 179
NL:misses: 29926
NL:misses_by_poll: 0

total selections: 28166242
total_filled: 3235475
total_useful: 835097
total_late: 244729
total_polluted: 1714
total_misses_after_warmup: 2764019
conflicts: 659273
Degree Incremented Times: 163960
Degree Decremented Times: 429201

L1 IP Table Write Accesses: 23112890
L1 IP Table Read Accesses: 22453617
L1 RST Write Accesses: 9289320
L1 RST Read Accesses: 18578640
L1 CSPT Write Accesses: 9289320
L1 CSPT Read Accesses: 17413386
L1 RR Filter Tag Write Accesses: 6546036
L1 RR Filter Tag Read Accesses: 350970914
L1 IP Table Tag Write Accesses: 26113261
L1 IP Table Tag Read Accesses: 26113261
L1 RST Tag Write Accesses: 0
L1 RST Tag Read Accesses: 82924896
L1 RR Filter Write Accesses: 0
L1 RR Filter Read Accesses: 12935584
test: 6995705

DRAM Statistics
 CHANNEL 0
 RQ ROW_BUFFER_HIT:     278199  ROW_BUFFER_MISS:    1309009
 DBUS_CONGESTED:        327
 WQ ROW_BUFFER_HIT:       6171  ROW_BUFFER_MISS:      28529  FULL:          0

 AVG_CONGESTED_CYCLE: 4
 All warmup complete: 2
Channel 0 Bank busy for read cycles: 0
Channel 0 Bank busy for write cycles: 0
Channel 0
Rank 0
0banks busy for read cycles: 271235357
0banks busy for write cycles: 24796
1banks busy for read cycles: 26562323
1banks busy for write cycles: 4845038
2banks busy for read cycles: 21386429
2banks busy for write cycles: 1045725
3banks busy for read cycles: 14546469
3banks busy for write cycles: 271960
4banks busy for read cycles: 9488525
4banks busy for write cycles: 87262
5banks busy for read cycles: 5861771
5banks busy for write cycles: 35263
6banks busy for read cycles: 3091441
6banks busy for write cycles: 16733
7banks busy for read cycles: 1213499
7banks busy for write cycles: 8309
8banks busy for read cycles: 372969
8banks busy for write cycles: 10312

CPU 0 Branch Prediction Accuracy: 93.0034% MPKI: 17.3454 Average ROB Occupancy at Mispredict: 19.5735
Branch types
NOT_BRANCH: 75208488 75.2085%
BRANCH_DIRECT_JUMP: 2599450 2.59945%
BRANCH_INDIRECT: 0 0%
BRANCH_CONDITIONAL: 16688242 16.6882%
BRANCH_DIRECT_CALL: 2602035 2.60203%
BRANCH_INDIRECT_CALL: 149686 0.149686%
BRANCH_RETURN: 2751721 2.75172%
BRANCH_OTHER: 0 0%

DRAM PAGES: 1048576
Allocated PAGES: 20569
