
*** ChampSim Multicore Out-of-Order Simulator ***

Warmup Instructions: 50000000
Simulation Instructions: 100000000
Number of CPUs: 1
LLC sets: 2048
LLC ways: 16
Off-chip DRAM Size: 4096 MB Channels: 1 Width: 64-bit Data Rate: 6400 MT/s
CPU 0 runs ../SPEC2017//605.mcf_s-1536B.champsimtrace.xz
.xz
NUM_OF_IPS_IN_CRITICAL_IP_TRAINING: 64
NUM_OF_CRITICAL_IP_TRAINING_TABLE_WAYS: 2
NUM_OF_CRITICAL_IP_TRAINING_TABLE_SETS: 32
WOBBLY_CRITICAL_IP_CACHE_SETS: 32
WOBBLY_CRITICAL_IP_CACHE_WAYS: 4
BTB has LRU replacement policy
ITLB has LRU replacement policy
DTLB has LRU replacement policy
STLB has LRU replacement policy
L1I has LRU replacement policy
L1D has LRU replacement policy
Bingo PHT WAYS: 16 and PHT_SIZE: 16384
Initialize SRRIP state for L2C
Initialize DRRIP state for LLC
Heartbeat CPU 0 instructions: 10000003 cycles: 2839363 heartbeat IPC: 3.52192 cumulative IPC: 3.52192 (Simulation time: 0 hr 6 min 21 sec) 
Heartbeat CPU 0 instructions: 20000003 cycles: 5667917 heartbeat IPC: 3.53538 cumulative IPC: 3.52863 (Simulation time: 0 hr 12 min 23 sec) 
Heartbeat CPU 0 instructions: 30000001 cycles: 8508607 heartbeat IPC: 3.52027 cumulative IPC: 3.52584 (Simulation time: 0 hr 17 min 22 sec) 
Heartbeat CPU 0 instructions: 40000001 cycles: 11362928 heartbeat IPC: 3.50346 cumulative IPC: 3.52022 (Simulation time: 0 hr 21 min 52 sec) 
Heartbeat CPU 0 instructions: 50000003 cycles: 14222506 heartbeat IPC: 3.49702 cumulative IPC: 3.51556 (Simulation time: 0 hr 25 min 57 sec) 

Warmup complete CPU 0 instructions: 50000003 cycles: 14222506 (Simulation time: 0 hr 25 min 57 sec) 

Heartbeat CPU 0 instructions: 60000003 cycles: 51417921 heartbeat IPC: 0.26885 cumulative IPC: 0.26885 (Simulation time: 0 hr 34 min 18 sec) 
Heartbeat CPU 0 instructions: 70000000 cycles: 88550835 heartbeat IPC: 0.269303 cumulative IPC: 0.269076 (Simulation time: 0 hr 41 min 48 sec) 
Heartbeat CPU 0 instructions: 80000001 cycles: 125699702 heartbeat IPC: 0.269187 cumulative IPC: 0.269113 (Simulation time: 0 hr 47 min 46 sec) 
Heartbeat CPU 0 instructions: 90000000 cycles: 162736215 heartbeat IPC: 0.270004 cumulative IPC: 0.269335 (Simulation time: 0 hr 54 min 53 sec) 
Heartbeat CPU 0 instructions: 100000000 cycles: 199988829 heartbeat IPC: 0.268438 cumulative IPC: 0.269155 (Simulation time: 1 hr 2 min 3 sec) 
Heartbeat CPU 0 instructions: 110000000 cycles: 237074390 heartbeat IPC: 0.269647 cumulative IPC: 0.269237 (Simulation time: 1 hr 7 min 20 sec) 
Heartbeat CPU 0 instructions: 120000000 cycles: 274578712 heartbeat IPC: 0.266636 cumulative IPC: 0.268862 (Simulation time: 1 hr 11 min 50 sec) 
Heartbeat CPU 0 instructions: 130000003 cycles: 311860191 heartbeat IPC: 0.26823 cumulative IPC: 0.268783 (Simulation time: 1 hr 14 min 3 sec) 
Heartbeat CPU 0 instructions: 140000000 cycles: 349308404 heartbeat IPC: 0.267035 cumulative IPC: 0.268588 (Simulation time: 1 hr 14 min 49 sec) 
Heartbeat CPU 0 instructions: 150000001 cycles: 386698997 heartbeat IPC: 0.267447 cumulative IPC: 0.268473 (Simulation time: 1 hr 15 min 34 sec) 
Finished CPU 0 instructions: 100000002 cycles: 372476492 cumulative IPC: 0.268473 (Simulation time: 1 hr 15 min 34 sec) 

ChampSim completed all CPUs

Region of Interest Statistics

CPU 0 cumulative IPC: 0.268473 instructions: 100000002 cycles: 372476492

CPU 0 Average Load ROB stall cycles: 8.13915e+07
CPU 0 Fraction of times ROB stalled by Loads: 40.6253
CPU 0 Percentage of Load stall cycles in Total stall cycles: 2.72514e+08
Issued all: 354402849
Issued LT all: 350120806
rob_not_full_when_issued_lt_all: 12507738
Issued LT one: 327271053
rob_not_full_when_issued_lt_one: 10565573
 Total stall cycles: 346021448
 Total load stall cycles: 942958617374254
CPU 0 NUM of IPS identified critical: 0
CPU 0 Num of Load IPs stalling ROB: 15
Threshold modification factor: 0
Max PIST entries: 12
Min PIST entries: 0
Avg PIST entries: 0.313333
Trouble in retire width: 0.973166
MaC = Marked as critical.
lt_50_percent_before_Mac: 0
gt_90_percent_before_Mac: 0
gt_75_percent_before_Mac: 0
gt_50_percent_before_Mac: 0
stall_proportion_bin_same_before_after: 0
stall_proportion_bin_lower_before_after: 0
stall_proportion_bin_upper_before_after: 0
average_stall_proportion_before: -nan
average_stall_proportion_after: -nan
Critical IP stalls, total frequency: 0
Non-critical IP stalls, total frequency: 4706631
Total Freq all stalling IPs: 4706631
stat_90_percent_critical_ip_stalls_freq: 4328103
stat_90_percent_non_critical_ip_stalls_freq: 378528
Critical_IP_ROB_Stalls_Bucket_0: 0
Non-critical_IP_ROB_Stalls_Bucket_0: 6425
Critical_IP_ROB_Stalls_Bucket_1: 0
Non-critical_IP_ROB_Stalls_Bucket_1: 4542
Critical_IP_ROB_Stalls_Bucket_2: 0
Non-critical_IP_ROB_Stalls_Bucket_2: 4447
Critical_IP_ROB_Stalls_Bucket_3: 0
Non-critical_IP_ROB_Stalls_Bucket_3: 4310
Critical_IP_ROB_Stalls_Bucket_4: 0
Non-critical_IP_ROB_Stalls_Bucket_4: 4153
Critical_IP_ROB_Stalls_Bucket_5: 0
Non-critical_IP_ROB_Stalls_Bucket_5: 7337
Critical_IP_ROB_Stalls_Bucket_6: 0
Non-critical_IP_ROB_Stalls_Bucket_6: 4675417
0 => IPs accounting for >50 percent of stalls, 1 => 55, 2 => 60, 3 => 65 and so on till 90.
percent50: 70.0387 num IPs:  2
percent55: 70.0387 num IPs: 2
percent60: 70.0387 num IPs: 2
percent65: 70.0387 num IPs: 2
percent70: 70.0387 num IPs: 2
percent75: 91.9576 num IPs: 3
percent80: 91.9576 num IPs: 3
percent85: 91.9576 num IPs: 3
percent90: 91.9576 num IPs: 3
Critical_ROB_Stalls_Percent_0_Bucket_0: 3012
Non-critical_ROB_Stalls_Percent_0_Bucket_0: 3413
Critical_ROB_Stalls_Percent_0_Bucket_1: 2996
Non-critical_ROB_Stalls_Percent_0_Bucket_1: 1546
Critical_ROB_Stalls_Percent_0_Bucket_2: 2971
Non-critical_ROB_Stalls_Percent_0_Bucket_2: 1476
Critical_ROB_Stalls_Percent_0_Bucket_3: 2912
Non-critical_ROB_Stalls_Percent_0_Bucket_3: 1398
Critical_ROB_Stalls_Percent_0_Bucket_4: 2854
Non-critical_ROB_Stalls_Percent_0_Bucket_4: 1299
Critical_ROB_Stalls_Percent_0_Bucket_5: 3676
Non-critical_ROB_Stalls_Percent_0_Bucket_5: 3661
Critical_ROB_Stalls_Percent_0_Bucket_6: 3278041
Non-critical_ROB_Stalls_Percent_0_Bucket_6: 1397376
Critical_ROB_Stalls_Percent_1_Bucket_0: 3012
Non-critical_ROB_Stalls_Percent_1_Bucket_0: 3413
Critical_ROB_Stalls_Percent_1_Bucket_1: 2996
Non-critical_ROB_Stalls_Percent_1_Bucket_1: 1546
Critical_ROB_Stalls_Percent_1_Bucket_2: 2971
Non-critical_ROB_Stalls_Percent_1_Bucket_2: 1476
Critical_ROB_Stalls_Percent_1_Bucket_3: 2912
Non-critical_ROB_Stalls_Percent_1_Bucket_3: 1398
Critical_ROB_Stalls_Percent_1_Bucket_4: 2854
Non-critical_ROB_Stalls_Percent_1_Bucket_4: 1299
Critical_ROB_Stalls_Percent_1_Bucket_5: 3676
Non-critical_ROB_Stalls_Percent_1_Bucket_5: 3661
Critical_ROB_Stalls_Percent_1_Bucket_6: 3278041
Non-critical_ROB_Stalls_Percent_1_Bucket_6: 1397376
Critical_ROB_Stalls_Percent_2_Bucket_0: 3012
Non-critical_ROB_Stalls_Percent_2_Bucket_0: 3413
Critical_ROB_Stalls_Percent_2_Bucket_1: 2996
Non-critical_ROB_Stalls_Percent_2_Bucket_1: 1546
Critical_ROB_Stalls_Percent_2_Bucket_2: 2971
Non-critical_ROB_Stalls_Percent_2_Bucket_2: 1476
Critical_ROB_Stalls_Percent_2_Bucket_3: 2912
Non-critical_ROB_Stalls_Percent_2_Bucket_3: 1398
Critical_ROB_Stalls_Percent_2_Bucket_4: 2854
Non-critical_ROB_Stalls_Percent_2_Bucket_4: 1299
Critical_ROB_Stalls_Percent_2_Bucket_5: 3676
Non-critical_ROB_Stalls_Percent_2_Bucket_5: 3661
Critical_ROB_Stalls_Percent_2_Bucket_6: 3278041
Non-critical_ROB_Stalls_Percent_2_Bucket_6: 1397376
Critical_ROB_Stalls_Percent_3_Bucket_0: 3012
Non-critical_ROB_Stalls_Percent_3_Bucket_0: 3413
Critical_ROB_Stalls_Percent_3_Bucket_1: 2996
Non-critical_ROB_Stalls_Percent_3_Bucket_1: 1546
Critical_ROB_Stalls_Percent_3_Bucket_2: 2971
Non-critical_ROB_Stalls_Percent_3_Bucket_2: 1476
Critical_ROB_Stalls_Percent_3_Bucket_3: 2912
Non-critical_ROB_Stalls_Percent_3_Bucket_3: 1398
Critical_ROB_Stalls_Percent_3_Bucket_4: 2854
Non-critical_ROB_Stalls_Percent_3_Bucket_4: 1299
Critical_ROB_Stalls_Percent_3_Bucket_5: 3676
Non-critical_ROB_Stalls_Percent_3_Bucket_5: 3661
Critical_ROB_Stalls_Percent_3_Bucket_6: 3278041
Non-critical_ROB_Stalls_Percent_3_Bucket_6: 1397376
Critical_ROB_Stalls_Percent_4_Bucket_0: 3012
Non-critical_ROB_Stalls_Percent_4_Bucket_0: 3413
Critical_ROB_Stalls_Percent_4_Bucket_1: 2996
Non-critical_ROB_Stalls_Percent_4_Bucket_1: 1546
Critical_ROB_Stalls_Percent_4_Bucket_2: 2971
Non-critical_ROB_Stalls_Percent_4_Bucket_2: 1476
Critical_ROB_Stalls_Percent_4_Bucket_3: 2912
Non-critical_ROB_Stalls_Percent_4_Bucket_3: 1398
Critical_ROB_Stalls_Percent_4_Bucket_4: 2854
Non-critical_ROB_Stalls_Percent_4_Bucket_4: 1299
Critical_ROB_Stalls_Percent_4_Bucket_5: 3676
Non-critical_ROB_Stalls_Percent_4_Bucket_5: 3661
Critical_ROB_Stalls_Percent_4_Bucket_6: 3278041
Non-critical_ROB_Stalls_Percent_4_Bucket_6: 1397376
Critical_ROB_Stalls_Percent_5_Bucket_0: 4124
Non-critical_ROB_Stalls_Percent_5_Bucket_0: 2301
Critical_ROB_Stalls_Percent_5_Bucket_1: 4036
Non-critical_ROB_Stalls_Percent_5_Bucket_1: 506
Critical_ROB_Stalls_Percent_5_Bucket_2: 4075
Non-critical_ROB_Stalls_Percent_5_Bucket_2: 372
Critical_ROB_Stalls_Percent_5_Bucket_3: 3924
Non-critical_ROB_Stalls_Percent_5_Bucket_3: 386
Critical_ROB_Stalls_Percent_5_Bucket_4: 3836
Non-critical_ROB_Stalls_Percent_5_Bucket_4: 317
Critical_ROB_Stalls_Percent_5_Bucket_5: 4685
Non-critical_ROB_Stalls_Percent_5_Bucket_5: 2652
Critical_ROB_Stalls_Percent_5_Bucket_6: 4303423
Non-critical_ROB_Stalls_Percent_5_Bucket_6: 371994
Critical_ROB_Stalls_Percent_6_Bucket_0: 4124
Non-critical_ROB_Stalls_Percent_6_Bucket_0: 2301
Critical_ROB_Stalls_Percent_6_Bucket_1: 4036
Non-critical_ROB_Stalls_Percent_6_Bucket_1: 506
Critical_ROB_Stalls_Percent_6_Bucket_2: 4075
Non-critical_ROB_Stalls_Percent_6_Bucket_2: 372
Critical_ROB_Stalls_Percent_6_Bucket_3: 3924
Non-critical_ROB_Stalls_Percent_6_Bucket_3: 386
Critical_ROB_Stalls_Percent_6_Bucket_4: 3836
Non-critical_ROB_Stalls_Percent_6_Bucket_4: 317
Critical_ROB_Stalls_Percent_6_Bucket_5: 4685
Non-critical_ROB_Stalls_Percent_6_Bucket_5: 2652
Critical_ROB_Stalls_Percent_6_Bucket_6: 4303423
Non-critical_ROB_Stalls_Percent_6_Bucket_6: 371994
Critical_ROB_Stalls_Percent_7_Bucket_0: 4124
Non-critical_ROB_Stalls_Percent_7_Bucket_0: 2301
Critical_ROB_Stalls_Percent_7_Bucket_1: 4036
Non-critical_ROB_Stalls_Percent_7_Bucket_1: 506
Critical_ROB_Stalls_Percent_7_Bucket_2: 4075
Non-critical_ROB_Stalls_Percent_7_Bucket_2: 372
Critical_ROB_Stalls_Percent_7_Bucket_3: 3924
Non-critical_ROB_Stalls_Percent_7_Bucket_3: 386
Critical_ROB_Stalls_Percent_7_Bucket_4: 3836
Non-critical_ROB_Stalls_Percent_7_Bucket_4: 317
Critical_ROB_Stalls_Percent_7_Bucket_5: 4685
Non-critical_ROB_Stalls_Percent_7_Bucket_5: 2652
Critical_ROB_Stalls_Percent_7_Bucket_6: 4303423
Non-critical_ROB_Stalls_Percent_7_Bucket_6: 371994
Critical_ROB_Stalls_Percent_8_Bucket_0: 4124
Non-critical_ROB_Stalls_Percent_8_Bucket_0: 2301
Critical_ROB_Stalls_Percent_8_Bucket_1: 4036
Non-critical_ROB_Stalls_Percent_8_Bucket_1: 506
Critical_ROB_Stalls_Percent_8_Bucket_2: 4075
Non-critical_ROB_Stalls_Percent_8_Bucket_2: 372
Critical_ROB_Stalls_Percent_8_Bucket_3: 3924
Non-critical_ROB_Stalls_Percent_8_Bucket_3: 386
Critical_ROB_Stalls_Percent_8_Bucket_4: 3836
Non-critical_ROB_Stalls_Percent_8_Bucket_4: 317
Critical_ROB_Stalls_Percent_8_Bucket_5: 4685
Non-critical_ROB_Stalls_Percent_8_Bucket_5: 2652
Critical_ROB_Stalls_Percent_8_Bucket_6: 4303423
Non-critical_ROB_Stalls_Percent_8_Bucket_6: 371994
Average ROB occupancy Load Stall Begin: 344.635
Average ROB occupancy Load Stall End: 349.139
Min ROB occupancy Load Stall Begin: 2
Max ROB occupancy Load Stall Begin: 352
Min ROB occupancy Load Stall End: 2
Max ROB occupancy Load Stall End: 352
Average ROB occupancy Critical Load Stall Begin: -nan
Average ROB occupancy Critical Load Stall End: -nan
Min ROB occupancy Critical Load Stall Begin: 400
Max ROB occupancy Critical Load Stall Begin: 0
Min ROB occupancy Critical Load Stall End: 400
Max ROB occupancy Critical Load Stall End: 0
 ROB Load Stall Begin Bucket Count 0: 8386
 ROB Load Stall End Bucket Count 0: 6425
 ROB Critical Load Stall Begin Bucket Count 0: 0
 ROB Critical Load Stall End Bucket Count 0: 0
 ROB Load Stall Begin Bucket Count 1: 4452
 ROB Load Stall End Bucket Count 1: 4542
 ROB Critical Load Stall Begin Bucket Count 1: 0
 ROB Critical Load Stall End Bucket Count 1: 0
 ROB Load Stall Begin Bucket Count 2: 4420
 ROB Load Stall End Bucket Count 2: 4447
 ROB Critical Load Stall Begin Bucket Count 2: 0
 ROB Critical Load Stall End Bucket Count 2: 0
 ROB Load Stall Begin Bucket Count 3: 4288
 ROB Load Stall End Bucket Count 3: 4310
 ROB Critical Load Stall Begin Bucket Count 3: 0
 ROB Critical Load Stall End Bucket Count 3: 0
 ROB Load Stall Begin Bucket Count 4: 4142
 ROB Load Stall End Bucket Count 4: 4153
 ROB Critical Load Stall Begin Bucket Count 4: 0
 ROB Critical Load Stall End Bucket Count 4: 0
 ROB Load Stall Begin Bucket Count 5: 55797
 ROB Load Stall End Bucket Count 5: 7337
 ROB Critical Load Stall Begin Bucket Count 5: 0
 ROB Critical Load Stall End Bucket Count 5: 0
 ROB Load Stall Begin Bucket Count 6: 4625146
 ROB Load Stall End Bucket Count 6: 4675417
 ROB Critical Load Stall Begin Bucket Count 6: 0
 ROB Critical Load Stall End Bucket Count 6: 0
PIST Tag Read Accesses: 2096
PIST Read Accesses: 1048
PIST Tag Write Accesses: 2096
PIST Write Accesses: 1048
Criticality detector called times: 1342
Max global_stall_cycles_count: 241817
Threshold Modified: 0 times, factor: 0
Sturdy critical IP cache stats: 
 Unused entries: 0
CIC Tag Read Accesses: 0
CIC Read Accesses: 0
CIC Tag Write Accesses: 0
CIC Write Accesses: 0
Wobbly critical IP cache stats: 
 Unused entries: 116
CIC Tag Read Accesses: 224221587
CIC Read Accesses: 0
CIC Tag Write Accesses: 3382931
CIC Write Accesses: 0
ITLB TOTAL     ACCESS:   17807143  HIT:   17807143  MISS:          0  HIT %:        100  MISS %:          0   MPKI: 0
ITLB LOAD TRANSLATION ACCESS:   17807143  HIT:   17807143  MISS:          0  HIT %:        100  MISS %:          0   MPKI: 0
ITLB PREFETCH  REQUESTED:          0  ISSUED:          0  USEFUL:          0  USELESS:          0
ITLB USEFUL LOAD PREFETCHES:          0 PREFETCH ISSUED TO LOWER LEVEL:          0  ACCURACY: -nan
ITLB TIMELY PREFETCHES:          0 LATE PREFETCHES: 0 DROPPED PREFETCHES: 0
ITLB PREFETCHES SAME FILL-ORIGIN LEVEL: 0 DIFFERENT FILL-ORIGIN LEVEL: 0
ITLB AVERAGE MISS LATENCY: -nan cycles
ITLB RQ	ACCESS:   19202654	FORWARD:          0	MERGED:    1395510	TO_CACHE:   17807144

DTLB TOTAL     ACCESS:   15098974  HIT:   12653777  MISS:    2445197  HIT %:    83.8055  MISS %:    16.1945   MPKI: 24.452
DTLB LOAD TRANSLATION ACCESS:   15098974  HIT:   12653777  MISS:    2445197  HIT %:    83.8055  MISS %:    16.1945   MPKI: 24.452
DTLB PREFETCH  REQUESTED:          0  ISSUED:          0  USEFUL:          0  USELESS:          0
DTLB USEFUL LOAD PREFETCHES:          0 PREFETCH ISSUED TO LOWER LEVEL:          0  ACCURACY: -nan
DTLB TIMELY PREFETCHES:          0 LATE PREFETCHES: 0 DROPPED PREFETCHES: 0
DTLB PREFETCHES SAME FILL-ORIGIN LEVEL: 0 DIFFERENT FILL-ORIGIN LEVEL: 0
DTLB AVERAGE MISS LATENCY: 77.0352 cycles
DTLB RQ	ACCESS:   17472879	FORWARD:          0	MERGED:    2364634	TO_CACHE:   15108245

STLB TOTAL     ACCESS:    2445197  HIT:     205931  MISS:    2239266  HIT %:    8.42186  MISS %:    91.5781   MPKI: 22.3927
STLB LOAD TRANSLATION ACCESS:    2445197  HIT:     205931  MISS:    2239266  HIT %:    8.42186  MISS %:    91.5781   MPKI: 22.3927
STLB PREFETCH  REQUESTED:          0  ISSUED:          0  USEFUL:          0  USELESS:          0
STLB USEFUL LOAD PREFETCHES:          0 PREFETCH ISSUED TO LOWER LEVEL:          0  ACCURACY: -nan
STLB TIMELY PREFETCHES:          0 LATE PREFETCHES: 0 DROPPED PREFETCHES: 0
STLB PREFETCHES SAME FILL-ORIGIN LEVEL: 0 DIFFERENT FILL-ORIGIN LEVEL: 0
STLB AVERAGE MISS LATENCY: 74.16 cycles
STLB RQ	ACCESS:    2445200	FORWARD:          0	MERGED:          0	TO_CACHE:    2445200

STLB Hit, L1D data hit: 0
STLB Hit, L2C data hit: 0
STLB Hit, LLC data hit: 0
STLB Hit, LLC data miss: 0
STLB STLB hints to L2: 0
L1D TOTAL     ACCESS:   17393773  HIT:   11848798  MISS:    5544975  HIT %:    68.1209  MISS %:    31.8791   MPKI: 55.4497
L1D LOAD      ACCESS:   12959514  HIT:    7691739  MISS:    5267775  HIT %:    59.3521  MISS %:    40.6479   MPKI: 52.6777
L1D RFO       ACCESS:    4434259  HIT:    4157059  MISS:     277200  HIT %:    93.7487  MISS %:    6.25133   MPKI: 2.772
L1D PREFETCH  REQUESTED:          0  ISSUED:          0  USEFUL:          0  USELESS:          0
L1D USEFUL LOAD PREFETCHES:          0 PREFETCH ISSUED TO LOWER LEVEL:          0  ACCURACY: -nan
L1D TIMELY PREFETCHES:          0 LATE PREFETCHES: 0 DROPPED PREFETCHES: 0
L1D PREFETCHES SAME FILL-ORIGIN LEVEL: 0 DIFFERENT FILL-ORIGIN LEVEL: 0
L1D AVERAGE MISS LATENCY: 105.824 cycles
L1D RQ	ACCESS:   24600193	FORWARD:          0	MERGED:   11349924	TO_CACHE:   13038618
L1D WQ	ACCESS:    4434265	FORWARD:     211651	MERGED:          4	TO_CACHE:    4434261

L1D UNIQUE REGIONS ACCESSED: 0
L1D REGIONS CONFLICTS: 0
L1D Cross Page Prefetch Requests: 0
L1D Same Page Prefetch Requests: 0
L1D ROI Sum of L1D PQ occupancy: 0
L1D PREFETCHES PUSHED FROM L2C: 0
L1I TOTAL     ACCESS:   19202653  HIT:   19202653  MISS:          0  HIT %:        100  MISS %:          0   MPKI: 0
L1I LOAD      ACCESS:   19202653  HIT:   19202653  MISS:          0  HIT %:        100  MISS %:          0   MPKI: 0
L1I PREFETCH  REQUESTED:          0  ISSUED:          0  USEFUL:          0  USELESS:          0
L1I USEFUL LOAD PREFETCHES:          0 PREFETCH ISSUED TO LOWER LEVEL:          0  ACCURACY: -nan
L1I TIMELY PREFETCHES:          0 LATE PREFETCHES: 0 DROPPED PREFETCHES: 0
L1I PREFETCHES SAME FILL-ORIGIN LEVEL: 0 DIFFERENT FILL-ORIGIN LEVEL: 0
L1I AVERAGE MISS LATENCY: -nan cycles
L1I RQ	ACCESS:   28912371	FORWARD:          0	MERGED:    9709717	TO_CACHE:   19202654

BTB TOTAL     ACCESS:   13288682  HIT:   13288674  MISS:          8  HIT %:    99.9999  MISS %: 6.02016e-05   MPKI: 8e-05
BTB BRANCH_DIRECT_JUMP	ACCESS:    2274658  HIT:    2274656  MISS:          2
BTB BRANCH_INDIRECT	ACCESS:          0  HIT:          0  MISS:          0
BTB BRANCH_CONDITIONAL	ACCESS:    6579762  HIT:    6579758  MISS:          4
BTB BRANCH_DIRECT_CALL	ACCESS:    2217131  HIT:    2217130  MISS:          1
BTB BRANCH_INDIRECT_CALL	ACCESS:          0  HIT:          0  MISS:          0
BTB BRANCH_RETURN	ACCESS:    2217131  HIT:    2217130  MISS:          1
BTB BRANCH_OTHER ACCESS:          0  HIT:          0  MISS:          0

L2C TOTAL     ACCESS:   14900791  HIT:    8346726  MISS:    6554065  HIT %:    56.0153  MISS %:    43.9847   MPKI: 65.5406
L2C LOAD      ACCESS:    5267775  HIT:    2396592  MISS:    2871183  HIT %:    45.4953  MISS %:    54.5047   MPKI: 28.7118
L2C DATA LOAD MPKI: 28.7118
L2C INSTRUCTION LOAD MPKI: 0
L2C RFO       ACCESS:     277200  HIT:     269339  MISS:       7861  HIT %:    97.1641  MISS %:    2.83586   MPKI: 0.07861
L2C PREFETCH  ACCESS:    4593813  HIT:    3048008  MISS:    1545805  HIT %:    66.3503  MISS %:    33.6497   MPKI: 15.458
L2C DATA PREFETCH MPKI: 15.458
L2C INSTRUCTION PREFETCH MPKI: 0
L2C WRITEBACK ACCESS:    2217133  HIT:    2164824  MISS:      52309  HIT %:    97.6407  MISS %:    2.35931   MPKI: 0.52309
L2C LOAD TRANSLATION ACCESS:    2544870  HIT:     467963  MISS:    2076907  HIT %:    18.3885  MISS %:    81.6115   MPKI: 20.7691
L2C PREFETCH  REQUESTED:    5187461  ISSUED:    5187461  USEFUL:     499549  USELESS:    1044981
L2C USEFUL LOAD PREFETCHES:     499549 PREFETCH ISSUED TO LOWER LEVEL:    1558780  ACCURACY: 32.0474
L2C TIMELY PREFETCHES:     499549 LATE PREFETCHES: 12975 DROPPED PREFETCHES: 0
L2C PREFETCHES SAME FILL-ORIGIN LEVEL: 1558780 DIFFERENT FILL-ORIGIN LEVEL: 0
L2C AVERAGE MISS LATENCY: 98.0054 cycles
L2C RQ	ACCESS:    8089845	FORWARD:          0	MERGED:          0	TO_CACHE:    8089845
L2C WQ	ACCESS:    2217133	FORWARD:          0	MERGED:          0	TO_CACHE:    2217133
L2C PQ	ACCESS:    5187461	FORWARD:          0	MERGED:         10	TO_CACHE:    5187451

L2C Instructions Evicting Data 0
L2C Translations Evicting Data 1252512
L2C Data Evicting Data 3179707
L2C Instructions Evicting Instructions 0
L2C Translations Evicting Instructions 0
L2C Data Evicting Instructions 0
L2C Instructions Evicting Translations 0
L2C Translations Evicting Translations 824395
L2C Data Evicting Translations 1245142
L2C Dense regions hint from L2: 0
PSCL5 TOTAL     ACCESS:    2239267  HIT:    2239267  MISS:          0  HIT %:        100  MISS %:          0   MPKI: 0
PSCL5 LOAD TRANSLATION ACCESS:    2239267  HIT:    2239267  MISS:          0  HIT %:        100  MISS %:          0   MPKI: 0
PSCL5 PREFETCH  REQUESTED:          0  ISSUED:          0  USEFUL:          0  USELESS:          0
PSCL5 USEFUL LOAD PREFETCHES:          0 PREFETCH ISSUED TO LOWER LEVEL:          0  ACCURACY: -nan
PSCL5 TIMELY PREFETCHES:          0 LATE PREFETCHES: 0 DROPPED PREFETCHES: 0
PSCL5 PREFETCHES SAME FILL-ORIGIN LEVEL: 0 DIFFERENT FILL-ORIGIN LEVEL: 0

PSCL4 TOTAL     ACCESS:    2239267  HIT:    2239267  MISS:          0  HIT %:        100  MISS %:          0   MPKI: 0
PSCL4 LOAD TRANSLATION ACCESS:    2239267  HIT:    2239267  MISS:          0  HIT %:        100  MISS %:          0   MPKI: 0
PSCL4 PREFETCH  REQUESTED:          0  ISSUED:          0  USEFUL:          0  USELESS:          0
PSCL4 USEFUL LOAD PREFETCHES:          0 PREFETCH ISSUED TO LOWER LEVEL:          0  ACCURACY: -nan
PSCL4 TIMELY PREFETCHES:          0 LATE PREFETCHES: 0 DROPPED PREFETCHES: 0
PSCL4 PREFETCHES SAME FILL-ORIGIN LEVEL: 0 DIFFERENT FILL-ORIGIN LEVEL: 0

PSCL3 TOTAL     ACCESS:    2239267  HIT:    2239267  MISS:          0  HIT %:        100  MISS %:          0   MPKI: 0
PSCL3 LOAD TRANSLATION ACCESS:    2239267  HIT:    2239267  MISS:          0  HIT %:        100  MISS %:          0   MPKI: 0
PSCL3 PREFETCH  REQUESTED:          0  ISSUED:          0  USEFUL:          0  USELESS:          0
PSCL3 USEFUL LOAD PREFETCHES:          0 PREFETCH ISSUED TO LOWER LEVEL:          0  ACCURACY: -nan
PSCL3 TIMELY PREFETCHES:          0 LATE PREFETCHES: 0 DROPPED PREFETCHES: 0
PSCL3 PREFETCHES SAME FILL-ORIGIN LEVEL: 0 DIFFERENT FILL-ORIGIN LEVEL: 0

PSCL2 TOTAL     ACCESS:    2239267  HIT:    1933664  MISS:     305603  HIT %:    86.3525  MISS %:    13.6475   MPKI: 3.05603
PSCL2 LOAD TRANSLATION ACCESS:    2239267  HIT:    1933664  MISS:     305603  HIT %:    86.3525  MISS %:    13.6475   MPKI: 3.05603
PSCL2 PREFETCH  REQUESTED:          0  ISSUED:          0  USEFUL:          0  USELESS:          0
PSCL2 USEFUL LOAD PREFETCHES:          0 PREFETCH ISSUED TO LOWER LEVEL:          0  ACCURACY: -nan
PSCL2 TIMELY PREFETCHES:          0 LATE PREFETCHES: 0 DROPPED PREFETCHES: 0
PSCL2 PREFETCHES SAME FILL-ORIGIN LEVEL: 0 DIFFERENT FILL-ORIGIN LEVEL: 0

LLC TOTAL     ACCESS:    8719807  HIT:    6066921  MISS:    2652886  HIT %:    69.5763  MISS %:    30.4237   MPKI: 26.5289
LLC LOAD      ACCESS:    2858222  HIT:     414657  MISS:    2443565  HIT %:    14.5075  MISS %:    85.4925   MPKI: 24.4356
LLC RFO       ACCESS:       7847  HIT:       7599  MISS:        248  HIT %:    96.8396  MISS %:    3.16044   MPKI: 0.00248
LLC PREFETCH  ACCESS:    1558777  HIT:    1396638  MISS:     162139  HIT %:    89.5983  MISS %:    10.4017   MPKI: 1.62139
LLC WRITEBACK ACCESS:    2218054  HIT:    2181585  MISS:      36469  HIT %:    98.3558  MISS %:    1.64419   MPKI: 0.36469
LLC LOAD TRANSLATION ACCESS:    2076907  HIT:    2066442  MISS:      10465  HIT %:    99.4961  MISS %:   0.503874   MPKI: 0.10465
LLC PREFETCH  REQUESTED:          0  ISSUED:          0  USEFUL:       2474  USELESS:     156995
LLC USEFUL LOAD PREFETCHES:       2474 PREFETCH ISSUED TO LOWER LEVEL:     162139  ACCURACY: 1.52585
LLC TIMELY PREFETCHES:       2474 LATE PREFETCHES: 0 DROPPED PREFETCHES: 0
LLC PREFETCHES SAME FILL-ORIGIN LEVEL: 0 DIFFERENT FILL-ORIGIN LEVEL: 0
LLC AVERAGE MISS LATENCY: 168.761 cycles
LLC RQ	ACCESS:    4942976	FORWARD:          0	MERGED:          0	TO_CACHE:    4942976
LLC WQ	ACCESS:    2218054	FORWARD:          3	MERGED:          0	TO_CACHE:    2218054
LLC PQ	ACCESS:    1558780	FORWARD:          0	MERGED:          0	TO_CACHE:    1558777

LLC Dense regions hint to LLC: 0

RAW hits: 2003861
Loads Generated: 26604056
Loads sent to L1D: 24600193
Stores Generated: 4434263
Stores sent to L1D: 4434265
Major fault: 0 Minor fault: 62133
Allocated PAGES: 62133
[Bingo] PHT Access: 2634762
[Bingo] PHT Hit PC+Addr: 209350
[Bingo] PHT Hit PC+Offs: 2326060
[Bingo] PHT Miss: 99352
[Bingo] Prefetch PC+Addr: 0
[Bingo] Prefetch PC+Offs: 0
[Bingo] Useful PC+Addr: 0
[Bingo] Useful PC+Offs: 0
[Bingo] Useless PC+Addr: 0
[Bingo] Useless PC+Offs: 0
[Bingo] L1 Prefetch per Region: 0
[Bingo] L2 Prefetch per Region: 3.05019
[Bingo] L3 Prefetch per Region: 0
[Bingo] No Prefetch per Region: 28.9498
[Bingo] Number of Voters Mean: 15.9595
[Bingo] Number of Voters SD: 0.618737
PHT read accesses: 38975813
PHT write accesses: 1134539
AT read accesses: 2843289
AT write accesses: 3766385
FT read accesses: 3488343
FT write accesses: 2634762
PS read accesses: 5115892
PS write accesses: 2535410
PHT tag read accesses: 73420802
PHT tag write accesses: 1343889
AT tag read accesses: 242000327
AT tag write accesses: 3977955
FT tag read accesses: 258522828
FT tag write accesses: 4988439
PS tag read accesses: 168569176
PS tag write accesses: 7648165

DRAM Statistics
 CHANNEL 0
 RQ ROW_BUFFER_HIT:      35444  ROW_BUFFER_MISS:    2580972
 DBUS_CONGESTED:         15
 WQ ROW_BUFFER_HIT:     540245  ROW_BUFFER_MISS:    1682472  FULL:          0

 AVG_CONGESTED_CYCLE: 6
 All warmup complete: 2
Channel 0 Bank busy for read cycles: 0
Channel 0 Bank busy for write cycles: 0
Channel 0
Rank 0
0banks busy for read cycles: 22260084
0banks busy for write cycles: 406744
1banks busy for read cycles: 87366896
1banks busy for write cycles: 28508196
2banks busy for read cycles: 62779792
2banks busy for write cycles: 32386472
3banks busy for read cycles: 39691540
3banks busy for write cycles: 43773607
4banks busy for read cycles: 12792674
4banks busy for write cycles: 26860901
5banks busy for read cycles: 460579
5banks busy for write cycles: 8318247
6banks busy for read cycles: 197240
6banks busy for write cycles: 3102769
7banks busy for read cycles: 171504
7banks busy for write cycles: 1429908
8banks busy for read cycles: 140028
8banks busy for write cycles: 1829312

CPU 0 Branch Prediction Accuracy: 99.9869% MPKI: 0.02047 Average ROB Occupancy at Mispredict: 312.331
Branch types
NOT_BRANCH: 84422558 84.4226%
BRANCH_DIRECT_JUMP: 2274658 2.27466%
BRANCH_INDIRECT: 0 0%
BRANCH_CONDITIONAL: 8868524 8.86852%
BRANCH_DIRECT_CALL: 2217131 2.21713%
BRANCH_INDIRECT_CALL: 0 0%
BRANCH_RETURN: 2217131 2.21713%
BRANCH_OTHER: 0 0%

DRAM PAGES: 1048576
Allocated PAGES: 62133
