Initialize SIGNATURE TABLE
ST_SET: 1
ST_WAY: 256
ST_TAG_BIT: 16
ST_TAG_MASK: ffff

Initialize PATTERN TABLE
PT_SET: 512
PT_WAY: 4
SIG_DELTA_BIT: 7
C_SIG_BIT: 4
C_DELTA_BIT: 4

Initialize PREFETCH FILTER
FILTER_SET: 1024

Initialize PERCEPTRON
PERC_ENTRIES: 4096
PERC_FEATURES: 9

*** ChampSim Multicore Out-of-Order Simulator ***

Warmup Instructions: 50000000
Simulation Instructions: 100000000
Number of CPUs: 1
LLC sets: 2048
LLC ways: 16
Off-chip DRAM Size: 4096 MB Channels: 1 Width: 64-bit Data Rate: 6400 MT/s
CPU 0 runs ../SPEC2017//605.mcf_s-994B.champsimtrace.xz
.xz
NUM_OF_IPS_IN_CRITICAL_IP_TRAINING: 128
NUM_OF_CRITICAL_IP_TRAINING_TABLE_WAYS: 8
NUM_OF_CRITICAL_IP_TRAINING_TABLE_SETS: 16
BTB has LRU replacement policy
ITLB has LRU replacement policy
DTLB has LRU replacement policy
STLB has LRU replacement policy
L1I has LRU replacement policy
L1D has LRU replacement policy
Initialize SRRIP state for L2C
Initialize DRRIP state for LLC
Heartbeat CPU 0 instructions: 10000000 cycles: 3244579 heartbeat IPC: 3.08206 cumulative IPC: 3.08206 (Simulation time: 0 hr 7 min 14 sec) 
Heartbeat CPU 0 instructions: 20000003 cycles: 6522614 heartbeat IPC: 3.05061 cumulative IPC: 3.06626 (Simulation time: 0 hr 13 min 48 sec) 
Heartbeat CPU 0 instructions: 30000003 cycles: 9799917 heartbeat IPC: 3.05129 cumulative IPC: 3.06125 (Simulation time: 0 hr 19 min 37 sec) 
Heartbeat CPU 0 instructions: 40000002 cycles: 13060121 heartbeat IPC: 3.06729 cumulative IPC: 3.06276 (Simulation time: 0 hr 24 min 51 sec) 
Heartbeat CPU 0 instructions: 50000001 cycles: 16571363 heartbeat IPC: 2.84799 cumulative IPC: 3.01725 (Simulation time: 0 hr 30 min 44 sec) 

Warmup complete CPU 0 instructions: 50000001 cycles: 16571363 (Simulation time: 0 hr 30 min 44 sec) 

% increase in all ip prefetch 1455.74
% increase in all ip prefetch -30.7248
Heartbeat CPU 0 instructions: 60000000 cycles: 58979724 heartbeat IPC: 0.235803 cumulative IPC: 0.235803 (Simulation time: 0 hr 36 min 19 sec) 
Heartbeat CPU 0 instructions: 70000000 cycles: 107396594 heartbeat IPC: 0.20654 cumulative IPC: 0.220203 (Simulation time: 0 hr 41 min 13 sec) 
Heartbeat CPU 0 instructions: 80000002 cycles: 141461671 heartbeat IPC: 0.293556 cumulative IPC: 0.240211 (Simulation time: 0 hr 45 min 3 sec) 
Heartbeat CPU 0 instructions: 90000002 cycles: 174937987 heartbeat IPC: 0.298719 cumulative IPC: 0.252578 (Simulation time: 0 hr 48 min 45 sec) 
Heartbeat CPU 0 instructions: 100000001 cycles: 207495139 heartbeat IPC: 0.307152 cumulative IPC: 0.261885 (Simulation time: 0 hr 54 min 16 sec) 
Heartbeat CPU 0 instructions: 110000000 cycles: 259886280 heartbeat IPC: 0.190872 cumulative IPC: 0.246594 (Simulation time: 1 hr 3 min 45 sec) 
Heartbeat CPU 0 instructions: 120000000 cycles: 301948101 heartbeat IPC: 0.237745 cumulative IPC: 0.24529 (Simulation time: 1 hr 11 min 10 sec) 
Heartbeat CPU 0 instructions: 130000000 cycles: 340088723 heartbeat IPC: 0.262188 cumulative IPC: 0.247282 (Simulation time: 1 hr 17 min 53 sec) 
Heartbeat CPU 0 instructions: 140000000 cycles: 385504709 heartbeat IPC: 0.220187 cumulative IPC: 0.243947 (Simulation time: 1 hr 23 min 45 sec) 
Heartbeat CPU 0 instructions: 150000001 cycles: 448934464 heartbeat IPC: 0.157655 cumulative IPC: 0.231287 (Simulation time: 1 hr 30 min 29 sec) 
Finished CPU 0 instructions: 100000000 cycles: 432363101 cumulative IPC: 0.231287 (Simulation time: 1 hr 30 min 29 sec) 

ChampSim completed all CPUs

Region of Interest Statistics

CPU 0 cumulative IPC: 0.231287 instructions: 100000000 cycles: 432363101

CPU 0 Average Load ROB stall cycles: 4.02461e+07
CPU 0 Fraction of times ROB stalled by Loads: 17.9334
CPU 0 Percentage of Load stall cycles in Total stall cycles: 2.75837e+08
 Total stall cycles: 351138774
 Total load stall cycles: 968572056517288
CPU 0 NUM of IPS identified critical: 9

Threshold modification factor: -1
Max PIST entries: 38
Min PIST entries: 0
Avg PIST entries: 15.92
Average ROB occupancy Load Stall Begin: 25.7401
Average ROB occupancy Load Stall End: 29.9386
Min ROB occupancy Load Stall Begin: 1
Max ROB occupancy Load Stall Begin: 351
Min ROB occupancy Load Stall End: 1
Max ROB occupancy Load Stall End: 352
Average ROB occupancy Critical Load Stall Begin: 27.1556
Average ROB occupancy Critical Load Stall End: 31.5142
Min ROB occupancy Critical Load Stall Begin: 2
Max ROB occupancy Critical Load Stall Begin: 351
Min ROB occupancy Critical Load Stall End: 2
Max ROB occupancy Critical Load Stall End: 352
 ROB Load Stall Begin Bucket Count 0: 4016409
 ROB Load Stall End Bucket Count 0: 3962751
 ROB Critical Load Stall Begin Bucket Count 0: 2397040
 ROB Critical Load Stall End Bucket Count 0: 2345919
 ROB Load Stall Begin Bucket Count 1: 190506
 ROB Load Stall End Bucket Count 1: 227237
 ROB Critical Load Stall Begin Bucket Count 1: 158757
 ROB Critical Load Stall End Bucket Count 1: 193763
 ROB Load Stall Begin Bucket Count 2: 59800
 ROB Load Stall End Bucket Count 2: 71703
 ROB Critical Load Stall Begin Bucket Count 2: 52039
 ROB Critical Load Stall End Bucket Count 2: 63336
 ROB Load Stall Begin Bucket Count 3: 22930
 ROB Load Stall End Bucket Count 3: 25373
 ROB Critical Load Stall Begin Bucket Count 3: 20536
 ROB Critical Load Stall End Bucket Count 3: 22849
 ROB Load Stall Begin Bucket Count 4: 10274
 ROB Load Stall End Bucket Count 4: 11420
 ROB Critical Load Stall Begin Bucket Count 4: 9173
 ROB Critical Load Stall End Bucket Count 4: 10280
 ROB Load Stall Begin Bucket Count 5: 5564
 ROB Load Stall End Bucket Count 5: 5970
 ROB Critical Load Stall Begin Bucket Count 5: 5107
 ROB Critical Load Stall End Bucket Count 5: 5494
 ROB Load Stall Begin Bucket Count 6: 10425
 ROB Load Stall End Bucket Count 6: 11454
 ROB Critical Load Stall Begin Bucket Count 6: 9592
 ROB Critical Load Stall End Bucket Count 6: 10603
Threshold Modified: 1 times, factor: -1
ITLB TOTAL     ACCESS:   17691291  HIT:   17691291  MISS:          0  HIT %:        100  MISS %:          0   MPKI: 0
ITLB LOAD TRANSLATION ACCESS:   17691291  HIT:   17691291  MISS:          0  HIT %:        100  MISS %:          0   MPKI: 0
ITLB AVERAGE MISS LATENCY: -nan cycles
ITLB RQ	ACCESS:   18120233	FORWARD:          0	MERGED:     428943	TO_CACHE:   17691290

DTLB TOTAL     ACCESS:   32511168  HIT:   30887633  MISS:    1623535  HIT %:    95.0062  MISS %:    4.99378   MPKI: 16.2354
DTLB LOAD TRANSLATION ACCESS:   32511168  HIT:   30887633  MISS:    1623535  HIT %:    95.0062  MISS %:    4.99378   MPKI: 16.2354
DTLB AVERAGE MISS LATENCY: 72.7848 cycles
DTLB RQ	ACCESS:   38550391	FORWARD:          0	MERGED:    5571471	TO_CACHE:   32978920

STLB TOTAL     ACCESS:    1623535  HIT:     815899  MISS:     807636  HIT %:    50.2545  MISS %:    49.7455   MPKI: 8.07636
STLB LOAD TRANSLATION ACCESS:    1623535  HIT:     815899  MISS:     807636  HIT %:    50.2545  MISS %:    49.7455   MPKI: 8.07636
STLB AVERAGE MISS LATENCY: 128.124 cycles
STLB RQ	ACCESS:    1623535	FORWARD:          0	MERGED:          0	TO_CACHE:    1623535

STLB Hit, L1D data hit: 0
STLB Hit, L2C data hit: 0
STLB Hit, LLC data hit: 0
STLB Hit, LLC data miss: 0
STLB STLB hints to L2: 0
L1D TOTAL     ACCESS:   38459914  HIT:   34886352  MISS:    3573562  HIT %:    90.7083  MISS %:    9.29165   MPKI: 35.7356
L1D LOAD      ACCESS:   28452204  HIT:   24904390  MISS:    3547814  HIT %:    87.5306  MISS %:    12.4694   MPKI: 35.4781
L1D RFO       ACCESS:   10007710  HIT:    9981962  MISS:      25748  HIT %:    99.7427  MISS %:   0.257282   MPKI: 0.25748
L1D AVERAGE MISS LATENCY: 113.507 cycles
L1D RQ	ACCESS:   33853975	FORWARD:          0	MERGED:    2981519	TO_CACHE:   28496147
L1D WQ	ACCESS:   10094511	FORWARD:    2376309	MERGED:      40267	TO_CACHE:   10054244

L1D UNIQUE REGIONS ACCESSED: 0
L1D REGIONS CONFLICTS: 0
L1D Cross Page Prefetch Requests: 0
L1D Same Page Prefetch Requests: 0
L1D ROI Sum of L1D PQ occupancy: 0
L1D PREFETCHES PUSHED FROM L2C: 0
L1I TOTAL     ACCESS:   18120234  HIT:   18120234  MISS:          0  HIT %:        100  MISS %:          0   MPKI: 0
L1I LOAD      ACCESS:   18120234  HIT:   18120234  MISS:          0  HIT %:        100  MISS %:          0   MPKI: 0
L1I AVERAGE MISS LATENCY: -nan cycles
L1I RQ	ACCESS:   28697660	FORWARD:          0	MERGED:   10577427	TO_CACHE:   18120233

BTB TOTAL     ACCESS:   23415583  HIT:   22036176  MISS:    1379407  HIT %:     94.109  MISS %:    5.89098   MPKI: 13.7941
BTB BRANCH_DIRECT_JUMP	ACCESS:    2277732  HIT:    2277711  MISS:         21
BTB BRANCH_INDIRECT	ACCESS:          0  HIT:          0  MISS:          0
BTB BRANCH_CONDITIONAL	ACCESS:   14850308  HIT:   14850266  MISS:         42
BTB BRANCH_DIRECT_CALL	ACCESS:    3040680  HIT:    3040667  MISS:         13
BTB BRANCH_INDIRECT_CALL	ACCESS:     103096  HIT:     103088  MISS:          8
BTB BRANCH_RETURN	ACCESS:    3143767  HIT:    1764444  MISS:    1379323
BTB BRANCH_OTHER ACCESS:          0  HIT:          0  MISS:          0

L2C TOTAL     ACCESS:    7544518  HIT:    3470375  MISS:    4074143  HIT %:    45.9986  MISS %:    54.0014   MPKI: 40.7414
L2C LOAD      ACCESS:    3547810  HIT:    1299067  MISS:    2248743  HIT %:     36.616  MISS %:     63.384   MPKI: 22.4874
L2C DATA LOAD MPKI: 22.4874
L2C INSTRUCTION LOAD MPKI: 0
L2C RFO       ACCESS:      25748  HIT:      21556  MISS:       4192  HIT %:    83.7191  MISS %:    16.2809   MPKI: 0.04192
L2C PREFETCH  ACCESS:    2389900  HIT:     901991  MISS:    1487909  HIT %:    37.7418  MISS %:    62.2582   MPKI: 14.8791
L2C DATA PREFETCH MPKI: 14.8791
L2C INSTRUCTION PREFETCH MPKI: 0
L2C WRITEBACK ACCESS:     240953  HIT:     240294  MISS:        659  HIT %:    99.7265  MISS %:   0.273497   MPKI: 0.00659
L2C LOAD TRANSLATION ACCESS:    1340107  HIT:    1007467  MISS:     332640  HIT %:    75.1781  MISS %:    24.8219   MPKI: 3.3264
L2C PREFETCH  REQUESTED:    3577800  ISSUED:    3577800  USEFUL:     311383  USELESS:    1174547
L2C USEFUL LOAD PREFETCHES:     311383 PREFETCH ISSUED TO LOWER LEVEL:    2289274  ACCURACY: 13.6018
L2C TIMELY PREFETCHES:     311383 LATE PREFETCHES: 333731 DROPPED PREFETCHES: 0
L2C PREFETCHES SAME FILL-ORIGIN LEVEL: 1821640 DIFFERENT FILL-ORIGIN LEVEL: 467634
L2C AVERAGE MISS LATENCY: 162.391 cycles
L2C RQ	ACCESS:    4913669	FORWARD:          0	MERGED:          0	TO_CACHE:    4913665
L2C WQ	ACCESS:     240953	FORWARD:          6	MERGED:          0	TO_CACHE:     240953
L2C PQ	ACCESS:    3577800	FORWARD:          0	MERGED:      12294	TO_CACHE:    3565504

L2C Instructions Evicting Data0
L2C Translations Evicting Data300647
L2C Data Evicting Data3438983
L2C Instructions Evicting Instructions0
L2C Translations Evicting Instructions0
L2C Data Evicting Instructions0
L2C Instructions Evicting Translations0
L2C Translations Evicting Translations31993
L2C Data Evicting Translations301861
L2C Dense regions hint from L2: 0
PSCL5 TOTAL     ACCESS:     807636  HIT:     807636  MISS:          0  HIT %:        100  MISS %:          0   MPKI: 0
PSCL5 LOAD TRANSLATION ACCESS:     807636  HIT:     807636  MISS:          0  HIT %:        100  MISS %:          0   MPKI: 0

PSCL4 TOTAL     ACCESS:     807636  HIT:     807636  MISS:          0  HIT %:        100  MISS %:          0   MPKI: 0
PSCL4 LOAD TRANSLATION ACCESS:     807636  HIT:     807636  MISS:          0  HIT %:        100  MISS %:          0   MPKI: 0

PSCL3 TOTAL     ACCESS:     807636  HIT:     807636  MISS:          0  HIT %:        100  MISS %:          0   MPKI: 0
PSCL3 LOAD TRANSLATION ACCESS:     807636  HIT:     807636  MISS:          0  HIT %:        100  MISS %:          0   MPKI: 0

PSCL2 TOTAL     ACCESS:     807636  HIT:     275158  MISS:     532478  HIT %:    34.0696  MISS %:    65.9304   MPKI: 5.32478
PSCL2 LOAD TRANSLATION ACCESS:     807636  HIT:     275158  MISS:     532478  HIT %:    34.0696  MISS %:    65.9304   MPKI: 5.32478

LLC TOTAL     ACCESS:    4652415  HIT:    1273122  MISS:    3379293  HIT %:    27.3648  MISS %:    72.6352   MPKI: 33.7929
LLC LOAD      ACCESS:    1915024  HIT:     522198  MISS:    1392826  HIT %:    27.2685  MISS %:    72.7315   MPKI: 13.9283
LLC RFO       ACCESS:       4180  HIT:       2212  MISS:       1968  HIT %:    52.9187  MISS %:    47.0813   MPKI: 0.01968
LLC PREFETCH  ACCESS:    2255201  HIT:     525791  MISS:    1729410  HIT %:    23.3146  MISS %:    76.6854   MPKI: 17.2941
LLC WRITEBACK ACCESS:     145370  HIT:     124863  MISS:      20507  HIT %:    85.8932  MISS %:    14.1068   MPKI: 0.20507
LLC LOAD TRANSLATION ACCESS:     332640  HIT:      98058  MISS:     234582  HIT %:    29.4787  MISS %:    70.5213   MPKI: 2.34582
LLC AVERAGE MISS LATENCY: 181.487 cycles
LLC RQ	ACCESS:    2251844	FORWARD:          0	MERGED:          0	TO_CACHE:    2251844
LLC WQ	ACCESS:     145370	FORWARD:          0	MERGED:          0	TO_CACHE:     145370
LLC PQ	ACCESS:    2289274	FORWARD:          0	MERGED:      12409	TO_CACHE:    2276865

LLC Dense regions hint to LLC: 0

RAW hits: 843036
Loads Generated: 34697014
Loads sent to L1D: 33853975
Stores Generated: 10094507
Stores sent to L1D: 10094511
Major fault: 0 Minor fault: 167017
Allocated PAGES: 167017
------------------
Depth Distribution
------------------
depth 0: 1431714
depth 1: 2706165
depth 2: 901517
depth 3: 143550
depth 4: 11628
depth 5: 1327
depth 6: 13
depth 7: 0
depth 8: 0
depth 9: 0
depth 10: 0
depth 11: 0
depth 12: 0
depth 13: 0
depth 14: 0
depth 15: 0
depth 16: 0
depth 17: 0
depth 18: 0
depth 19: 0
depth 20: 0
depth 21: 0
depth 22: 0
depth 23: 0
depth 24: 0
depth 25: 0
depth 26: 0
depth 27: 0
depth 28: 0
depth 29: 0
Total: 5195914
------------------
ST read accesses: 2408108
ST write accesses: 1139702
PT read accesses: 38282519
PT write accesses: 2320815
FILTER read accesses: 16006202
FILTER write accesses: 14312295
GHR read accesses: 10339666
GHR write accesses: 168306
PERC read accesses: 269166492
PERC write accesses: 33196742
GHR counter read accesses: 7095620
GHR counter write accesses: 8750068
GHR ip read accesses: 24877377
GHR ip write accesses: 14191240
ST tag read accesses: 1947834585
ST tag write accesses: 335053497

DRAM Statistics
 CHANNEL 0
 RQ ROW_BUFFER_HIT:     207971  ROW_BUFFER_MISS:    3150808
 DBUS_CONGESTED:        188
 WQ ROW_BUFFER_HIT:      33292  ROW_BUFFER_MISS:      78498  FULL:          0

 AVG_CONGESTED_CYCLE: 4
 All warmup complete: 2
Channel 0 Bank busy for read cycles: 0
Channel 0 Bank busy for write cycles: 0
Channel 0
Rank 0
0banks busy for read cycles: 198932848
0banks busy for write cycles: 81873
1banks busy for read cycles: 80303998
1banks busy for write cycles: 16912673
2banks busy for read cycles: 54398656
2banks busy for write cycles: 3539436
3banks busy for read cycles: 40516035
3banks busy for write cycles: 803467
4banks busy for read cycles: 20176766
4banks busy for write cycles: 200766
5banks busy for read cycles: 9609991
5banks busy for write cycles: 64285
6banks busy for read cycles: 4448838
6banks busy for write cycles: 24551
7banks busy for read cycles: 1801784
7banks busy for write cycles: 6182
8banks busy for read cycles: 538744
8banks busy for write cycles: 2209

CPU 0 Branch Prediction Accuracy: 94.6877% MPKI: 13.1818 Average ROB Occupancy at Mispredict: 23.3777
Branch types
NOT_BRANCH: 75185764 75.1858%
BRANCH_DIRECT_JUMP: 2277732 2.27773%
BRANCH_INDIRECT: 0 0%
BRANCH_CONDITIONAL: 16248591 16.2486%
BRANCH_DIRECT_CALL: 3040680 3.04068%
BRANCH_INDIRECT_CALL: 103096 0.103096%
BRANCH_RETURN: 3143767 3.14377%
BRANCH_OTHER: 0 0%

DRAM PAGES: 1048576
Allocated PAGES: 167017
