Initialize SIGNATURE TABLE
ST_SET: 1
ST_WAY: 256
ST_TAG_BIT: 16
ST_TAG_MASK: ffff

Initialize PATTERN TABLE
PT_SET: 512
PT_WAY: 4
SIG_DELTA_BIT: 7
C_SIG_BIT: 4
C_DELTA_BIT: 4

Initialize PREFETCH FILTER
FILTER_SET: 1024

Initialize PERCEPTRON
PERC_ENTRIES: 4096
PERC_FEATURES: 9

*** ChampSim Multicore Out-of-Order Simulator ***

Warmup Instructions: 50000000
Simulation Instructions: 100000000
Number of CPUs: 1
LLC sets: 2048
LLC ways: 16
Off-chip DRAM Size: 4096 MB Channels: 1 Width: 64-bit Data Rate: 6400 MT/s
CPU 0 runs ../SPEC2017//605.mcf_s-1554B.champsimtrace.xz
.xz
NUM_OF_IPS_IN_CRITICAL_IP_TRAINING: 128
NUM_OF_CRITICAL_IP_TRAINING_TABLE_WAYS: 8
NUM_OF_CRITICAL_IP_TRAINING_TABLE_SETS: 16
BTB has LRU replacement policy
ITLB has LRU replacement policy
DTLB has LRU replacement policy
STLB has LRU replacement policy
L1I has LRU replacement policy
L1D has LRU replacement policy
Initialize SRRIP state for L2C
Initialize DRRIP state for LLC
Heartbeat CPU 0 instructions: 10000001 cycles: 3521098 heartbeat IPC: 2.84002 cumulative IPC: 2.84002 (Simulation time: 0 hr 9 min 26 sec) 
Heartbeat CPU 0 instructions: 20000001 cycles: 7055805 heartbeat IPC: 2.82909 cumulative IPC: 2.83455 (Simulation time: 0 hr 17 min 52 sec) 
Heartbeat CPU 0 instructions: 30000002 cycles: 10602410 heartbeat IPC: 2.8196 cumulative IPC: 2.82955 (Simulation time: 0 hr 25 min 32 sec) 
Heartbeat CPU 0 instructions: 40000000 cycles: 14135745 heartbeat IPC: 2.83019 cumulative IPC: 2.82971 (Simulation time: 0 hr 32 min 28 sec) 
Heartbeat CPU 0 instructions: 50000001 cycles: 17671741 heartbeat IPC: 2.82806 cumulative IPC: 2.82938 (Simulation time: 0 hr 38 min 20 sec) 

Warmup complete CPU 0 instructions: 50000001 cycles: 17671741 (Simulation time: 0 hr 38 min 20 sec) 

% increase in all ip prefetch 495.392
% increase in all ip prefetch 25.5331
% increase in all ip prefetch -4.25129
Heartbeat CPU 0 instructions: 60000002 cycles: 42850777 heartbeat IPC: 0.397156 cumulative IPC: 0.397156 (Simulation time: 0 hr 45 min 7 sec) 
Heartbeat CPU 0 instructions: 70000002 cycles: 68558799 heartbeat IPC: 0.388984 cumulative IPC: 0.393027 (Simulation time: 0 hr 51 min 40 sec) 
Heartbeat CPU 0 instructions: 80000003 cycles: 94909919 heartbeat IPC: 0.379491 cumulative IPC: 0.388409 (Simulation time: 1 hr 4 min 54 sec) 
Heartbeat CPU 0 instructions: 90000003 cycles: 120832894 heartbeat IPC: 0.385758 cumulative IPC: 0.387743 (Simulation time: 1 hr 15 min 56 sec) 
Heartbeat CPU 0 instructions: 100000000 cycles: 146442604 heartbeat IPC: 0.390477 cumulative IPC: 0.388287 (Simulation time: 1 hr 25 min 31 sec) 
Heartbeat CPU 0 instructions: 110000000 cycles: 172242774 heartbeat IPC: 0.387594 cumulative IPC: 0.388171 (Simulation time: 1 hr 33 min 50 sec) 
Heartbeat CPU 0 instructions: 120000000 cycles: 196780253 heartbeat IPC: 0.40754 cumulative IPC: 0.390825 (Simulation time: 1 hr 41 min 15 sec) 
Heartbeat CPU 0 instructions: 130000000 cycles: 222243740 heartbeat IPC: 0.392719 cumulative IPC: 0.39106 (Simulation time: 1 hr 47 min 2 sec) 
Heartbeat CPU 0 instructions: 140000000 cycles: 247986993 heartbeat IPC: 0.388451 cumulative IPC: 0.390769 (Simulation time: 1 hr 50 min 32 sec) 
Heartbeat CPU 0 instructions: 150000001 cycles: 273340771 heartbeat IPC: 0.394419 cumulative IPC: 0.391131 (Simulation time: 1 hr 52 min 43 sec) 
Finished CPU 0 instructions: 100000000 cycles: 255669030 cumulative IPC: 0.391131 (Simulation time: 1 hr 52 min 43 sec) 

ChampSim completed all CPUs

Region of Interest Statistics

CPU 0 cumulative IPC: 0.391131 instructions: 100000000 cycles: 255669030

CPU 0 Average Load ROB stall cycles: 1.87475e+07
CPU 0 Fraction of times ROB stalled by Loads: 12.8752
CPU 0 Percentage of Load stall cycles in Total stall cycles: 1.47543e+08
 Total stall cycles: 158685443
 Total load stall cycles: 234129478217928
CPU 0 NUM of IPS identified critical: 10

Threshold modification factor: -2
Max PIST entries: 20
Min PIST entries: 0
Avg PIST entries: 9.59333
Average ROB occupancy Load Stall Begin: 251.19
Average ROB occupancy Load Stall End: 257.781
Min ROB occupancy Load Stall Begin: 2
Max ROB occupancy Load Stall Begin: 351
Min ROB occupancy Load Stall End: 2
Max ROB occupancy Load Stall End: 352
Average ROB occupancy Critical Load Stall Begin: 261.053
Average ROB occupancy Critical Load Stall End: 267.496
Min ROB occupancy Critical Load Stall Begin: 2
Max ROB occupancy Critical Load Stall Begin: 351
Min ROB occupancy Critical Load Stall End: 2
Max ROB occupancy Critical Load Stall End: 352
 ROB Load Stall Begin Bucket Count 0: 307692
 ROB Load Stall End Bucket Count 0: 269255
 ROB Critical Load Stall Begin Bucket Count 0: 247252
 ROB Critical Load Stall End Bucket Count 0: 209742
 ROB Load Stall Begin Bucket Count 1: 87388
 ROB Load Stall End Bucket Count 1: 122697
 ROB Critical Load Stall Begin Bucket Count 1: 83018
 ROB Critical Load Stall End Bucket Count 1: 117966
 ROB Load Stall Begin Bucket Count 2: 62640
 ROB Load Stall End Bucket Count 2: 57184
 ROB Critical Load Stall Begin Bucket Count 2: 61426
 ROB Critical Load Stall End Bucket Count 2: 55979
 ROB Load Stall Begin Bucket Count 3: 29121
 ROB Load Stall End Bucket Count 3: 31861
 ROB Critical Load Stall Begin Bucket Count 3: 28378
 ROB Critical Load Stall End Bucket Count 3: 30981
 ROB Load Stall Begin Bucket Count 4: 15284
 ROB Load Stall End Bucket Count 4: 16927
 ROB Critical Load Stall Begin Bucket Count 4: 14971
 ROB Critical Load Stall End Bucket Count 4: 16580
 ROB Load Stall Begin Bucket Count 5: 48058
 ROB Load Stall End Bucket Count 5: 25755
 ROB Critical Load Stall Begin Bucket Count 5: 47588
 ROB Critical Load Stall End Bucket Count 5: 25067
 ROB Load Stall Begin Bucket Count 6: 1057742
 ROB Load Stall End Bucket Count 6: 1084246
 ROB Critical Load Stall Begin Bucket Count 6: 1055296
 ROB Critical Load Stall End Bucket Count 6: 1081614
Threshold Modified: 2 times, factor: -2
ITLB TOTAL     ACCESS:   20569742  HIT:   20569742  MISS:          0  HIT %:        100  MISS %:          0   MPKI: 0
ITLB LOAD TRANSLATION ACCESS:   20569742  HIT:   20569742  MISS:          0  HIT %:        100  MISS %:          0   MPKI: 0
ITLB AVERAGE MISS LATENCY: -nan cycles
ITLB RQ	ACCESS:   25084674	FORWARD:          0	MERGED:    4514931	TO_CACHE:   20569743

DTLB TOTAL     ACCESS:   31003424  HIT:   30608183  MISS:     395241  HIT %:    98.7252  MISS %:    1.27483   MPKI: 3.95241
DTLB LOAD TRANSLATION ACCESS:   31003424  HIT:   30608183  MISS:     395241  HIT %:    98.7252  MISS %:    1.27483   MPKI: 3.95241
DTLB AVERAGE MISS LATENCY: 12.8255 cycles
DTLB RQ	ACCESS:   38187336	FORWARD:          0	MERGED:    7174379	TO_CACHE:   31012957

STLB TOTAL     ACCESS:     395241  HIT:     387204  MISS:       8037  HIT %:    97.9666  MISS %:    2.03344   MPKI: 0.08037
STLB LOAD TRANSLATION ACCESS:     395241  HIT:     387204  MISS:       8037  HIT %:    97.9666  MISS %:    2.03344   MPKI: 0.08037
STLB AVERAGE MISS LATENCY: 187.587 cycles
STLB RQ	ACCESS:     395241	FORWARD:          0	MERGED:          0	TO_CACHE:     395241

STLB Hit, L1D data hit: 0
STLB Hit, L2C data hit: 0
STLB Hit, LLC data hit: 0
STLB Hit, LLC data miss: 0
STLB STLB hints to L2: 0
L1D TOTAL     ACCESS:   36713322  HIT:   21305024  MISS:   15408298  HIT %:    58.0308  MISS %:    41.9692   MPKI: 154.083
L1D LOAD      ACCESS:   31855027  HIT:   16719870  MISS:   15135157  HIT %:    52.4874  MISS %:    47.5126   MPKI: 151.352
L1D RFO       ACCESS:    4858295  HIT:    4585154  MISS:     273141  HIT %:    94.3778  MISS %:    5.62216   MPKI: 2.73141
L1D AVERAGE MISS LATENCY: 38.5129 cycles
L1D RQ	ACCESS:   41294131	FORWARD:          0	MERGED:    8793005	TO_CACHE:   32444566
L1D WQ	ACCESS:    7122776	FORWARD:      56560	MERGED:    1380006	TO_CACHE:    5742770

L1D UNIQUE REGIONS ACCESSED: 0
L1D REGIONS CONFLICTS: 0
L1D Cross Page Prefetch Requests: 0
L1D Same Page Prefetch Requests: 0
L1D ROI Sum of L1D PQ occupancy: 0
L1D PREFETCHES PUSHED FROM L2C: 0
L1I TOTAL     ACCESS:   25084673  HIT:   25084673  MISS:          0  HIT %:        100  MISS %:          0   MPKI: 0
L1I LOAD      ACCESS:   25084673  HIT:   25084673  MISS:          0  HIT %:        100  MISS %:          0   MPKI: 0
L1I AVERAGE MISS LATENCY: -nan cycles
L1I RQ	ACCESS:   34727100	FORWARD:          0	MERGED:    9642426	TO_CACHE:   25084674

BTB TOTAL     ACCESS:   17751898  HIT:   17751866  MISS:         32  HIT %:    99.9998  MISS %: 0.000180262   MPKI: 0.00032
BTB BRANCH_DIRECT_JUMP	ACCESS:    4133385  HIT:    4133379  MISS:          6
BTB BRANCH_INDIRECT	ACCESS:          0  HIT:          0  MISS:          0
BTB BRANCH_CONDITIONAL	ACCESS:   13616937  HIT:   13616915  MISS:         22
BTB BRANCH_DIRECT_CALL	ACCESS:        788  HIT:        786  MISS:          2
BTB BRANCH_INDIRECT_CALL	ACCESS:          0  HIT:          0  MISS:          0
BTB BRANCH_RETURN	ACCESS:        788  HIT:        786  MISS:          2
BTB BRANCH_OTHER ACCESS:          0  HIT:          0  MISS:          0

L2C TOTAL     ACCESS:   34004025  HIT:   12197422  MISS:   21806603  HIT %:    35.8705  MISS %:    64.1295   MPKI: 218.066
L2C LOAD      ACCESS:   15135157  HIT:   10909824  MISS:    4225333  HIT %:    72.0827  MISS %:    27.9173   MPKI: 42.2533
L2C DATA LOAD MPKI: 42.2533
L2C INSTRUCTION LOAD MPKI: 0
L2C RFO       ACCESS:     273141  HIT:      10212  MISS:     262929  HIT %:    3.73873  MISS %:    96.2613   MPKI: 2.62929
L2C PREFETCH  ACCESS:   18245554  HIT:     936887  MISS:   17308667  HIT %:    5.13488  MISS %:    94.8651   MPKI: 173.087
L2C DATA PREFETCH MPKI: 173.087
L2C INSTRUCTION PREFETCH MPKI: 0
L2C WRITEBACK ACCESS:     342127  HIT:     334681  MISS:       7446  HIT %:    97.8236  MISS %:    2.17638   MPKI: 0.07446
L2C LOAD TRANSLATION ACCESS:       8046  HIT:       5818  MISS:       2228  HIT %:    72.3092  MISS %:    27.6908   MPKI: 0.02228
L2C PREFETCH  REQUESTED:   21658312  ISSUED:   21658279  USEFUL:   10918767  USELESS:    6389080
L2C USEFUL LOAD PREFETCHES:   10918767 PREFETCH ISSUED TO LOWER LEVEL:   20256881  ACCURACY: 53.9015
L2C TIMELY PREFETCHES:   10918767 LATE PREFETCHES: 2943182 DROPPED PREFETCHES: 0
L2C PREFETCHES SAME FILL-ORIGIN LEVEL: 20251864 DIFFERENT FILL-ORIGIN LEVEL: 5017
L2C AVERAGE MISS LATENCY: 88.9257 cycles
L2C RQ	ACCESS:   15416347	FORWARD:          0	MERGED:          0	TO_CACHE:   15416346
L2C WQ	ACCESS:     342127	FORWARD:          1	MERGED:          0	TO_CACHE:     342127
L2C PQ	ACCESS:   21658279	FORWARD:          0	MERGED:      23778	TO_CACHE:   21634501

L2C Instructions Evicting Data0
L2C Translations Evicting Data2228
L2C Data Evicting Data21794703
L2C Instructions Evicting Instructions0
L2C Translations Evicting Instructions0
L2C Data Evicting Instructions0
L2C Instructions Evicting Translations0
L2C Translations Evicting Translations0
L2C Data Evicting Translations2226
L2C Dense regions hint from L2: 0
PSCL5 TOTAL     ACCESS:       8037  HIT:       8037  MISS:          0  HIT %:        100  MISS %:          0   MPKI: 0
PSCL5 LOAD TRANSLATION ACCESS:       8037  HIT:       8037  MISS:          0  HIT %:        100  MISS %:          0   MPKI: 0

PSCL4 TOTAL     ACCESS:       8037  HIT:       8037  MISS:          0  HIT %:        100  MISS %:          0   MPKI: 0
PSCL4 LOAD TRANSLATION ACCESS:       8037  HIT:       8037  MISS:          0  HIT %:        100  MISS %:          0   MPKI: 0

PSCL3 TOTAL     ACCESS:       8037  HIT:       8037  MISS:          0  HIT %:        100  MISS %:          0   MPKI: 0
PSCL3 LOAD TRANSLATION ACCESS:       8037  HIT:       8037  MISS:          0  HIT %:        100  MISS %:          0   MPKI: 0

PSCL2 TOTAL     ACCESS:       8037  HIT:       8012  MISS:         25  HIT %:    99.6889  MISS %:   0.311061   MPKI: 0.00025
PSCL2 LOAD TRANSLATION ACCESS:       8037  HIT:       8012  MISS:         25  HIT %:    99.6889  MISS %:   0.311061   MPKI: 0.00025

LLC TOTAL     ACCESS:   22145861  HIT:   11611687  MISS:   10534174  HIT %:    52.4328  MISS %:    47.5672   MPKI: 105.342
LLC LOAD      ACCESS:    1282228  HIT:     919661  MISS:     362567  HIT %:    71.7237  MISS %:    28.2763   MPKI: 3.62567
LLC RFO       ACCESS:     262853  HIT:       1113  MISS:     261740  HIT %:   0.423431  MISS %:    99.5766   MPKI: 2.6174
LLC PREFETCH  ACCESS:   20256739  HIT:   10664196  MISS:    9592543  HIT %:    52.6452  MISS %:    47.3548   MPKI: 95.9254
LLC WRITEBACK ACCESS:     341813  HIT:      26630  MISS:     315183  HIT %:    7.79081  MISS %:    92.2092   MPKI: 3.15183
LLC LOAD TRANSLATION ACCESS:       2228  HIT:         87  MISS:       2141  HIT %:    3.90485  MISS %:    96.0952   MPKI: 0.02141
LLC AVERAGE MISS LATENCY: 133.35 cycles
LLC RQ	ACCESS:    1547309	FORWARD:          0	MERGED:          0	TO_CACHE:    1547309
LLC WQ	ACCESS:     341813	FORWARD:          0	MERGED:          0	TO_CACHE:     341813
LLC PQ	ACCESS:   20256881	FORWARD:          0	MERGED:          9	TO_CACHE:   20256872

LLC Dense regions hint to LLC: 0

RAW hits: 4127217
Loads Generated: 45421347
Loads sent to L1D: 41294131
Stores Generated: 7122776
Stores sent to L1D: 7122776
Major fault: 0 Minor fault: 13274
Allocated PAGES: 13274
------------------
Depth Distribution
------------------
depth 0: 1591018
depth 1: 667325
depth 2: 5633852
depth 3: 5106939
depth 4: 3077552
depth 5: 3429307
depth 6: 1040230
depth 7: 1268506
depth 8: 775607
depth 9: 30134
depth 10: 289
depth 11: 145
depth 12: 19
depth 13: 0
depth 14: 7
depth 15: 0
depth 16: 0
depth 17: 0
depth 18: 0
depth 19: 0
depth 20: 0
depth 21: 0
depth 22: 0
depth 23: 0
depth 24: 0
depth 25: 0
depth 26: 0
depth 27: 0
depth 28: 0
depth 29: 0
Total: 22620930
------------------
ST read accesses: 14744647
ST write accesses: 390511
PT read accesses: 347783312
PT write accesses: 22064105
FILTER read accesses: 112292761
FILTER write accesses: 79095616
GHR read accesses: 41791261
GHR write accesses: 6410417
PERC read accesses: 2361011427
PERC write accesses: 223876179
GHR counter read accesses: 30270316
GHR counter write accesses: 54446380
GHR ip read accesses: 110404392
GHR ip write accesses: 60540632
ST tag read accesses: 6019409704
ST tag write accesses: 132096194

DRAM Statistics
 CHANNEL 0
 RQ ROW_BUFFER_HIT:    7262085  ROW_BUFFER_MISS:    2956857
 DBUS_CONGESTED:      20417
 WQ ROW_BUFFER_HIT:      84963  ROW_BUFFER_MISS:     255300  FULL:          0

 AVG_CONGESTED_CYCLE: 4
 All warmup complete: 2
Channel 0 Bank busy for read cycles: 0
Channel 0 Bank busy for write cycles: 0
Channel 0
Rank 0
0banks busy for read cycles: 6081368
0banks busy for write cycles: 4869
1banks busy for read cycles: 34359748
1banks busy for write cycles: 2870392
2banks busy for read cycles: 41152881
2banks busy for write cycles: 1866572
3banks busy for read cycles: 42749076
3banks busy for write cycles: 1421405
4banks busy for read cycles: 38581533
4banks busy for write cycles: 1187940
5banks busy for read cycles: 30453328
5banks busy for write cycles: 1064421
6banks busy for read cycles: 20798183
6banks busy for write cycles: 1065215
7banks busy for read cycles: 12233925
7banks busy for write cycles: 1860825
8banks busy for read cycles: 5732152
8banks busy for write cycles: 12185198

CPU 0 Branch Prediction Accuracy: 98.5222% MPKI: 2.69335 Average ROB Occupancy at Mispredict: 68.5807
Branch types
NOT_BRANCH: 81775194 81.7752%
BRANCH_DIRECT_JUMP: 4133385 4.13338%
BRANCH_INDIRECT: 0 0%
BRANCH_CONDITIONAL: 14089840 14.0898%
BRANCH_DIRECT_CALL: 788 0.000788%
BRANCH_INDIRECT_CALL: 0 0%
BRANCH_RETURN: 788 0.000788%
BRANCH_OTHER: 0 0%

DRAM PAGES: 1048576
Allocated PAGES: 13274
