
*** ChampSim Multicore Out-of-Order Simulator ***

Warmup Instructions: 50000000
Simulation Instructions: 100000000
Number of CPUs: 1
LLC sets: 2048
LLC ways: 16
Off-chip DRAM Size: 4096 MB Channels: 1 Width: 64-bit Data Rate: 6400 MT/s
CPU 0 runs ../SPEC2017//605.mcf_s-1152B.champsimtrace.xz
.xz
NUM_OF_IPS_IN_CRITICAL_IP_TRAINING: 64
NUM_OF_CRITICAL_IP_TRAINING_TABLE_WAYS: 2
NUM_OF_CRITICAL_IP_TRAINING_TABLE_SETS: 32
WOBBLY_CRITICAL_IP_CACHE_SETS: 32
WOBBLY_CRITICAL_IP_CACHE_WAYS: 4
BTB has LRU replacement policy
ITLB has LRU replacement policy
DTLB has LRU replacement policy
STLB has LRU replacement policy
L1I has LRU replacement policy
IP Table Entries: 64
L1D has LRU replacement policy
Initialize SRRIP state for L2C
Initialize DRRIP state for LLC
Heartbeat CPU 0 instructions: 10000001 cycles: 3343013 heartbeat IPC: 2.99131 cumulative IPC: 2.99131 (Simulation time: 0 hr 7 min 8 sec) 
Heartbeat CPU 0 instructions: 20000000 cycles: 6688395 heartbeat IPC: 2.98919 cumulative IPC: 2.99025 (Simulation time: 0 hr 13 min 22 sec) 
Heartbeat CPU 0 instructions: 30000001 cycles: 10028723 heartbeat IPC: 2.99372 cumulative IPC: 2.99141 (Simulation time: 0 hr 18 min 51 sec) 
Heartbeat CPU 0 instructions: 40000001 cycles: 13372760 heartbeat IPC: 2.9904 cumulative IPC: 2.99116 (Simulation time: 0 hr 24 min 22 sec) 
Heartbeat CPU 0 instructions: 50000001 cycles: 16722369 heartbeat IPC: 2.98542 cumulative IPC: 2.99001 (Simulation time: 0 hr 29 min 38 sec) 

Warmup complete CPU 0 instructions: 50000001 cycles: 16722369 (Simulation time: 0 hr 29 min 38 sec) 

% increase in all ip prefetch 838.417
% increase in all ip prefetch 2.21011
Heartbeat CPU 0 instructions: 60000001 cycles: 54106351 heartbeat IPC: 0.267494 cumulative IPC: 0.267494 (Simulation time: 0 hr 34 min 12 sec) 
Heartbeat CPU 0 instructions: 70000001 cycles: 91843665 heartbeat IPC: 0.26499 cumulative IPC: 0.266236 (Simulation time: 0 hr 39 min 0 sec) 
Heartbeat CPU 0 instructions: 80000001 cycles: 129096516 heartbeat IPC: 0.268436 cumulative IPC: 0.266965 (Simulation time: 0 hr 43 min 50 sec) 
Heartbeat CPU 0 instructions: 90000003 cycles: 166534351 heartbeat IPC: 0.26711 cumulative IPC: 0.267001 (Simulation time: 0 hr 48 min 11 sec) 
Heartbeat CPU 0 instructions: 100000001 cycles: 204130230 heartbeat IPC: 0.265987 cumulative IPC: 0.266798 (Simulation time: 0 hr 52 min 7 sec) 
Heartbeat CPU 0 instructions: 110000000 cycles: 241698428 heartbeat IPC: 0.266183 cumulative IPC: 0.266695 (Simulation time: 0 hr 55 min 41 sec) 
Heartbeat CPU 0 instructions: 120000002 cycles: 279488768 heartbeat IPC: 0.264618 cumulative IPC: 0.266396 (Simulation time: 1 hr 1 min 14 sec) 
Heartbeat CPU 0 instructions: 130000000 cycles: 317553891 heartbeat IPC: 0.262708 cumulative IPC: 0.26593 (Simulation time: 1 hr 11 min 7 sec) 
Heartbeat CPU 0 instructions: 140000003 cycles: 355992014 heartbeat IPC: 0.260158 cumulative IPC: 0.265276 (Simulation time: 1 hr 21 min 10 sec) 
Heartbeat CPU 0 instructions: 150000001 cycles: 394235529 heartbeat IPC: 0.261482 cumulative IPC: 0.264891 (Simulation time: 1 hr 31 min 1 sec) 
Finished CPU 0 instructions: 100000000 cycles: 377513160 cumulative IPC: 0.264891 (Simulation time: 1 hr 31 min 1 sec) 

ChampSim completed all CPUs

Region of Interest Statistics

CPU 0 cumulative IPC: 0.264891 instructions: 100000000 cycles: 377513160

CPU 0 Average Load ROB stall cycles: 8.69066e+07
CPU 0 Fraction of times ROB stalled by Loads: 43.1144
CPU 0 Percentage of Load stall cycles in Total stall cycles: 7.61108e+08
Issued all: 58633793
Issued LT all: 46376113
rob_not_full_when_issued_lt_all: 41998681
Issued LT one: 36265240
rob_not_full_when_issued_lt_one: 32490043
 Total stall cycles: 329271674
 Total load stall cycles: 2506113095522921
CPU 0 NUM of IPS identified critical: 0
CPU 0 Num of Load IPs stalling ROB: 259
Threshold modification factor: -1
Max PIST entries: 64
Min PIST entries: 0
Avg PIST entries: 40.6467
Trouble in retire width: 0.974347
MaC = Marked as critical.
lt_50_percent_before_Mac: 0
gt_90_percent_before_Mac: 0
gt_75_percent_before_Mac: 0
gt_50_percent_before_Mac: 0
stall_proportion_bin_same_before_after: 0
stall_proportion_bin_lower_before_after: 0
stall_proportion_bin_upper_before_after: 0
average_stall_proportion_before: -nan
average_stall_proportion_after: -nan
Critical IP stalls, total frequency: 0
Non-critical IP stalls, total frequency: 12432836
Total Freq all stalling IPs: 12432836
stat_90_percent_critical_ip_stalls_freq: 11213869
stat_90_percent_non_critical_ip_stalls_freq: 1218967
Critical_IP_ROB_Stalls_Bucket_0: 0
Non-critical_IP_ROB_Stalls_Bucket_0: 10128003
Critical_IP_ROB_Stalls_Bucket_1: 0
Non-critical_IP_ROB_Stalls_Bucket_1: 1285833
Critical_IP_ROB_Stalls_Bucket_2: 0
Non-critical_IP_ROB_Stalls_Bucket_2: 401523
Critical_IP_ROB_Stalls_Bucket_3: 0
Non-critical_IP_ROB_Stalls_Bucket_3: 193728
Critical_IP_ROB_Stalls_Bucket_4: 0
Non-critical_IP_ROB_Stalls_Bucket_4: 124522
Critical_IP_ROB_Stalls_Bucket_5: 0
Non-critical_IP_ROB_Stalls_Bucket_5: 82357
Critical_IP_ROB_Stalls_Bucket_6: 0
Non-critical_IP_ROB_Stalls_Bucket_6: 216870
0 => IPs accounting for >50 percent of stalls, 1 => 55, 2 => 60, 3 => 65 and so on till 90.
percent50: 51.833 num IPs:  6
percent55: 56.6499 num IPs: 7
percent60: 61.2657 num IPs: 8
percent65: 65.0304 num IPs: 9
percent70: 70.4529 num IPs: 11
percent75: 76.6899 num IPs: 14
percent80: 80.2459 num IPs: 16
percent85: 85.9586 num IPs: 20
percent90: 90.1956 num IPs: 28
Critical_ROB_Stalls_Percent_0_Bucket_0: 5081639
Non-critical_ROB_Stalls_Percent_0_Bucket_0: 5046364
Critical_ROB_Stalls_Percent_0_Bucket_1: 767156
Non-critical_ROB_Stalls_Percent_0_Bucket_1: 518677
Critical_ROB_Stalls_Percent_0_Bucket_2: 264562
Non-critical_ROB_Stalls_Percent_0_Bucket_2: 136961
Critical_ROB_Stalls_Percent_0_Bucket_3: 108832
Non-critical_ROB_Stalls_Percent_0_Bucket_3: 84896
Critical_ROB_Stalls_Percent_0_Bucket_4: 74129
Non-critical_ROB_Stalls_Percent_0_Bucket_4: 50393
Critical_ROB_Stalls_Percent_0_Bucket_5: 43855
Non-critical_ROB_Stalls_Percent_0_Bucket_5: 38502
Critical_ROB_Stalls_Percent_0_Bucket_6: 104142
Non-critical_ROB_Stalls_Percent_0_Bucket_6: 112728
Critical_ROB_Stalls_Percent_1_Bucket_0: 5593649
Non-critical_ROB_Stalls_Percent_1_Bucket_0: 4534354
Critical_ROB_Stalls_Percent_1_Bucket_1: 825288
Non-critical_ROB_Stalls_Percent_1_Bucket_1: 460545
Critical_ROB_Stalls_Percent_1_Bucket_2: 272423
Non-critical_ROB_Stalls_Percent_1_Bucket_2: 129100
Critical_ROB_Stalls_Percent_1_Bucket_3: 115047
Non-critical_ROB_Stalls_Percent_1_Bucket_3: 78681
Critical_ROB_Stalls_Percent_1_Bucket_4: 77904
Non-critical_ROB_Stalls_Percent_1_Bucket_4: 46618
Critical_ROB_Stalls_Percent_1_Bucket_5: 46596
Non-critical_ROB_Stalls_Percent_1_Bucket_5: 35761
Critical_ROB_Stalls_Percent_1_Bucket_6: 112277
Non-critical_ROB_Stalls_Percent_1_Bucket_6: 104593
Critical_ROB_Stalls_Percent_2_Bucket_0: 6108008
Non-critical_ROB_Stalls_Percent_2_Bucket_0: 4019995
Critical_ROB_Stalls_Percent_2_Bucket_1: 853844
Non-critical_ROB_Stalls_Percent_2_Bucket_1: 431989
Critical_ROB_Stalls_Percent_2_Bucket_2: 281313
Non-critical_ROB_Stalls_Percent_2_Bucket_2: 120210
Critical_ROB_Stalls_Percent_2_Bucket_3: 123953
Non-critical_ROB_Stalls_Percent_2_Bucket_3: 69775
Critical_ROB_Stalls_Percent_2_Bucket_4: 81791
Non-critical_ROB_Stalls_Percent_2_Bucket_4: 42731
Critical_ROB_Stalls_Percent_2_Bucket_5: 50679
Non-critical_ROB_Stalls_Percent_2_Bucket_5: 31678
Critical_ROB_Stalls_Percent_2_Bucket_6: 117472
Non-critical_ROB_Stalls_Percent_2_Bucket_6: 99398
Critical_ROB_Stalls_Percent_3_Bucket_0: 6534237
Non-critical_ROB_Stalls_Percent_3_Bucket_0: 3593766
Critical_ROB_Stalls_Percent_3_Bucket_1: 877072
Non-critical_ROB_Stalls_Percent_3_Bucket_1: 408761
Critical_ROB_Stalls_Percent_3_Bucket_2: 286235
Non-critical_ROB_Stalls_Percent_3_Bucket_2: 115288
Critical_ROB_Stalls_Percent_3_Bucket_3: 126831
Non-critical_ROB_Stalls_Percent_3_Bucket_3: 66897
Critical_ROB_Stalls_Percent_3_Bucket_4: 83734
Non-critical_ROB_Stalls_Percent_3_Bucket_4: 40788
Critical_ROB_Stalls_Percent_3_Bucket_5: 52410
Non-critical_ROB_Stalls_Percent_3_Bucket_5: 29947
Critical_ROB_Stalls_Percent_3_Bucket_6: 124600
Non-critical_ROB_Stalls_Percent_3_Bucket_6: 92270
Critical_ROB_Stalls_Percent_4_Bucket_0: 7139259
Non-critical_ROB_Stalls_Percent_4_Bucket_0: 2988744
Critical_ROB_Stalls_Percent_4_Bucket_1: 928333
Non-critical_ROB_Stalls_Percent_4_Bucket_1: 357500
Critical_ROB_Stalls_Percent_4_Bucket_2: 296293
Non-critical_ROB_Stalls_Percent_4_Bucket_2: 105230
Critical_ROB_Stalls_Percent_4_Bucket_3: 129713
Non-critical_ROB_Stalls_Percent_4_Bucket_3: 64015
Critical_ROB_Stalls_Percent_4_Bucket_4: 85003
Non-critical_ROB_Stalls_Percent_4_Bucket_4: 39519
Critical_ROB_Stalls_Percent_4_Bucket_5: 53238
Non-critical_ROB_Stalls_Percent_4_Bucket_5: 29119
Critical_ROB_Stalls_Percent_4_Bucket_6: 127450
Non-critical_ROB_Stalls_Percent_4_Bucket_6: 89420
Critical_ROB_Stalls_Percent_5_Bucket_0: 7833926
Non-critical_ROB_Stalls_Percent_5_Bucket_0: 2294077
Critical_ROB_Stalls_Percent_5_Bucket_1: 960786
Non-critical_ROB_Stalls_Percent_5_Bucket_1: 325047
Critical_ROB_Stalls_Percent_5_Bucket_2: 316479
Non-critical_ROB_Stalls_Percent_5_Bucket_2: 85044
Critical_ROB_Stalls_Percent_5_Bucket_3: 141540
Non-critical_ROB_Stalls_Percent_5_Bucket_3: 52188
Critical_ROB_Stalls_Percent_5_Bucket_4: 90902
Non-critical_ROB_Stalls_Percent_5_Bucket_4: 33620
Critical_ROB_Stalls_Percent_5_Bucket_5: 57323
Non-critical_ROB_Stalls_Percent_5_Bucket_5: 25034
Critical_ROB_Stalls_Percent_5_Bucket_6: 133780
Non-critical_ROB_Stalls_Percent_5_Bucket_6: 83090
Critical_ROB_Stalls_Percent_6_Bucket_0: 8273852
Non-critical_ROB_Stalls_Percent_6_Bucket_0: 1854151
Critical_ROB_Stalls_Percent_6_Bucket_1: 962882
Non-critical_ROB_Stalls_Percent_6_Bucket_1: 322951
Critical_ROB_Stalls_Percent_6_Bucket_2: 316516
Non-critical_ROB_Stalls_Percent_6_Bucket_2: 85007
Critical_ROB_Stalls_Percent_6_Bucket_3: 141565
Non-critical_ROB_Stalls_Percent_6_Bucket_3: 52163
Critical_ROB_Stalls_Percent_6_Bucket_4: 90916
Non-critical_ROB_Stalls_Percent_6_Bucket_4: 33606
Critical_ROB_Stalls_Percent_6_Bucket_5: 57333
Non-critical_ROB_Stalls_Percent_6_Bucket_5: 25024
Critical_ROB_Stalls_Percent_6_Bucket_6: 133784
Non-critical_ROB_Stalls_Percent_6_Bucket_6: 83086
Critical_ROB_Stalls_Percent_7_Bucket_0: 8961762
Non-critical_ROB_Stalls_Percent_7_Bucket_0: 1166241
Critical_ROB_Stalls_Percent_7_Bucket_1: 972944
Non-critical_ROB_Stalls_Percent_7_Bucket_1: 312889
Critical_ROB_Stalls_Percent_7_Bucket_2: 319463
Non-critical_ROB_Stalls_Percent_7_Bucket_2: 82060
Critical_ROB_Stalls_Percent_7_Bucket_3: 143544
Non-critical_ROB_Stalls_Percent_7_Bucket_3: 50184
Critical_ROB_Stalls_Percent_7_Bucket_4: 92280
Non-critical_ROB_Stalls_Percent_7_Bucket_4: 32242
Critical_ROB_Stalls_Percent_7_Bucket_5: 58495
Non-critical_ROB_Stalls_Percent_7_Bucket_5: 23862
Critical_ROB_Stalls_Percent_7_Bucket_6: 138606
Non-critical_ROB_Stalls_Percent_7_Bucket_6: 78264
Critical_ROB_Stalls_Percent_8_Bucket_0: 9299488
Non-critical_ROB_Stalls_Percent_8_Bucket_0: 828515
Critical_ROB_Stalls_Percent_8_Bucket_1: 1104994
Non-critical_ROB_Stalls_Percent_8_Bucket_1: 180839
Critical_ROB_Stalls_Percent_8_Bucket_2: 350449
Non-critical_ROB_Stalls_Percent_8_Bucket_2: 51074
Critical_ROB_Stalls_Percent_8_Bucket_3: 155973
Non-critical_ROB_Stalls_Percent_8_Bucket_3: 37755
Critical_ROB_Stalls_Percent_8_Bucket_4: 96846
Non-critical_ROB_Stalls_Percent_8_Bucket_4: 27676
Critical_ROB_Stalls_Percent_8_Bucket_5: 60911
Non-critical_ROB_Stalls_Percent_8_Bucket_5: 21446
Critical_ROB_Stalls_Percent_8_Bucket_6: 145208
Non-critical_ROB_Stalls_Percent_8_Bucket_6: 71662
Average ROB occupancy Load Stall Begin: 33.6452
Average ROB occupancy Load Stall End: 38.1511
Min ROB occupancy Load Stall Begin: 1
Max ROB occupancy Load Stall Begin: 352
Min ROB occupancy Load Stall End: 1
Max ROB occupancy Load Stall End: 352
Average ROB occupancy Critical Load Stall Begin: -nan
Average ROB occupancy Critical Load Stall End: -nan
Min ROB occupancy Critical Load Stall Begin: 400
Max ROB occupancy Critical Load Stall Begin: 0
Min ROB occupancy Critical Load Stall End: 400
Max ROB occupancy Critical Load Stall End: 0
 ROB Load Stall Begin Bucket Count 0: 10448008
 ROB Load Stall End Bucket Count 0: 10128003
 ROB Critical Load Stall Begin Bucket Count 0: 0
 ROB Critical Load Stall End Bucket Count 0: 0
 ROB Load Stall Begin Bucket Count 1: 1071218
 ROB Load Stall End Bucket Count 1: 1285833
 ROB Critical Load Stall Begin Bucket Count 1: 0
 ROB Critical Load Stall End Bucket Count 1: 0
 ROB Load Stall Begin Bucket Count 2: 349749
 ROB Load Stall End Bucket Count 2: 401523
 ROB Critical Load Stall Begin Bucket Count 2: 0
 ROB Critical Load Stall End Bucket Count 2: 0
 ROB Load Stall Begin Bucket Count 3: 172495
 ROB Load Stall End Bucket Count 3: 193728
 ROB Critical Load Stall Begin Bucket Count 3: 0
 ROB Critical Load Stall End Bucket Count 3: 0
 ROB Load Stall Begin Bucket Count 4: 110963
 ROB Load Stall End Bucket Count 4: 124522
 ROB Critical Load Stall Begin Bucket Count 4: 0
 ROB Critical Load Stall End Bucket Count 4: 0
 ROB Load Stall Begin Bucket Count 5: 78750
 ROB Load Stall End Bucket Count 5: 82357
 ROB Critical Load Stall Begin Bucket Count 5: 0
 ROB Critical Load Stall End Bucket Count 5: 0
 ROB Load Stall Begin Bucket Count 6: 201653
 ROB Load Stall End Bucket Count 6: 216870
 ROB Critical Load Stall Begin Bucket Count 6: 0
 ROB Critical Load Stall End Bucket Count 6: 0
PIST Tag Read Accesses: 919400
PIST Read Accesses: 459700
PIST Tag Write Accesses: 919400
PIST Write Accesses: 459700
Criticality detector called times: 2599390
Max global_stall_cycles_count: 1071765
Threshold Modified: 1 times, factor: -1
Sturdy critical IP cache stats: 
 Unused entries: 0
CIC Tag Read Accesses: 0
CIC Read Accesses: 0
CIC Tag Write Accesses: 0
CIC Write Accesses: 0
Wobbly critical IP cache stats: 
 Unused entries: 100
CIC Tag Read Accesses: 256028425
CIC Read Accesses: 0
CIC Tag Write Accesses: 2438159
CIC Write Accesses: 0
ITLB TOTAL     ACCESS:   17482680  HIT:   17482680  MISS:          0  HIT %:        100  MISS %:          0   MPKI: 0
ITLB LOAD TRANSLATION ACCESS:   17482680  HIT:   17482680  MISS:          0  HIT %:        100  MISS %:          0   MPKI: 0
ITLB PREFETCH  REQUESTED:          0  ISSUED:          0  USEFUL:          0  USELESS:          0
ITLB USEFUL LOAD PREFETCHES:          0 PREFETCH ISSUED TO LOWER LEVEL:          0  ACCURACY: -nan
ITLB TIMELY PREFETCHES:          0 LATE PREFETCHES: 0 DROPPED PREFETCHES: 0
ITLB PREFETCHES SAME FILL-ORIGIN LEVEL: 0 DIFFERENT FILL-ORIGIN LEVEL: 0
ITLB AVERAGE MISS LATENCY: -nan cycles
ITLB RQ	ACCESS:   18277546	FORWARD:          0	MERGED:     794866	TO_CACHE:   17482680

DTLB TOTAL     ACCESS:   28844719  HIT:   25902244  MISS:    2942475  HIT %:    89.7989  MISS %:    10.2011   MPKI: 29.4247
DTLB LOAD TRANSLATION ACCESS:   28844719  HIT:   25902244  MISS:    2942475  HIT %:    89.7989  MISS %:    10.2011   MPKI: 29.4247
DTLB PREFETCH  REQUESTED:          0  ISSUED:          0  USEFUL:          0  USELESS:          0
DTLB USEFUL LOAD PREFETCHES:          0 PREFETCH ISSUED TO LOWER LEVEL:          0  ACCURACY: -nan
DTLB TIMELY PREFETCHES:          0 LATE PREFETCHES: 0 DROPPED PREFETCHES: 0
DTLB PREFETCHES SAME FILL-ORIGIN LEVEL: 0 DIFFERENT FILL-ORIGIN LEVEL: 0
DTLB AVERAGE MISS LATENCY: 10.9126 cycles
DTLB RQ	ACCESS:   35110899	FORWARD:          0	MERGED:    6066911	TO_CACHE:   29043988

STLB TOTAL     ACCESS:    9903850  HIT:    9865607  MISS:      38243  HIT %:    99.6139  MISS %:   0.386143   MPKI: 0.38243
STLB LOAD TRANSLATION ACCESS:    2942475  HIT:    2904232  MISS:      38243  HIT %:    98.7003  MISS %:    1.29969   MPKI: 0.38243
STLB TRANSLATION FROM L1D PREFETCHER ACCESS:    6961375  HIT:    6961375  MISS:          0  HIT %:        100  MISS %:          0   MPKI: 0
STLB PREFETCH  REQUESTED:          0  ISSUED:          0  USEFUL:          0  USELESS:          0
STLB USEFUL LOAD PREFETCHES:          0 PREFETCH ISSUED TO LOWER LEVEL:          0  ACCURACY: -nan
STLB TIMELY PREFETCHES:          0 LATE PREFETCHES: 0 DROPPED PREFETCHES: 0
STLB PREFETCHES SAME FILL-ORIGIN LEVEL: 0 DIFFERENT FILL-ORIGIN LEVEL: 0
STLB AVERAGE MISS LATENCY: 129.231 cycles
STLB RQ	ACCESS:   10776840	FORWARD:          0	MERGED:     872989	TO_CACHE:    9903851

STLB Hit, L1D data hit: 0
STLB Hit, L2C data hit: 0
STLB Hit, LLC data hit: 0
STLB Hit, LLC data miss: 0
STLB STLB hints to L2: 0
L1D TOTAL     ACCESS:   41448481  HIT:   31723420  MISS:    9725061  HIT %:     76.537  MISS %:     23.463   MPKI: 97.2506
L1D LOAD      ACCESS:   25116681  HIT:   20488098  MISS:    4628583  HIT %:    81.5717  MISS %:    18.4283   MPKI: 46.2858
L1D RFO       ACCESS:    9278758  HIT:    8927950  MISS:     350808  HIT %:    96.2192  MISS %:    3.78076   MPKI: 3.50808
L1D PREFETCH  ACCESS:    7053042  HIT:    2307372  MISS:    4745670  HIT %:    32.7146  MISS %:    67.2854   MPKI: 47.4567
L1D PREFETCH  REQUESTED:   15670185  ISSUED:   15670183  USEFUL:    1049788  USELESS:    3695959
L1D USEFUL LOAD PREFETCHES:    1049788 PREFETCH ISSUED TO LOWER LEVEL:    5342624  ACCURACY: 19.6493
L1D TIMELY PREFETCHES:    1049788 LATE PREFETCHES: 596940 DROPPED PREFETCHES: 0
L1D PREFETCHES SAME FILL-ORIGIN LEVEL: 5342624 DIFFERENT FILL-ORIGIN LEVEL: 0
L1D AVERAGE MISS LATENCY: 1.35523e+07 cycles
L1D RQ	ACCESS:   34108504	FORWARD:          0	MERGED:    7887589	TO_CACHE:   25246014
L1D WQ	ACCESS:    9921850	FORWARD:     976356	MERGED:      56965	TO_CACHE:    9864885
L1D PQ	ACCESS:    7835819	FORWARD:          0	MERGED:          0	TO_CACHE:    7834364

L1D UNIQUE REGIONS ACCESSED: 0
L1D REGIONS CONFLICTS: 0
L1D Cross Page Prefetch Requests: 0
L1D Same Page Prefetch Requests: 11865141
L1D ROI Sum of L1D PQ occupancy: 102202050
L1D PREFETCHES PUSHED FROM L2C: 0
L1I TOTAL     ACCESS:   18277546  HIT:   18277546  MISS:          0  HIT %:        100  MISS %:          0   MPKI: 0
L1I LOAD      ACCESS:   18277546  HIT:   18277546  MISS:          0  HIT %:        100  MISS %:          0   MPKI: 0
L1I PREFETCH  REQUESTED:          0  ISSUED:          0  USEFUL:          0  USELESS:          0
L1I USEFUL LOAD PREFETCHES:          0 PREFETCH ISSUED TO LOWER LEVEL:          0  ACCURACY: -nan
L1I TIMELY PREFETCHES:          0 LATE PREFETCHES: 0 DROPPED PREFETCHES: 0
L1I PREFETCHES SAME FILL-ORIGIN LEVEL: 0 DIFFERENT FILL-ORIGIN LEVEL: 0
L1I AVERAGE MISS LATENCY: -nan cycles
L1I RQ	ACCESS:   28587301	FORWARD:          0	MERGED:   10309755	TO_CACHE:   18277546

BTB TOTAL     ACCESS:   24144380  HIT:   23206832  MISS:     937548  HIT %:    96.1169  MISS %:    3.88309   MPKI: 9.37548
BTB BRANCH_DIRECT_JUMP	ACCESS:    2725127  HIT:    2725091  MISS:         36
BTB BRANCH_INDIRECT	ACCESS:          0  HIT:          0  MISS:          0
BTB BRANCH_CONDITIONAL	ACCESS:   17002725  HIT:   17002650  MISS:         75
BTB BRANCH_DIRECT_CALL	ACCESS:    2072101  HIT:    2072083  MISS:         18
BTB BRANCH_INDIRECT_CALL	ACCESS:     136160  HIT:     136152  MISS:          8
BTB BRANCH_RETURN	ACCESS:    2208267  HIT:    1270856  MISS:     937411
BTB BRANCH_OTHER ACCESS:          0  HIT:          0  MISS:          0

L2C TOTAL     ACCESS:   10291651  HIT:    2998810  MISS:    7292841  HIT %:    29.1383  MISS %:    70.8617   MPKI: 72.9284
L2C LOAD      ACCESS:    4031615  HIT:    1176435  MISS:    2855180  HIT %:    29.1802  MISS %:    70.8198   MPKI: 28.5518
L2C DATA LOAD MPKI: 28.5518
L2C INSTRUCTION LOAD MPKI: 0
L2C RFO       ACCESS:     350794  HIT:     286233  MISS:      64561  HIT %:    81.5958  MISS %:    18.4042   MPKI: 0.64561
L2C PREFETCH  ACCESS:    5342615  HIT:     983930  MISS:    4358685  HIT %:    18.4166  MISS %:    81.5834   MPKI: 43.5868
L2C DATA PREFETCH MPKI: 43.5868
L2C INSTRUCTION PREFETCH MPKI: 0
L2C WRITEBACK ACCESS:     528189  HIT:     527878  MISS:        311  HIT %:    99.9411  MISS %:  0.0588804   MPKI: 0.00311
L2C LOAD TRANSLATION ACCESS:      38438  HIT:      24334  MISS:      14104  HIT %:    63.3071  MISS %:    36.6929   MPKI: 0.14104
L2C PREFETCH  REQUESTED:          0  ISSUED:          0  USEFUL:     129240  USELESS:    4229521
L2C USEFUL LOAD PREFETCHES:     129240 PREFETCH ISSUED TO LOWER LEVEL:    4358687  ACCURACY: 2.96511
L2C TIMELY PREFETCHES:     129240 LATE PREFETCHES: 0 DROPPED PREFETCHES: 0
L2C PREFETCHES SAME FILL-ORIGIN LEVEL: 0 DIFFERENT FILL-ORIGIN LEVEL: 0
L2C AVERAGE MISS LATENCY: 94.5255 cycles
L2C RQ	ACCESS:    4420876	FORWARD:          0	MERGED:          0	TO_CACHE:    4420847
L2C WQ	ACCESS:     528189	FORWARD:         36	MERGED:          0	TO_CACHE:     528189
L2C PQ	ACCESS:    5342624	FORWARD:          0	MERGED:          0	TO_CACHE:    5342617

L2C Instructions Evicting Data 0
L2C Translations Evicting Data 14080
L2C Data Evicting Data 7264350
L2C Instructions Evicting Instructions 0
L2C Translations Evicting Instructions 0
L2C Data Evicting Instructions 0
L2C Instructions Evicting Translations 0
L2C Translations Evicting Translations 24
L2C Data Evicting Translations 14076
L2C Dense regions hint from L2: 0
PSCL5 TOTAL     ACCESS:      38243  HIT:      38243  MISS:          0  HIT %:        100  MISS %:          0   MPKI: 0
PSCL5 LOAD TRANSLATION ACCESS:      38243  HIT:      38243  MISS:          0  HIT %:        100  MISS %:          0   MPKI: 0
PSCL5 PREFETCH  REQUESTED:          0  ISSUED:          0  USEFUL:          0  USELESS:          0
PSCL5 USEFUL LOAD PREFETCHES:          0 PREFETCH ISSUED TO LOWER LEVEL:          0  ACCURACY: -nan
PSCL5 TIMELY PREFETCHES:          0 LATE PREFETCHES: 0 DROPPED PREFETCHES: 0
PSCL5 PREFETCHES SAME FILL-ORIGIN LEVEL: 0 DIFFERENT FILL-ORIGIN LEVEL: 0

PSCL4 TOTAL     ACCESS:      38243  HIT:      38243  MISS:          0  HIT %:        100  MISS %:          0   MPKI: 0
PSCL4 LOAD TRANSLATION ACCESS:      38243  HIT:      38243  MISS:          0  HIT %:        100  MISS %:          0   MPKI: 0
PSCL4 PREFETCH  REQUESTED:          0  ISSUED:          0  USEFUL:          0  USELESS:          0
PSCL4 USEFUL LOAD PREFETCHES:          0 PREFETCH ISSUED TO LOWER LEVEL:          0  ACCURACY: -nan
PSCL4 TIMELY PREFETCHES:          0 LATE PREFETCHES: 0 DROPPED PREFETCHES: 0
PSCL4 PREFETCHES SAME FILL-ORIGIN LEVEL: 0 DIFFERENT FILL-ORIGIN LEVEL: 0

PSCL3 TOTAL     ACCESS:      38243  HIT:      38243  MISS:          0  HIT %:        100  MISS %:          0   MPKI: 0
PSCL3 LOAD TRANSLATION ACCESS:      38243  HIT:      38243  MISS:          0  HIT %:        100  MISS %:          0   MPKI: 0
PSCL3 PREFETCH  REQUESTED:          0  ISSUED:          0  USEFUL:          0  USELESS:          0
PSCL3 USEFUL LOAD PREFETCHES:          0 PREFETCH ISSUED TO LOWER LEVEL:          0  ACCURACY: -nan
PSCL3 TIMELY PREFETCHES:          0 LATE PREFETCHES: 0 DROPPED PREFETCHES: 0
PSCL3 PREFETCHES SAME FILL-ORIGIN LEVEL: 0 DIFFERENT FILL-ORIGIN LEVEL: 0

PSCL2 TOTAL     ACCESS:      38243  HIT:      37849  MISS:        394  HIT %:    98.9697  MISS %:    1.03025   MPKI: 0.00394
PSCL2 LOAD TRANSLATION ACCESS:      38243  HIT:      37849  MISS:        394  HIT %:    98.9697  MISS %:    1.03025   MPKI: 0.00394
PSCL2 PREFETCH  REQUESTED:          0  ISSUED:          0  USEFUL:          0  USELESS:          0
PSCL2 USEFUL LOAD PREFETCHES:          0 PREFETCH ISSUED TO LOWER LEVEL:          0  ACCURACY: -nan
PSCL2 TIMELY PREFETCHES:          0 LATE PREFETCHES: 0 DROPPED PREFETCHES: 0
PSCL2 PREFETCHES SAME FILL-ORIGIN LEVEL: 0 DIFFERENT FILL-ORIGIN LEVEL: 0

LLC TOTAL     ACCESS:    7458306  HIT:    4573914  MISS:    2884392  HIT %:    61.3264  MISS %:    38.6736   MPKI: 28.8439
LLC LOAD      ACCESS:    2855179  HIT:    2154680  MISS:     700499  HIT %:    75.4657  MISS %:    24.5343   MPKI: 7.00499
LLC RFO       ACCESS:      64561  HIT:      62281  MISS:       2280  HIT %:    96.4685  MISS %:    3.53154   MPKI: 0.0228
LLC PREFETCH  ACCESS:    4358685  HIT:    2201819  MISS:    2156866  HIT %:    50.5157  MISS %:    49.4843   MPKI: 21.5687
LLC WRITEBACK ACCESS:     165777  HIT:     147933  MISS:      17844  HIT %:    89.2361  MISS %:    10.7639   MPKI: 0.17844
LLC LOAD TRANSLATION ACCESS:      14104  HIT:       7201  MISS:       6903  HIT %:    51.0564  MISS %:    48.9436   MPKI: 0.06903
LLC PREFETCH  REQUESTED:          0  ISSUED:          0  USEFUL:     149817  USELESS:    2007358
LLC USEFUL LOAD PREFETCHES:     149817 PREFETCH ISSUED TO LOWER LEVEL:    2156867  ACCURACY: 6.94605
LLC TIMELY PREFETCHES:     149817 LATE PREFETCHES: 0 DROPPED PREFETCHES: 0
LLC PREFETCHES SAME FILL-ORIGIN LEVEL: 0 DIFFERENT FILL-ORIGIN LEVEL: 0
LLC AVERAGE MISS LATENCY: 162.292 cycles
LLC RQ	ACCESS:    2933845	FORWARD:          0	MERGED:          0	TO_CACHE:    2933844
LLC WQ	ACCESS:     165777	FORWARD:          2	MERGED:          0	TO_CACHE:     165777
LLC PQ	ACCESS:    4358687	FORWARD:          0	MERGED:          0	TO_CACHE:    4358686

LLC Dense regions hint to LLC: 0

RAW hits: 1309475
Loads Generated: 35417979
Loads sent to L1D: 34108504
Stores Generated: 9921850
Stores sent to L1D: 9921850
Major fault: 0 Minor fault: 38847
Allocated PAGES: 38847

stream: 
stream:times selected: 16943576
stream:pref_filled: 5203140
stream:pref_useful: 252662
stream:pref_late: 8405
stream:misses: 1255300
stream:misses_by_poll: 0

CS: 
CS:times selected: 2756376
CS:pref_filled: 1430115
CS:pref_useful: 1397372
CS:pref_late: 725391
CS:misses: 935337
CS:misses_by_poll: 2458

CPLX: 
CPLX:times selected: 14054730
CPLX:pref_filled: 420436
CPLX:pref_useful: 29505
CPLX:pref_late: 1110
CPLX:misses: 4515529
CPLX:misses_by_poll: 565

NL_L1: 
NL:times selected: 114115
NL:pref_filled: 38731
NL:pref_useful: 2074
NL:pref_late: 271
NL:misses: 42762
NL:misses_by_poll: 2

total selections: 33868797
total_filled: 4745670
total_useful: 1049788
total_late: 746838
total_polluted: 3025
total_misses_after_warmup: 4757915
conflicts: 613648
Degree Incremented Times: 120417
Degree Decremented Times: 434603

L1 IP Table Write Accesses: 22809208
L1 IP Table Read Accesses: 22195560
L1 RST Write Accesses: 11264603
L1 RST Read Accesses: 22529206
L1 CSPT Write Accesses: 11264603
L1 CSPT Read Accesses: 20661255
L1 RR Filter Tag Write Accesses: 7835821
L1 RR Filter Tag Read Accesses: 419826956
L1 IP Table Tag Write Accesses: 25246013
L1 IP Table Tag Read Accesses: 25246013
L1 RST Tag Write Accesses: 0
L1 RST Tag Read Accesses: 105051915
L1 RR Filter Write Accesses: 0
L1 RR Filter Read Accesses: 14621804
test: 8361690

DRAM Statistics
 CHANNEL 0
 RQ ROW_BUFFER_HIT:     850990  ROW_BUFFER_MISS:    2015542
 DBUS_CONGESTED:        707
 WQ ROW_BUFFER_HIT:       4202  ROW_BUFFER_MISS:      25976  FULL:          0

 AVG_CONGESTED_CYCLE: 4
 All warmup complete: 2
Channel 0 Bank busy for read cycles: 0
Channel 0 Bank busy for write cycles: 0
Channel 0
Rank 0
0banks busy for read cycles: 238147568
0banks busy for write cycles: 25023
1banks busy for read cycles: 44465532
1banks busy for write cycles: 5197533
2banks busy for read cycles: 32146666
2banks busy for write cycles: 759220
3banks busy for read cycles: 22199507
3banks busy for write cycles: 138542
4banks busy for read cycles: 15585689
4banks busy for write cycles: 22844
5banks busy for read cycles: 10058913
5banks busy for write cycles: 3482
6banks busy for read cycles: 5451823
6banks busy for write cycles: 402
7banks busy for read cycles: 2297794
7banks busy for write cycles: 259
8banks busy for read cycles: 1012364
8banks busy for write cycles: 0

CPU 0 Branch Prediction Accuracy: 93.8692% MPKI: 15.451 Average ROB Occupancy at Mispredict: 24.2232
Branch types
NOT_BRANCH: 74797529 74.7975%
BRANCH_DIRECT_JUMP: 2725127 2.72513%
BRANCH_INDIRECT: 0 0%
BRANCH_CONDITIONAL: 18060505 18.0605%
BRANCH_DIRECT_CALL: 2072101 2.0721%
BRANCH_INDIRECT_CALL: 136160 0.13616%
BRANCH_RETURN: 2208267 2.20827%
BRANCH_OTHER: 0 0%

DRAM PAGES: 1048576
Allocated PAGES: 38847
