
*** ChampSim Multicore Out-of-Order Simulator ***

Warmup Instructions: 50000000
Simulation Instructions: 100000000
Number of CPUs: 1
LLC sets: 2048
LLC ways: 16
Off-chip DRAM Size: 4096 MB Channels: 1 Width: 64-bit Data Rate: 6400 MT/s
CPU 0 runs ../SPEC2017//605.mcf_s-484B.champsimtrace.xz
.xz
NUM_OF_IPS_IN_CRITICAL_IP_TRAINING: 64
NUM_OF_CRITICAL_IP_TRAINING_TABLE_WAYS: 2
NUM_OF_CRITICAL_IP_TRAINING_TABLE_SETS: 32
WOBBLY_CRITICAL_IP_CACHE_SETS: 32
WOBBLY_CRITICAL_IP_CACHE_WAYS: 4
BTB has LRU replacement policy
ITLB has LRU replacement policy
DTLB has LRU replacement policy
STLB has LRU replacement policy
L1I has LRU replacement policy
IP Table Entries: 256
L1D has LRU replacement policy
Initialize SRRIP state for L2C
Initialize DRRIP state for LLC
Heartbeat CPU 0 instructions: 10000001 cycles: 3162388 heartbeat IPC: 3.16217 cumulative IPC: 3.16217 (Simulation time: 0 hr 3 min 29 sec) 
Heartbeat CPU 0 instructions: 20000003 cycles: 6354398 heartbeat IPC: 3.13282 cumulative IPC: 3.14743 (Simulation time: 0 hr 7 min 15 sec) 
Heartbeat CPU 0 instructions: 30000001 cycles: 9522477 heartbeat IPC: 3.15649 cumulative IPC: 3.15044 (Simulation time: 0 hr 10 min 56 sec) 
Heartbeat CPU 0 instructions: 40000000 cycles: 12672629 heartbeat IPC: 3.17445 cumulative IPC: 3.15641 (Simulation time: 0 hr 14 min 27 sec) 
Heartbeat CPU 0 instructions: 50000002 cycles: 15848941 heartbeat IPC: 3.14831 cumulative IPC: 3.15479 (Simulation time: 0 hr 17 min 52 sec) 

Warmup complete CPU 0 instructions: 50000002 cycles: 15848941 (Simulation time: 0 hr 17 min 52 sec) 

% increase in all ip prefetch 639.702
% increase in all ip prefetch -30.5904
Heartbeat CPU 0 instructions: 60000003 cycles: 40154603 heartbeat IPC: 0.411427 cumulative IPC: 0.411427 (Simulation time: 0 hr 22 min 1 sec) 
Heartbeat CPU 0 instructions: 70000002 cycles: 69506562 heartbeat IPC: 0.340693 cumulative IPC: 0.372734 (Simulation time: 0 hr 26 min 44 sec) 
Heartbeat CPU 0 instructions: 80000000 cycles: 99131452 heartbeat IPC: 0.337554 cumulative IPC: 0.36022 (Simulation time: 0 hr 31 min 12 sec) 
Heartbeat CPU 0 instructions: 90000000 cycles: 125850019 heartbeat IPC: 0.374272 cumulative IPC: 0.363633 (Simulation time: 0 hr 35 min 29 sec) 
Heartbeat CPU 0 instructions: 100000000 cycles: 149765821 heartbeat IPC: 0.418134 cumulative IPC: 0.373366 (Simulation time: 0 hr 42 min 49 sec) 
Heartbeat CPU 0 instructions: 110000000 cycles: 174038957 heartbeat IPC: 0.411978 cumulative IPC: 0.379291 (Simulation time: 0 hr 50 min 49 sec) 
Heartbeat CPU 0 instructions: 120000001 cycles: 195460578 heartbeat IPC: 0.466818 cumulative IPC: 0.38973 (Simulation time: 0 hr 57 min 16 sec) 
Heartbeat CPU 0 instructions: 130000000 cycles: 217594272 heartbeat IPC: 0.4518 cumulative IPC: 0.39654 (Simulation time: 1 hr 3 min 23 sec) 
Heartbeat CPU 0 instructions: 140000001 cycles: 241487729 heartbeat IPC: 0.418525 cumulative IPC: 0.398868 (Simulation time: 1 hr 9 min 34 sec) 
Heartbeat CPU 0 instructions: 150000002 cycles: 263526316 heartbeat IPC: 0.45375 cumulative IPC: 0.403751 (Simulation time: 1 hr 14 min 47 sec) 
Finished CPU 0 instructions: 100000000 cycles: 247677375 cumulative IPC: 0.403751 (Simulation time: 1 hr 14 min 47 sec) 

ChampSim completed all CPUs

Region of Interest Statistics

CPU 0 cumulative IPC: 0.403751 instructions: 100000000 cycles: 247677375

CPU 0 Average Load ROB stall cycles: 4.73854e+07
CPU 0 Fraction of times ROB stalled by Loads: 32.5072
CPU 0 Percentage of Load stall cycles in Total stall cycles: 5.21255e+08
Issued all: 152731024
Issued LT all: 146112056
rob_not_full_when_issued_lt_all: 23498258
Issued LT one: 122010404
rob_not_full_when_issued_lt_one: 19117390
 Total stall cycles: 224479740
 Total load stall cycles: 1170112413087081
CPU 0 NUM of IPS identified critical: 0
CPU 0 Num of Load IPs stalling ROB: 76
Threshold modification factor: -1
Max PIST entries: 34
Min PIST entries: 0
Avg PIST entries: 9.14
Trouble in retire width: 0.996965
MaC = Marked as critical.
lt_50_percent_before_Mac: 0
gt_90_percent_before_Mac: 0
gt_75_percent_before_Mac: 0
gt_50_percent_before_Mac: 0
stall_proportion_bin_same_before_after: 0
stall_proportion_bin_lower_before_after: 0
stall_proportion_bin_upper_before_after: 0
average_stall_proportion_before: -nan
average_stall_proportion_after: -nan
Critical IP stalls, total frequency: 0
Non-critical IP stalls, total frequency: 8027160
Total Freq all stalling IPs: 8027160
stat_90_percent_critical_ip_stalls_freq: 7255880
stat_90_percent_non_critical_ip_stalls_freq: 771280
Critical_IP_ROB_Stalls_Bucket_0: 0
Non-critical_IP_ROB_Stalls_Bucket_0: 599828
Critical_IP_ROB_Stalls_Bucket_1: 0
Non-critical_IP_ROB_Stalls_Bucket_1: 233437
Critical_IP_ROB_Stalls_Bucket_2: 0
Non-critical_IP_ROB_Stalls_Bucket_2: 300427
Critical_IP_ROB_Stalls_Bucket_3: 0
Non-critical_IP_ROB_Stalls_Bucket_3: 399940
Critical_IP_ROB_Stalls_Bucket_4: 0
Non-critical_IP_ROB_Stalls_Bucket_4: 327118
Critical_IP_ROB_Stalls_Bucket_5: 0
Non-critical_IP_ROB_Stalls_Bucket_5: 608462
Critical_IP_ROB_Stalls_Bucket_6: 0
Non-critical_IP_ROB_Stalls_Bucket_6: 5557948
0 => IPs accounting for >50 percent of stalls, 1 => 55, 2 => 60, 3 => 65 and so on till 90.
percent50: 55.8973 num IPs:  2
percent55: 55.8973 num IPs: 2
percent60: 69.986 num IPs: 3
percent65: 69.986 num IPs: 3
percent70: 77.7875 num IPs: 4
percent75: 77.7875 num IPs: 4
percent80: 81.7992 num IPs: 5
percent85: 86.6902 num IPs: 7
percent90: 90.3916 num IPs: 9
Critical_ROB_Stalls_Percent_0_Bucket_0: 203152
Non-critical_ROB_Stalls_Percent_0_Bucket_0: 396676
Critical_ROB_Stalls_Percent_0_Bucket_1: 115877
Non-critical_ROB_Stalls_Percent_0_Bucket_1: 117560
Critical_ROB_Stalls_Percent_0_Bucket_2: 180951
Non-critical_ROB_Stalls_Percent_0_Bucket_2: 119476
Critical_ROB_Stalls_Percent_0_Bucket_3: 256182
Non-critical_ROB_Stalls_Percent_0_Bucket_3: 143758
Critical_ROB_Stalls_Percent_0_Bucket_4: 187161
Non-critical_ROB_Stalls_Percent_0_Bucket_4: 139957
Critical_ROB_Stalls_Percent_0_Bucket_5: 391811
Non-critical_ROB_Stalls_Percent_0_Bucket_5: 216651
Critical_ROB_Stalls_Percent_0_Bucket_6: 3151831
Non-critical_ROB_Stalls_Percent_0_Bucket_6: 2406117
Critical_ROB_Stalls_Percent_1_Bucket_0: 203152
Non-critical_ROB_Stalls_Percent_1_Bucket_0: 396676
Critical_ROB_Stalls_Percent_1_Bucket_1: 115877
Non-critical_ROB_Stalls_Percent_1_Bucket_1: 117560
Critical_ROB_Stalls_Percent_1_Bucket_2: 180951
Non-critical_ROB_Stalls_Percent_1_Bucket_2: 119476
Critical_ROB_Stalls_Percent_1_Bucket_3: 256182
Non-critical_ROB_Stalls_Percent_1_Bucket_3: 143758
Critical_ROB_Stalls_Percent_1_Bucket_4: 187161
Non-critical_ROB_Stalls_Percent_1_Bucket_4: 139957
Critical_ROB_Stalls_Percent_1_Bucket_5: 391811
Non-critical_ROB_Stalls_Percent_1_Bucket_5: 216651
Critical_ROB_Stalls_Percent_1_Bucket_6: 3151831
Non-critical_ROB_Stalls_Percent_1_Bucket_6: 2406117
Critical_ROB_Stalls_Percent_2_Bucket_0: 205365
Non-critical_ROB_Stalls_Percent_2_Bucket_0: 394463
Critical_ROB_Stalls_Percent_2_Bucket_1: 117474
Non-critical_ROB_Stalls_Percent_2_Bucket_1: 115963
Critical_ROB_Stalls_Percent_2_Bucket_2: 217497
Non-critical_ROB_Stalls_Percent_2_Bucket_2: 82930
Critical_ROB_Stalls_Percent_2_Bucket_3: 316818
Non-critical_ROB_Stalls_Percent_2_Bucket_3: 83122
Critical_ROB_Stalls_Percent_2_Bucket_4: 276048
Non-critical_ROB_Stalls_Percent_2_Bucket_4: 51070
Critical_ROB_Stalls_Percent_2_Bucket_5: 455570
Non-critical_ROB_Stalls_Percent_2_Bucket_5: 152892
Critical_ROB_Stalls_Percent_2_Bucket_6: 4029113
Non-critical_ROB_Stalls_Percent_2_Bucket_6: 1528835
Critical_ROB_Stalls_Percent_3_Bucket_0: 205365
Non-critical_ROB_Stalls_Percent_3_Bucket_0: 394463
Critical_ROB_Stalls_Percent_3_Bucket_1: 117474
Non-critical_ROB_Stalls_Percent_3_Bucket_1: 115963
Critical_ROB_Stalls_Percent_3_Bucket_2: 217497
Non-critical_ROB_Stalls_Percent_3_Bucket_2: 82930
Critical_ROB_Stalls_Percent_3_Bucket_3: 316818
Non-critical_ROB_Stalls_Percent_3_Bucket_3: 83122
Critical_ROB_Stalls_Percent_3_Bucket_4: 276048
Non-critical_ROB_Stalls_Percent_3_Bucket_4: 51070
Critical_ROB_Stalls_Percent_3_Bucket_5: 455570
Non-critical_ROB_Stalls_Percent_3_Bucket_5: 152892
Critical_ROB_Stalls_Percent_3_Bucket_6: 4029113
Non-critical_ROB_Stalls_Percent_3_Bucket_6: 1528835
Critical_ROB_Stalls_Percent_4_Bucket_0: 212741
Non-critical_ROB_Stalls_Percent_4_Bucket_0: 387087
Critical_ROB_Stalls_Percent_4_Bucket_1: 135270
Non-critical_ROB_Stalls_Percent_4_Bucket_1: 98167
Critical_ROB_Stalls_Percent_4_Bucket_2: 239713
Non-critical_ROB_Stalls_Percent_4_Bucket_2: 60714
Critical_ROB_Stalls_Percent_4_Bucket_3: 327715
Non-critical_ROB_Stalls_Percent_4_Bucket_3: 72225
Critical_ROB_Stalls_Percent_4_Bucket_4: 282337
Non-critical_ROB_Stalls_Percent_4_Bucket_4: 44781
Critical_ROB_Stalls_Percent_4_Bucket_5: 472023
Non-critical_ROB_Stalls_Percent_4_Bucket_5: 136439
Critical_ROB_Stalls_Percent_4_Bucket_6: 4574324
Non-critical_ROB_Stalls_Percent_4_Bucket_6: 983624
Critical_ROB_Stalls_Percent_5_Bucket_0: 212741
Non-critical_ROB_Stalls_Percent_5_Bucket_0: 387087
Critical_ROB_Stalls_Percent_5_Bucket_1: 135270
Non-critical_ROB_Stalls_Percent_5_Bucket_1: 98167
Critical_ROB_Stalls_Percent_5_Bucket_2: 239713
Non-critical_ROB_Stalls_Percent_5_Bucket_2: 60714
Critical_ROB_Stalls_Percent_5_Bucket_3: 327715
Non-critical_ROB_Stalls_Percent_5_Bucket_3: 72225
Critical_ROB_Stalls_Percent_5_Bucket_4: 282337
Non-critical_ROB_Stalls_Percent_5_Bucket_4: 44781
Critical_ROB_Stalls_Percent_5_Bucket_5: 472023
Non-critical_ROB_Stalls_Percent_5_Bucket_5: 136439
Critical_ROB_Stalls_Percent_5_Bucket_6: 4574324
Non-critical_ROB_Stalls_Percent_5_Bucket_6: 983624
Critical_ROB_Stalls_Percent_6_Bucket_0: 241038
Non-critical_ROB_Stalls_Percent_6_Bucket_0: 358790
Critical_ROB_Stalls_Percent_6_Bucket_1: 154014
Non-critical_ROB_Stalls_Percent_6_Bucket_1: 79423
Critical_ROB_Stalls_Percent_6_Bucket_2: 253707
Non-critical_ROB_Stalls_Percent_6_Bucket_2: 46720
Critical_ROB_Stalls_Percent_6_Bucket_3: 341227
Non-critical_ROB_Stalls_Percent_6_Bucket_3: 58713
Critical_ROB_Stalls_Percent_6_Bucket_4: 290091
Non-critical_ROB_Stalls_Percent_6_Bucket_4: 37027
Critical_ROB_Stalls_Percent_6_Bucket_5: 498253
Non-critical_ROB_Stalls_Percent_6_Bucket_5: 110209
Critical_ROB_Stalls_Percent_6_Bucket_6: 4787821
Non-critical_ROB_Stalls_Percent_6_Bucket_6: 770127
Critical_ROB_Stalls_Percent_7_Bucket_0: 301855
Non-critical_ROB_Stalls_Percent_7_Bucket_0: 297973
Critical_ROB_Stalls_Percent_7_Bucket_1: 186579
Non-critical_ROB_Stalls_Percent_7_Bucket_1: 46858
Critical_ROB_Stalls_Percent_7_Bucket_2: 272983
Non-critical_ROB_Stalls_Percent_7_Bucket_2: 27444
Critical_ROB_Stalls_Percent_7_Bucket_3: 363829
Non-critical_ROB_Stalls_Percent_7_Bucket_3: 36111
Critical_ROB_Stalls_Percent_7_Bucket_4: 301049
Non-critical_ROB_Stalls_Percent_7_Bucket_4: 26069
Critical_ROB_Stalls_Percent_7_Bucket_5: 539538
Non-critical_ROB_Stalls_Percent_7_Bucket_5: 68924
Critical_ROB_Stalls_Percent_7_Bucket_6: 4992928
Non-critical_ROB_Stalls_Percent_7_Bucket_6: 565020
Critical_ROB_Stalls_Percent_8_Bucket_0: 340414
Non-critical_ROB_Stalls_Percent_8_Bucket_0: 259414
Critical_ROB_Stalls_Percent_8_Bucket_1: 209713
Non-critical_ROB_Stalls_Percent_8_Bucket_1: 23724
Critical_ROB_Stalls_Percent_8_Bucket_2: 283110
Non-critical_ROB_Stalls_Percent_8_Bucket_2: 17317
Critical_ROB_Stalls_Percent_8_Bucket_3: 375823
Non-critical_ROB_Stalls_Percent_8_Bucket_3: 24117
Critical_ROB_Stalls_Percent_8_Bucket_4: 308902
Non-critical_ROB_Stalls_Percent_8_Bucket_4: 18216
Critical_ROB_Stalls_Percent_8_Bucket_5: 578578
Non-critical_ROB_Stalls_Percent_8_Bucket_5: 29884
Critical_ROB_Stalls_Percent_8_Bucket_6: 5159340
Non-critical_ROB_Stalls_Percent_8_Bucket_6: 398608
Average ROB occupancy Load Stall Begin: 283.29
Average ROB occupancy Load Stall End: 288.254
Min ROB occupancy Load Stall Begin: 1
Max ROB occupancy Load Stall Begin: 352
Min ROB occupancy Load Stall End: 1
Max ROB occupancy Load Stall End: 352
Average ROB occupancy Critical Load Stall Begin: -nan
Average ROB occupancy Critical Load Stall End: -nan
Min ROB occupancy Critical Load Stall Begin: 400
Max ROB occupancy Critical Load Stall Begin: 0
Min ROB occupancy Critical Load Stall End: 400
Max ROB occupancy Critical Load Stall End: 0
 ROB Load Stall Begin Bucket Count 0: 668500
 ROB Load Stall End Bucket Count 0: 599828
 ROB Critical Load Stall Begin Bucket Count 0: 0
 ROB Critical Load Stall End Bucket Count 0: 0
 ROB Load Stall Begin Bucket Count 1: 231850
 ROB Load Stall End Bucket Count 1: 233437
 ROB Critical Load Stall Begin Bucket Count 1: 0
 ROB Critical Load Stall End Bucket Count 1: 0
 ROB Load Stall Begin Bucket Count 2: 317496
 ROB Load Stall End Bucket Count 2: 300427
 ROB Critical Load Stall Begin Bucket Count 2: 0
 ROB Critical Load Stall End Bucket Count 2: 0
 ROB Load Stall Begin Bucket Count 3: 398946
 ROB Load Stall End Bucket Count 3: 399940
 ROB Critical Load Stall Begin Bucket Count 3: 0
 ROB Critical Load Stall End Bucket Count 3: 0
 ROB Load Stall Begin Bucket Count 4: 313330
 ROB Load Stall End Bucket Count 4: 327118
 ROB Critical Load Stall Begin Bucket Count 4: 0
 ROB Critical Load Stall End Bucket Count 4: 0
 ROB Load Stall Begin Bucket Count 5: 660031
 ROB Load Stall End Bucket Count 5: 608462
 ROB Critical Load Stall Begin Bucket Count 5: 0
 ROB Critical Load Stall End Bucket Count 5: 0
 ROB Load Stall Begin Bucket Count 6: 5437007
 ROB Load Stall End Bucket Count 6: 5557948
 ROB Critical Load Stall Begin Bucket Count 6: 0
 ROB Critical Load Stall End Bucket Count 6: 0
PIST Tag Read Accesses: 29276
PIST Read Accesses: 14638
PIST Tag Write Accesses: 29276
PIST Write Accesses: 14638
Criticality detector called times: 41163
Max global_stall_cycles_count: 450026
Threshold Modified: 1 times, factor: -1
Sturdy critical IP cache stats: 
 Unused entries: 0
CIC Tag Read Accesses: 0
CIC Read Accesses: 0
CIC Tag Write Accesses: 0
CIC Write Accesses: 0
Wobbly critical IP cache stats: 
 Unused entries: 95
CIC Tag Read Accesses: 311236961
CIC Read Accesses: 0
CIC Tag Write Accesses: 1900143
CIC Write Accesses: 0
ITLB TOTAL     ACCESS:   16847215  HIT:   16847215  MISS:          0  HIT %:        100  MISS %:          0   MPKI: 0
ITLB LOAD TRANSLATION ACCESS:   16847215  HIT:   16847215  MISS:          0  HIT %:        100  MISS %:          0   MPKI: 0
ITLB PREFETCH  REQUESTED:          0  ISSUED:          0  USEFUL:          0  USELESS:          0
ITLB USEFUL LOAD PREFETCHES:          0 PREFETCH ISSUED TO LOWER LEVEL:          0  ACCURACY: -nan
ITLB TIMELY PREFETCHES:          0 LATE PREFETCHES: 0 DROPPED PREFETCHES: 0
ITLB PREFETCHES SAME FILL-ORIGIN LEVEL: 0 DIFFERENT FILL-ORIGIN LEVEL: 0
ITLB AVERAGE MISS LATENCY: -nan cycles
ITLB RQ	ACCESS:   21647129	FORWARD:          0	MERGED:    4799914	TO_CACHE:   16847215

DTLB TOTAL     ACCESS:   26355898  HIT:   26149478  MISS:     206420  HIT %:    99.2168  MISS %:   0.783202   MPKI: 2.0642
DTLB LOAD TRANSLATION ACCESS:   26355898  HIT:   26149478  MISS:     206420  HIT %:    99.2168  MISS %:   0.783202   MPKI: 2.0642
DTLB PREFETCH  REQUESTED:          0  ISSUED:          0  USEFUL:          0  USELESS:          0
DTLB USEFUL LOAD PREFETCHES:          0 PREFETCH ISSUED TO LOWER LEVEL:          0  ACCURACY: -nan
DTLB TIMELY PREFETCHES:          0 LATE PREFETCHES: 0 DROPPED PREFETCHES: 0
DTLB PREFETCHES SAME FILL-ORIGIN LEVEL: 0 DIFFERENT FILL-ORIGIN LEVEL: 0
DTLB AVERAGE MISS LATENCY: 36.4523 cycles
DTLB RQ	ACCESS:   46619895	FORWARD:          0	MERGED:   20234959	TO_CACHE:   26384936

STLB TOTAL     ACCESS:    7910343  HIT:    7840744  MISS:      69599  HIT %:    99.1202  MISS %:   0.879848   MPKI: 0.69599
STLB LOAD TRANSLATION ACCESS:     206420  HIT:     136839  MISS:      69581  HIT %:    66.2915  MISS %:    33.7085   MPKI: 0.69581
STLB TRANSLATION FROM L1D PREFETCHER ACCESS:    7703923  HIT:    7703905  MISS:         18  HIT %:    99.9998  MISS %: 0.000233647   MPKI: 0.00018
STLB PREFETCH  REQUESTED:          0  ISSUED:          0  USEFUL:         12  USELESS:          6
STLB USEFUL LOAD PREFETCHES:         12 PREFETCH ISSUED TO LOWER LEVEL:          0  ACCURACY: inf
STLB TIMELY PREFETCHES:         12 LATE PREFETCHES: 0 DROPPED PREFETCHES: 0
STLB PREFETCHES SAME FILL-ORIGIN LEVEL: 0 DIFFERENT FILL-ORIGIN LEVEL: 0
STLB AVERAGE MISS LATENCY: 81.3137 cycles
STLB RQ	ACCESS:   12456098	FORWARD:          0	MERGED:    4545754	TO_CACHE:    7910344

STLB Hit, L1D data hit: 0
STLB Hit, L2C data hit: 0
STLB Hit, LLC data hit: 0
STLB Hit, LLC data miss: 0
STLB STLB hints to L2: 0
L1D TOTAL     ACCESS:   57392584  HIT:   53356360  MISS:    4036224  HIT %:    92.9673  MISS %:    7.03266   MPKI: 40.3622
L1D LOAD      ACCESS:   17971233  HIT:   16307921  MISS:    1663312  HIT %:    90.7446  MISS %:    9.25541   MPKI: 16.6331
L1D RFO       ACCESS:   27741464  HIT:   27521410  MISS:     220054  HIT %:    99.2068  MISS %:   0.793231   MPKI: 2.20054
L1D PREFETCH  ACCESS:   11679887  HIT:    9527029  MISS:    2152858  HIT %:    81.5678  MISS %:    18.4322   MPKI: 21.5286
L1D PREFETCH  REQUESTED:   24499413  ISSUED:   24499364  USEFUL:     720639  USELESS:    1432254
L1D USEFUL LOAD PREFETCHES:     720639 PREFETCH ISSUED TO LOWER LEVEL:    2553665  ACCURACY: 28.2198
L1D TIMELY PREFETCHES:     720639 LATE PREFETCHES: 397305 DROPPED PREFETCHES: 0
L1D PREFETCHES SAME FILL-ORIGIN LEVEL: 2553665 DIFFERENT FILL-ORIGIN LEVEL: 0
L1D AVERAGE MISS LATENCY: 1.25934e+07 cycles
L1D RQ	ACCESS:   31250105	FORWARD:          0	MERGED:   13067574	TO_CACHE:   18152469
L1D WQ	ACCESS:   28891364	FORWARD:      30070	MERGED:     423938	TO_CACHE:   28467426
L1D PQ	ACCESS:   12249686	FORWARD:          0	MERGED:          0	TO_CACHE:   12249678

L1D UNIQUE REGIONS ACCESSED: 0
L1D REGIONS CONFLICTS: 0
L1D Cross Page Prefetch Requests: 0
L1D Same Page Prefetch Requests: 18540367
L1D ROI Sum of L1D PQ occupancy: 164432926
L1D PREFETCHES PUSHED FROM L2C: 0
L1I TOTAL     ACCESS:   21647129  HIT:   21647129  MISS:          0  HIT %:        100  MISS %:          0   MPKI: 0
L1I LOAD      ACCESS:   21647129  HIT:   21647129  MISS:          0  HIT %:        100  MISS %:          0   MPKI: 0
L1I PREFETCH  REQUESTED:          0  ISSUED:          0  USEFUL:          0  USELESS:          0
L1I USEFUL LOAD PREFETCHES:          0 PREFETCH ISSUED TO LOWER LEVEL:          0  ACCURACY: -nan
L1I TIMELY PREFETCHES:          0 LATE PREFETCHES: 0 DROPPED PREFETCHES: 0
L1I PREFETCHES SAME FILL-ORIGIN LEVEL: 0 DIFFERENT FILL-ORIGIN LEVEL: 0
L1I AVERAGE MISS LATENCY: -nan cycles
L1I RQ	ACCESS:   30420513	FORWARD:          0	MERGED:    8773384	TO_CACHE:   21647129

BTB TOTAL     ACCESS:    9650941  HIT:    9650907  MISS:         34  HIT %:    99.9996  MISS %: 0.000352297   MPKI: 0.00034
BTB BRANCH_DIRECT_JUMP	ACCESS:     463202  HIT:     463196  MISS:          6
BTB BRANCH_INDIRECT	ACCESS:          0  HIT:          0  MISS:          0
BTB BRANCH_CONDITIONAL	ACCESS:    9187651  HIT:    9187627  MISS:         24
BTB BRANCH_DIRECT_CALL	ACCESS:         44  HIT:         42  MISS:          2
BTB BRANCH_INDIRECT_CALL	ACCESS:          0  HIT:          0  MISS:          0
BTB BRANCH_RETURN	ACCESS:         44  HIT:         42  MISS:          2
BTB BRANCH_OTHER ACCESS:          0  HIT:          0  MISS:          0

L2C TOTAL     ACCESS:    4750406  HIT:    1194615  MISS:    3555791  HIT %:    25.1476  MISS %:    74.8524   MPKI: 35.5579
L2C LOAD      ACCESS:    1265994  HIT:      78818  MISS:    1187176  HIT %:    6.22578  MISS %:    93.7742   MPKI: 11.8718
L2C DATA LOAD MPKI: 11.8718
L2C INSTRUCTION LOAD MPKI: 0
L2C RFO       ACCESS:     216549  HIT:       4138  MISS:     212411  HIT %:    1.91088  MISS %:    98.0891   MPKI: 2.12411
L2C PREFETCH  ACCESS:    2553648  HIT:     410857  MISS:    2142791  HIT %:     16.089  MISS %:     83.911   MPKI: 21.4279
L2C DATA PREFETCH MPKI: 21.4279
L2C INSTRUCTION PREFETCH MPKI: 0
L2C WRITEBACK ACCESS:     644472  HIT:     641139  MISS:       3333  HIT %:    99.4828  MISS %:   0.517168   MPKI: 0.03333
L2C LOAD TRANSLATION ACCESS:      69725  HIT:      59663  MISS:      10062  HIT %:     85.569  MISS %:     14.431   MPKI: 0.10062
L2C TRANSLATION FROM L1D PREFETCHER ACCESS:         18  HIT:          0  MISS:         18  HIT %:          0  MISS %:        100   MPKI: 0.00018
L2C PREFETCH  REQUESTED:          0  ISSUED:          0  USEFUL:      30240  USELESS:    2112542
L2C USEFUL LOAD PREFETCHES:      30240 PREFETCH ISSUED TO LOWER LEVEL:    2142791  ACCURACY: 1.41124
L2C TIMELY PREFETCHES:      30240 LATE PREFETCHES: 0 DROPPED PREFETCHES: 0
L2C PREFETCHES SAME FILL-ORIGIN LEVEL: 0 DIFFERENT FILL-ORIGIN LEVEL: 0
L2C AVERAGE MISS LATENCY: 173.813 cycles
L2C RQ	ACCESS:    1552302	FORWARD:          0	MERGED:          0	TO_CACHE:    1552286
L2C WQ	ACCESS:     644472	FORWARD:         33	MERGED:          0	TO_CACHE:     644472
L2C PQ	ACCESS:    2553665	FORWARD:          0	MERGED:          0	TO_CACHE:    2553648

L2C Instructions Evicting Data 0
L2C Translations Evicting Data 10056
L2C Data Evicting Data 3532359
L2C Instructions Evicting Instructions 0
L2C Translations Evicting Instructions 0
L2C Data Evicting Instructions 0
L2C Instructions Evicting Translations 0
L2C Translations Evicting Translations 24
L2C Data Evicting Translations 10019
L2C Dense regions hint from L2: 0
PSCL5 TOTAL     ACCESS:      69599  HIT:      69599  MISS:          0  HIT %:        100  MISS %:          0   MPKI: 0
PSCL5 LOAD TRANSLATION ACCESS:      69581  HIT:      69581  MISS:          0  HIT %:        100  MISS %:          0   MPKI: 0
PSCL5 TRANSLATION FROM L1D PREFETCHER ACCESS:         18  HIT:         18  MISS:          0  HIT %:        100  MISS %:          0   MPKI: 0
PSCL5 PREFETCH  REQUESTED:          0  ISSUED:          0  USEFUL:          0  USELESS:          0
PSCL5 USEFUL LOAD PREFETCHES:          0 PREFETCH ISSUED TO LOWER LEVEL:          0  ACCURACY: -nan
PSCL5 TIMELY PREFETCHES:          0 LATE PREFETCHES: 0 DROPPED PREFETCHES: 0
PSCL5 PREFETCHES SAME FILL-ORIGIN LEVEL: 0 DIFFERENT FILL-ORIGIN LEVEL: 0

PSCL4 TOTAL     ACCESS:      69599  HIT:      69599  MISS:          0  HIT %:        100  MISS %:          0   MPKI: 0
PSCL4 LOAD TRANSLATION ACCESS:      69581  HIT:      69581  MISS:          0  HIT %:        100  MISS %:          0   MPKI: 0
PSCL4 TRANSLATION FROM L1D PREFETCHER ACCESS:         18  HIT:         18  MISS:          0  HIT %:        100  MISS %:          0   MPKI: 0
PSCL4 PREFETCH  REQUESTED:          0  ISSUED:          0  USEFUL:          0  USELESS:          0
PSCL4 USEFUL LOAD PREFETCHES:          0 PREFETCH ISSUED TO LOWER LEVEL:          0  ACCURACY: -nan
PSCL4 TIMELY PREFETCHES:          0 LATE PREFETCHES: 0 DROPPED PREFETCHES: 0
PSCL4 PREFETCHES SAME FILL-ORIGIN LEVEL: 0 DIFFERENT FILL-ORIGIN LEVEL: 0

PSCL3 TOTAL     ACCESS:      69599  HIT:      69599  MISS:          0  HIT %:        100  MISS %:          0   MPKI: 0
PSCL3 LOAD TRANSLATION ACCESS:      69581  HIT:      69581  MISS:          0  HIT %:        100  MISS %:          0   MPKI: 0
PSCL3 TRANSLATION FROM L1D PREFETCHER ACCESS:         18  HIT:         18  MISS:          0  HIT %:        100  MISS %:          0   MPKI: 0
PSCL3 PREFETCH  REQUESTED:          0  ISSUED:          0  USEFUL:          0  USELESS:          0
PSCL3 USEFUL LOAD PREFETCHES:          0 PREFETCH ISSUED TO LOWER LEVEL:          0  ACCURACY: -nan
PSCL3 TIMELY PREFETCHES:          0 LATE PREFETCHES: 0 DROPPED PREFETCHES: 0
PSCL3 PREFETCHES SAME FILL-ORIGIN LEVEL: 0 DIFFERENT FILL-ORIGIN LEVEL: 0

PSCL2 TOTAL     ACCESS:      69599  HIT:      69404  MISS:        195  HIT %:    99.7198  MISS %:   0.280176   MPKI: 0.00195
PSCL2 LOAD TRANSLATION ACCESS:      69581  HIT:      69386  MISS:        195  HIT %:    99.7198  MISS %:   0.280249   MPKI: 0.00195
PSCL2 TRANSLATION FROM L1D PREFETCHER ACCESS:         18  HIT:         18  MISS:          0  HIT %:        100  MISS %:          0   MPKI: 0
PSCL2 PREFETCH  REQUESTED:          0  ISSUED:          0  USEFUL:          0  USELESS:          0
PSCL2 USEFUL LOAD PREFETCHES:          0 PREFETCH ISSUED TO LOWER LEVEL:          0  ACCURACY: -nan
PSCL2 TIMELY PREFETCHES:          0 LATE PREFETCHES: 0 DROPPED PREFETCHES: 0
PSCL2 PREFETCHES SAME FILL-ORIGIN LEVEL: 0 DIFFERENT FILL-ORIGIN LEVEL: 0

LLC TOTAL     ACCESS:    4133869  HIT:     278589  MISS:    3855280  HIT %:    6.73918  MISS %:    93.2608   MPKI: 38.5528
LLC LOAD      ACCESS:    1187176  HIT:      88070  MISS:    1099106  HIT %:    7.41845  MISS %:    92.5816   MPKI: 10.9911
LLC RFO       ACCESS:     212411  HIT:        101  MISS:     212310  HIT %:  0.0475493  MISS %:    99.9525   MPKI: 2.1231
LLC PREFETCH  ACCESS:    2142791  HIT:     159606  MISS:    1983185  HIT %:    7.44851  MISS %:    92.5515   MPKI: 19.8318
LLC WRITEBACK ACCESS:     581411  HIT:      30108  MISS:     551303  HIT %:    5.17844  MISS %:    94.8216   MPKI: 5.51303
LLC LOAD TRANSLATION ACCESS:      10062  HIT:        704  MISS:       9358  HIT %:    6.99662  MISS %:    93.0034   MPKI: 0.09358
LLC TRANSLATION FROM L1D PREFETCHER ACCESS:         18  HIT:          0  MISS:         18  HIT %:          0  MISS %:        100   MPKI: 0.00018
LLC PREFETCH  REQUESTED:          0  ISSUED:          0  USEFUL:       5795  USELESS:    1974805
LLC USEFUL LOAD PREFETCHES:       5795 PREFETCH ISSUED TO LOWER LEVEL:    1983185  ACCURACY: 0.292207
LLC TIMELY PREFETCHES:       5795 LATE PREFETCHES: 0 DROPPED PREFETCHES: 0
LLC PREFETCHES SAME FILL-ORIGIN LEVEL: 0 DIFFERENT FILL-ORIGIN LEVEL: 0
LLC AVERAGE MISS LATENCY: 132.51 cycles
LLC RQ	ACCESS:    1409667	FORWARD:          0	MERGED:          0	TO_CACHE:    1409667
LLC WQ	ACCESS:     581411	FORWARD:          0	MERGED:          0	TO_CACHE:     581411
LLC PQ	ACCESS:    2142791	FORWARD:          0	MERGED:          0	TO_CACHE:    2142791

LLC Dense regions hint to LLC: 0

RAW hits: 635024
Loads Generated: 31885130
Loads sent to L1D: 31250105
Stores Generated: 28891363
Stores sent to L1D: 28891364
Major fault: 0 Minor fault: 38413
Allocated PAGES: 38413

stream: 
stream:times selected: 17703805
stream:pref_filled: 1593442
stream:pref_useful: 348243
stream:pref_late: 155156
stream:misses: 275526
stream:misses_by_poll: 0

CS: 
CS:times selected: 565727
CS:pref_filled: 360512
CS:pref_useful: 358476
CS:pref_late: 12861
CS:misses: 16030
CS:misses_by_poll: 359

CPLX: 
CPLX:times selected: 17015314
CPLX:pref_filled: 1437378
CPLX:pref_useful: 548115
CPLX:pref_late: 309688
CPLX:misses: 1881433
CPLX:misses_by_poll: 6713

NL_L1: 
NL:times selected: 169751
NL:pref_filled: 21028
NL:pref_useful: 10950
NL:pref_late: 1866
NL:misses: 44148
NL:misses_by_poll: 1

total selections: 35454597
total_filled: 2152858
total_useful: 720639
total_late: 483800
total_polluted: 7073
total_misses_after_warmup: 1844549
conflicts: 36827
Degree Incremented Times: 107399
Degree Decremented Times: 142783

L1 IP Table Write Accesses: 17955086
L1 IP Table Read Accesses: 17918259
L1 RST Write Accesses: 11661568
L1 RST Read Accesses: 23323136
L1 CSPT Write Accesses: 11661568
L1 CSPT Read Accesses: 22836940
L1 RR Filter Tag Write Accesses: 12249735
L1 RR Filter Tag Read Accesses: 555857114
L1 IP Table Tag Write Accesses: 18152470
L1 IP Table Tag Read Accesses: 18152470
L1 RST Tag Write Accesses: 0
L1 RST Tag Read Accesses: 111394023
L1 RR Filter Write Accesses: 0
L1 RR Filter Read Accesses: 18297801
test: 9653234

DRAM Statistics
 CHANNEL 0
 RQ ROW_BUFFER_HIT:    1566061  ROW_BUFFER_MISS:    1737916
 DBUS_CONGESTED:       3111
 WQ ROW_BUFFER_HIT:     118075  ROW_BUFFER_MISS:     470015  FULL:          0

 AVG_CONGESTED_CYCLE: 5
 All warmup complete: 2
Channel 0 Bank busy for read cycles: 0
Channel 0 Bank busy for write cycles: 0
Channel 0
Rank 0
0banks busy for read cycles: 65077356
0banks busy for write cycles: 114151
1banks busy for read cycles: 51753316
1banks busy for write cycles: 16143874
2banks busy for read cycles: 31435812
2banks busy for write cycles: 10036869
3banks busy for read cycles: 19196437
3banks busy for write cycles: 6761193
4banks busy for read cycles: 11344352
4banks busy for write cycles: 4383162
5banks busy for read cycles: 7623685
5banks busy for write cycles: 2688902
6banks busy for read cycles: 5736629
6banks busy for write cycles: 1677270
7banks busy for read cycles: 4119631
7banks busy for write cycles: 1396236
8banks busy for read cycles: 2589434
8banks busy for write cycles: 5599067

CPU 0 Branch Prediction Accuracy: 99.1519% MPKI: 0.83374 Average ROB Occupancy at Mispredict: 264.51
Branch types
NOT_BRANCH: 90169474 90.1695%
BRANCH_DIRECT_JUMP: 463202 0.463202%
BRANCH_INDIRECT: 0 0%
BRANCH_CONDITIONAL: 9367126 9.36713%
BRANCH_DIRECT_CALL: 44 4.4e-05%
BRANCH_INDIRECT_CALL: 0 0%
BRANCH_RETURN: 44 4.4e-05%
BRANCH_OTHER: 0 0%

DRAM PAGES: 1048576
Allocated PAGES: 38413
