
*** ChampSim Multicore Out-of-Order Simulator ***

Warmup Instructions: 50000000
Simulation Instructions: 100000000
Number of CPUs: 1
LLC sets: 2048
LLC ways: 16
Off-chip DRAM Size: 4096 MB Channels: 1 Width: 64-bit Data Rate: 6400 MT/s
CPU 0 runs ../SPEC2017//605.mcf_s-994B.champsimtrace.xz
.xz
NUM_OF_IPS_IN_CRITICAL_IP_TRAINING: 64
NUM_OF_CRITICAL_IP_TRAINING_TABLE_WAYS: 2
NUM_OF_CRITICAL_IP_TRAINING_TABLE_SETS: 32
WOBBLY_CRITICAL_IP_CACHE_SETS: 32
WOBBLY_CRITICAL_IP_CACHE_WAYS: 4
BTB has LRU replacement policy
ITLB has LRU replacement policy
DTLB has LRU replacement policy
STLB has LRU replacement policy
L1I has LRU replacement policy
IP Table Entries: 256
L1D has LRU replacement policy
Initialize SRRIP state for L2C
Initialize DRRIP state for LLC
Heartbeat CPU 0 instructions: 10000000 cycles: 3247143 heartbeat IPC: 3.07963 cumulative IPC: 3.07963 (Simulation time: 0 hr 4 min 10 sec) 
Heartbeat CPU 0 instructions: 20000003 cycles: 6529645 heartbeat IPC: 3.04646 cumulative IPC: 3.06295 (Simulation time: 0 hr 7 min 52 sec) 
Heartbeat CPU 0 instructions: 30000003 cycles: 9812095 heartbeat IPC: 3.0465 cumulative IPC: 3.05745 (Simulation time: 0 hr 11 min 5 sec) 
Heartbeat CPU 0 instructions: 40000002 cycles: 13073684 heartbeat IPC: 3.06599 cumulative IPC: 3.05958 (Simulation time: 0 hr 13 min 50 sec) 
Heartbeat CPU 0 instructions: 50000001 cycles: 16596425 heartbeat IPC: 2.8387 cumulative IPC: 3.0127 (Simulation time: 0 hr 16 min 43 sec) 

Warmup complete CPU 0 instructions: 50000001 cycles: 16596425 (Simulation time: 0 hr 16 min 43 sec) 

Heartbeat CPU 0 instructions: 60000000 cycles: 60131292 heartbeat IPC: 0.229701 cumulative IPC: 0.229701 (Simulation time: 0 hr 20 min 20 sec) 
Heartbeat CPU 0 instructions: 70000000 cycles: 110225943 heartbeat IPC: 0.199622 cumulative IPC: 0.213608 (Simulation time: 0 hr 24 min 13 sec) 
Heartbeat CPU 0 instructions: 80000001 cycles: 146068370 heartbeat IPC: 0.278999 cumulative IPC: 0.23171 (Simulation time: 0 hr 27 min 50 sec) 
Heartbeat CPU 0 instructions: 90000002 cycles: 180277239 heartbeat IPC: 0.292322 cumulative IPC: 0.244378 (Simulation time: 0 hr 31 min 10 sec) 
Heartbeat CPU 0 instructions: 100000001 cycles: 213100548 heartbeat IPC: 0.304662 cumulative IPC: 0.254448 (Simulation time: 0 hr 34 min 1 sec) 
Heartbeat CPU 0 instructions: 110000000 cycles: 267450005 heartbeat IPC: 0.183994 cumulative IPC: 0.239183 (Simulation time: 0 hr 43 min 58 sec) 
Heartbeat CPU 0 instructions: 120000000 cycles: 310335240 heartbeat IPC: 0.23318 cumulative IPC: 0.238307 (Simulation time: 0 hr 51 min 32 sec) 
Heartbeat CPU 0 instructions: 130000000 cycles: 349917997 heartbeat IPC: 0.252635 cumulative IPC: 0.240008 (Simulation time: 0 hr 58 min 23 sec) 
Heartbeat CPU 0 instructions: 140000000 cycles: 396784489 heartbeat IPC: 0.213372 cumulative IPC: 0.236725 (Simulation time: 1 hr 4 min 31 sec) 
Heartbeat CPU 0 instructions: 150000001 cycles: 461981420 heartbeat IPC: 0.153381 cumulative IPC: 0.224525 (Simulation time: 1 hr 11 min 5 sec) 
Finished CPU 0 instructions: 100000000 cycles: 445384995 cumulative IPC: 0.224525 (Simulation time: 1 hr 11 min 5 sec) 

ChampSim completed all CPUs

Region of Interest Statistics

CPU 0 cumulative IPC: 0.224525 instructions: 100000000 cycles: 445384995

CPU 0 Average Load ROB stall cycles: 1.0146e+08
CPU 0 Fraction of times ROB stalled by Loads: 44.1773
CPU 0 Percentage of Load stall cycles in Total stall cycles: 7.40007e+08
Issued all: 52534194
Issued LT all: 40997258
rob_not_full_when_issued_lt_all: 39471698
Issued LT one: 29986824
rob_not_full_when_issued_lt_one: 28560989
 Total stall cycles: 408478295
 Total load stall cycles: 3022768478394276
CPU 0 NUM of IPS identified critical: 0
CPU 0 Num of Load IPs stalling ROB: 117
Threshold modification factor: 0
Max PIST entries: 37
Min PIST entries: 0
Avg PIST entries: 18.1467
Trouble in retire width: 0.985698
MaC = Marked as critical.
lt_50_percent_before_Mac: 0
gt_90_percent_before_Mac: 0
gt_75_percent_before_Mac: 0
gt_50_percent_before_Mac: 0
stall_proportion_bin_same_before_after: 0
stall_proportion_bin_lower_before_after: 0
stall_proportion_bin_upper_before_after: 0
average_stall_proportion_before: -nan
average_stall_proportion_after: -nan
Critical IP stalls, total frequency: 0
Non-critical IP stalls, total frequency: 13161634
Total Freq all stalling IPs: 13161634
stat_90_percent_critical_ip_stalls_freq: 11872632
stat_90_percent_non_critical_ip_stalls_freq: 1289002
Critical_IP_ROB_Stalls_Bucket_0: 0
Non-critical_IP_ROB_Stalls_Bucket_0: 11142871
Critical_IP_ROB_Stalls_Bucket_1: 0
Non-critical_IP_ROB_Stalls_Bucket_1: 1439151
Critical_IP_ROB_Stalls_Bucket_2: 0
Non-critical_IP_ROB_Stalls_Bucket_2: 330471
Critical_IP_ROB_Stalls_Bucket_3: 0
Non-critical_IP_ROB_Stalls_Bucket_3: 125571
Critical_IP_ROB_Stalls_Bucket_4: 0
Non-critical_IP_ROB_Stalls_Bucket_4: 50678
Critical_IP_ROB_Stalls_Bucket_5: 0
Non-critical_IP_ROB_Stalls_Bucket_5: 26182
Critical_IP_ROB_Stalls_Bucket_6: 0
Non-critical_IP_ROB_Stalls_Bucket_6: 46710
0 => IPs accounting for >50 percent of stalls, 1 => 55, 2 => 60, 3 => 65 and so on till 90.
percent50: 53.8583 num IPs:  4
percent55: 61.6829 num IPs: 5
percent60: 61.6829 num IPs: 5
percent65: 68.9914 num IPs: 6
percent70: 73.1135 num IPs: 7
percent75: 76.4708 num IPs: 8
percent80: 81.7967 num IPs: 10
percent85: 86.3316 num IPs: 12
percent90: 90.2064 num IPs: 14
Critical_ROB_Stalls_Percent_0_Bucket_0: 5680906
Non-critical_ROB_Stalls_Percent_0_Bucket_0: 5461965
Critical_ROB_Stalls_Percent_0_Bucket_1: 1019495
Non-critical_ROB_Stalls_Percent_0_Bucket_1: 419656
Critical_ROB_Stalls_Percent_0_Bucket_2: 221150
Non-critical_ROB_Stalls_Percent_0_Bucket_2: 109321
Critical_ROB_Stalls_Percent_0_Bucket_3: 85765
Non-critical_ROB_Stalls_Percent_0_Bucket_3: 39806
Critical_ROB_Stalls_Percent_0_Bucket_4: 33025
Non-critical_ROB_Stalls_Percent_0_Bucket_4: 17653
Critical_ROB_Stalls_Percent_0_Bucket_5: 17598
Non-critical_ROB_Stalls_Percent_0_Bucket_5: 8584
Critical_ROB_Stalls_Percent_0_Bucket_6: 30696
Non-critical_ROB_Stalls_Percent_0_Bucket_6: 16014
Critical_ROB_Stalls_Percent_1_Bucket_0: 6609973
Non-critical_ROB_Stalls_Percent_1_Bucket_0: 4532898
Critical_ROB_Stalls_Percent_1_Bucket_1: 1079101
Non-critical_ROB_Stalls_Percent_1_Bucket_1: 360050
Critical_ROB_Stalls_Percent_1_Bucket_2: 244304
Non-critical_ROB_Stalls_Percent_1_Bucket_2: 86167
Critical_ROB_Stalls_Percent_1_Bucket_3: 95062
Non-critical_ROB_Stalls_Percent_1_Bucket_3: 30509
Critical_ROB_Stalls_Percent_1_Bucket_4: 36314
Non-critical_ROB_Stalls_Percent_1_Bucket_4: 14364
Critical_ROB_Stalls_Percent_1_Bucket_5: 19444
Non-critical_ROB_Stalls_Percent_1_Bucket_5: 6738
Critical_ROB_Stalls_Percent_1_Bucket_6: 34275
Non-critical_ROB_Stalls_Percent_1_Bucket_6: 12435
Critical_ROB_Stalls_Percent_2_Bucket_0: 6609973
Non-critical_ROB_Stalls_Percent_2_Bucket_0: 4532898
Critical_ROB_Stalls_Percent_2_Bucket_1: 1079101
Non-critical_ROB_Stalls_Percent_2_Bucket_1: 360050
Critical_ROB_Stalls_Percent_2_Bucket_2: 244304
Non-critical_ROB_Stalls_Percent_2_Bucket_2: 86167
Critical_ROB_Stalls_Percent_2_Bucket_3: 95062
Non-critical_ROB_Stalls_Percent_2_Bucket_3: 30509
Critical_ROB_Stalls_Percent_2_Bucket_4: 36314
Non-critical_ROB_Stalls_Percent_2_Bucket_4: 14364
Critical_ROB_Stalls_Percent_2_Bucket_5: 19444
Non-critical_ROB_Stalls_Percent_2_Bucket_5: 6738
Critical_ROB_Stalls_Percent_2_Bucket_6: 34275
Non-critical_ROB_Stalls_Percent_2_Bucket_6: 12435
Critical_ROB_Stalls_Percent_3_Bucket_0: 7467255
Non-critical_ROB_Stalls_Percent_3_Bucket_0: 3675616
Critical_ROB_Stalls_Percent_3_Bucket_1: 1149431
Non-critical_ROB_Stalls_Percent_3_Bucket_1: 289720
Critical_ROB_Stalls_Percent_3_Bucket_2: 261721
Non-critical_ROB_Stalls_Percent_3_Bucket_2: 68750
Critical_ROB_Stalls_Percent_3_Bucket_3: 102262
Non-critical_ROB_Stalls_Percent_3_Bucket_3: 23309
Critical_ROB_Stalls_Percent_3_Bucket_4: 40807
Non-critical_ROB_Stalls_Percent_3_Bucket_4: 9871
Critical_ROB_Stalls_Percent_3_Bucket_5: 21173
Non-critical_ROB_Stalls_Percent_3_Bucket_5: 5009
Critical_ROB_Stalls_Percent_3_Bucket_6: 37748
Non-critical_ROB_Stalls_Percent_3_Bucket_6: 8962
Critical_ROB_Stalls_Percent_4_Bucket_0: 7984049
Non-critical_ROB_Stalls_Percent_4_Bucket_0: 3158822
Critical_ROB_Stalls_Percent_4_Bucket_1: 1164388
Non-critical_ROB_Stalls_Percent_4_Bucket_1: 274763
Critical_ROB_Stalls_Percent_4_Bucket_2: 267824
Non-critical_ROB_Stalls_Percent_4_Bucket_2: 62647
Critical_ROB_Stalls_Percent_4_Bucket_3: 104417
Non-critical_ROB_Stalls_Percent_4_Bucket_3: 21154
Critical_ROB_Stalls_Percent_4_Bucket_4: 41878
Non-critical_ROB_Stalls_Percent_4_Bucket_4: 8800
Critical_ROB_Stalls_Percent_4_Bucket_5: 21715
Non-critical_ROB_Stalls_Percent_4_Bucket_5: 4467
Critical_ROB_Stalls_Percent_4_Bucket_6: 38655
Non-critical_ROB_Stalls_Percent_4_Bucket_6: 8055
Critical_ROB_Stalls_Percent_5_Bucket_0: 8396976
Non-critical_ROB_Stalls_Percent_5_Bucket_0: 2745895
Critical_ROB_Stalls_Percent_5_Bucket_1: 1185211
Non-critical_ROB_Stalls_Percent_5_Bucket_1: 253940
Critical_ROB_Stalls_Percent_5_Bucket_2: 272689
Non-critical_ROB_Stalls_Percent_5_Bucket_2: 57782
Critical_ROB_Stalls_Percent_5_Bucket_3: 106012
Non-critical_ROB_Stalls_Percent_5_Bucket_3: 19559
Critical_ROB_Stalls_Percent_5_Bucket_4: 42620
Non-critical_ROB_Stalls_Percent_5_Bucket_4: 8058
Critical_ROB_Stalls_Percent_5_Bucket_5: 22075
Non-critical_ROB_Stalls_Percent_5_Bucket_5: 4107
Critical_ROB_Stalls_Percent_5_Bucket_6: 39218
Non-critical_ROB_Stalls_Percent_5_Bucket_6: 7492
Critical_ROB_Stalls_Percent_6_Bucket_0: 9097960
Non-critical_ROB_Stalls_Percent_6_Bucket_0: 2044911
Critical_ROB_Stalls_Percent_6_Bucket_1: 1185211
Non-critical_ROB_Stalls_Percent_6_Bucket_1: 253940
Critical_ROB_Stalls_Percent_6_Bucket_2: 272689
Non-critical_ROB_Stalls_Percent_6_Bucket_2: 57782
Critical_ROB_Stalls_Percent_6_Bucket_3: 106012
Non-critical_ROB_Stalls_Percent_6_Bucket_3: 19559
Critical_ROB_Stalls_Percent_6_Bucket_4: 42620
Non-critical_ROB_Stalls_Percent_6_Bucket_4: 8058
Critical_ROB_Stalls_Percent_6_Bucket_5: 22075
Non-critical_ROB_Stalls_Percent_6_Bucket_5: 4107
Critical_ROB_Stalls_Percent_6_Bucket_6: 39218
Non-critical_ROB_Stalls_Percent_6_Bucket_6: 7492
Critical_ROB_Stalls_Percent_7_Bucket_0: 9629998
Non-critical_ROB_Stalls_Percent_7_Bucket_0: 1512873
Critical_ROB_Stalls_Percent_7_Bucket_1: 1221257
Non-critical_ROB_Stalls_Percent_7_Bucket_1: 217894
Critical_ROB_Stalls_Percent_7_Bucket_2: 287451
Non-critical_ROB_Stalls_Percent_7_Bucket_2: 43020
Critical_ROB_Stalls_Percent_7_Bucket_3: 111712
Non-critical_ROB_Stalls_Percent_7_Bucket_3: 13859
Critical_ROB_Stalls_Percent_7_Bucket_4: 45821
Non-critical_ROB_Stalls_Percent_7_Bucket_4: 4857
Critical_ROB_Stalls_Percent_7_Bucket_5: 23627
Non-critical_ROB_Stalls_Percent_7_Bucket_5: 2555
Critical_ROB_Stalls_Percent_7_Bucket_6: 42781
Non-critical_ROB_Stalls_Percent_7_Bucket_6: 3929
Critical_ROB_Stalls_Percent_8_Bucket_0: 10098346
Non-critical_ROB_Stalls_Percent_8_Bucket_0: 1044525
Critical_ROB_Stalls_Percent_8_Bucket_1: 1244192
Non-critical_ROB_Stalls_Percent_8_Bucket_1: 194959
Critical_ROB_Stalls_Percent_8_Bucket_2: 298468
Non-critical_ROB_Stalls_Percent_8_Bucket_2: 32003
Critical_ROB_Stalls_Percent_8_Bucket_3: 114868
Non-critical_ROB_Stalls_Percent_8_Bucket_3: 10703
Critical_ROB_Stalls_Percent_8_Bucket_4: 47471
Non-critical_ROB_Stalls_Percent_8_Bucket_4: 3207
Critical_ROB_Stalls_Percent_8_Bucket_5: 24687
Non-critical_ROB_Stalls_Percent_8_Bucket_5: 1495
Critical_ROB_Stalls_Percent_8_Bucket_6: 44600
Non-critical_ROB_Stalls_Percent_8_Bucket_6: 2110
Average ROB occupancy Load Stall Begin: 28.0444
Average ROB occupancy Load Stall End: 32.7631
Min ROB occupancy Load Stall Begin: 1
Max ROB occupancy Load Stall Begin: 352
Min ROB occupancy Load Stall End: 1
Max ROB occupancy Load Stall End: 352
Average ROB occupancy Critical Load Stall Begin: -nan
Average ROB occupancy Critical Load Stall End: -nan
Min ROB occupancy Critical Load Stall Begin: 400
Max ROB occupancy Critical Load Stall Begin: 0
Min ROB occupancy Critical Load Stall End: 400
Max ROB occupancy Critical Load Stall End: 0
 ROB Load Stall Begin Bucket Count 0: 11582947
 ROB Load Stall End Bucket Count 0: 11142871
 ROB Critical Load Stall Begin Bucket Count 0: 0
 ROB Critical Load Stall End Bucket Count 0: 0
 ROB Load Stall Begin Bucket Count 1: 1082511
 ROB Load Stall End Bucket Count 1: 1439151
 ROB Critical Load Stall Begin Bucket Count 1: 0
 ROB Critical Load Stall End Bucket Count 1: 0
 ROB Load Stall Begin Bucket Count 2: 278470
 ROB Load Stall End Bucket Count 2: 330471
 ROB Critical Load Stall Begin Bucket Count 2: 0
 ROB Critical Load Stall End Bucket Count 2: 0
 ROB Load Stall Begin Bucket Count 3: 105902
 ROB Load Stall End Bucket Count 3: 125571
 ROB Critical Load Stall Begin Bucket Count 3: 0
 ROB Critical Load Stall End Bucket Count 3: 0
 ROB Load Stall Begin Bucket Count 4: 45139
 ROB Load Stall End Bucket Count 4: 50678
 ROB Critical Load Stall Begin Bucket Count 4: 0
 ROB Critical Load Stall End Bucket Count 4: 0
 ROB Load Stall Begin Bucket Count 5: 23777
 ROB Load Stall End Bucket Count 5: 26182
 ROB Critical Load Stall Begin Bucket Count 5: 0
 ROB Critical Load Stall End Bucket Count 5: 0
 ROB Load Stall Begin Bucket Count 6: 42889
 ROB Load Stall End Bucket Count 6: 46710
 ROB Critical Load Stall Begin Bucket Count 6: 0
 ROB Critical Load Stall End Bucket Count 6: 0
PIST Tag Read Accesses: 298708
PIST Read Accesses: 149354
PIST Tag Write Accesses: 298708
PIST Write Accesses: 149354
Criticality detector called times: 2157858
Max global_stall_cycles_count: 230537
Threshold Modified: 0 times, factor: 0
Sturdy critical IP cache stats: 
 Unused entries: 0
CIC Tag Read Accesses: 0
CIC Read Accesses: 0
CIC Tag Write Accesses: 0
CIC Write Accesses: 0
Wobbly critical IP cache stats: 
 Unused entries: 115
CIC Tag Read Accesses: 352203191
CIC Read Accesses: 0
CIC Tag Write Accesses: 42305
CIC Write Accesses: 0
ITLB TOTAL     ACCESS:   17689770  HIT:   17689770  MISS:          0  HIT %:        100  MISS %:          0   MPKI: 0
ITLB LOAD TRANSLATION ACCESS:   17689770  HIT:   17689770  MISS:          0  HIT %:        100  MISS %:          0   MPKI: 0
ITLB PREFETCH  REQUESTED:          0  ISSUED:          0  USEFUL:          0  USELESS:          0
ITLB USEFUL LOAD PREFETCHES:          0 PREFETCH ISSUED TO LOWER LEVEL:          0  ACCURACY: -nan
ITLB TIMELY PREFETCHES:          0 LATE PREFETCHES: 0 DROPPED PREFETCHES: 0
ITLB PREFETCHES SAME FILL-ORIGIN LEVEL: 0 DIFFERENT FILL-ORIGIN LEVEL: 0
ITLB AVERAGE MISS LATENCY: -nan cycles
ITLB RQ	ACCESS:   18118712	FORWARD:          0	MERGED:     428943	TO_CACHE:   17689769

DTLB TOTAL     ACCESS:   32481256  HIT:   30857716  MISS:    1623540  HIT %:    95.0016  MISS %:    4.99839   MPKI: 16.2354
DTLB LOAD TRANSLATION ACCESS:   32481256  HIT:   30857716  MISS:    1623540  HIT %:    95.0016  MISS %:    4.99839   MPKI: 16.2354
DTLB PREFETCH  REQUESTED:          0  ISSUED:          0  USEFUL:          0  USELESS:          0
DTLB USEFUL LOAD PREFETCHES:          0 PREFETCH ISSUED TO LOWER LEVEL:          0  ACCURACY: -nan
DTLB TIMELY PREFETCHES:          0 LATE PREFETCHES: 0 DROPPED PREFETCHES: 0
DTLB PREFETCHES SAME FILL-ORIGIN LEVEL: 0 DIFFERENT FILL-ORIGIN LEVEL: 0
DTLB AVERAGE MISS LATENCY: 74.6824 cycles
DTLB RQ	ACCESS:   38536631	FORWARD:          0	MERGED:    5612048	TO_CACHE:   32924583

STLB TOTAL     ACCESS:    7236164  HIT:    6428335  MISS:     807829  HIT %:    88.8362  MISS %:    11.1638   MPKI: 8.07829
STLB LOAD TRANSLATION ACCESS:    1623540  HIT:     815961  MISS:     807579  HIT %:    50.2581  MISS %:    49.7419   MPKI: 8.07579
STLB TRANSLATION FROM L1D PREFETCHER ACCESS:    5612624  HIT:    5612374  MISS:        250  HIT %:    99.9955  MISS %: 0.00445424   MPKI: 0.0025
STLB PREFETCH  REQUESTED:          0  ISSUED:          0  USEFUL:        236  USELESS:         14
STLB USEFUL LOAD PREFETCHES:        236 PREFETCH ISSUED TO LOWER LEVEL:          0  ACCURACY: inf
STLB TIMELY PREFETCHES:        236 LATE PREFETCHES: 0 DROPPED PREFETCHES: 0
STLB PREFETCHES SAME FILL-ORIGIN LEVEL: 0 DIFFERENT FILL-ORIGIN LEVEL: 0
STLB AVERAGE MISS LATENCY: 131.93 cycles
STLB RQ	ACCESS:    8886509	FORWARD:          0	MERGED:    1650278	TO_CACHE:    7236231

STLB Hit, L1D data hit: 0
STLB Hit, L2C data hit: 0
STLB Hit, LLC data hit: 0
STLB Hit, LLC data miss: 0
STLB STLB hints to L2: 0
L1D TOTAL     ACCESS:   44595751  HIT:   37558537  MISS:    7037214  HIT %:      84.22  MISS %:      15.78   MPKI: 70.3721
L1D LOAD      ACCESS:   28430989  HIT:   24853303  MISS:    3577686  HIT %:    87.4162  MISS %:    12.5838   MPKI: 35.7769
L1D RFO       ACCESS:    9976987  HIT:    9936688  MISS:      40299  HIT %:    99.5961  MISS %:    0.40392   MPKI: 0.40299
L1D PREFETCH  ACCESS:    6187775  HIT:    2768546  MISS:    3419229  HIT %:    44.7422  MISS %:    55.2578   MPKI: 34.1923
L1D PREFETCH  REQUESTED:   14528922  ISSUED:   14528919  USEFUL:     372972  USELESS:    3045785
L1D USEFUL LOAD PREFETCHES:     372972 PREFETCH ISSUED TO LOWER LEVEL:    3770515  ACCURACY: 9.89181
L1D TIMELY PREFETCHES:     372972 LATE PREFETCHES: 351280 DROPPED PREFETCHES: 0
L1D PREFETCHES SAME FILL-ORIGIN LEVEL: 3770515 DIFFERENT FILL-ORIGIN LEVEL: 0
L1D AVERAGE MISS LATENCY: 1.17817e+07 cycles
L1D RQ	ACCESS:   33842447	FORWARD:          0	MERGED:    2979076	TO_CACHE:   28497395
L1D WQ	ACCESS:   10094511	FORWARD:    2368957	MERGED:      55275	TO_CACHE:   10039236
L1D PQ	ACCESS:    7265950	FORWARD:          0	MERGED:          0	TO_CACHE:    7262969

L1D UNIQUE REGIONS ACCESSED: 0
L1D REGIONS CONFLICTS: 0
L1D Cross Page Prefetch Requests: 0
L1D Same Page Prefetch Requests: 7265950
L1D ROI Sum of L1D PQ occupancy: 94567920
L1D PREFETCHES PUSHED FROM L2C: 0
L1I TOTAL     ACCESS:   18118713  HIT:   18118713  MISS:          0  HIT %:        100  MISS %:          0   MPKI: 0
L1I LOAD      ACCESS:   18118713  HIT:   18118713  MISS:          0  HIT %:        100  MISS %:          0   MPKI: 0
L1I PREFETCH  REQUESTED:          0  ISSUED:          0  USEFUL:          0  USELESS:          0
L1I USEFUL LOAD PREFETCHES:          0 PREFETCH ISSUED TO LOWER LEVEL:          0  ACCURACY: -nan
L1I TIMELY PREFETCHES:          0 LATE PREFETCHES: 0 DROPPED PREFETCHES: 0
L1I PREFETCHES SAME FILL-ORIGIN LEVEL: 0 DIFFERENT FILL-ORIGIN LEVEL: 0
L1I AVERAGE MISS LATENCY: -nan cycles
L1I RQ	ACCESS:   28695128	FORWARD:          0	MERGED:   10576416	TO_CACHE:   18118712

BTB TOTAL     ACCESS:   23415583  HIT:   22036176  MISS:    1379407  HIT %:     94.109  MISS %:    5.89098   MPKI: 13.7941
BTB BRANCH_DIRECT_JUMP	ACCESS:    2277732  HIT:    2277711  MISS:         21
BTB BRANCH_INDIRECT	ACCESS:          0  HIT:          0  MISS:          0
BTB BRANCH_CONDITIONAL	ACCESS:   14850308  HIT:   14850266  MISS:         42
BTB BRANCH_DIRECT_CALL	ACCESS:    3040680  HIT:    3040667  MISS:         13
BTB BRANCH_INDIRECT_CALL	ACCESS:     103096  HIT:     103088  MISS:          8
BTB BRANCH_RETURN	ACCESS:    3143767  HIT:    1764444  MISS:    1379323
BTB BRANCH_OTHER ACCESS:          0  HIT:          0  MISS:          0

L2C TOTAL     ACCESS:    8656379  HIT:    3215832  MISS:    5440547  HIT %:    37.1499  MISS %:    62.8501   MPKI: 54.4055
L2C LOAD      ACCESS:    3226401  HIT:     946437  MISS:    2279964  HIT %:    29.3341  MISS %:    70.6659   MPKI: 22.7996
L2C DATA LOAD MPKI: 22.7996
L2C INSTRUCTION LOAD MPKI: 0
L2C RFO       ACCESS:      40291  HIT:      36766  MISS:       3525  HIT %:    91.2511  MISS %:    8.74885   MPKI: 0.03525
L2C PREFETCH  ACCESS:    3770497  HIT:     956834  MISS:    2813663  HIT %:    25.3769  MISS %:    74.6231   MPKI: 28.1366
L2C DATA PREFETCH MPKI: 28.1366
L2C INSTRUCTION PREFETCH MPKI: 0
L2C WRITEBACK ACCESS:     278736  HIT:     277602  MISS:       1134  HIT %:    99.5932  MISS %:   0.406837   MPKI: 0.01134
L2C LOAD TRANSLATION ACCESS:    1340027  HIT:     998027  MISS:     342000  HIT %:    74.4781  MISS %:    25.5219   MPKI: 3.42
L2C TRANSLATION FROM L1D PREFETCHER ACCESS:        427  HIT:        166  MISS:        261  HIT %:    38.8759  MISS %:    61.1241   MPKI: 0.00261
L2C PREFETCH  REQUESTED:          0  ISSUED:          0  USEFUL:      50023  USELESS:    2759232
L2C USEFUL LOAD PREFETCHES:      50023 PREFETCH ISSUED TO LOWER LEVEL:    2813663  ACCURACY: 1.77786
L2C TIMELY PREFETCHES:      50023 LATE PREFETCHES: 0 DROPPED PREFETCHES: 0
L2C PREFETCHES SAME FILL-ORIGIN LEVEL: 0 DIFFERENT FILL-ORIGIN LEVEL: 0
L2C AVERAGE MISS LATENCY: 168.401 cycles
L2C RQ	ACCESS:    4607153	FORWARD:          0	MERGED:          0	TO_CACHE:    4607146
L2C WQ	ACCESS:     278736	FORWARD:         25	MERGED:          0	TO_CACHE:     278736
L2C PQ	ACCESS:    3770515	FORWARD:          0	MERGED:          0	TO_CACHE:    3770497

L2C Instructions Evicting Data 0
L2C Translations Evicting Data 315617
L2C Data Evicting Data 4779837
L2C Instructions Evicting Instructions 0
L2C Translations Evicting Instructions 0
L2C Data Evicting Instructions 0
L2C Instructions Evicting Translations 0
L2C Translations Evicting Translations 26644
L2C Data Evicting Translations 317315
L2C Dense regions hint from L2: 0
PSCL5 TOTAL     ACCESS:     807829  HIT:     807829  MISS:          0  HIT %:        100  MISS %:          0   MPKI: 0
PSCL5 LOAD TRANSLATION ACCESS:     807579  HIT:     807579  MISS:          0  HIT %:        100  MISS %:          0   MPKI: 0
PSCL5 TRANSLATION FROM L1D PREFETCHER ACCESS:        250  HIT:        250  MISS:          0  HIT %:        100  MISS %:          0   MPKI: 0
PSCL5 PREFETCH  REQUESTED:          0  ISSUED:          0  USEFUL:          0  USELESS:          0
PSCL5 USEFUL LOAD PREFETCHES:          0 PREFETCH ISSUED TO LOWER LEVEL:          0  ACCURACY: -nan
PSCL5 TIMELY PREFETCHES:          0 LATE PREFETCHES: 0 DROPPED PREFETCHES: 0
PSCL5 PREFETCHES SAME FILL-ORIGIN LEVEL: 0 DIFFERENT FILL-ORIGIN LEVEL: 0

PSCL4 TOTAL     ACCESS:     807829  HIT:     807829  MISS:          0  HIT %:        100  MISS %:          0   MPKI: 0
PSCL4 LOAD TRANSLATION ACCESS:     807579  HIT:     807579  MISS:          0  HIT %:        100  MISS %:          0   MPKI: 0
PSCL4 TRANSLATION FROM L1D PREFETCHER ACCESS:        250  HIT:        250  MISS:          0  HIT %:        100  MISS %:          0   MPKI: 0
PSCL4 PREFETCH  REQUESTED:          0  ISSUED:          0  USEFUL:          0  USELESS:          0
PSCL4 USEFUL LOAD PREFETCHES:          0 PREFETCH ISSUED TO LOWER LEVEL:          0  ACCURACY: -nan
PSCL4 TIMELY PREFETCHES:          0 LATE PREFETCHES: 0 DROPPED PREFETCHES: 0
PSCL4 PREFETCHES SAME FILL-ORIGIN LEVEL: 0 DIFFERENT FILL-ORIGIN LEVEL: 0

PSCL3 TOTAL     ACCESS:     807829  HIT:     807829  MISS:          0  HIT %:        100  MISS %:          0   MPKI: 0
PSCL3 LOAD TRANSLATION ACCESS:     807579  HIT:     807579  MISS:          0  HIT %:        100  MISS %:          0   MPKI: 0
PSCL3 TRANSLATION FROM L1D PREFETCHER ACCESS:        250  HIT:        250  MISS:          0  HIT %:        100  MISS %:          0   MPKI: 0
PSCL3 PREFETCH  REQUESTED:          0  ISSUED:          0  USEFUL:          0  USELESS:          0
PSCL3 USEFUL LOAD PREFETCHES:          0 PREFETCH ISSUED TO LOWER LEVEL:          0  ACCURACY: -nan
PSCL3 TIMELY PREFETCHES:          0 LATE PREFETCHES: 0 DROPPED PREFETCHES: 0
PSCL3 PREFETCHES SAME FILL-ORIGIN LEVEL: 0 DIFFERENT FILL-ORIGIN LEVEL: 0

PSCL2 TOTAL     ACCESS:     807829  HIT:     275197  MISS:     532632  HIT %:    34.0662  MISS %:    65.9338   MPKI: 5.32632
PSCL2 LOAD TRANSLATION ACCESS:     807756  HIT:     275124  MISS:     532632  HIT %:    34.0603  MISS %:    65.9397   MPKI: 5.32632
PSCL2 TRANSLATION FROM L1D PREFETCHER ACCESS:         73  HIT:         73  MISS:          0  HIT %:        100  MISS %:          0   MPKI: 0
PSCL2 PREFETCH  REQUESTED:          0  ISSUED:          0  USEFUL:          0  USELESS:          0
PSCL2 USEFUL LOAD PREFETCHES:          0 PREFETCH ISSUED TO LOWER LEVEL:          0  ACCURACY: -nan
PSCL2 TIMELY PREFETCHES:          0 LATE PREFETCHES: 0 DROPPED PREFETCHES: 0
PSCL2 PREFETCHES SAME FILL-ORIGIN LEVEL: 0 DIFFERENT FILL-ORIGIN LEVEL: 0

LLC TOTAL     ACCESS:    5590846  HIT:    1401494  MISS:    4189352  HIT %:    25.0677  MISS %:    74.9323   MPKI: 41.8935
LLC LOAD      ACCESS:    2279964  HIT:     653703  MISS:    1626261  HIT %:    28.6716  MISS %:    71.3284   MPKI: 16.2626
LLC RFO       ACCESS:       3525  HIT:       2145  MISS:       1380  HIT %:    60.8511  MISS %:    39.1489   MPKI: 0.0138
LLC PREFETCH  ACCESS:    2813661  HIT:     517242  MISS:    2296419  HIT %:    18.3832  MISS %:    81.6168   MPKI: 22.9642
LLC WRITEBACK ACCESS:     151435  HIT:     132899  MISS:      18536  HIT %:    87.7598  MISS %:    12.2402   MPKI: 0.18536
LLC LOAD TRANSLATION ACCESS:     342000  HIT:      95296  MISS:     246704  HIT %:    27.8643  MISS %:    72.1357   MPKI: 2.46704
LLC TRANSLATION FROM L1D PREFETCHER ACCESS:        261  HIT:        209  MISS:         52  HIT %:    80.0766  MISS %:    19.9234   MPKI: 0.00052
LLC PREFETCH  REQUESTED:          0  ISSUED:          0  USEFUL:      34014  USELESS:    2241354
LLC USEFUL LOAD PREFETCHES:      34014 PREFETCH ISSUED TO LOWER LEVEL:    2296419  ACCURACY: 1.48118
LLC TIMELY PREFETCHES:      34014 LATE PREFETCHES: 0 DROPPED PREFETCHES: 0
LLC PREFETCHES SAME FILL-ORIGIN LEVEL: 0 DIFFERENT FILL-ORIGIN LEVEL: 0
LLC AVERAGE MISS LATENCY: 179.506 cycles
LLC RQ	ACCESS:    2625750	FORWARD:          0	MERGED:          0	TO_CACHE:    2625750
LLC WQ	ACCESS:     151435	FORWARD:          2	MERGED:          0	TO_CACHE:     151435
LLC PQ	ACCESS:    2813663	FORWARD:          0	MERGED:          0	TO_CACHE:    2813661

LLC Dense regions hint to LLC: 0

RAW hits: 854564
Loads Generated: 34697014
Loads sent to L1D: 33842447
Stores Generated: 10094507
Stores sent to L1D: 10094511
Major fault: 0 Minor fault: 167017
Allocated PAGES: 167017

stream: 
stream:times selected: 8037439
stream:pref_filled: 2179383
stream:pref_useful: 309981
stream:pref_late: 311205
stream:misses: 913063
stream:misses_by_poll: 0

CS: 
CS:times selected: 53442
CS:pref_filled: 11935
CS:pref_useful: 8280
CS:pref_late: 5
CS:misses: 1522
CS:misses_by_poll: 4

CPLX: 
CPLX:times selected: 7904993
CPLX:pref_filled: 1201391
CPLX:pref_useful: 50636
CPLX:pref_late: 2081
CPLX:misses: 2669374
CPLX:misses_by_poll: 9553

NL_L1: 
NL:times selected: 70738
NL:pref_filled: 26520
NL:pref_useful: 4075
NL:pref_late: 4486
NL:misses: 34310
NL:misses_by_poll: 4

total selections: 16066612
total_filled: 3419229
total_useful: 372972
total_late: 351280
total_polluted: 9561
total_misses_after_warmup: 3618278
conflicts: 15
Degree Incremented Times: 0
Degree Decremented Times: 267439

L1 IP Table Write Accesses: 22812281
L1 IP Table Read Accesses: 22812266
L1 RST Write Accesses: 8037439
L1 RST Read Accesses: 16074870
L1 CSPT Write Accesses: 8037439
L1 CSPT Read Accesses: 15957447
L1 RR Filter Tag Write Accesses: 7265953
L1 RR Filter Tag Read Accesses: 277561217
L1 IP Table Tag Write Accesses: 22812281
L1 IP Table Tag Read Accesses: 22812281
L1 RST Tag Write Accesses: 56
L1 RST Tag Read Accesses: 71698176
L1 RR Filter Write Accesses: 0
L1 RR Filter Read Accesses: 9699104
test: 5190464

DRAM Statistics
 CHANNEL 0
 RQ ROW_BUFFER_HIT:     261722  ROW_BUFFER_MISS:    3909088
 DBUS_CONGESTED:        338
 WQ ROW_BUFFER_HIT:      38254  ROW_BUFFER_MISS:      79997  FULL:          0

 AVG_CONGESTED_CYCLE: 4
 All warmup complete: 2
Channel 0 Bank busy for read cycles: 0
Channel 0 Bank busy for write cycles: 0
Channel 0
Rank 0
0banks busy for read cycles: 153946842
0banks busy for write cycles: 86515
1banks busy for read cycles: 96674977
1banks busy for write cycles: 18570799
2banks busy for read cycles: 76829653
2banks busy for write cycles: 3964189
3banks busy for read cycles: 53474742
3banks busy for write cycles: 926030
4banks busy for read cycles: 23118341
4banks busy for write cycles: 235284
5banks busy for read cycles: 10662248
5banks busy for write cycles: 68809
6banks busy for read cycles: 4977835
6banks busy for write cycles: 20652
7banks busy for read cycles: 1499996
7banks busy for write cycles: 9117
8banks busy for read cycles: 317778
8banks busy for write cycles: 1189

CPU 0 Branch Prediction Accuracy: 94.6877% MPKI: 13.1818 Average ROB Occupancy at Mispredict: 23.4769
Branch types
NOT_BRANCH: 75185764 75.1858%
BRANCH_DIRECT_JUMP: 2277732 2.27773%
BRANCH_INDIRECT: 0 0%
BRANCH_CONDITIONAL: 16248591 16.2486%
BRANCH_DIRECT_CALL: 3040680 3.04068%
BRANCH_INDIRECT_CALL: 103096 0.103096%
BRANCH_RETURN: 3143767 3.14377%
BRANCH_OTHER: 0 0%

DRAM PAGES: 1048576
Allocated PAGES: 167017
