
*** ChampSim Multicore Out-of-Order Simulator ***

Warmup Instructions: 50000000
Simulation Instructions: 100000000
Number of CPUs: 1
LLC sets: 2048
LLC ways: 16
Off-chip DRAM Size: 4096 MB Channels: 1 Width: 64-bit Data Rate: 6400 MT/s
CPU 0 runs ../SPEC2017//605.mcf_s-1554B.champsimtrace.xz
.xz
BTB has LRU replacement policy
ITLB has LRU replacement policy
DTLB has LRU replacement policy
STLB has LRU replacement policy
L1I has LRU replacement policy
IP Table Entries: 64
L1D has LRU replacement policy
Initialize SRRIP state for L2C
Initialize DRRIP state for LLC
Heartbeat CPU 0 instructions: 10000001 cycles: 3497099 heartbeat IPC: 2.85951 cumulative IPC: 2.85951 (Simulation time: 0 hr 7 min 51 sec) 
Heartbeat CPU 0 instructions: 20000000 cycles: 7017257 heartbeat IPC: 2.84078 cumulative IPC: 2.85012 (Simulation time: 0 hr 15 min 18 sec) 
Heartbeat CPU 0 instructions: 30000002 cycles: 10547895 heartbeat IPC: 2.83235 cumulative IPC: 2.84417 (Simulation time: 0 hr 21 min 43 sec) 
Heartbeat CPU 0 instructions: 40000002 cycles: 14066164 heartbeat IPC: 2.84231 cumulative IPC: 2.8437 (Simulation time: 0 hr 28 min 6 sec) 
Heartbeat CPU 0 instructions: 50000001 cycles: 17586939 heartbeat IPC: 2.84028 cumulative IPC: 2.84302 (Simulation time: 0 hr 34 min 31 sec) 

Warmup complete CPU 0 instructions: 50000001 cycles: 17586939 (Simulation time: 0 hr 34 min 31 sec) 

Heartbeat CPU 0 instructions: 60000002 cycles: 46463802 heartbeat IPC: 0.346298 cumulative IPC: 0.346298 (Simulation time: 0 hr 42 min 59 sec) 
Heartbeat CPU 0 instructions: 70000002 cycles: 74224031 heartbeat IPC: 0.360228 cumulative IPC: 0.353125 (Simulation time: 0 hr 50 min 30 sec) 
Heartbeat CPU 0 instructions: 80000002 cycles: 102440010 heartbeat IPC: 0.354409 cumulative IPC: 0.353552 (Simulation time: 0 hr 57 min 45 sec) 
Heartbeat CPU 0 instructions: 90000003 cycles: 130118757 heartbeat IPC: 0.361288 cumulative IPC: 0.355455 (Simulation time: 1 hr 3 min 48 sec) 
Heartbeat CPU 0 instructions: 100000000 cycles: 157446190 heartbeat IPC: 0.365933 cumulative IPC: 0.357502 (Simulation time: 1 hr 8 min 15 sec) 
Heartbeat CPU 0 instructions: 110000000 cycles: 185097148 heartbeat IPC: 0.361651 cumulative IPC: 0.358187 (Simulation time: 1 hr 20 min 45 sec) 
Heartbeat CPU 0 instructions: 120000000 cycles: 210959658 heartbeat IPC: 0.38666 cumulative IPC: 0.361995 (Simulation time: 1 hr 32 min 41 sec) 
Heartbeat CPU 0 instructions: 130000002 cycles: 238129310 heartbeat IPC: 0.368058 cumulative IPC: 0.362742 (Simulation time: 1 hr 42 min 59 sec) 
Heartbeat CPU 0 instructions: 140000000 cycles: 265479014 heartbeat IPC: 0.365635 cumulative IPC: 0.363061 (Simulation time: 1 hr 51 min 53 sec) 
Heartbeat CPU 0 instructions: 150000000 cycles: 292506799 heartbeat IPC: 0.36999 cumulative IPC: 0.363742 (Simulation time: 1 hr 59 min 58 sec) 
Finished CPU 0 instructions: 100000003 cycles: 274919861 cumulative IPC: 0.363742 (Simulation time: 1 hr 59 min 58 sec) 

ChampSim completed all CPUs

Region of Interest Statistics

CPU 0 cumulative IPC: 0.363742 instructions: 100000003 cycles: 274919861

CPU 0 Average Load ROB stall cycles: 7.85815e+07
CPU 0 Fraction of times ROB stalled by Loads: 50.3257
CPU 0 Percentage of Load stall cycles in Total stall cycles: 4.53618e+08
Issued all: 166915092
Issued LT all: 161093162
rob_not_full_when_issued_lt_all: 28366478
Issued LT one: 138134690
rob_not_full_when_issued_lt_one: 19685803
 Total stall cycles: 245478752
 Total load stall cycles: 1113535183351324
Unique Load IPs: 75
CPU 0 NUM of IPS identified critical: 10
CPU 0 Num of Load IPs stalling ROB: 0
Threshold modification factor: 0
Trouble in retire width: -nan
MaC = Marked as critical.
lt_50_percent_before_Mac: 10
gt_90_percent_before_Mac: 0
gt_75_percent_before_Mac: 0
gt_50_percent_before_Mac: 0
stall_proportion_bin_same_before_after: 0
stall_proportion_bin_lower_before_after: 0
stall_proportion_bin_upper_before_after: 0
average_stall_proportion_before: 0.0169116
average_stall_proportion_after: 0.0258607
Critical_IP_Detector_Accuracy_70: 0.1
Critical_IP_Detector_Accuracy_80: 0.1
Critical_IP_Detector_Accuracy_90: 0.1
Critical_IP_Detector_Coverage_70: 1
Critical_IP_Detector_Coverage_80: 1
Critical_IP_Detector_Coverage_90: 1
stat_90_percent_critical_ip_stalls_freq: 2062775
stat_90_percent_non_critical_ip_stalls_freq: 18446744073707488841
AVERAGE_ROB_Occupancy_90_Percent_Critical_IP_Stalls: 273.926
AVERAGE_ROB_Occupancy_90_Percent_Non_Critical_IP_Stalls: 6.50111e-11
Critical_IP_ROB_Stalls_Bucket_0: 1048568
Non-critical_IP_ROB_Stalls_Bucket_0: 319063
Critical_IP_ROB_Stalls_Bucket_1: 519963
Non-critical_IP_ROB_Stalls_Bucket_1: 147154
Critical_IP_ROB_Stalls_Bucket_2: 185416
Non-critical_IP_ROB_Stalls_Bucket_2: 22369
Critical_IP_ROB_Stalls_Bucket_3: 121135
Non-critical_IP_ROB_Stalls_Bucket_3: 11865
Critical_IP_ROB_Stalls_Bucket_4: 79119
Non-critical_IP_ROB_Stalls_Bucket_4: 7659
Critical_IP_ROB_Stalls_Bucket_5: 109872
Non-critical_IP_ROB_Stalls_Bucket_5: 8100
Critical_IP_ROB_Stalls_Bucket_6: 4540587
Non-critical_IP_ROB_Stalls_Bucket_6: 10510
0 => IPs accounting for >50 percent of stalls, 1 => 55, 2 => 60, 3 => 65 and so on till 90.
percent50: inf num IPs:  1
percent55: inf num IPs: 1
percent60: inf num IPs: 1
percent65: inf num IPs: 1
percent70: inf num IPs: 1
percent75: inf num IPs: 1
percent80: inf num IPs: 1
percent85: inf num IPs: 1
percent90: inf num IPs: 1
Critical_ROB_Stalls_Percent_0_Bucket_0: 237415
Non-critical_ROB_Stalls_Percent_0_Bucket_0: 1130216
Critical_ROB_Stalls_Percent_0_Bucket_1: 173388
Non-critical_ROB_Stalls_Percent_0_Bucket_1: 493729
Critical_ROB_Stalls_Percent_0_Bucket_2: 69487
Non-critical_ROB_Stalls_Percent_0_Bucket_2: 138298
Critical_ROB_Stalls_Percent_0_Bucket_3: 43683
Non-critical_ROB_Stalls_Percent_0_Bucket_3: 89317
Critical_ROB_Stalls_Percent_0_Bucket_4: 26782
Non-critical_ROB_Stalls_Percent_0_Bucket_4: 59996
Critical_ROB_Stalls_Percent_0_Bucket_5: 25421
Non-critical_ROB_Stalls_Percent_0_Bucket_5: 92551
Critical_ROB_Stalls_Percent_0_Bucket_6: 1486599
Non-critical_ROB_Stalls_Percent_0_Bucket_6: 3064498
Critical_ROB_Stalls_Percent_1_Bucket_0: 237415
Non-critical_ROB_Stalls_Percent_1_Bucket_0: 1130216
Critical_ROB_Stalls_Percent_1_Bucket_1: 173388
Non-critical_ROB_Stalls_Percent_1_Bucket_1: 493729
Critical_ROB_Stalls_Percent_1_Bucket_2: 69487
Non-critical_ROB_Stalls_Percent_1_Bucket_2: 138298
Critical_ROB_Stalls_Percent_1_Bucket_3: 43683
Non-critical_ROB_Stalls_Percent_1_Bucket_3: 89317
Critical_ROB_Stalls_Percent_1_Bucket_4: 26782
Non-critical_ROB_Stalls_Percent_1_Bucket_4: 59996
Critical_ROB_Stalls_Percent_1_Bucket_5: 25421
Non-critical_ROB_Stalls_Percent_1_Bucket_5: 92551
Critical_ROB_Stalls_Percent_1_Bucket_6: 1486599
Non-critical_ROB_Stalls_Percent_1_Bucket_6: 3064498
Critical_ROB_Stalls_Percent_2_Bucket_0: 237415
Non-critical_ROB_Stalls_Percent_2_Bucket_0: 1130216
Critical_ROB_Stalls_Percent_2_Bucket_1: 173388
Non-critical_ROB_Stalls_Percent_2_Bucket_1: 493729
Critical_ROB_Stalls_Percent_2_Bucket_2: 69487
Non-critical_ROB_Stalls_Percent_2_Bucket_2: 138298
Critical_ROB_Stalls_Percent_2_Bucket_3: 43683
Non-critical_ROB_Stalls_Percent_2_Bucket_3: 89317
Critical_ROB_Stalls_Percent_2_Bucket_4: 26782
Non-critical_ROB_Stalls_Percent_2_Bucket_4: 59996
Critical_ROB_Stalls_Percent_2_Bucket_5: 25421
Non-critical_ROB_Stalls_Percent_2_Bucket_5: 92551
Critical_ROB_Stalls_Percent_2_Bucket_6: 1486599
Non-critical_ROB_Stalls_Percent_2_Bucket_6: 3064498
Critical_ROB_Stalls_Percent_3_Bucket_0: 237415
Non-critical_ROB_Stalls_Percent_3_Bucket_0: 1130216
Critical_ROB_Stalls_Percent_3_Bucket_1: 173388
Non-critical_ROB_Stalls_Percent_3_Bucket_1: 493729
Critical_ROB_Stalls_Percent_3_Bucket_2: 69487
Non-critical_ROB_Stalls_Percent_3_Bucket_2: 138298
Critical_ROB_Stalls_Percent_3_Bucket_3: 43683
Non-critical_ROB_Stalls_Percent_3_Bucket_3: 89317
Critical_ROB_Stalls_Percent_3_Bucket_4: 26782
Non-critical_ROB_Stalls_Percent_3_Bucket_4: 59996
Critical_ROB_Stalls_Percent_3_Bucket_5: 25421
Non-critical_ROB_Stalls_Percent_3_Bucket_5: 92551
Critical_ROB_Stalls_Percent_3_Bucket_6: 1486599
Non-critical_ROB_Stalls_Percent_3_Bucket_6: 3064498
Critical_ROB_Stalls_Percent_4_Bucket_0: 237415
Non-critical_ROB_Stalls_Percent_4_Bucket_0: 1130216
Critical_ROB_Stalls_Percent_4_Bucket_1: 173388
Non-critical_ROB_Stalls_Percent_4_Bucket_1: 493729
Critical_ROB_Stalls_Percent_4_Bucket_2: 69487
Non-critical_ROB_Stalls_Percent_4_Bucket_2: 138298
Critical_ROB_Stalls_Percent_4_Bucket_3: 43683
Non-critical_ROB_Stalls_Percent_4_Bucket_3: 89317
Critical_ROB_Stalls_Percent_4_Bucket_4: 26782
Non-critical_ROB_Stalls_Percent_4_Bucket_4: 59996
Critical_ROB_Stalls_Percent_4_Bucket_5: 25421
Non-critical_ROB_Stalls_Percent_4_Bucket_5: 92551
Critical_ROB_Stalls_Percent_4_Bucket_6: 1486599
Non-critical_ROB_Stalls_Percent_4_Bucket_6: 3064498
Critical_ROB_Stalls_Percent_5_Bucket_0: 237415
Non-critical_ROB_Stalls_Percent_5_Bucket_0: 1130216
Critical_ROB_Stalls_Percent_5_Bucket_1: 173388
Non-critical_ROB_Stalls_Percent_5_Bucket_1: 493729
Critical_ROB_Stalls_Percent_5_Bucket_2: 69487
Non-critical_ROB_Stalls_Percent_5_Bucket_2: 138298
Critical_ROB_Stalls_Percent_5_Bucket_3: 43683
Non-critical_ROB_Stalls_Percent_5_Bucket_3: 89317
Critical_ROB_Stalls_Percent_5_Bucket_4: 26782
Non-critical_ROB_Stalls_Percent_5_Bucket_4: 59996
Critical_ROB_Stalls_Percent_5_Bucket_5: 25421
Non-critical_ROB_Stalls_Percent_5_Bucket_5: 92551
Critical_ROB_Stalls_Percent_5_Bucket_6: 1486599
Non-critical_ROB_Stalls_Percent_5_Bucket_6: 3064498
Critical_ROB_Stalls_Percent_6_Bucket_0: 237415
Non-critical_ROB_Stalls_Percent_6_Bucket_0: 1130216
Critical_ROB_Stalls_Percent_6_Bucket_1: 173388
Non-critical_ROB_Stalls_Percent_6_Bucket_1: 493729
Critical_ROB_Stalls_Percent_6_Bucket_2: 69487
Non-critical_ROB_Stalls_Percent_6_Bucket_2: 138298
Critical_ROB_Stalls_Percent_6_Bucket_3: 43683
Non-critical_ROB_Stalls_Percent_6_Bucket_3: 89317
Critical_ROB_Stalls_Percent_6_Bucket_4: 26782
Non-critical_ROB_Stalls_Percent_6_Bucket_4: 59996
Critical_ROB_Stalls_Percent_6_Bucket_5: 25421
Non-critical_ROB_Stalls_Percent_6_Bucket_5: 92551
Critical_ROB_Stalls_Percent_6_Bucket_6: 1486599
Non-critical_ROB_Stalls_Percent_6_Bucket_6: 3064498
Critical_ROB_Stalls_Percent_7_Bucket_0: 237415
Non-critical_ROB_Stalls_Percent_7_Bucket_0: 1130216
Critical_ROB_Stalls_Percent_7_Bucket_1: 173388
Non-critical_ROB_Stalls_Percent_7_Bucket_1: 493729
Critical_ROB_Stalls_Percent_7_Bucket_2: 69487
Non-critical_ROB_Stalls_Percent_7_Bucket_2: 138298
Critical_ROB_Stalls_Percent_7_Bucket_3: 43683
Non-critical_ROB_Stalls_Percent_7_Bucket_3: 89317
Critical_ROB_Stalls_Percent_7_Bucket_4: 26782
Non-critical_ROB_Stalls_Percent_7_Bucket_4: 59996
Critical_ROB_Stalls_Percent_7_Bucket_5: 25421
Non-critical_ROB_Stalls_Percent_7_Bucket_5: 92551
Critical_ROB_Stalls_Percent_7_Bucket_6: 1486599
Non-critical_ROB_Stalls_Percent_7_Bucket_6: 3064498
Critical_ROB_Stalls_Percent_8_Bucket_0: 237415
Non-critical_ROB_Stalls_Percent_8_Bucket_0: 1130216
Critical_ROB_Stalls_Percent_8_Bucket_1: 173388
Non-critical_ROB_Stalls_Percent_8_Bucket_1: 493729
Critical_ROB_Stalls_Percent_8_Bucket_2: 69487
Non-critical_ROB_Stalls_Percent_8_Bucket_2: 138298
Critical_ROB_Stalls_Percent_8_Bucket_3: 43683
Non-critical_ROB_Stalls_Percent_8_Bucket_3: 89317
Critical_ROB_Stalls_Percent_8_Bucket_4: 26782
Non-critical_ROB_Stalls_Percent_8_Bucket_4: 59996
Critical_ROB_Stalls_Percent_8_Bucket_5: 25421
Non-critical_ROB_Stalls_Percent_8_Bucket_5: 92551
Critical_ROB_Stalls_Percent_8_Bucket_6: 1486599
Non-critical_ROB_Stalls_Percent_8_Bucket_6: 3064498
Average ROB occupancy Load Stall Begin: 240.866
Average ROB occupancy Load Stall End: 247.398
Min ROB occupancy Load Stall Begin: 1
Max ROB occupancy Load Stall Begin: 352
Min ROB occupancy Load Stall End: 1
Max ROB occupancy Load Stall End: 352
Average ROB occupancy Critical Load Stall Begin: 256.095
Average ROB occupancy Critical Load Stall End: 261.37
Min ROB occupancy Critical Load Stall Begin: 2
Max ROB occupancy Critical Load Stall Begin: 352
Min ROB occupancy Critical Load Stall End: 2
Max ROB occupancy Critical Load Stall End: 352
 ROB Load Stall Begin Bucket Count 0: 1592232
 ROB Load Stall End Bucket Count 0: 1367631
 ROB Critical Load Stall Begin Bucket Count 0: 1121858
 ROB Critical Load Stall End Bucket Count 0: 1036822
 ROB Load Stall Begin Bucket Count 1: 520745
 ROB Load Stall End Bucket Count 1: 667117
 ROB Critical Load Stall Begin Bucket Count 1: 471185
 ROB Critical Load Stall End Bucket Count 1: 511762
 ROB Load Stall Begin Bucket Count 2: 173990
 ROB Load Stall End Bucket Count 2: 207785
 ROB Critical Load Stall Begin Bucket Count 2: 159847
 ROB Critical Load Stall End Bucket Count 2: 181493
 ROB Load Stall Begin Bucket Count 3: 119079
 ROB Load Stall End Bucket Count 3: 133000
 ROB Critical Load Stall Begin Bucket Count 3: 111889
 ROB Critical Load Stall End Bucket Count 3: 118297
 ROB Load Stall Begin Bucket Count 4: 79471
 ROB Load Stall End Bucket Count 4: 86778
 ROB Critical Load Stall Begin Bucket Count 4: 74608
 ROB Critical Load Stall End Bucket Count 4: 77203
 ROB Load Stall Begin Bucket Count 5: 197179
 ROB Load Stall End Bucket Count 5: 117972
 ROB Critical Load Stall Begin Bucket Count 5: 190754
 ROB Critical Load Stall End Bucket Count 5: 108087
 ROB Load Stall Begin Bucket Count 6: 4448684
 ROB Load Stall End Bucket Count 6: 4551097
 ROB Critical Load Stall Begin Bucket Count 6: 4297950
 ROB Critical Load Stall End Bucket Count 6: 4394429
PIST Tag Read Accesses: 0
PIST Read Accesses: 0
PIST Tag Write Accesses: 0
PIST Write Accesses: 0
Criticality detector called times: 0
Max global_stall_cycles_count: 0
Threshold Modified: 0 times, factor: 0
Sturdy critical IP cache stats: 
 Unused entries: 0
CIC Tag Read Accesses: 0
CIC Read Accesses: 0
CIC Tag Write Accesses: 0
CIC Write Accesses: 0
Wobbly critical IP cache stats: 
 Unused entries: 17
CIC Tag Read Accesses: 466105843
CIC Read Accesses: 0
CIC Tag Write Accesses: 28951795
CIC Write Accesses: 0
ITLB TOTAL     ACCESS:   20662772  HIT:   20662772  MISS:          0  HIT %:        100  MISS %:          0   MPKI: 0
ITLB LOAD TRANSLATION ACCESS:   20662772  HIT:   20662772  MISS:          0  HIT %:        100  MISS %:          0   MPKI: 0
ITLB PREFETCH  REQUESTED:          0  ISSUED:          0  USEFUL:          0  USELESS:          0
ITLB USEFUL LOAD PREFETCHES:          0 PREFETCH ISSUED TO LOWER LEVEL:          0  ACCURACY: -nan
ITLB TIMELY PREFETCHES:          0 LATE PREFETCHES: 0 DROPPED PREFETCHES: 0
ITLB PREFETCHES SAME FILL-ORIGIN LEVEL: 0 DIFFERENT FILL-ORIGIN LEVEL: 0
ITLB AVERAGE MISS LATENCY: -nan cycles
ITLB RQ	ACCESS:   25170392	FORWARD:          0	MERGED:    4507620	TO_CACHE:   20662772

DTLB TOTAL     ACCESS:   31252067  HIT:   30856863  MISS:     395204  HIT %:    98.7354  MISS %:    1.26457   MPKI: 3.95204
DTLB LOAD TRANSLATION ACCESS:   31252067  HIT:   30856863  MISS:     395204  HIT %:    98.7354  MISS %:    1.26457   MPKI: 3.95204
DTLB PREFETCH  REQUESTED:          0  ISSUED:          0  USEFUL:          0  USELESS:          0
DTLB USEFUL LOAD PREFETCHES:          0 PREFETCH ISSUED TO LOWER LEVEL:          0  ACCURACY: -nan
DTLB TIMELY PREFETCHES:          0 LATE PREFETCHES: 0 DROPPED PREFETCHES: 0
DTLB PREFETCHES SAME FILL-ORIGIN LEVEL: 0 DIFFERENT FILL-ORIGIN LEVEL: 0
DTLB AVERAGE MISS LATENCY: 12.6833 cycles
DTLB RQ	ACCESS:   38494560	FORWARD:          0	MERGED:    7228776	TO_CACHE:   31265784

STLB TOTAL     ACCESS:   12358038  HIT:   12349991  MISS:       8047  HIT %:    99.9349  MISS %:  0.0651155   MPKI: 0.08047
STLB LOAD TRANSLATION ACCESS:     395204  HIT:     387160  MISS:       8044  HIT %:    97.9646  MISS %:     2.0354   MPKI: 0.08044
STLB TRANSLATION FROM L1D PREFETCHER ACCESS:   11962834  HIT:   11962831  MISS:          3  HIT %:        100  MISS %: 2.50777e-05   MPKI: 3e-05
STLB PREFETCH  REQUESTED:          0  ISSUED:          0  USEFUL:          3  USELESS:          0
STLB USEFUL LOAD PREFETCHES:          3 PREFETCH ISSUED TO LOWER LEVEL:          0  ACCURACY: inf
STLB TIMELY PREFETCHES:          3 LATE PREFETCHES: 0 DROPPED PREFETCHES: 0
STLB PREFETCHES SAME FILL-ORIGIN LEVEL: 0 DIFFERENT FILL-ORIGIN LEVEL: 0
STLB AVERAGE MISS LATENCY: 180.22 cycles
STLB RQ	ACCESS:   40508816	FORWARD:          0	MERGED:   28150779	TO_CACHE:   12358037

STLB Hit, L1D data hit: 0
STLB Hit, L2C data hit: 0
STLB Hit, LLC data hit: 0
STLB Hit, LLC data miss: 0
STLB STLB hints to L2: 0
L1D TOTAL     ACCESS:   69937220  HIT:   45494154  MISS:   24443066  HIT %:      65.05  MISS %:      34.95   MPKI: 244.431
L1D LOAD      ACCESS:   32081169  HIT:   25686932  MISS:    6394237  HIT %:    80.0686  MISS %:    19.9314   MPKI: 63.9424
L1D RFO       ACCESS:    5016119  HIT:    4742707  MISS:     273412  HIT %:    94.5493  MISS %:    5.45067   MPKI: 2.73412
L1D PREFETCH  ACCESS:   32839932  HIT:   15064515  MISS:   17775417  HIT %:    45.8726  MISS %:    54.1274   MPKI: 177.754
L1D PREFETCH  REQUESTED:   86795582  ISSUED:   80291015  USEFUL:    8741835  USELESS:    9033556
L1D USEFUL LOAD PREFETCHES:    8741835 PREFETCH ISSUED TO LOWER LEVEL:   21443773  ACCURACY: 40.7663
L1D TIMELY PREFETCHES:    8741835 LATE PREFETCHES: 3668346 DROPPED PREFETCHES: 0
L1D PREFETCHES SAME FILL-ORIGIN LEVEL: 21443773 DIFFERENT FILL-ORIGIN LEVEL: 0
L1D AVERAGE MISS LATENCY: 2.41333e+07 cycles
L1D RQ	ACCESS:   41286163	FORWARD:          0	MERGED:    8514374	TO_CACHE:   32717135
L1D WQ	ACCESS:    7122776	FORWARD:      54656	MERGED:    1345351	TO_CACHE:    5777425
L1D PQ	ACCESS:   40177403	FORWARD:          0	MERGED:      63789	TO_CACHE:   40113612

L1D UNIQUE REGIONS ACCESSED: 0
L1D REGIONS CONFLICTS: 0
L1D Cross Page Prefetch Requests: 0
L1D Same Page Prefetch Requests: 53884687
L1D ROI Sum of L1D PQ occupancy: 1244640820
L1D PREFETCHES PUSHED FROM L2C: 0
L1I TOTAL     ACCESS:   25170391  HIT:   25170391  MISS:          0  HIT %:        100  MISS %:          0   MPKI: 0
L1I LOAD      ACCESS:   25170391  HIT:   25170391  MISS:          0  HIT %:        100  MISS %:          0   MPKI: 0
L1I PREFETCH  REQUESTED:          0  ISSUED:          0  USEFUL:          0  USELESS:          0
L1I USEFUL LOAD PREFETCHES:          0 PREFETCH ISSUED TO LOWER LEVEL:          0  ACCURACY: -nan
L1I TIMELY PREFETCHES:          0 LATE PREFETCHES: 0 DROPPED PREFETCHES: 0
L1I PREFETCHES SAME FILL-ORIGIN LEVEL: 0 DIFFERENT FILL-ORIGIN LEVEL: 0
L1I AVERAGE MISS LATENCY: -nan cycles
L1I RQ	ACCESS:   34271601	FORWARD:          0	MERGED:    9101209	TO_CACHE:   25170392

BTB TOTAL     ACCESS:   17751896  HIT:   17751864  MISS:         32  HIT %:    99.9998  MISS %: 0.000180262   MPKI: 0.00032
BTB BRANCH_DIRECT_JUMP	ACCESS:    4133385  HIT:    4133379  MISS:          6
BTB BRANCH_INDIRECT	ACCESS:          0  HIT:          0  MISS:          0
BTB BRANCH_CONDITIONAL	ACCESS:   13616935  HIT:   13616913  MISS:         22
BTB BRANCH_DIRECT_CALL	ACCESS:        788  HIT:        786  MISS:          2
BTB BRANCH_INDIRECT_CALL	ACCESS:          0  HIT:          0  MISS:          0
BTB BRANCH_RETURN	ACCESS:        788  HIT:        786  MISS:          2
BTB BRANCH_OTHER ACCESS:          0  HIT:          0  MISS:          0

L2C TOTAL     ACCESS:   24794197  HIT:     351125  MISS:   24443072  HIT %:    1.41616  MISS %:    98.5838   MPKI: 244.431
L2C LOAD      ACCESS:    2725891  HIT:       2153  MISS:    2723738  HIT %:  0.0789833  MISS %:     99.921   MPKI: 27.2374
L2C DATA LOAD MPKI: 27.2374
L2C INSTRUCTION LOAD MPKI: 0
L2C RFO       ACCESS:     273411  HIT:        759  MISS:     272652  HIT %:   0.277604  MISS %:    99.7224   MPKI: 2.72652
L2C PREFETCH  ACCESS:   21443762  HIT:         40  MISS:   21443722  HIT %: 0.000186534  MISS %:    99.9998   MPKI: 214.437
L2C DATA PREFETCH MPKI: 214.437
L2C INSTRUCTION PREFETCH MPKI: 0
L2C WRITEBACK ACCESS:     343077  HIT:     342091  MISS:        986  HIT %:    99.7126  MISS %:   0.287399   MPKI: 0.00986
L2C LOAD TRANSLATION ACCESS:       8053  HIT:       6082  MISS:       1971  HIT %:    75.5246  MISS %:    24.4754   MPKI: 0.01971
L2C TRANSLATION FROM L1D PREFETCHER ACCESS:          3  HIT:          0  MISS:          3  HIT %:          0  MISS %:        100   MPKI: 3e-05
L2C PREFETCH  REQUESTED:          0  ISSUED:          0  USEFUL:        117  USELESS:   21442345
L2C USEFUL LOAD PREFETCHES:        117 PREFETCH ISSUED TO LOWER LEVEL:   21443733  ACCURACY: 0.000545614
L2C TIMELY PREFETCHES:        117 LATE PREFETCHES: 0 DROPPED PREFETCHES: 0
L2C PREFETCHES SAME FILL-ORIGIN LEVEL: 0 DIFFERENT FILL-ORIGIN LEVEL: 0
L2C AVERAGE MISS LATENCY: 100.431 cycles
L2C RQ	ACCESS:    3007359	FORWARD:          0	MERGED:          0	TO_CACHE:    3007358
L2C WQ	ACCESS:     343077	FORWARD:          1	MERGED:          0	TO_CACHE:     343077
L2C PQ	ACCESS:   21443773	FORWARD:          0	MERGED:          0	TO_CACHE:   21443773

L2C Instructions Evicting Data 0
L2C Translations Evicting Data 1974
L2C Data Evicting Data 24438133
L2C Instructions Evicting Instructions 0
L2C Translations Evicting Instructions 0
L2C Data Evicting Instructions 0
L2C Instructions Evicting Translations 0
L2C Translations Evicting Translations 0
L2C Data Evicting Translations 1979
L2C Dense regions hint from L2: 0
PSCL5 TOTAL     ACCESS:       8047  HIT:       8047  MISS:          0  HIT %:        100  MISS %:          0   MPKI: 0
PSCL5 LOAD TRANSLATION ACCESS:       8044  HIT:       8044  MISS:          0  HIT %:        100  MISS %:          0   MPKI: 0
PSCL5 TRANSLATION FROM L1D PREFETCHER ACCESS:          3  HIT:          3  MISS:          0  HIT %:        100  MISS %:          0   MPKI: 0
PSCL5 PREFETCH  REQUESTED:          0  ISSUED:          0  USEFUL:          0  USELESS:          0
PSCL5 USEFUL LOAD PREFETCHES:          0 PREFETCH ISSUED TO LOWER LEVEL:          0  ACCURACY: -nan
PSCL5 TIMELY PREFETCHES:          0 LATE PREFETCHES: 0 DROPPED PREFETCHES: 0
PSCL5 PREFETCHES SAME FILL-ORIGIN LEVEL: 0 DIFFERENT FILL-ORIGIN LEVEL: 0

PSCL4 TOTAL     ACCESS:       8047  HIT:       8047  MISS:          0  HIT %:        100  MISS %:          0   MPKI: 0
PSCL4 LOAD TRANSLATION ACCESS:       8044  HIT:       8044  MISS:          0  HIT %:        100  MISS %:          0   MPKI: 0
PSCL4 TRANSLATION FROM L1D PREFETCHER ACCESS:          3  HIT:          3  MISS:          0  HIT %:        100  MISS %:          0   MPKI: 0
PSCL4 PREFETCH  REQUESTED:          0  ISSUED:          0  USEFUL:          0  USELESS:          0
PSCL4 USEFUL LOAD PREFETCHES:          0 PREFETCH ISSUED TO LOWER LEVEL:          0  ACCURACY: -nan
PSCL4 TIMELY PREFETCHES:          0 LATE PREFETCHES: 0 DROPPED PREFETCHES: 0
PSCL4 PREFETCHES SAME FILL-ORIGIN LEVEL: 0 DIFFERENT FILL-ORIGIN LEVEL: 0

PSCL3 TOTAL     ACCESS:       8047  HIT:       8047  MISS:          0  HIT %:        100  MISS %:          0   MPKI: 0
PSCL3 LOAD TRANSLATION ACCESS:       8044  HIT:       8044  MISS:          0  HIT %:        100  MISS %:          0   MPKI: 0
PSCL3 TRANSLATION FROM L1D PREFETCHER ACCESS:          3  HIT:          3  MISS:          0  HIT %:        100  MISS %:          0   MPKI: 0
PSCL3 PREFETCH  REQUESTED:          0  ISSUED:          0  USEFUL:          0  USELESS:          0
PSCL3 USEFUL LOAD PREFETCHES:          0 PREFETCH ISSUED TO LOWER LEVEL:          0  ACCURACY: -nan
PSCL3 TIMELY PREFETCHES:          0 LATE PREFETCHES: 0 DROPPED PREFETCHES: 0
PSCL3 PREFETCHES SAME FILL-ORIGIN LEVEL: 0 DIFFERENT FILL-ORIGIN LEVEL: 0

PSCL2 TOTAL     ACCESS:       8047  HIT:       8022  MISS:         25  HIT %:    99.6893  MISS %:   0.310675   MPKI: 0.00025
PSCL2 LOAD TRANSLATION ACCESS:       8044  HIT:       8019  MISS:         25  HIT %:    99.6892  MISS %:   0.310791   MPKI: 0.00025
PSCL2 TRANSLATION FROM L1D PREFETCHER ACCESS:          3  HIT:          3  MISS:          0  HIT %:        100  MISS %:          0   MPKI: 0
PSCL2 PREFETCH  REQUESTED:          0  ISSUED:          0  USEFUL:          0  USELESS:          0
PSCL2 USEFUL LOAD PREFETCHES:          0 PREFETCH ISSUED TO LOWER LEVEL:          0  ACCURACY: -nan
PSCL2 TIMELY PREFETCHES:          0 LATE PREFETCHES: 0 DROPPED PREFETCHES: 0
PSCL2 PREFETCHES SAME FILL-ORIGIN LEVEL: 0 DIFFERENT FILL-ORIGIN LEVEL: 0

LLC TOTAL     ACCESS:   24785194  HIT:   11702607  MISS:   13082587  HIT %:    47.2161  MISS %:    52.7839   MPKI: 130.826
LLC LOAD      ACCESS:    2723738  HIT:    1359321  MISS:    1364417  HIT %:    49.9065  MISS %:    50.0935   MPKI: 13.6442
LLC RFO       ACCESS:     272652  HIT:       1159  MISS:     271493  HIT %:   0.425084  MISS %:    99.5749   MPKI: 2.71493
LLC PREFETCH  ACCESS:   21443723  HIT:   10331700  MISS:   11112023  HIT %:    48.1805  MISS %:    51.8195   MPKI: 111.12
LLC WRITEBACK ACCESS:     343107  HIT:      10426  MISS:     332681  HIT %:     3.0387  MISS %:    96.9613   MPKI: 3.32681
LLC LOAD TRANSLATION ACCESS:       1971  HIT:          1  MISS:       1970  HIT %:  0.0507357  MISS %:    99.9493   MPKI: 0.0197
LLC TRANSLATION FROM L1D PREFETCHER ACCESS:          3  HIT:          0  MISS:          3  HIT %:          0  MISS %:        100   MPKI: 3e-05
LLC PREFETCH  REQUESTED:          0  ISSUED:          0  USEFUL:      18611  USELESS:   11097336
LLC USEFUL LOAD PREFETCHES:      18611 PREFETCH ISSUED TO LOWER LEVEL:   11112030  ACCURACY: 0.167485
LLC TIMELY PREFETCHES:      18611 LATE PREFETCHES: 0 DROPPED PREFETCHES: 0
LLC PREFETCHES SAME FILL-ORIGIN LEVEL: 0 DIFFERENT FILL-ORIGIN LEVEL: 0
LLC AVERAGE MISS LATENCY: 131.455 cycles
LLC RQ	ACCESS:    2998364	FORWARD:          0	MERGED:          0	TO_CACHE:    2998364
LLC WQ	ACCESS:     343107	FORWARD:          0	MERGED:          0	TO_CACHE:     343107
LLC PQ	ACCESS:   21443733	FORWARD:          0	MERGED:          0	TO_CACHE:   21443733

LLC Dense regions hint to LLC: 0

RAW hits: 4135187
Loads Generated: 45421352
Loads sent to L1D: 41286163
Stores Generated: 7122776
Stores sent to L1D: 7122776
Major fault: 0 Minor fault: 13274
Allocated PAGES: 13274

stream: 
stream:times selected: 28097426
stream:pref_filled: 23974923
stream:pref_useful: 11567824
stream:pref_late: 2934244
stream:misses: 628638
stream:misses_by_poll: 0

CS: 
CS:times selected: 3662295
CS:pref_filled: 73657
CS:pref_useful: 58580
CS:pref_late: 2230
CS:misses: 110256
CS:misses_by_poll: 36

CPLX: 
CPLX:times selected: 24434644
CPLX:pref_filled: 4112017
CPLX:pref_useful: 3003870
CPLX:pref_late: 1003562
CPLX:misses: 7112028
CPLX:misses_by_poll: 36911

NL_L1: 
NL:times selected: 144483
NL:pref_filled: 1509
NL:pref_useful: 864
NL:pref_late: 47
NL:misses: 93837
NL:misses_by_poll: 0

total selections: 56338848
total_filled: 17775417
total_useful: 8741835
total_late: 4039853
total_polluted: 36947
total_misses_after_warmup: 6577317
conflicts: 0
Degree Incremented Times: 175400
Degree Decremented Times: 0

L1 IP Table Write Accesses: 30504298
L1 IP Table Read Accesses: 30504298
L1 RST Write Accesses: 19940833
L1 RST Read Accesses: 39881666
L1 CSPT Write Accesses: 19940833
L1 CSPT Read Accesses: 68722179
L1 RR Filter Tag Write Accesses: 46681970
L1 RR Filter Tag Read Accesses: 3340374025
L1 IP Table Tag Write Accesses: 30504298
L1 IP Table Tag Read Accesses: 30504298
L1 RST Tag Write Accesses: 0
L1 RST Tag Read Accesses: 179321245
L1 RR Filter Write Accesses: 0
L1 RR Filter Read Accesses: 143482183
test: 1452979

DRAM Statistics
 CHANNEL 0
 RQ ROW_BUFFER_HIT:    9210440  ROW_BUFFER_MISS:    3539447
 DBUS_CONGESTED:      16022
 WQ ROW_BUFFER_HIT:     106576  ROW_BUFFER_MISS:     234448  FULL:          0

 AVG_CONGESTED_CYCLE: 5
 All warmup complete: 2
Channel 0 Bank busy for read cycles: 0
Channel 0 Bank busy for write cycles: 0
Channel 0
Rank 0
0banks busy for read cycles: 7962954
0banks busy for write cycles: 5125
1banks busy for read cycles: 31519589
1banks busy for write cycles: 3145841
2banks busy for read cycles: 33252310
2banks busy for write cycles: 1850023
3banks busy for read cycles: 33720301
3banks busy for write cycles: 1358181
4banks busy for read cycles: 35841457
4banks busy for write cycles: 1100370
5banks busy for read cycles: 38229836
5banks busy for write cycles: 925322
6banks busy for read cycles: 34851398
6banks busy for write cycles: 992403
7banks busy for read cycles: 24027865
7banks busy for write cycles: 1959742
8banks busy for read cycles: 10241853
8banks busy for write cycles: 13935292

CPU 0 Branch Prediction Accuracy: 98.5222% MPKI: 2.69335 Average ROB Occupancy at Mispredict: 71.2368
Branch types
NOT_BRANCH: 81775182 81.7752%
BRANCH_DIRECT_JUMP: 4133385 4.13338%
BRANCH_INDIRECT: 0 0%
BRANCH_CONDITIONAL: 14089838 14.0898%
BRANCH_DIRECT_CALL: 788 0.000788%
BRANCH_INDIRECT_CALL: 0 0%
BRANCH_RETURN: 788 0.000788%
BRANCH_OTHER: 0 0%

DRAM PAGES: 1048576
Allocated PAGES: 13274
