Initialize SIGNATURE TABLE
ST_SET: 1
ST_WAY: 256
ST_TAG_BIT: 16
ST_TAG_MASK: ffff

Initialize PATTERN TABLE
PT_SET: 512
PT_WAY: 4
SIG_DELTA_BIT: 7
C_SIG_BIT: 4
C_DELTA_BIT: 4

Initialize PREFETCH FILTER
FILTER_SET: 1024

Initialize PERCEPTRON
PERC_ENTRIES: 4096
PERC_FEATURES: 9

*** ChampSim Multicore Out-of-Order Simulator ***

Warmup Instructions: 50000000
Simulation Instructions: 100000000
Number of CPUs: 1
LLC sets: 2048
LLC ways: 16
Off-chip DRAM Size: 4096 MB Channels: 1 Width: 64-bit Data Rate: 6400 MT/s
CPU 0 runs ../SPEC2017//605.mcf_s-484B.champsimtrace.xz
.xz
NUM_OF_IPS_IN_CRITICAL_IP_TRAINING: 64
NUM_OF_CRITICAL_IP_TRAINING_TABLE_WAYS: 2
NUM_OF_CRITICAL_IP_TRAINING_TABLE_SETS: 32
WOBBLY_CRITICAL_IP_CACHE_SETS: 32
WOBBLY_CRITICAL_IP_CACHE_WAYS: 4
BTB has LRU replacement policy
ITLB has LRU replacement policy
DTLB has LRU replacement policy
STLB has LRU replacement policy
L1I has LRU replacement policy
L1D has LRU replacement policy
Initialize SRRIP state for L2C
Initialize DRRIP state for LLC
Heartbeat CPU 0 instructions: 10000001 cycles: 3161392 heartbeat IPC: 3.16316 cumulative IPC: 3.16316 (Simulation time: 0 hr 5 min 36 sec) 
Heartbeat CPU 0 instructions: 20000002 cycles: 6356050 heartbeat IPC: 3.13023 cumulative IPC: 3.14661 (Simulation time: 0 hr 10 min 38 sec) 
Heartbeat CPU 0 instructions: 30000001 cycles: 9533096 heartbeat IPC: 3.14758 cumulative IPC: 3.14693 (Simulation time: 0 hr 15 min 21 sec) 
Heartbeat CPU 0 instructions: 40000000 cycles: 12681830 heartbeat IPC: 3.17588 cumulative IPC: 3.15412 (Simulation time: 0 hr 19 min 38 sec) 
Heartbeat CPU 0 instructions: 50000002 cycles: 15862153 heartbeat IPC: 3.14434 cumulative IPC: 3.15216 (Simulation time: 0 hr 23 min 47 sec) 

Warmup complete CPU 0 instructions: 50000002 cycles: 15862153 (Simulation time: 0 hr 23 min 47 sec) 

% increase in all ip prefetch 496.278
% increase in all ip prefetch -30.2335
Heartbeat CPU 0 instructions: 60000003 cycles: 35511357 heartbeat IPC: 0.508927 cumulative IPC: 0.508927 (Simulation time: 0 hr 29 min 29 sec) 
Heartbeat CPU 0 instructions: 70000002 cycles: 58984774 heartbeat IPC: 0.426014 cumulative IPC: 0.463794 (Simulation time: 0 hr 35 min 8 sec) 
Heartbeat CPU 0 instructions: 80000001 cycles: 83020115 heartbeat IPC: 0.416054 cumulative IPC: 0.446708 (Simulation time: 0 hr 40 min 1 sec) 
Heartbeat CPU 0 instructions: 90000000 cycles: 104190254 heartbeat IPC: 0.472363 cumulative IPC: 0.452857 (Simulation time: 0 hr 44 min 35 sec) 
Heartbeat CPU 0 instructions: 100000000 cycles: 123428077 heartbeat IPC: 0.519809 cumulative IPC: 0.464831 (Simulation time: 0 hr 48 min 59 sec) 
Heartbeat CPU 0 instructions: 110000000 cycles: 142937354 heartbeat IPC: 0.512577 cumulative IPC: 0.472161 (Simulation time: 0 hr 57 min 31 sec) 
Heartbeat CPU 0 instructions: 120000001 cycles: 160498630 heartbeat IPC: 0.569435 cumulative IPC: 0.483972 (Simulation time: 1 hr 4 min 29 sec) 
Heartbeat CPU 0 instructions: 130000000 cycles: 178687665 heartbeat IPC: 0.549782 cumulative IPC: 0.491323 (Simulation time: 1 hr 10 min 52 sec) 
Heartbeat CPU 0 instructions: 140000001 cycles: 198016703 heartbeat IPC: 0.517356 cumulative IPC: 0.494086 (Simulation time: 1 hr 16 min 53 sec) 
Heartbeat CPU 0 instructions: 150000002 cycles: 215989800 heartbeat IPC: 0.556387 cumulative IPC: 0.499681 (Simulation time: 1 hr 22 min 9 sec) 
Finished CPU 0 instructions: 100000000 cycles: 200127647 cumulative IPC: 0.499681 (Simulation time: 1 hr 22 min 9 sec) 

ChampSim completed all CPUs

Region of Interest Statistics

CPU 0 cumulative IPC: 0.499681 instructions: 100000000 cycles: 200127647

CPU 0 Average Load ROB stall cycles: 3.95518e+07
CPU 0 Fraction of times ROB stalled by Loads: 32.8731
CPU 0 Percentage of Load stall cycles in Total stall cycles: 5.6187e+08
Issued all: 112678310
Issued LT all: 103581596
rob_not_full_when_issued_lt_all: 29128602
Issued LT one: 85525716
rob_not_full_when_issued_lt_one: 24063002
 Total stall cycles: 177092430
 Total load stall cycles: 995028679175642
CPU 0 NUM of IPS identified critical: 0
CPU 0 Num of Load IPs stalling ROB: 75
Threshold modification factor: -1
Max PIST entries: 35
Min PIST entries: 0
Avg PIST entries: 9.47333
Trouble in retire width: 0.996768
MaC = Marked as critical.
lt_50_percent_before_Mac: 0
gt_90_percent_before_Mac: 0
gt_75_percent_before_Mac: 0
gt_50_percent_before_Mac: 0
stall_proportion_bin_same_before_after: 0
stall_proportion_bin_lower_before_after: 0
stall_proportion_bin_upper_before_after: 0
average_stall_proportion_before: -nan
average_stall_proportion_after: -nan
Critical IP stalls, total frequency: 0
Non-critical IP stalls, total frequency: 8270088
Total Freq all stalling IPs: 8270088
stat_90_percent_critical_ip_stalls_freq: 7508426
stat_90_percent_non_critical_ip_stalls_freq: 761662
Critical_IP_ROB_Stalls_Bucket_0: 0
Non-critical_IP_ROB_Stalls_Bucket_0: 583193
Critical_IP_ROB_Stalls_Bucket_1: 0
Non-critical_IP_ROB_Stalls_Bucket_1: 342538
Critical_IP_ROB_Stalls_Bucket_2: 0
Non-critical_IP_ROB_Stalls_Bucket_2: 532877
Critical_IP_ROB_Stalls_Bucket_3: 0
Non-critical_IP_ROB_Stalls_Bucket_3: 553379
Critical_IP_ROB_Stalls_Bucket_4: 0
Non-critical_IP_ROB_Stalls_Bucket_4: 934423
Critical_IP_ROB_Stalls_Bucket_5: 0
Non-critical_IP_ROB_Stalls_Bucket_5: 1390540
Critical_IP_ROB_Stalls_Bucket_6: 0
Non-critical_IP_ROB_Stalls_Bucket_6: 3933138
0 => IPs accounting for >50 percent of stalls, 1 => 55, 2 => 60, 3 => 65 and so on till 90.
percent50: 54.8444 num IPs:  2
percent55: 68.4859 num IPs: 3
percent60: 68.4859 num IPs: 3
percent65: 68.4859 num IPs: 3
percent70: 77.6996 num IPs: 4
percent75: 77.6996 num IPs: 4
percent80: 81.501 num IPs: 5
percent85: 87.1297 num IPs: 7
percent90: 90.7902 num IPs: 9
Critical_ROB_Stalls_Percent_0_Bucket_0: 203479
Non-critical_ROB_Stalls_Percent_0_Bucket_0: 379714
Critical_ROB_Stalls_Percent_0_Bucket_1: 116424
Non-critical_ROB_Stalls_Percent_0_Bucket_1: 226114
Critical_ROB_Stalls_Percent_0_Bucket_2: 181823
Non-critical_ROB_Stalls_Percent_0_Bucket_2: 351054
Critical_ROB_Stalls_Percent_0_Bucket_3: 265621
Non-critical_ROB_Stalls_Percent_0_Bucket_3: 287758
Critical_ROB_Stalls_Percent_0_Bucket_4: 586582
Non-critical_ROB_Stalls_Percent_0_Bucket_4: 347841
Critical_ROB_Stalls_Percent_0_Bucket_5: 996180
Non-critical_ROB_Stalls_Percent_0_Bucket_5: 394360
Critical_ROB_Stalls_Percent_0_Bucket_6: 2185575
Non-critical_ROB_Stalls_Percent_0_Bucket_6: 1747563
Critical_ROB_Stalls_Percent_1_Bucket_0: 205700
Non-critical_ROB_Stalls_Percent_1_Bucket_0: 377493
Critical_ROB_Stalls_Percent_1_Bucket_1: 118209
Non-critical_ROB_Stalls_Percent_1_Bucket_1: 224329
Critical_ROB_Stalls_Percent_1_Bucket_2: 218425
Non-critical_ROB_Stalls_Percent_1_Bucket_2: 314452
Critical_ROB_Stalls_Percent_1_Bucket_3: 327817
Non-critical_ROB_Stalls_Percent_1_Bucket_3: 225562
Critical_ROB_Stalls_Percent_1_Bucket_4: 702138
Non-critical_ROB_Stalls_Percent_1_Bucket_4: 232285
Critical_ROB_Stalls_Percent_1_Bucket_5: 1293335
Non-critical_ROB_Stalls_Percent_1_Bucket_5: 97205
Critical_ROB_Stalls_Percent_1_Bucket_6: 2798220
Non-critical_ROB_Stalls_Percent_1_Bucket_6: 1134918
Critical_ROB_Stalls_Percent_2_Bucket_0: 205700
Non-critical_ROB_Stalls_Percent_2_Bucket_0: 377493
Critical_ROB_Stalls_Percent_2_Bucket_1: 118209
Non-critical_ROB_Stalls_Percent_2_Bucket_1: 224329
Critical_ROB_Stalls_Percent_2_Bucket_2: 218425
Non-critical_ROB_Stalls_Percent_2_Bucket_2: 314452
Critical_ROB_Stalls_Percent_2_Bucket_3: 327817
Non-critical_ROB_Stalls_Percent_2_Bucket_3: 225562
Critical_ROB_Stalls_Percent_2_Bucket_4: 702138
Non-critical_ROB_Stalls_Percent_2_Bucket_4: 232285
Critical_ROB_Stalls_Percent_2_Bucket_5: 1293335
Non-critical_ROB_Stalls_Percent_2_Bucket_5: 97205
Critical_ROB_Stalls_Percent_2_Bucket_6: 2798220
Non-critical_ROB_Stalls_Percent_2_Bucket_6: 1134918
Critical_ROB_Stalls_Percent_3_Bucket_0: 205700
Non-critical_ROB_Stalls_Percent_3_Bucket_0: 377493
Critical_ROB_Stalls_Percent_3_Bucket_1: 118209
Non-critical_ROB_Stalls_Percent_3_Bucket_1: 224329
Critical_ROB_Stalls_Percent_3_Bucket_2: 218425
Non-critical_ROB_Stalls_Percent_3_Bucket_2: 314452
Critical_ROB_Stalls_Percent_3_Bucket_3: 327817
Non-critical_ROB_Stalls_Percent_3_Bucket_3: 225562
Critical_ROB_Stalls_Percent_3_Bucket_4: 702138
Non-critical_ROB_Stalls_Percent_3_Bucket_4: 232285
Critical_ROB_Stalls_Percent_3_Bucket_5: 1293335
Non-critical_ROB_Stalls_Percent_3_Bucket_5: 97205
Critical_ROB_Stalls_Percent_3_Bucket_6: 2798220
Non-critical_ROB_Stalls_Percent_3_Bucket_6: 1134918
Critical_ROB_Stalls_Percent_4_Bucket_0: 213482
Non-critical_ROB_Stalls_Percent_4_Bucket_0: 369711
Critical_ROB_Stalls_Percent_4_Bucket_1: 137497
Non-critical_ROB_Stalls_Percent_4_Bucket_1: 205041
Critical_ROB_Stalls_Percent_4_Bucket_2: 358896
Non-critical_ROB_Stalls_Percent_4_Bucket_2: 173981
Critical_ROB_Stalls_Percent_4_Bucket_3: 480647
Non-critical_ROB_Stalls_Percent_4_Bucket_3: 72732
Critical_ROB_Stalls_Percent_4_Bucket_4: 822167
Non-critical_ROB_Stalls_Percent_4_Bucket_4: 112256
Critical_ROB_Stalls_Percent_4_Bucket_5: 1304961
Non-critical_ROB_Stalls_Percent_4_Bucket_5: 85579
Critical_ROB_Stalls_Percent_4_Bucket_6: 3108175
Non-critical_ROB_Stalls_Percent_4_Bucket_6: 824963
Critical_ROB_Stalls_Percent_5_Bucket_0: 213482
Non-critical_ROB_Stalls_Percent_5_Bucket_0: 369711
Critical_ROB_Stalls_Percent_5_Bucket_1: 137497
Non-critical_ROB_Stalls_Percent_5_Bucket_1: 205041
Critical_ROB_Stalls_Percent_5_Bucket_2: 358896
Non-critical_ROB_Stalls_Percent_5_Bucket_2: 173981
Critical_ROB_Stalls_Percent_5_Bucket_3: 480647
Non-critical_ROB_Stalls_Percent_5_Bucket_3: 72732
Critical_ROB_Stalls_Percent_5_Bucket_4: 822167
Non-critical_ROB_Stalls_Percent_5_Bucket_4: 112256
Critical_ROB_Stalls_Percent_5_Bucket_5: 1304961
Non-critical_ROB_Stalls_Percent_5_Bucket_5: 85579
Critical_ROB_Stalls_Percent_5_Bucket_6: 3108175
Non-critical_ROB_Stalls_Percent_5_Bucket_6: 824963
Critical_ROB_Stalls_Percent_6_Bucket_0: 240868
Non-critical_ROB_Stalls_Percent_6_Bucket_0: 342325
Critical_ROB_Stalls_Percent_6_Bucket_1: 157359
Non-critical_ROB_Stalls_Percent_6_Bucket_1: 185179
Critical_ROB_Stalls_Percent_6_Bucket_2: 415080
Non-critical_ROB_Stalls_Percent_6_Bucket_2: 117797
Critical_ROB_Stalls_Percent_6_Bucket_3: 493212
Non-critical_ROB_Stalls_Percent_6_Bucket_3: 60167
Critical_ROB_Stalls_Percent_6_Bucket_4: 829817
Non-critical_ROB_Stalls_Percent_6_Bucket_4: 104606
Critical_ROB_Stalls_Percent_6_Bucket_5: 1312927
Non-critical_ROB_Stalls_Percent_6_Bucket_5: 77613
Critical_ROB_Stalls_Percent_6_Bucket_6: 3290943
Non-critical_ROB_Stalls_Percent_6_Bucket_6: 642195
Critical_ROB_Stalls_Percent_7_Bucket_0: 314434
Non-critical_ROB_Stalls_Percent_7_Bucket_0: 268759
Critical_ROB_Stalls_Percent_7_Bucket_1: 226576
Non-critical_ROB_Stalls_Percent_7_Bucket_1: 115962
Critical_ROB_Stalls_Percent_7_Bucket_2: 450057
Non-critical_ROB_Stalls_Percent_7_Bucket_2: 82820
Critical_ROB_Stalls_Percent_7_Bucket_3: 515647
Non-critical_ROB_Stalls_Percent_7_Bucket_3: 37732
Critical_ROB_Stalls_Percent_7_Bucket_4: 850734
Non-critical_ROB_Stalls_Percent_7_Bucket_4: 83689
Critical_ROB_Stalls_Percent_7_Bucket_5: 1336826
Non-critical_ROB_Stalls_Percent_7_Bucket_5: 53714
Critical_ROB_Stalls_Percent_7_Bucket_6: 3511429
Non-critical_ROB_Stalls_Percent_7_Bucket_6: 421709
Critical_ROB_Stalls_Percent_8_Bucket_0: 347821
Non-critical_ROB_Stalls_Percent_8_Bucket_0: 235372
Critical_ROB_Stalls_Percent_8_Bucket_1: 295396
Non-critical_ROB_Stalls_Percent_8_Bucket_1: 47142
Critical_ROB_Stalls_Percent_8_Bucket_2: 470730
Non-critical_ROB_Stalls_Percent_8_Bucket_2: 62147
Critical_ROB_Stalls_Percent_8_Bucket_3: 524591
Non-critical_ROB_Stalls_Percent_8_Bucket_3: 28788
Critical_ROB_Stalls_Percent_8_Bucket_4: 858496
Non-critical_ROB_Stalls_Percent_8_Bucket_4: 75927
Critical_ROB_Stalls_Percent_8_Bucket_5: 1347739
Non-critical_ROB_Stalls_Percent_8_Bucket_5: 42801
Critical_ROB_Stalls_Percent_8_Bucket_6: 3663653
Non-critical_ROB_Stalls_Percent_8_Bucket_6: 269485
Average ROB occupancy Load Stall Begin: 255.059
Average ROB occupancy Load Stall End: 260.608
Min ROB occupancy Load Stall Begin: 1
Max ROB occupancy Load Stall Begin: 352
Min ROB occupancy Load Stall End: 1
Max ROB occupancy Load Stall End: 352
Average ROB occupancy Critical Load Stall Begin: -nan
Average ROB occupancy Critical Load Stall End: -nan
Min ROB occupancy Critical Load Stall Begin: 400
Max ROB occupancy Critical Load Stall Begin: 0
Min ROB occupancy Critical Load Stall End: 400
Max ROB occupancy Critical Load Stall End: 0
 ROB Load Stall Begin Bucket Count 0: 651209
 ROB Load Stall End Bucket Count 0: 583193
 ROB Critical Load Stall Begin Bucket Count 0: 0
 ROB Critical Load Stall End Bucket Count 0: 0
 ROB Load Stall Begin Bucket Count 1: 368958
 ROB Load Stall End Bucket Count 1: 342538
 ROB Critical Load Stall Begin Bucket Count 1: 0
 ROB Critical Load Stall End Bucket Count 1: 0
 ROB Load Stall Begin Bucket Count 2: 518435
 ROB Load Stall End Bucket Count 2: 532877
 ROB Critical Load Stall Begin Bucket Count 2: 0
 ROB Critical Load Stall End Bucket Count 2: 0
 ROB Load Stall Begin Bucket Count 3: 559248
 ROB Load Stall End Bucket Count 3: 553379
 ROB Critical Load Stall Begin Bucket Count 3: 0
 ROB Critical Load Stall End Bucket Count 3: 0
 ROB Load Stall Begin Bucket Count 4: 1044667
 ROB Load Stall End Bucket Count 4: 934423
 ROB Critical Load Stall Begin Bucket Count 4: 0
 ROB Critical Load Stall End Bucket Count 4: 0
 ROB Load Stall Begin Bucket Count 5: 1324171
 ROB Load Stall End Bucket Count 5: 1390540
 ROB Critical Load Stall Begin Bucket Count 5: 0
 ROB Critical Load Stall End Bucket Count 5: 0
 ROB Load Stall Begin Bucket Count 6: 3803400
 ROB Load Stall End Bucket Count 6: 3933138
 ROB Critical Load Stall Begin Bucket Count 6: 0
 ROB Critical Load Stall End Bucket Count 6: 0
PIST Tag Read Accesses: 35194
PIST Read Accesses: 17597
PIST Tag Write Accesses: 35194
PIST Write Accesses: 17597
Criticality detector called times: 47600
Max global_stall_cycles_count: 473893
Threshold Modified: 1 times, factor: -1
Sturdy critical IP cache stats: 
 Unused entries: 0
CIC Tag Read Accesses: 0
CIC Read Accesses: 0
CIC Tag Write Accesses: 0
CIC Write Accesses: 0
Wobbly critical IP cache stats: 
 Unused entries: 95
CIC Tag Read Accesses: 312139524
CIC Read Accesses: 0
CIC Tag Write Accesses: 1749055
CIC Write Accesses: 0
ITLB TOTAL     ACCESS:   16179662  HIT:   16179662  MISS:          0  HIT %:        100  MISS %:          0   MPKI: 0
ITLB LOAD TRANSLATION ACCESS:   16179662  HIT:   16179662  MISS:          0  HIT %:        100  MISS %:          0   MPKI: 0
ITLB PREFETCH  REQUESTED:          0  ISSUED:          0  USEFUL:          0  USELESS:          0
ITLB USEFUL LOAD PREFETCHES:          0 PREFETCH ISSUED TO LOWER LEVEL:          0  ACCURACY: -nan
ITLB TIMELY PREFETCHES:          0 LATE PREFETCHES: 0 DROPPED PREFETCHES: 0
ITLB PREFETCHES SAME FILL-ORIGIN LEVEL: 0 DIFFERENT FILL-ORIGIN LEVEL: 0
ITLB AVERAGE MISS LATENCY: -nan cycles
ITLB RQ	ACCESS:   21292745	FORWARD:          0	MERGED:    5113083	TO_CACHE:   16179662

DTLB TOTAL     ACCESS:   26432812  HIT:   26226869  MISS:     205943  HIT %:    99.2209  MISS %:   0.779119   MPKI: 2.05943
DTLB LOAD TRANSLATION ACCESS:   26432812  HIT:   26226869  MISS:     205943  HIT %:    99.2209  MISS %:   0.779119   MPKI: 2.05943
DTLB PREFETCH  REQUESTED:          0  ISSUED:          0  USEFUL:          0  USELESS:          0
DTLB USEFUL LOAD PREFETCHES:          0 PREFETCH ISSUED TO LOWER LEVEL:          0  ACCURACY: -nan
DTLB TIMELY PREFETCHES:          0 LATE PREFETCHES: 0 DROPPED PREFETCHES: 0
DTLB PREFETCHES SAME FILL-ORIGIN LEVEL: 0 DIFFERENT FILL-ORIGIN LEVEL: 0
DTLB AVERAGE MISS LATENCY: 37.1089 cycles
DTLB RQ	ACCESS:   46733234	FORWARD:          0	MERGED:   20274319	TO_CACHE:   26458915

STLB TOTAL     ACCESS:     205943  HIT:     136213  MISS:      69730  HIT %:    66.1411  MISS %:    33.8589   MPKI: 0.6973
STLB LOAD TRANSLATION ACCESS:     205943  HIT:     136213  MISS:      69730  HIT %:    66.1411  MISS %:    33.8589   MPKI: 0.6973
STLB PREFETCH  REQUESTED:          0  ISSUED:          0  USEFUL:          0  USELESS:          0
STLB USEFUL LOAD PREFETCHES:          0 PREFETCH ISSUED TO LOWER LEVEL:          0  ACCURACY: -nan
STLB TIMELY PREFETCHES:          0 LATE PREFETCHES: 0 DROPPED PREFETCHES: 0
STLB PREFETCHES SAME FILL-ORIGIN LEVEL: 0 DIFFERENT FILL-ORIGIN LEVEL: 0
STLB AVERAGE MISS LATENCY: 82.9056 cycles
STLB RQ	ACCESS:     205943	FORWARD:          0	MERGED:          0	TO_CACHE:     205943

STLB Hit, L1D data hit: 0
STLB Hit, L2C data hit: 0
STLB Hit, LLC data hit: 0
STLB Hit, LLC data miss: 0
STLB STLB hints to L2: 0
L1D TOTAL     ACCESS:   45874585  HIT:   43302354  MISS:    2572231  HIT %:    94.3929  MISS %:    5.60709   MPKI: 25.7223
L1D LOAD      ACCESS:   18003411  HIT:   15663708  MISS:    2339703  HIT %:    87.0041  MISS %:    12.9959   MPKI: 23.397
L1D RFO       ACCESS:   27871174  HIT:   27638646  MISS:     232528  HIT %:    99.1657  MISS %:   0.834296   MPKI: 2.32528
L1D PREFETCH  REQUESTED:          0  ISSUED:          0  USEFUL:          0  USELESS:          0
L1D USEFUL LOAD PREFETCHES:          0 PREFETCH ISSUED TO LOWER LEVEL:          0  ACCURACY: -nan
L1D TIMELY PREFETCHES:          0 LATE PREFETCHES: 0 DROPPED PREFETCHES: 0
L1D PREFETCHES SAME FILL-ORIGIN LEVEL: 0 DIFFERENT FILL-ORIGIN LEVEL: 0
L1D AVERAGE MISS LATENCY: 78.1034 cycles
L1D RQ	ACCESS:   31246881	FORWARD:          0	MERGED:   13129149	TO_CACHE:   18090411
L1D WQ	ACCESS:   28891364	FORWARD:      27321	MERGED:     248541	TO_CACHE:   28642823

L1D UNIQUE REGIONS ACCESSED: 0
L1D REGIONS CONFLICTS: 0
L1D Cross Page Prefetch Requests: 0
L1D Same Page Prefetch Requests: 0
L1D ROI Sum of L1D PQ occupancy: 0
L1D PREFETCHES PUSHED FROM L2C: 0
L1I TOTAL     ACCESS:   21292745  HIT:   21292745  MISS:          0  HIT %:        100  MISS %:          0   MPKI: 0
L1I LOAD      ACCESS:   21292745  HIT:   21292745  MISS:          0  HIT %:        100  MISS %:          0   MPKI: 0
L1I PREFETCH  REQUESTED:          0  ISSUED:          0  USEFUL:          0  USELESS:          0
L1I USEFUL LOAD PREFETCHES:          0 PREFETCH ISSUED TO LOWER LEVEL:          0  ACCURACY: -nan
L1I TIMELY PREFETCHES:          0 LATE PREFETCHES: 0 DROPPED PREFETCHES: 0
L1I PREFETCHES SAME FILL-ORIGIN LEVEL: 0 DIFFERENT FILL-ORIGIN LEVEL: 0
L1I AVERAGE MISS LATENCY: -nan cycles
L1I RQ	ACCESS:   29239430	FORWARD:          0	MERGED:    7946685	TO_CACHE:   21292745

BTB TOTAL     ACCESS:    9650941  HIT:    9650907  MISS:         34  HIT %:    99.9996  MISS %: 0.000352297   MPKI: 0.00034
BTB BRANCH_DIRECT_JUMP	ACCESS:     463202  HIT:     463196  MISS:          6
BTB BRANCH_INDIRECT	ACCESS:          0  HIT:          0  MISS:          0
BTB BRANCH_CONDITIONAL	ACCESS:    9187651  HIT:    9187627  MISS:         24
BTB BRANCH_DIRECT_CALL	ACCESS:         44  HIT:         42  MISS:          2
BTB BRANCH_INDIRECT_CALL	ACCESS:          0  HIT:          0  MISS:          0
BTB BRANCH_RETURN	ACCESS:         44  HIT:         42  MISS:          2
BTB BRANCH_OTHER ACCESS:          0  HIT:          0  MISS:          0

L2C TOTAL     ACCESS:    5947752  HIT:    2511345  MISS:    3436407  HIT %:    42.2234  MISS %:    57.7766   MPKI: 34.3641
L2C LOAD      ACCESS:    2339699  HIT:    1513445  MISS:     826254  HIT %:    64.6855  MISS %:    35.3145   MPKI: 8.26254
L2C DATA LOAD MPKI: 8.26254
L2C INSTRUCTION LOAD MPKI: 0
L2C RFO       ACCESS:     232523  HIT:      23277  MISS:     209246  HIT %:    10.0106  MISS %:    89.9894   MPKI: 2.09246
L2C PREFETCH  ACCESS:    2688457  HIT:     309736  MISS:    2378721  HIT %:     11.521  MISS %:     88.479   MPKI: 23.7872
L2C DATA PREFETCH MPKI: 23.7872
L2C INSTRUCTION PREFETCH MPKI: 0
L2C WRITEBACK ACCESS:     617199  HIT:     605392  MISS:      11807  HIT %:     98.087  MISS %:      1.913   MPKI: 0.11807
L2C LOAD TRANSLATION ACCESS:      69874  HIT:      59495  MISS:      10379  HIT %:    85.1461  MISS %:    14.8539   MPKI: 0.10379
L2C PREFETCH  REQUESTED:    3306291  ISSUED:    3306090  USEFUL:    1490768  USELESS:     888033
L2C USEFUL LOAD PREFETCHES:    1490768 PREFETCH ISSUED TO LOWER LEVEL:    2893456  ACCURACY: 51.5221
L2C TIMELY PREFETCHES:    1490768 LATE PREFETCHES: 494886 DROPPED PREFETCHES: 0
L2C PREFETCHES SAME FILL-ORIGIN LEVEL: 2873607 DIFFERENT FILL-ORIGIN LEVEL: 19849
L2C AVERAGE MISS LATENCY: 172.814 cycles
L2C RQ	ACCESS:    2642105	FORWARD:          0	MERGED:          0	TO_CACHE:    2642096
L2C WQ	ACCESS:     617199	FORWARD:         19	MERGED:          0	TO_CACHE:     617199
L2C PQ	ACCESS:    3306090	FORWARD:          0	MERGED:       2344	TO_CACHE:    3303736

L2C Instructions Evicting Data 0
L2C Translations Evicting Data 10361
L2C Data Evicting Data 3403936
L2C Instructions Evicting Instructions 0
L2C Translations Evicting Instructions 0
L2C Data Evicting Instructions 0
L2C Instructions Evicting Translations 0
L2C Translations Evicting Translations 18
L2C Data Evicting Translations 10285
L2C Dense regions hint from L2: 0
PSCL5 TOTAL     ACCESS:      69730  HIT:      69730  MISS:          0  HIT %:        100  MISS %:          0   MPKI: 0
PSCL5 LOAD TRANSLATION ACCESS:      69730  HIT:      69730  MISS:          0  HIT %:        100  MISS %:          0   MPKI: 0
PSCL5 PREFETCH  REQUESTED:          0  ISSUED:          0  USEFUL:          0  USELESS:          0
PSCL5 USEFUL LOAD PREFETCHES:          0 PREFETCH ISSUED TO LOWER LEVEL:          0  ACCURACY: -nan
PSCL5 TIMELY PREFETCHES:          0 LATE PREFETCHES: 0 DROPPED PREFETCHES: 0
PSCL5 PREFETCHES SAME FILL-ORIGIN LEVEL: 0 DIFFERENT FILL-ORIGIN LEVEL: 0

PSCL4 TOTAL     ACCESS:      69730  HIT:      69730  MISS:          0  HIT %:        100  MISS %:          0   MPKI: 0
PSCL4 LOAD TRANSLATION ACCESS:      69730  HIT:      69730  MISS:          0  HIT %:        100  MISS %:          0   MPKI: 0
PSCL4 PREFETCH  REQUESTED:          0  ISSUED:          0  USEFUL:          0  USELESS:          0
PSCL4 USEFUL LOAD PREFETCHES:          0 PREFETCH ISSUED TO LOWER LEVEL:          0  ACCURACY: -nan
PSCL4 TIMELY PREFETCHES:          0 LATE PREFETCHES: 0 DROPPED PREFETCHES: 0
PSCL4 PREFETCHES SAME FILL-ORIGIN LEVEL: 0 DIFFERENT FILL-ORIGIN LEVEL: 0

PSCL3 TOTAL     ACCESS:      69730  HIT:      69730  MISS:          0  HIT %:        100  MISS %:          0   MPKI: 0
PSCL3 LOAD TRANSLATION ACCESS:      69730  HIT:      69730  MISS:          0  HIT %:        100  MISS %:          0   MPKI: 0
PSCL3 PREFETCH  REQUESTED:          0  ISSUED:          0  USEFUL:          0  USELESS:          0
PSCL3 USEFUL LOAD PREFETCHES:          0 PREFETCH ISSUED TO LOWER LEVEL:          0  ACCURACY: -nan
PSCL3 TIMELY PREFETCHES:          0 LATE PREFETCHES: 0 DROPPED PREFETCHES: 0
PSCL3 PREFETCHES SAME FILL-ORIGIN LEVEL: 0 DIFFERENT FILL-ORIGIN LEVEL: 0

PSCL2 TOTAL     ACCESS:      69730  HIT:      69535  MISS:        195  HIT %:    99.7203  MISS %:    0.27965   MPKI: 0.00195
PSCL2 LOAD TRANSLATION ACCESS:      69730  HIT:      69535  MISS:        195  HIT %:    99.7203  MISS %:    0.27965   MPKI: 0.00195
PSCL2 PREFETCH  REQUESTED:          0  ISSUED:          0  USEFUL:          0  USELESS:          0
PSCL2 USEFUL LOAD PREFETCHES:          0 PREFETCH ISSUED TO LOWER LEVEL:          0  ACCURACY: -nan
PSCL2 TIMELY PREFETCHES:          0 LATE PREFETCHES: 0 DROPPED PREFETCHES: 0
PSCL2 PREFETCHES SAME FILL-ORIGIN LEVEL: 0 DIFFERENT FILL-ORIGIN LEVEL: 0

LLC TOTAL     ACCESS:    4025084  HIT:     262817  MISS:    3762267  HIT %:    6.52948  MISS %:    93.4705   MPKI: 37.6227
LLC LOAD      ACCESS:     333903  HIT:      24558  MISS:     309345  HIT %:    7.35483  MISS %:    92.6452   MPKI: 3.09345
LLC RFO       ACCESS:     206711  HIT:        268  MISS:     206443  HIT %:    0.12965  MISS %:    99.8704   MPKI: 2.06443
LLC PREFETCH  ACCESS:    2892007  HIT:     203545  MISS:    2688462  HIT %:    7.03819  MISS %:    92.9618   MPKI: 26.8846
LLC WRITEBACK ACCESS:     582084  HIT:      33642  MISS:     548442  HIT %:    5.77958  MISS %:    94.2204   MPKI: 5.48442
LLC LOAD TRANSLATION ACCESS:      10379  HIT:        804  MISS:       9575  HIT %:    7.74641  MISS %:    92.2536   MPKI: 0.09575
LLC PREFETCH  REQUESTED:          0  ISSUED:          0  USEFUL:       6425  USELESS:    2676257
LLC USEFUL LOAD PREFETCHES:       6425 PREFETCH ISSUED TO LOWER LEVEL:    2688602  ACCURACY: 0.238972
LLC TIMELY PREFETCHES:       6425 LATE PREFETCHES: 140 DROPPED PREFETCHES: 0
LLC PREFETCHES SAME FILL-ORIGIN LEVEL: 15063 DIFFERENT FILL-ORIGIN LEVEL: 0
LLC AVERAGE MISS LATENCY: 140.801 cycles
LLC RQ	ACCESS:     550993	FORWARD:          0	MERGED:          0	TO_CACHE:     550993
LLC WQ	ACCESS:     582084	FORWARD:          0	MERGED:          0	TO_CACHE:     582084
LLC PQ	ACCESS:    2893456	FORWARD:          0	MERGED:          4	TO_CACHE:    2893452

LLC Dense regions hint to LLC: 0

RAW hits: 638248
Loads Generated: 31885130
Loads sent to L1D: 31246881
Stores Generated: 28891363
Stores sent to L1D: 28891364
Major fault: 0 Minor fault: 38413
Allocated PAGES: 38413
------------------
Depth Distribution
------------------
depth 0: 155376
depth 1: 218322
depth 2: 1156848
depth 3: 743786
depth 4: 470789
depth 5: 437768
depth 6: 134049
depth 7: 63088
depth 8: 16669
depth 9: 825
depth 10: 6
depth 11: 2
depth 12: 0
depth 13: 0
depth 14: 0
depth 15: 0
depth 16: 0
depth 17: 0
depth 18: 0
depth 19: 0
depth 20: 0
depth 21: 0
depth 22: 0
depth 23: 0
depth 24: 0
depth 25: 0
depth 26: 0
depth 27: 0
depth 28: 0
depth 29: 0
Total: 3397528
------------------
ST read accesses: 2272099
ST write accesses: 67600
PT read accesses: 51388031
PT write accesses: 3372386
FILTER read accesses: 16044516
FILTER write accesses: 12207083
GHR read accesses: 4672178
GHR write accesses: 698126
PERC read accesses: 344624652
PERC write accesses: 34694290
GHR counter read accesses: 4679398
GHR counter write accesses: 8231864
GHR ip read accesses: 17110593
GHR ip write accesses: 9358796
ST tag read accesses: 934356050
ST tag write accesses: 25246450

DRAM Statistics
 CHANNEL 0
 RQ ROW_BUFFER_HIT:    1704602  ROW_BUFFER_MISS:    1509222
 DBUS_CONGESTED:       2129
 WQ ROW_BUFFER_HIT:      66949  ROW_BUFFER_MISS:     520553  FULL:          0

 AVG_CONGESTED_CYCLE: 5
 All warmup complete: 2
Channel 0 Bank busy for read cycles: 0
Channel 0 Bank busy for write cycles: 0
Channel 0
Rank 0
0banks busy for read cycles: 64044603
0banks busy for write cycles: 105291
1banks busy for read cycles: 27957009
1banks busy for write cycles: 11305900
2banks busy for read cycles: 18147160
2banks busy for write cycles: 7132224
3banks busy for read cycles: 15175911
3banks busy for write cycles: 4979795
4banks busy for read cycles: 12317722
4banks busy for write cycles: 3546804
5banks busy for read cycles: 9111386
5banks busy for write cycles: 2522063
6banks busy for read cycles: 6923311
6banks busy for write cycles: 1735976
7banks busy for read cycles: 5358992
7banks busy for write cycles: 1492915
8banks busy for read cycles: 3677533
8banks busy for write cycles: 4593053

CPU 0 Branch Prediction Accuracy: 99.1519% MPKI: 0.83374 Average ROB Occupancy at Mispredict: 246.942
Branch types
NOT_BRANCH: 90169474 90.1695%
BRANCH_DIRECT_JUMP: 463202 0.463202%
BRANCH_INDIRECT: 0 0%
BRANCH_CONDITIONAL: 9367126 9.36713%
BRANCH_DIRECT_CALL: 44 4.4e-05%
BRANCH_INDIRECT_CALL: 0 0%
BRANCH_RETURN: 44 4.4e-05%
BRANCH_OTHER: 0 0%

DRAM PAGES: 1048576
Allocated PAGES: 38413
