Initialize SIGNATURE TABLE
ST_SET: 1
ST_WAY: 16
ST_TAG_BIT: 16
ST_TAG_MASK: ffff

Initialize PATTERN TABLE
PT_SET: 16
PT_WAY: 4
SIG_DELTA_BIT: 7
C_SIG_BIT: 4
C_DELTA_BIT: 4

Initialize PREFETCH FILTER
FILTER_SET: 1024

Initialize PERCEPTRON
PERC_ENTRIES: 4096
PERC_FEATURES: 9

*** ChampSim Multicore Out-of-Order Simulator ***

Warmup Instructions: 50000000
Simulation Instructions: 100000000
Number of CPUs: 1
LLC sets: 2048
LLC ways: 16
Off-chip DRAM Size: 4096 MB Channels: 1 Width: 64-bit Data Rate: 6400 MT/s
CPU 0 runs ../SPEC2017//605.mcf_s-1554B.champsimtrace.xz
.xz
BTB has LRU replacement policy
ITLB has LRU replacement policy
DTLB has LRU replacement policy
STLB has LRU replacement policy
L1I has LRU replacement policy
L1D has LRU replacement policy
Initialize SRRIP state for L2C
Initialize DRRIP state for LLC
Heartbeat CPU 0 instructions: 10000001 cycles: 3537608 heartbeat IPC: 2.82677 cumulative IPC: 2.82677 (Simulation time: 0 hr 10 min 6 sec) 
Heartbeat CPU 0 instructions: 20000003 cycles: 7090966 heartbeat IPC: 2.81424 cumulative IPC: 2.82049 (Simulation time: 0 hr 19 min 17 sec) 
Heartbeat CPU 0 instructions: 30000003 cycles: 10653527 heartbeat IPC: 2.80697 cumulative IPC: 2.81597 (Simulation time: 0 hr 27 min 14 sec) 
Heartbeat CPU 0 instructions: 40000000 cycles: 14204142 heartbeat IPC: 2.81641 cumulative IPC: 2.81608 (Simulation time: 0 hr 33 min 48 sec) 
Heartbeat CPU 0 instructions: 50000003 cycles: 17756885 heartbeat IPC: 2.81473 cumulative IPC: 2.81581 (Simulation time: 0 hr 39 min 50 sec) 

Warmup complete CPU 0 instructions: 50000003 cycles: 17756885 (Simulation time: 0 hr 39 min 50 sec) 

Heartbeat CPU 0 instructions: 60000002 cycles: 46900513 heartbeat IPC: 0.343128 cumulative IPC: 0.343128 (Simulation time: 0 hr 50 min 8 sec) 
Heartbeat CPU 0 instructions: 70000000 cycles: 76095046 heartbeat IPC: 0.34253 cumulative IPC: 0.342829 (Simulation time: 0 hr 58 min 28 sec) 
Heartbeat CPU 0 instructions: 80000000 cycles: 105952221 heartbeat IPC: 0.334928 cumulative IPC: 0.340154 (Simulation time: 1 hr 5 min 55 sec) 
Heartbeat CPU 0 instructions: 90000002 cycles: 135198347 heartbeat IPC: 0.341926 cumulative IPC: 0.340595 (Simulation time: 1 hr 21 min 20 sec) 
Heartbeat CPU 0 instructions: 100000000 cycles: 164098099 heartbeat IPC: 0.346024 cumulative IPC: 0.341667 (Simulation time: 1 hr 38 min 12 sec) 
Heartbeat CPU 0 instructions: 110000000 cycles: 193275399 heartbeat IPC: 0.342732 cumulative IPC: 0.341844 (Simulation time: 1 hr 52 min 10 sec) 
Heartbeat CPU 0 instructions: 120000000 cycles: 220684511 heartbeat IPC: 0.364842 cumulative IPC: 0.344951 (Simulation time: 2 hr 3 min 38 sec) 
Heartbeat CPU 0 instructions: 130000000 cycles: 249349452 heartbeat IPC: 0.348858 cumulative IPC: 0.345434 (Simulation time: 2 hr 13 min 57 sec) 
Heartbeat CPU 0 instructions: 140000000 cycles: 278217084 heartbeat IPC: 0.346409 cumulative IPC: 0.345542 (Simulation time: 2 hr 23 min 6 sec) 
Heartbeat CPU 0 instructions: 150000001 cycles: 306613215 heartbeat IPC: 0.352161 cumulative IPC: 0.346193 (Simulation time: 2 hr 31 min 20 sec) 
Finished CPU 0 instructions: 100000002 cycles: 288856331 cumulative IPC: 0.346193 (Simulation time: 2 hr 31 min 20 sec) 

ChampSim completed all CPUs

Region of Interest Statistics

CPU 0 cumulative IPC: 0.346193 instructions: 100000002 cycles: 288856331

CPU 0 Average Load ROB stall cycles: 7.92392e+07
CPU 0 Fraction of times ROB stalled by Loads: 48.7413
CPU 0 Percentage of Load stall cycles in Total stall cycles: 4.46144e+08
Issued all: 180520585
Issued LT all: 174769249
rob_not_full_when_issued_lt_all: 27256447
Issued LT one: 151228245
rob_not_full_when_issued_lt_one: 18998320
 Total stall cycles: 259748102
 Total load stall cycles: 1158849545812879
Unique Load IPs: 75
CPU 0 NUM of IPS identified critical: 16
CPU 0 Num of Load IPs stalling ROB: 0
Threshold modification factor: 0
Trouble in retire width: -nan
MaC = Marked as critical.
lt_50_percent_before_Mac: 13
gt_90_percent_before_Mac: 2
gt_75_percent_before_Mac: 0
gt_50_percent_before_Mac: 1
stall_proportion_bin_same_before_after: 0
stall_proportion_bin_lower_before_after: 0
stall_proportion_bin_upper_before_after: 0
average_stall_proportion_before: 0.0223278
average_stall_proportion_after: 0.0253264
Critical_IP_Detector_Accuracy_70: 0.0625
Critical_IP_Detector_Accuracy_80: 0.0625
Critical_IP_Detector_Accuracy_90: 0.0625
Critical_IP_Detector_Coverage_70: 1
Critical_IP_Detector_Coverage_80: 1
Critical_IP_Detector_Coverage_90: 1
stat_90_percent_critical_ip_stalls_freq: 2285002
stat_90_percent_non_critical_ip_stalls_freq: 18446744073707266614
AVERAGE_ROB_Occupancy_90_Percent_Critical_IP_Stalls: 281.672
AVERAGE_ROB_Occupancy_90_Percent_Non_Critical_IP_Stalls: 6.20697e-11
Critical_IP_ROB_Stalls_Bucket_0: 1058288
Non-critical_IP_ROB_Stalls_Bucket_0: 237466
Critical_IP_ROB_Stalls_Bucket_1: 575464
Non-critical_IP_ROB_Stalls_Bucket_1: 46402
Critical_IP_ROB_Stalls_Bucket_2: 235079
Non-critical_IP_ROB_Stalls_Bucket_2: 19979
Critical_IP_ROB_Stalls_Bucket_3: 142324
Non-critical_IP_ROB_Stalls_Bucket_3: 11314
Critical_IP_ROB_Stalls_Bucket_4: 81532
Non-critical_IP_ROB_Stalls_Bucket_4: 6687
Critical_IP_ROB_Stalls_Bucket_5: 94746
Non-critical_IP_ROB_Stalls_Bucket_5: 7962
Critical_IP_ROB_Stalls_Bucket_6: 4600132
Non-critical_IP_ROB_Stalls_Bucket_6: 10890
0 => IPs accounting for >50 percent of stalls, 1 => 55, 2 => 60, 3 => 65 and so on till 90.
percent50: inf num IPs:  1
percent55: inf num IPs: 1
percent60: inf num IPs: 1
percent65: inf num IPs: 1
percent70: inf num IPs: 1
percent75: inf num IPs: 1
percent80: inf num IPs: 1
percent85: inf num IPs: 1
percent90: inf num IPs: 1
Critical_ROB_Stalls_Percent_0_Bucket_0: 242224
Non-critical_ROB_Stalls_Percent_0_Bucket_0: 1053530
Critical_ROB_Stalls_Percent_0_Bucket_1: 140681
Non-critical_ROB_Stalls_Percent_0_Bucket_1: 481185
Critical_ROB_Stalls_Percent_0_Bucket_2: 88222
Non-critical_ROB_Stalls_Percent_0_Bucket_2: 166836
Critical_ROB_Stalls_Percent_0_Bucket_3: 60754
Non-critical_ROB_Stalls_Percent_0_Bucket_3: 92884
Critical_ROB_Stalls_Percent_0_Bucket_4: 30438
Non-critical_ROB_Stalls_Percent_0_Bucket_4: 57781
Critical_ROB_Stalls_Percent_0_Bucket_5: 25912
Non-critical_ROB_Stalls_Percent_0_Bucket_5: 76796
Critical_ROB_Stalls_Percent_0_Bucket_6: 1696771
Non-critical_ROB_Stalls_Percent_0_Bucket_6: 2914251
Critical_ROB_Stalls_Percent_1_Bucket_0: 242224
Non-critical_ROB_Stalls_Percent_1_Bucket_0: 1053530
Critical_ROB_Stalls_Percent_1_Bucket_1: 140681
Non-critical_ROB_Stalls_Percent_1_Bucket_1: 481185
Critical_ROB_Stalls_Percent_1_Bucket_2: 88222
Non-critical_ROB_Stalls_Percent_1_Bucket_2: 166836
Critical_ROB_Stalls_Percent_1_Bucket_3: 60754
Non-critical_ROB_Stalls_Percent_1_Bucket_3: 92884
Critical_ROB_Stalls_Percent_1_Bucket_4: 30438
Non-critical_ROB_Stalls_Percent_1_Bucket_4: 57781
Critical_ROB_Stalls_Percent_1_Bucket_5: 25912
Non-critical_ROB_Stalls_Percent_1_Bucket_5: 76796
Critical_ROB_Stalls_Percent_1_Bucket_6: 1696771
Non-critical_ROB_Stalls_Percent_1_Bucket_6: 2914251
Critical_ROB_Stalls_Percent_2_Bucket_0: 242224
Non-critical_ROB_Stalls_Percent_2_Bucket_0: 1053530
Critical_ROB_Stalls_Percent_2_Bucket_1: 140681
Non-critical_ROB_Stalls_Percent_2_Bucket_1: 481185
Critical_ROB_Stalls_Percent_2_Bucket_2: 88222
Non-critical_ROB_Stalls_Percent_2_Bucket_2: 166836
Critical_ROB_Stalls_Percent_2_Bucket_3: 60754
Non-critical_ROB_Stalls_Percent_2_Bucket_3: 92884
Critical_ROB_Stalls_Percent_2_Bucket_4: 30438
Non-critical_ROB_Stalls_Percent_2_Bucket_4: 57781
Critical_ROB_Stalls_Percent_2_Bucket_5: 25912
Non-critical_ROB_Stalls_Percent_2_Bucket_5: 76796
Critical_ROB_Stalls_Percent_2_Bucket_6: 1696771
Non-critical_ROB_Stalls_Percent_2_Bucket_6: 2914251
Critical_ROB_Stalls_Percent_3_Bucket_0: 242224
Non-critical_ROB_Stalls_Percent_3_Bucket_0: 1053530
Critical_ROB_Stalls_Percent_3_Bucket_1: 140681
Non-critical_ROB_Stalls_Percent_3_Bucket_1: 481185
Critical_ROB_Stalls_Percent_3_Bucket_2: 88222
Non-critical_ROB_Stalls_Percent_3_Bucket_2: 166836
Critical_ROB_Stalls_Percent_3_Bucket_3: 60754
Non-critical_ROB_Stalls_Percent_3_Bucket_3: 92884
Critical_ROB_Stalls_Percent_3_Bucket_4: 30438
Non-critical_ROB_Stalls_Percent_3_Bucket_4: 57781
Critical_ROB_Stalls_Percent_3_Bucket_5: 25912
Non-critical_ROB_Stalls_Percent_3_Bucket_5: 76796
Critical_ROB_Stalls_Percent_3_Bucket_6: 1696771
Non-critical_ROB_Stalls_Percent_3_Bucket_6: 2914251
Critical_ROB_Stalls_Percent_4_Bucket_0: 242224
Non-critical_ROB_Stalls_Percent_4_Bucket_0: 1053530
Critical_ROB_Stalls_Percent_4_Bucket_1: 140681
Non-critical_ROB_Stalls_Percent_4_Bucket_1: 481185
Critical_ROB_Stalls_Percent_4_Bucket_2: 88222
Non-critical_ROB_Stalls_Percent_4_Bucket_2: 166836
Critical_ROB_Stalls_Percent_4_Bucket_3: 60754
Non-critical_ROB_Stalls_Percent_4_Bucket_3: 92884
Critical_ROB_Stalls_Percent_4_Bucket_4: 30438
Non-critical_ROB_Stalls_Percent_4_Bucket_4: 57781
Critical_ROB_Stalls_Percent_4_Bucket_5: 25912
Non-critical_ROB_Stalls_Percent_4_Bucket_5: 76796
Critical_ROB_Stalls_Percent_4_Bucket_6: 1696771
Non-critical_ROB_Stalls_Percent_4_Bucket_6: 2914251
Critical_ROB_Stalls_Percent_5_Bucket_0: 242224
Non-critical_ROB_Stalls_Percent_5_Bucket_0: 1053530
Critical_ROB_Stalls_Percent_5_Bucket_1: 140681
Non-critical_ROB_Stalls_Percent_5_Bucket_1: 481185
Critical_ROB_Stalls_Percent_5_Bucket_2: 88222
Non-critical_ROB_Stalls_Percent_5_Bucket_2: 166836
Critical_ROB_Stalls_Percent_5_Bucket_3: 60754
Non-critical_ROB_Stalls_Percent_5_Bucket_3: 92884
Critical_ROB_Stalls_Percent_5_Bucket_4: 30438
Non-critical_ROB_Stalls_Percent_5_Bucket_4: 57781
Critical_ROB_Stalls_Percent_5_Bucket_5: 25912
Non-critical_ROB_Stalls_Percent_5_Bucket_5: 76796
Critical_ROB_Stalls_Percent_5_Bucket_6: 1696771
Non-critical_ROB_Stalls_Percent_5_Bucket_6: 2914251
Critical_ROB_Stalls_Percent_6_Bucket_0: 242224
Non-critical_ROB_Stalls_Percent_6_Bucket_0: 1053530
Critical_ROB_Stalls_Percent_6_Bucket_1: 140681
Non-critical_ROB_Stalls_Percent_6_Bucket_1: 481185
Critical_ROB_Stalls_Percent_6_Bucket_2: 88222
Non-critical_ROB_Stalls_Percent_6_Bucket_2: 166836
Critical_ROB_Stalls_Percent_6_Bucket_3: 60754
Non-critical_ROB_Stalls_Percent_6_Bucket_3: 92884
Critical_ROB_Stalls_Percent_6_Bucket_4: 30438
Non-critical_ROB_Stalls_Percent_6_Bucket_4: 57781
Critical_ROB_Stalls_Percent_6_Bucket_5: 25912
Non-critical_ROB_Stalls_Percent_6_Bucket_5: 76796
Critical_ROB_Stalls_Percent_6_Bucket_6: 1696771
Non-critical_ROB_Stalls_Percent_6_Bucket_6: 2914251
Critical_ROB_Stalls_Percent_7_Bucket_0: 242224
Non-critical_ROB_Stalls_Percent_7_Bucket_0: 1053530
Critical_ROB_Stalls_Percent_7_Bucket_1: 140681
Non-critical_ROB_Stalls_Percent_7_Bucket_1: 481185
Critical_ROB_Stalls_Percent_7_Bucket_2: 88222
Non-critical_ROB_Stalls_Percent_7_Bucket_2: 166836
Critical_ROB_Stalls_Percent_7_Bucket_3: 60754
Non-critical_ROB_Stalls_Percent_7_Bucket_3: 92884
Critical_ROB_Stalls_Percent_7_Bucket_4: 30438
Non-critical_ROB_Stalls_Percent_7_Bucket_4: 57781
Critical_ROB_Stalls_Percent_7_Bucket_5: 25912
Non-critical_ROB_Stalls_Percent_7_Bucket_5: 76796
Critical_ROB_Stalls_Percent_7_Bucket_6: 1696771
Non-critical_ROB_Stalls_Percent_7_Bucket_6: 2914251
Critical_ROB_Stalls_Percent_8_Bucket_0: 242224
Non-critical_ROB_Stalls_Percent_8_Bucket_0: 1053530
Critical_ROB_Stalls_Percent_8_Bucket_1: 140681
Non-critical_ROB_Stalls_Percent_8_Bucket_1: 481185
Critical_ROB_Stalls_Percent_8_Bucket_2: 88222
Non-critical_ROB_Stalls_Percent_8_Bucket_2: 166836
Critical_ROB_Stalls_Percent_8_Bucket_3: 60754
Non-critical_ROB_Stalls_Percent_8_Bucket_3: 92884
Critical_ROB_Stalls_Percent_8_Bucket_4: 30438
Non-critical_ROB_Stalls_Percent_8_Bucket_4: 57781
Critical_ROB_Stalls_Percent_8_Bucket_5: 25912
Non-critical_ROB_Stalls_Percent_8_Bucket_5: 76796
Critical_ROB_Stalls_Percent_8_Bucket_6: 1696771
Non-critical_ROB_Stalls_Percent_8_Bucket_6: 2914251
Average ROB occupancy Load Stall Begin: 244.468
Average ROB occupancy Load Stall End: 250.917
Min ROB occupancy Load Stall Begin: 1
Max ROB occupancy Load Stall Begin: 352
Min ROB occupancy Load Stall End: 1
Max ROB occupancy Load Stall End: 352
Average ROB occupancy Critical Load Stall Begin: 257.293
Average ROB occupancy Critical Load Stall End: 262.654
Min ROB occupancy Critical Load Stall Begin: 2
Max ROB occupancy Critical Load Stall Begin: 352
Min ROB occupancy Critical Load Stall End: 2
Max ROB occupancy Critical Load Stall End: 352
 ROB Load Stall Begin Bucket Count 0: 1524771
 ROB Load Stall End Bucket Count 0: 1295754
 ROB Critical Load Stall Begin Bucket Count 0: 1149771
 ROB Critical Load Stall End Bucket Count 0: 1017506
 ROB Load Stall Begin Bucket Count 1: 469735
 ROB Load Stall End Bucket Count 1: 621866
 ROB Critical Load Stall Begin Bucket Count 1: 432844
 ROB Critical Load Stall End Bucket Count 1: 516616
 ROB Load Stall Begin Bucket Count 2: 229115
 ROB Load Stall End Bucket Count 2: 255058
 ROB Critical Load Stall Begin Bucket Count 2: 213717
 ROB Critical Load Stall End Bucket Count 2: 231257
 ROB Load Stall Begin Bucket Count 3: 134072
 ROB Load Stall End Bucket Count 3: 153638
 ROB Critical Load Stall Begin Bucket Count 3: 126938
 ROB Critical Load Stall End Bucket Count 3: 139828
 ROB Load Stall Begin Bucket Count 4: 80374
 ROB Load Stall End Bucket Count 4: 88219
 ROB Critical Load Stall Begin Bucket Count 4: 76588
 ROB Critical Load Stall End Bucket Count 4: 80053
 ROB Load Stall Begin Bucket Count 5: 179025
 ROB Load Stall End Bucket Count 5: 102708
 ROB Critical Load Stall Begin Bucket Count 5: 173518
 ROB Critical Load Stall End Bucket Count 5: 92987
 ROB Load Stall Begin Bucket Count 6: 4511173
 ROB Load Stall End Bucket Count 6: 4611022
 ROB Critical Load Stall Begin Bucket Count 6: 4431375
 ROB Critical Load Stall End Bucket Count 6: 4526506
PIST Tag Read Accesses: 0
PIST Read Accesses: 0
PIST Tag Write Accesses: 0
PIST Write Accesses: 0
Criticality detector called times: 0
Max global_stall_cycles_count: 0
Threshold Modified: 0 times, factor: 0
Sturdy critical IP cache stats: 
 Unused entries: 0
CIC Tag Read Accesses: 0
CIC Read Accesses: 0
CIC Tag Write Accesses: 0
CIC Write Accesses: 0
Wobbly critical IP cache stats: 
 Unused entries: 10
CIC Tag Read Accesses: 469103845
CIC Read Accesses: 0
CIC Tag Write Accesses: 32017754
CIC Write Accesses: 0
ITLB TOTAL     ACCESS:   20811042  HIT:   20811042  MISS:          0  HIT %:        100  MISS %:          0   MPKI: 0
ITLB LOAD TRANSLATION ACCESS:   20811042  HIT:   20811042  MISS:          0  HIT %:        100  MISS %:          0   MPKI: 0
ITLB PREFETCH  REQUESTED:          0  ISSUED:          0  USEFUL:          0  USELESS:          0
ITLB USEFUL LOAD PREFETCHES:          0 PREFETCH ISSUED TO LOWER LEVEL:          0  ACCURACY: -nan
ITLB TIMELY PREFETCHES:          0 LATE PREFETCHES: 0 DROPPED PREFETCHES: 0
ITLB PREFETCHES SAME FILL-ORIGIN LEVEL: 0 DIFFERENT FILL-ORIGIN LEVEL: 0
ITLB AVERAGE MISS LATENCY: -nan cycles
ITLB RQ	ACCESS:   25326153	FORWARD:          0	MERGED:    4515111	TO_CACHE:   20811042

DTLB TOTAL     ACCESS:   31406368  HIT:   31011133  MISS:     395235  HIT %:    98.7415  MISS %:    1.25845   MPKI: 3.95235
DTLB LOAD TRANSLATION ACCESS:   31406368  HIT:   31011133  MISS:     395235  HIT %:    98.7415  MISS %:    1.25845   MPKI: 3.95235
DTLB PREFETCH  REQUESTED:          0  ISSUED:          0  USEFUL:          0  USELESS:          0
DTLB USEFUL LOAD PREFETCHES:          0 PREFETCH ISSUED TO LOWER LEVEL:          0  ACCURACY: -nan
DTLB TIMELY PREFETCHES:          0 LATE PREFETCHES: 0 DROPPED PREFETCHES: 0
DTLB PREFETCHES SAME FILL-ORIGIN LEVEL: 0 DIFFERENT FILL-ORIGIN LEVEL: 0
DTLB AVERAGE MISS LATENCY: 12.7118 cycles
DTLB RQ	ACCESS:   38371080	FORWARD:          0	MERGED:    6957400	TO_CACHE:   31413680

STLB TOTAL     ACCESS:     395235  HIT:     387198  MISS:       8037  HIT %:    97.9665  MISS %:    2.03347   MPKI: 0.08037
STLB LOAD TRANSLATION ACCESS:     395235  HIT:     387198  MISS:       8037  HIT %:    97.9665  MISS %:    2.03347   MPKI: 0.08037
STLB PREFETCH  REQUESTED:          0  ISSUED:          0  USEFUL:          0  USELESS:          0
STLB USEFUL LOAD PREFETCHES:          0 PREFETCH ISSUED TO LOWER LEVEL:          0  ACCURACY: -nan
STLB TIMELY PREFETCHES:          0 LATE PREFETCHES: 0 DROPPED PREFETCHES: 0
STLB PREFETCHES SAME FILL-ORIGIN LEVEL: 0 DIFFERENT FILL-ORIGIN LEVEL: 0
STLB AVERAGE MISS LATENCY: 181.95 cycles
STLB RQ	ACCESS:     395235	FORWARD:          0	MERGED:          0	TO_CACHE:     395235

STLB Hit, L1D data hit: 0
STLB Hit, L2C data hit: 0
STLB Hit, LLC data hit: 0
STLB Hit, LLC data miss: 0
STLB STLB hints to L2: 0
L1D TOTAL     ACCESS:   36780712  HIT:   21372407  MISS:   15408305  HIT %:    58.1076  MISS %:    41.8924   MPKI: 154.083
L1D LOAD      ACCESS:   31822959  HIT:   16687797  MISS:   15135162  HIT %:    52.4395  MISS %:    47.5605   MPKI: 151.352
L1D RFO       ACCESS:    4957753  HIT:    4684610  MISS:     273143  HIT %:    94.4906  MISS %:    5.50941   MPKI: 2.73143
L1D PREFETCH  REQUESTED:          0  ISSUED:          0  USEFUL:          0  USELESS:          0
L1D USEFUL LOAD PREFETCHES:          0 PREFETCH ISSUED TO LOWER LEVEL:          0  ACCURACY: -nan
L1D TIMELY PREFETCHES:          0 LATE PREFETCHES: 0 DROPPED PREFETCHES: 0
L1D PREFETCHES SAME FILL-ORIGIN LEVEL: 0 DIFFERENT FILL-ORIGIN LEVEL: 0
L1D AVERAGE MISS LATENCY: 48.1506 cycles
L1D RQ	ACCESS:   41285172	FORWARD:          0	MERGED:    8568228	TO_CACHE:   32664410
L1D WQ	ACCESS:    7122776	FORWARD:      52534	MERGED:    1416106	TO_CACHE:    5706670

L1D UNIQUE REGIONS ACCESSED: 0
L1D REGIONS CONFLICTS: 0
L1D Cross Page Prefetch Requests: 0
L1D Same Page Prefetch Requests: 0
L1D ROI Sum of L1D PQ occupancy: 0
L1D PREFETCHES PUSHED FROM L2C: 0
L1I TOTAL     ACCESS:   25326151  HIT:   25326151  MISS:          0  HIT %:        100  MISS %:          0   MPKI: 0
L1I LOAD      ACCESS:   25326151  HIT:   25326151  MISS:          0  HIT %:        100  MISS %:          0   MPKI: 0
L1I PREFETCH  REQUESTED:          0  ISSUED:          0  USEFUL:          0  USELESS:          0
L1I USEFUL LOAD PREFETCHES:          0 PREFETCH ISSUED TO LOWER LEVEL:          0  ACCURACY: -nan
L1I TIMELY PREFETCHES:          0 LATE PREFETCHES: 0 DROPPED PREFETCHES: 0
L1I PREFETCHES SAME FILL-ORIGIN LEVEL: 0 DIFFERENT FILL-ORIGIN LEVEL: 0
L1I AVERAGE MISS LATENCY: -nan cycles
L1I RQ	ACCESS:   35068082	FORWARD:          0	MERGED:    9741929	TO_CACHE:   25326153

BTB TOTAL     ACCESS:   17751898  HIT:   17751866  MISS:         32  HIT %:    99.9998  MISS %: 0.000180262   MPKI: 0.00032
BTB BRANCH_DIRECT_JUMP	ACCESS:    4133385  HIT:    4133379  MISS:          6
BTB BRANCH_INDIRECT	ACCESS:          0  HIT:          0  MISS:          0
BTB BRANCH_CONDITIONAL	ACCESS:   13616937  HIT:   13616915  MISS:         22
BTB BRANCH_DIRECT_CALL	ACCESS:        788  HIT:        786  MISS:          2
BTB BRANCH_INDIRECT_CALL	ACCESS:          0  HIT:          0  MISS:          0
BTB BRANCH_RETURN	ACCESS:        788  HIT:        786  MISS:          2
BTB BRANCH_OTHER ACCESS:          0  HIT:          0  MISS:          0

L2C TOTAL     ACCESS:   32880971  HIT:   10049922  MISS:   22831049  HIT %:    30.5646  MISS %:    69.4354   MPKI: 228.31
L2C LOAD      ACCESS:   15135162  HIT:    8721324  MISS:    6413838  HIT %:    57.6229  MISS %:    42.3771   MPKI: 64.1384
L2C DATA LOAD MPKI: 64.1384
L2C INSTRUCTION LOAD MPKI: 0
L2C RFO       ACCESS:     273143  HIT:        363  MISS:     272780  HIT %:   0.132897  MISS %:    99.8671   MPKI: 2.7278
L2C PREFETCH  ACCESS:   17122492  HIT:     987358  MISS:   16135134  HIT %:    5.76644  MISS %:    94.2336   MPKI: 161.351
L2C DATA PREFETCH MPKI: 161.351
L2C INSTRUCTION PREFETCH MPKI: 0
L2C WRITEBACK ACCESS:     342128  HIT:     334998  MISS:       7130  HIT %:     97.916  MISS %:    2.08402   MPKI: 0.0713
L2C LOAD TRANSLATION ACCESS:       8046  HIT:       5879  MISS:       2167  HIT %:    73.0674  MISS %:    26.9326   MPKI: 0.02167
L2C PREFETCH  REQUESTED:   21164847  ISSUED:   21164843  USEFUL:    8720147  USELESS:    7414420
L2C USEFUL LOAD PREFETCHES:    8720147 PREFETCH ISSUED TO LOWER LEVEL:   19619962  ACCURACY: 44.4453
L2C TIMELY PREFETCHES:    8720147 LATE PREFETCHES: 3461839 DROPPED PREFETCHES: 0
L2C PREFETCHES SAME FILL-ORIGIN LEVEL: 19596978 DIFFERENT FILL-ORIGIN LEVEL: 22984
L2C AVERAGE MISS LATENCY: 89.3615 cycles
L2C RQ	ACCESS:   15416354	FORWARD:          0	MERGED:          0	TO_CACHE:   15416354
L2C WQ	ACCESS:     342128	FORWARD:          0	MERGED:          0	TO_CACHE:     342128
L2C PQ	ACCESS:   21164843	FORWARD:          0	MERGED:       7715	TO_CACHE:   21157128

L2C Instructions Evicting Data 0
L2C Translations Evicting Data 2167
L2C Data Evicting Data 22819587
L2C Instructions Evicting Instructions 0
L2C Translations Evicting Instructions 0
L2C Data Evicting Instructions 0
L2C Instructions Evicting Translations 0
L2C Translations Evicting Translations 0
L2C Data Evicting Translations 2165
L2C Dense regions hint from L2: 0
PSCL5 TOTAL     ACCESS:       8037  HIT:       8037  MISS:          0  HIT %:        100  MISS %:          0   MPKI: 0
PSCL5 LOAD TRANSLATION ACCESS:       8037  HIT:       8037  MISS:          0  HIT %:        100  MISS %:          0   MPKI: 0
PSCL5 PREFETCH  REQUESTED:          0  ISSUED:          0  USEFUL:          0  USELESS:          0
PSCL5 USEFUL LOAD PREFETCHES:          0 PREFETCH ISSUED TO LOWER LEVEL:          0  ACCURACY: -nan
PSCL5 TIMELY PREFETCHES:          0 LATE PREFETCHES: 0 DROPPED PREFETCHES: 0
PSCL5 PREFETCHES SAME FILL-ORIGIN LEVEL: 0 DIFFERENT FILL-ORIGIN LEVEL: 0

PSCL4 TOTAL     ACCESS:       8037  HIT:       8037  MISS:          0  HIT %:        100  MISS %:          0   MPKI: 0
PSCL4 LOAD TRANSLATION ACCESS:       8037  HIT:       8037  MISS:          0  HIT %:        100  MISS %:          0   MPKI: 0
PSCL4 PREFETCH  REQUESTED:          0  ISSUED:          0  USEFUL:          0  USELESS:          0
PSCL4 USEFUL LOAD PREFETCHES:          0 PREFETCH ISSUED TO LOWER LEVEL:          0  ACCURACY: -nan
PSCL4 TIMELY PREFETCHES:          0 LATE PREFETCHES: 0 DROPPED PREFETCHES: 0
PSCL4 PREFETCHES SAME FILL-ORIGIN LEVEL: 0 DIFFERENT FILL-ORIGIN LEVEL: 0

PSCL3 TOTAL     ACCESS:       8037  HIT:       8037  MISS:          0  HIT %:        100  MISS %:          0   MPKI: 0
PSCL3 LOAD TRANSLATION ACCESS:       8037  HIT:       8037  MISS:          0  HIT %:        100  MISS %:          0   MPKI: 0
PSCL3 PREFETCH  REQUESTED:          0  ISSUED:          0  USEFUL:          0  USELESS:          0
PSCL3 USEFUL LOAD PREFETCHES:          0 PREFETCH ISSUED TO LOWER LEVEL:          0  ACCURACY: -nan
PSCL3 TIMELY PREFETCHES:          0 LATE PREFETCHES: 0 DROPPED PREFETCHES: 0
PSCL3 PREFETCHES SAME FILL-ORIGIN LEVEL: 0 DIFFERENT FILL-ORIGIN LEVEL: 0

PSCL2 TOTAL     ACCESS:       8037  HIT:       8012  MISS:         25  HIT %:    99.6889  MISS %:   0.311061   MPKI: 0.00025
PSCL2 LOAD TRANSLATION ACCESS:       8037  HIT:       8012  MISS:         25  HIT %:    99.6889  MISS %:   0.311061   MPKI: 0.00025
PSCL2 PREFETCH  REQUESTED:          0  ISSUED:          0  USEFUL:          0  USELESS:          0
PSCL2 USEFUL LOAD PREFETCHES:          0 PREFETCH ISSUED TO LOWER LEVEL:          0  ACCURACY: -nan
PSCL2 TIMELY PREFETCHES:          0 LATE PREFETCHES: 0 DROPPED PREFETCHES: 0
PSCL2 PREFETCHES SAME FILL-ORIGIN LEVEL: 0 DIFFERENT FILL-ORIGIN LEVEL: 0

LLC TOTAL     ACCESS:   23186244  HIT:   11620456  MISS:   11565788  HIT %:    50.1179  MISS %:    49.8821   MPKI: 115.658
LLC LOAD      ACCESS:    2952002  HIT:    1956644  MISS:     995358  HIT %:    66.2819  MISS %:    33.7181   MPKI: 9.95358
LLC RFO       ACCESS:     272780  HIT:       1054  MISS:     271726  HIT %:   0.386392  MISS %:    99.6136   MPKI: 2.71726
LLC PREFETCH  ACCESS:   19617113  HIT:    9637332  MISS:    9979781  HIT %:    49.1272  MISS %:    50.8728   MPKI: 99.7978
LLC WRITEBACK ACCESS:     342182  HIT:      25363  MISS:     316819  HIT %:    7.41214  MISS %:    92.5879   MPKI: 3.16819
LLC LOAD TRANSLATION ACCESS:       2167  HIT:         63  MISS:       2104  HIT %:    2.90725  MISS %:    97.0928   MPKI: 0.02104
LLC PREFETCH  REQUESTED:          0  ISSUED:          0  USEFUL:      13422  USELESS:    9962484
LLC USEFUL LOAD PREFETCHES:      13422 PREFETCH ISSUED TO LOWER LEVEL:    9979916  ACCURACY: 0.13449
LLC TIMELY PREFETCHES:      13422 LATE PREFETCHES: 128 DROPPED PREFETCHES: 0
LLC PREFETCHES SAME FILL-ORIGIN LEVEL: 18852 DIFFERENT FILL-ORIGIN LEVEL: 0
LLC AVERAGE MISS LATENCY: 127.351 cycles
LLC RQ	ACCESS:    3226949	FORWARD:          0	MERGED:          0	TO_CACHE:    3226949
LLC WQ	ACCESS:     342182	FORWARD:          0	MERGED:          0	TO_CACHE:     342182
LLC PQ	ACCESS:   19619962	FORWARD:          0	MERGED:        549	TO_CACHE:   19619413

LLC Dense regions hint to LLC: 0

RAW hits: 4136184
Loads Generated: 45421353
Loads sent to L1D: 41285172
Stores Generated: 7122777
Stores sent to L1D: 7122776
Major fault: 0 Minor fault: 13274
Allocated PAGES: 13274
------------------
Depth Distribution
------------------
depth 0: 686177
depth 1: 7612263
depth 2: 9235286
depth 3: 2161908
depth 4: 635925
depth 5: 327
depth 6: 0
depth 7: 0
depth 8: 0
depth 9: 0
depth 10: 0
depth 11: 0
depth 12: 0
depth 13: 0
depth 14: 0
depth 15: 0
depth 16: 0
depth 17: 0
depth 18: 0
depth 19: 0
depth 20: 0
depth 21: 0
depth 22: 0
depth 23: 0
depth 24: 0
depth 25: 0
depth 26: 0
depth 27: 0
depth 28: 0
depth 29: 0
Total: 20331886
------------------
ST read accesses: 14503005
ST write accesses: 382408
PT read accesses: 278945122
PT write accesses: 21691825
FILTER read accesses: 87755919
FILTER write accesses: 79004083
GHR read accesses: 19829455
GHR write accesses: 2881248
PERC read accesses: 1673856405
PERC write accesses: 228810417
GHR counter read accesses: 29770826
GHR counter write accesses: 52816930
GHR ip read accesses: 108190065
GHR ip write accesses: 59541652
ST tag read accesses: 376900266
ST tag write accesses: 36668204

DRAM Statistics
 CHANNEL 0
 RQ ROW_BUFFER_HIT:    8128904  ROW_BUFFER_MISS:    3120045
 DBUS_CONGESTED:      23295
 WQ ROW_BUFFER_HIT:     125901  ROW_BUFFER_MISS:     215493  FULL:          0

 AVG_CONGESTED_CYCLE: 4
 All warmup complete: 2
Channel 0 Bank busy for read cycles: 0
Channel 0 Bank busy for write cycles: 0
Channel 0
Rank 0
0banks busy for read cycles: 10934591
0banks busy for write cycles: 9610
1banks busy for read cycles: 43316094
1banks busy for write cycles: 4629046
2banks busy for read cycles: 46811941
2banks busy for write cycles: 2870500
3banks busy for read cycles: 45169526
3banks busy for write cycles: 1987686
4banks busy for read cycles: 40228624
4banks busy for write cycles: 1650046
5banks busy for read cycles: 32197319
5banks busy for write cycles: 1457062
6banks busy for read cycles: 22576519
6banks busy for write cycles: 1531686
7banks busy for read cycles: 13650519
7banks busy for write cycles: 2547342
8banks busy for read cycles: 6230347
8banks busy for write cycles: 11057874

CPU 0 Branch Prediction Accuracy: 98.5222% MPKI: 2.69335 Average ROB Occupancy at Mispredict: 72.9497
Branch types
NOT_BRANCH: 81775192 81.7752%
BRANCH_DIRECT_JUMP: 4133385 4.13338%
BRANCH_INDIRECT: 0 0%
BRANCH_CONDITIONAL: 14089840 14.0898%
BRANCH_DIRECT_CALL: 788 0.000788%
BRANCH_INDIRECT_CALL: 0 0%
BRANCH_RETURN: 788 0.000788%
BRANCH_OTHER: 0 0%

DRAM PAGES: 1048576
Allocated PAGES: 13274
