
*** ChampSim Multicore Out-of-Order Simulator ***

Warmup Instructions: 50000000
Simulation Instructions: 100000000
Number of CPUs: 1
LLC sets: 2048
LLC ways: 16
Off-chip DRAM Size: 4096 MB Channels: 1 Width: 64-bit Data Rate: 6400 MT/s
CPU 0 runs ../SPEC2017//605.mcf_s-484B.champsimtrace.xz
.xz
BTB has LRU replacement policy
ITLB has LRU replacement policy
DTLB has LRU replacement policy
STLB has LRU replacement policy
L1I has LRU replacement policy
IP Table Entries: 64
L1D has LRU replacement policy
Initialize SRRIP state for L2C
Initialize DRRIP state for LLC
Heartbeat CPU 0 instructions: 10000001 cycles: 3223199 heartbeat IPC: 3.10251 cumulative IPC: 3.10251 (Simulation time: 0 hr 6 min 30 sec) 
Heartbeat CPU 0 instructions: 20000000 cycles: 6483259 heartbeat IPC: 3.06743 cumulative IPC: 3.08487 (Simulation time: 0 hr 12 min 30 sec) 
Heartbeat CPU 0 instructions: 30000001 cycles: 9690741 heartbeat IPC: 3.11771 cumulative IPC: 3.09574 (Simulation time: 0 hr 18 min 16 sec) 
Heartbeat CPU 0 instructions: 40000000 cycles: 12902674 heartbeat IPC: 3.11339 cumulative IPC: 3.10013 (Simulation time: 0 hr 23 min 43 sec) 
Heartbeat CPU 0 instructions: 50000000 cycles: 16137515 heartbeat IPC: 3.09134 cumulative IPC: 3.09837 (Simulation time: 0 hr 28 min 59 sec) 

Warmup complete CPU 0 instructions: 50000004 cycles: 16137516 (Simulation time: 0 hr 28 min 59 sec) 

Heartbeat CPU 0 instructions: 60000003 cycles: 40398199 heartbeat IPC: 0.41219 cumulative IPC: 0.41219 (Simulation time: 0 hr 36 min 43 sec) 
Heartbeat CPU 0 instructions: 70000002 cycles: 69659955 heartbeat IPC: 0.341743 cumulative IPC: 0.373675 (Simulation time: 0 hr 44 min 39 sec) 
Heartbeat CPU 0 instructions: 80000000 cycles: 99221055 heartbeat IPC: 0.338282 cumulative IPC: 0.361082 (Simulation time: 0 hr 51 min 31 sec) 
Heartbeat CPU 0 instructions: 90000000 cycles: 125877573 heartbeat IPC: 0.375143 cumulative IPC: 0.364498 (Simulation time: 0 hr 57 min 42 sec) 
Heartbeat CPU 0 instructions: 100000000 cycles: 149723895 heartbeat IPC: 0.419352 cumulative IPC: 0.37429 (Simulation time: 1 hr 2 min 56 sec) 
Heartbeat CPU 0 instructions: 110000000 cycles: 173953056 heartbeat IPC: 0.412726 cumulative IPC: 0.380191 (Simulation time: 1 hr 14 min 12 sec) 
Heartbeat CPU 0 instructions: 120000001 cycles: 195264425 heartbeat IPC: 0.469233 cumulative IPC: 0.390784 (Simulation time: 1 hr 23 min 44 sec) 
Heartbeat CPU 0 instructions: 130000000 cycles: 217280230 heartbeat IPC: 0.454219 cumulative IPC: 0.397728 (Simulation time: 1 hr 32 min 41 sec) 
Heartbeat CPU 0 instructions: 140000001 cycles: 241066358 heartbeat IPC: 0.420413 cumulative IPC: 0.400127 (Simulation time: 1 hr 41 min 10 sec) 
Heartbeat CPU 0 instructions: 150000002 cycles: 263031674 heartbeat IPC: 0.455263 cumulative IPC: 0.405032 (Simulation time: 1 hr 48 min 20 sec) 
Finished CPU 0 instructions: 100000000 cycles: 246894159 cumulative IPC: 0.405032 (Simulation time: 1 hr 48 min 20 sec) 

ChampSim completed all CPUs

Region of Interest Statistics

CPU 0 cumulative IPC: 0.405032 instructions: 100000000 cycles: 246894159

CPU 0 Average Load ROB stall cycles: 4.75192e+07
CPU 0 Fraction of times ROB stalled by Loads: 32.6274
CPU 0 Percentage of Load stall cycles in Total stall cycles: 5.26144e+08
Issued all: 152962239
Issued LT all: 146499368
rob_not_full_when_issued_lt_all: 23145368
Issued LT one: 121983100
rob_not_full_when_issued_lt_one: 18799569
FVP critical_dynamic_instances_0: 27893695
FVP unique_critical_ips_0: 47
 Total stall cycles: 223673942
 Total load stall cycles: 1176846844616231
Unique Load IPs: 96
CPU 0 NUM of IPS identified critical: 0
CPU 0 Num of Load IPs stalling ROB: 0
Threshold modification factor: 0
Trouble in retire width: -nan
MaC = Marked as critical.
lt_50_percent_before_Mac: 0
gt_90_percent_before_Mac: 0
gt_75_percent_before_Mac: 0
gt_50_percent_before_Mac: 0
stall_proportion_bin_same_before_after: 0
stall_proportion_bin_lower_before_after: 0
stall_proportion_bin_upper_before_after: 0
average_stall_proportion_before: -nan
average_stall_proportion_after: -nan
Critical IP stalls, total frequency: 0
Non-critical IP stalls, total frequency: 0
Total Freq all stalling IPs: 0
Critical_IP_Detector_Accuracy_70: 0.0212766
Critical_IP_Detector_Accuracy_80: 0.0212766
Critical_IP_Detector_Accuracy_90: 0.0212766
Critical_IP_Detector_Coverage_70: 1
Critical_IP_Detector_Coverage_80: 1
Critical_IP_Detector_Coverage_90: 1
stat_90_percent_critical_ip_stalls_freq: 2246433
stat_90_percent_non_critical_ip_stalls_freq: 18446744073707305183
AVERAGE_ROB_Occupancy_90_Percent_Critical_IP_Stalls: 297.64
AVERAGE_ROB_Occupancy_90_Percent_Non_Critical_IP_Stalls: 9.06267e-11
Critical_IP_ROB_Stalls_Bucket_0: 0
Non-critical_IP_ROB_Stalls_Bucket_0: 601552
Critical_IP_ROB_Stalls_Bucket_1: 0
Non-critical_IP_ROB_Stalls_Bucket_1: 221291
Critical_IP_ROB_Stalls_Bucket_2: 0
Non-critical_IP_ROB_Stalls_Bucket_2: 299548
Critical_IP_ROB_Stalls_Bucket_3: 0
Non-critical_IP_ROB_Stalls_Bucket_3: 396364
Critical_IP_ROB_Stalls_Bucket_4: 0
Non-critical_IP_ROB_Stalls_Bucket_4: 313932
Critical_IP_ROB_Stalls_Bucket_5: 0
Non-critical_IP_ROB_Stalls_Bucket_5: 589237
Critical_IP_ROB_Stalls_Bucket_6: 0
Non-critical_IP_ROB_Stalls_Bucket_6: 5658494
0 => IPs accounting for >50 percent of stalls, 1 => 55, 2 => 60, 3 => 65 and so on till 90.
percent50: inf num IPs:  1
percent55: inf num IPs: 1
percent60: inf num IPs: 1
percent65: inf num IPs: 1
percent70: inf num IPs: 1
percent75: inf num IPs: 1
percent80: inf num IPs: 1
percent85: inf num IPs: 1
percent90: inf num IPs: 1
Critical_ROB_Stalls_Percent_0_Bucket_0: 101699
Non-critical_ROB_Stalls_Percent_0_Bucket_0: 499853
Critical_ROB_Stalls_Percent_0_Bucket_1: 58117
Non-critical_ROB_Stalls_Percent_0_Bucket_1: 163174
Critical_ROB_Stalls_Percent_0_Bucket_2: 107844
Non-critical_ROB_Stalls_Percent_0_Bucket_2: 191704
Critical_ROB_Stalls_Percent_0_Bucket_3: 102249
Non-critical_ROB_Stalls_Percent_0_Bucket_3: 294115
Critical_ROB_Stalls_Percent_0_Bucket_4: 94389
Non-critical_ROB_Stalls_Percent_0_Bucket_4: 219543
Critical_ROB_Stalls_Percent_0_Bucket_5: 179649
Non-critical_ROB_Stalls_Percent_0_Bucket_5: 409588
Critical_ROB_Stalls_Percent_0_Bucket_6: 1602486
Non-critical_ROB_Stalls_Percent_0_Bucket_6: 4056008
Critical_ROB_Stalls_Percent_1_Bucket_0: 101699
Non-critical_ROB_Stalls_Percent_1_Bucket_0: 499853
Critical_ROB_Stalls_Percent_1_Bucket_1: 58117
Non-critical_ROB_Stalls_Percent_1_Bucket_1: 163174
Critical_ROB_Stalls_Percent_1_Bucket_2: 107844
Non-critical_ROB_Stalls_Percent_1_Bucket_2: 191704
Critical_ROB_Stalls_Percent_1_Bucket_3: 102249
Non-critical_ROB_Stalls_Percent_1_Bucket_3: 294115
Critical_ROB_Stalls_Percent_1_Bucket_4: 94389
Non-critical_ROB_Stalls_Percent_1_Bucket_4: 219543
Critical_ROB_Stalls_Percent_1_Bucket_5: 179649
Non-critical_ROB_Stalls_Percent_1_Bucket_5: 409588
Critical_ROB_Stalls_Percent_1_Bucket_6: 1602486
Non-critical_ROB_Stalls_Percent_1_Bucket_6: 4056008
Critical_ROB_Stalls_Percent_2_Bucket_0: 101699
Non-critical_ROB_Stalls_Percent_2_Bucket_0: 499853
Critical_ROB_Stalls_Percent_2_Bucket_1: 58117
Non-critical_ROB_Stalls_Percent_2_Bucket_1: 163174
Critical_ROB_Stalls_Percent_2_Bucket_2: 107844
Non-critical_ROB_Stalls_Percent_2_Bucket_2: 191704
Critical_ROB_Stalls_Percent_2_Bucket_3: 102249
Non-critical_ROB_Stalls_Percent_2_Bucket_3: 294115
Critical_ROB_Stalls_Percent_2_Bucket_4: 94389
Non-critical_ROB_Stalls_Percent_2_Bucket_4: 219543
Critical_ROB_Stalls_Percent_2_Bucket_5: 179649
Non-critical_ROB_Stalls_Percent_2_Bucket_5: 409588
Critical_ROB_Stalls_Percent_2_Bucket_6: 1602486
Non-critical_ROB_Stalls_Percent_2_Bucket_6: 4056008
Critical_ROB_Stalls_Percent_3_Bucket_0: 101699
Non-critical_ROB_Stalls_Percent_3_Bucket_0: 499853
Critical_ROB_Stalls_Percent_3_Bucket_1: 58117
Non-critical_ROB_Stalls_Percent_3_Bucket_1: 163174
Critical_ROB_Stalls_Percent_3_Bucket_2: 107844
Non-critical_ROB_Stalls_Percent_3_Bucket_2: 191704
Critical_ROB_Stalls_Percent_3_Bucket_3: 102249
Non-critical_ROB_Stalls_Percent_3_Bucket_3: 294115
Critical_ROB_Stalls_Percent_3_Bucket_4: 94389
Non-critical_ROB_Stalls_Percent_3_Bucket_4: 219543
Critical_ROB_Stalls_Percent_3_Bucket_5: 179649
Non-critical_ROB_Stalls_Percent_3_Bucket_5: 409588
Critical_ROB_Stalls_Percent_3_Bucket_6: 1602486
Non-critical_ROB_Stalls_Percent_3_Bucket_6: 4056008
Critical_ROB_Stalls_Percent_4_Bucket_0: 101699
Non-critical_ROB_Stalls_Percent_4_Bucket_0: 499853
Critical_ROB_Stalls_Percent_4_Bucket_1: 58117
Non-critical_ROB_Stalls_Percent_4_Bucket_1: 163174
Critical_ROB_Stalls_Percent_4_Bucket_2: 107844
Non-critical_ROB_Stalls_Percent_4_Bucket_2: 191704
Critical_ROB_Stalls_Percent_4_Bucket_3: 102249
Non-critical_ROB_Stalls_Percent_4_Bucket_3: 294115
Critical_ROB_Stalls_Percent_4_Bucket_4: 94389
Non-critical_ROB_Stalls_Percent_4_Bucket_4: 219543
Critical_ROB_Stalls_Percent_4_Bucket_5: 179649
Non-critical_ROB_Stalls_Percent_4_Bucket_5: 409588
Critical_ROB_Stalls_Percent_4_Bucket_6: 1602486
Non-critical_ROB_Stalls_Percent_4_Bucket_6: 4056008
Critical_ROB_Stalls_Percent_5_Bucket_0: 101699
Non-critical_ROB_Stalls_Percent_5_Bucket_0: 499853
Critical_ROB_Stalls_Percent_5_Bucket_1: 58117
Non-critical_ROB_Stalls_Percent_5_Bucket_1: 163174
Critical_ROB_Stalls_Percent_5_Bucket_2: 107844
Non-critical_ROB_Stalls_Percent_5_Bucket_2: 191704
Critical_ROB_Stalls_Percent_5_Bucket_3: 102249
Non-critical_ROB_Stalls_Percent_5_Bucket_3: 294115
Critical_ROB_Stalls_Percent_5_Bucket_4: 94389
Non-critical_ROB_Stalls_Percent_5_Bucket_4: 219543
Critical_ROB_Stalls_Percent_5_Bucket_5: 179649
Non-critical_ROB_Stalls_Percent_5_Bucket_5: 409588
Critical_ROB_Stalls_Percent_5_Bucket_6: 1602486
Non-critical_ROB_Stalls_Percent_5_Bucket_6: 4056008
Critical_ROB_Stalls_Percent_6_Bucket_0: 101699
Non-critical_ROB_Stalls_Percent_6_Bucket_0: 499853
Critical_ROB_Stalls_Percent_6_Bucket_1: 58117
Non-critical_ROB_Stalls_Percent_6_Bucket_1: 163174
Critical_ROB_Stalls_Percent_6_Bucket_2: 107844
Non-critical_ROB_Stalls_Percent_6_Bucket_2: 191704
Critical_ROB_Stalls_Percent_6_Bucket_3: 102249
Non-critical_ROB_Stalls_Percent_6_Bucket_3: 294115
Critical_ROB_Stalls_Percent_6_Bucket_4: 94389
Non-critical_ROB_Stalls_Percent_6_Bucket_4: 219543
Critical_ROB_Stalls_Percent_6_Bucket_5: 179649
Non-critical_ROB_Stalls_Percent_6_Bucket_5: 409588
Critical_ROB_Stalls_Percent_6_Bucket_6: 1602486
Non-critical_ROB_Stalls_Percent_6_Bucket_6: 4056008
Critical_ROB_Stalls_Percent_7_Bucket_0: 101699
Non-critical_ROB_Stalls_Percent_7_Bucket_0: 499853
Critical_ROB_Stalls_Percent_7_Bucket_1: 58117
Non-critical_ROB_Stalls_Percent_7_Bucket_1: 163174
Critical_ROB_Stalls_Percent_7_Bucket_2: 107844
Non-critical_ROB_Stalls_Percent_7_Bucket_2: 191704
Critical_ROB_Stalls_Percent_7_Bucket_3: 102249
Non-critical_ROB_Stalls_Percent_7_Bucket_3: 294115
Critical_ROB_Stalls_Percent_7_Bucket_4: 94389
Non-critical_ROB_Stalls_Percent_7_Bucket_4: 219543
Critical_ROB_Stalls_Percent_7_Bucket_5: 179649
Non-critical_ROB_Stalls_Percent_7_Bucket_5: 409588
Critical_ROB_Stalls_Percent_7_Bucket_6: 1602486
Non-critical_ROB_Stalls_Percent_7_Bucket_6: 4056008
Critical_ROB_Stalls_Percent_8_Bucket_0: 101699
Non-critical_ROB_Stalls_Percent_8_Bucket_0: 499853
Critical_ROB_Stalls_Percent_8_Bucket_1: 58117
Non-critical_ROB_Stalls_Percent_8_Bucket_1: 163174
Critical_ROB_Stalls_Percent_8_Bucket_2: 107844
Non-critical_ROB_Stalls_Percent_8_Bucket_2: 191704
Critical_ROB_Stalls_Percent_8_Bucket_3: 102249
Non-critical_ROB_Stalls_Percent_8_Bucket_3: 294115
Critical_ROB_Stalls_Percent_8_Bucket_4: 94389
Non-critical_ROB_Stalls_Percent_8_Bucket_4: 219543
Critical_ROB_Stalls_Percent_8_Bucket_5: 179649
Non-critical_ROB_Stalls_Percent_8_Bucket_5: 409588
Critical_ROB_Stalls_Percent_8_Bucket_6: 1602486
Non-critical_ROB_Stalls_Percent_8_Bucket_6: 4056008
Average ROB occupancy Load Stall Begin: 284.774
Average ROB occupancy Load Stall End: 289.638
Min ROB occupancy Load Stall Begin: 1
Max ROB occupancy Load Stall Begin: 352
Min ROB occupancy Load Stall End: 1
Max ROB occupancy Load Stall End: 352
Average ROB occupancy Critical Load Stall Begin: -nan
Average ROB occupancy Critical Load Stall End: -nan
Min ROB occupancy Critical Load Stall Begin: 400
Max ROB occupancy Critical Load Stall Begin: 0
Min ROB occupancy Critical Load Stall End: 400
Max ROB occupancy Critical Load Stall End: 0
 ROB Load Stall Begin Bucket Count 0: 671072
 ROB Load Stall End Bucket Count 0: 601552
 ROB Critical Load Stall Begin Bucket Count 0: 0
 ROB Critical Load Stall End Bucket Count 0: 0
 ROB Load Stall Begin Bucket Count 1: 218719
 ROB Load Stall End Bucket Count 1: 221291
 ROB Critical Load Stall Begin Bucket Count 1: 0
 ROB Critical Load Stall End Bucket Count 1: 0
 ROB Load Stall Begin Bucket Count 2: 316802
 ROB Load Stall End Bucket Count 2: 299548
 ROB Critical Load Stall Begin Bucket Count 2: 0
 ROB Critical Load Stall End Bucket Count 2: 0
 ROB Load Stall Begin Bucket Count 3: 394009
 ROB Load Stall End Bucket Count 3: 396364
 ROB Critical Load Stall Begin Bucket Count 3: 0
 ROB Critical Load Stall End Bucket Count 3: 0
 ROB Load Stall Begin Bucket Count 4: 299365
 ROB Load Stall End Bucket Count 4: 313932
 ROB Critical Load Stall Begin Bucket Count 4: 0
 ROB Critical Load Stall End Bucket Count 4: 0
 ROB Load Stall Begin Bucket Count 5: 637578
 ROB Load Stall End Bucket Count 5: 589237
 ROB Critical Load Stall Begin Bucket Count 5: 0
 ROB Critical Load Stall End Bucket Count 5: 0
 ROB Load Stall Begin Bucket Count 6: 5542873
 ROB Load Stall End Bucket Count 6: 5658494
 ROB Critical Load Stall Begin Bucket Count 6: 0
 ROB Critical Load Stall End Bucket Count 6: 0
PIST Tag Read Accesses: 0
PIST Read Accesses: 0
PIST Tag Write Accesses: 0
PIST Write Accesses: 0
Criticality detector called times: 0
Max global_stall_cycles_count: 0
Threshold Modified: 0 times, factor: 0
ITLB TOTAL     ACCESS:   16906688  HIT:   16906688  MISS:          0  HIT %:        100  MISS %:          0   MPKI: 0
ITLB LOAD TRANSLATION ACCESS:   16906688  HIT:   16906688  MISS:          0  HIT %:        100  MISS %:          0   MPKI: 0
ITLB PREFETCH  REQUESTED:          0  ISSUED:          0  USEFUL:          0  USELESS:          0
ITLB USEFUL LOAD PREFETCHES:          0 PREFETCH ISSUED TO LOWER LEVEL:          0  ACCURACY: -nan
ITLB TIMELY PREFETCHES:          0 LATE PREFETCHES: 0 DROPPED PREFETCHES: 0
ITLB PREFETCHES SAME FILL-ORIGIN LEVEL: 0 DIFFERENT FILL-ORIGIN LEVEL: 0
ITLB AVERAGE MISS LATENCY: -nan cycles
ITLB RQ	ACCESS:   21675942	FORWARD:          0	MERGED:    4769255	TO_CACHE:   16906687

DTLB TOTAL     ACCESS:   26372972  HIT:   26166502  MISS:     206470  HIT %:    99.2171  MISS %:   0.782885   MPKI: 2.0647
DTLB LOAD TRANSLATION ACCESS:   26372972  HIT:   26166502  MISS:     206470  HIT %:    99.2171  MISS %:   0.782885   MPKI: 2.0647
DTLB PREFETCH  REQUESTED:          0  ISSUED:          0  USEFUL:          0  USELESS:          0
DTLB USEFUL LOAD PREFETCHES:          0 PREFETCH ISSUED TO LOWER LEVEL:          0  ACCURACY: -nan
DTLB TIMELY PREFETCHES:          0 LATE PREFETCHES: 0 DROPPED PREFETCHES: 0
DTLB PREFETCHES SAME FILL-ORIGIN LEVEL: 0 DIFFERENT FILL-ORIGIN LEVEL: 0
DTLB AVERAGE MISS LATENCY: 36.7786 cycles
DTLB RQ	ACCESS:   46629607	FORWARD:          0	MERGED:   20226884	TO_CACHE:   26402723

STLB TOTAL     ACCESS:    7777887  HIT:    7708287  MISS:      69600  HIT %:    99.1052  MISS %:   0.894845   MPKI: 0.696
STLB LOAD TRANSLATION ACCESS:     206470  HIT:     136889  MISS:      69581  HIT %:    66.2997  MISS %:    33.7003   MPKI: 0.69581
STLB TRANSLATION FROM L1D PREFETCHER ACCESS:    7571417  HIT:    7571398  MISS:         19  HIT %:    99.9997  MISS %: 0.000250944   MPKI: 0.00019
STLB PREFETCH  REQUESTED:          0  ISSUED:          0  USEFUL:         13  USELESS:          6
STLB USEFUL LOAD PREFETCHES:         13 PREFETCH ISSUED TO LOWER LEVEL:          0  ACCURACY: inf
STLB TIMELY PREFETCHES:         13 LATE PREFETCHES: 0 DROPPED PREFETCHES: 0
STLB PREFETCHES SAME FILL-ORIGIN LEVEL: 0 DIFFERENT FILL-ORIGIN LEVEL: 0
STLB AVERAGE MISS LATENCY: 82.3023 cycles
STLB RQ	ACCESS:   12220699	FORWARD:          0	MERGED:    4442810	TO_CACHE:    7777889

STLB Hit, L1D data hit: 0
STLB Hit, L2C data hit: 0
STLB Hit, LLC data hit: 0
STLB Hit, LLC data miss: 0
STLB STLB hints to L2: 0
L1D TOTAL     ACCESS:   57204741  HIT:   53247319  MISS:    3957422  HIT %:     93.082  MISS %:      6.918   MPKI: 39.5742
L1D LOAD      ACCESS:   17973360  HIT:   16270374  MISS:    1702986  HIT %:    90.5249  MISS %:    9.47506   MPKI: 17.0299
L1D RFO       ACCESS:   27751045  HIT:   27531190  MISS:     219855  HIT %:    99.2078  MISS %:    0.79224   MPKI: 2.19855
L1D PREFETCH  ACCESS:   11480336  HIT:    9445755  MISS:    2034581  HIT %:    82.2777  MISS %:    17.7223   MPKI: 20.3458
L1D PREFETCH  REQUESTED:   24028592  ISSUED:   24028467  USEFUL:     679629  USELESS:    1354679
L1D USEFUL LOAD PREFETCHES:     679629 PREFETCH ISSUED TO LOWER LEVEL:    2408854  ACCURACY: 28.2138
L1D TIMELY PREFETCHES:     679629 LATE PREFETCHES: 370890 DROPPED PREFETCHES: 0
L1D PREFETCHES SAME FILL-ORIGIN LEVEL: 2408854 DIFFERENT FILL-ORIGIN LEVEL: 0
L1D AVERAGE MISS LATENCY: 1.18957e+07 cycles
L1D RQ	ACCESS:   31250075	FORWARD:          0	MERGED:   13066575	TO_CACHE:   18153529
L1D WQ	ACCESS:   28891366	FORWARD:      29980	MERGED:     415288	TO_CACHE:   28476078
L1D PQ	ACCESS:   12014238	FORWARD:          0	MERGED:          0	TO_CACHE:   12014229

L1D UNIQUE REGIONS ACCESSED: 0
L1D REGIONS CONFLICTS: 0
L1D Cross Page Prefetch Requests: 0
L1D Same Page Prefetch Requests: 12153651
L1D ROI Sum of L1D PQ occupancy: 157822537
L1D PREFETCHES PUSHED FROM L2C: 0
L1I TOTAL     ACCESS:   21675943  HIT:   21675943  MISS:          0  HIT %:        100  MISS %:          0   MPKI: 0
L1I LOAD      ACCESS:   21675943  HIT:   21675943  MISS:          0  HIT %:        100  MISS %:          0   MPKI: 0
L1I PREFETCH  REQUESTED:          0  ISSUED:          0  USEFUL:          0  USELESS:          0
L1I USEFUL LOAD PREFETCHES:          0 PREFETCH ISSUED TO LOWER LEVEL:          0  ACCURACY: -nan
L1I TIMELY PREFETCHES:          0 LATE PREFETCHES: 0 DROPPED PREFETCHES: 0
L1I PREFETCHES SAME FILL-ORIGIN LEVEL: 0 DIFFERENT FILL-ORIGIN LEVEL: 0
L1I AVERAGE MISS LATENCY: -nan cycles
L1I RQ	ACCESS:   30501229	FORWARD:          0	MERGED:    8825287	TO_CACHE:   21675942

BTB TOTAL     ACCESS:    9650941  HIT:    9650907  MISS:         34  HIT %:    99.9996  MISS %: 0.000352297   MPKI: 0.00034
BTB BRANCH_DIRECT_JUMP	ACCESS:     463202  HIT:     463196  MISS:          6
BTB BRANCH_INDIRECT	ACCESS:          0  HIT:          0  MISS:          0
BTB BRANCH_CONDITIONAL	ACCESS:    9187651  HIT:    9187627  MISS:         24
BTB BRANCH_DIRECT_CALL	ACCESS:         44  HIT:         42  MISS:          2
BTB BRANCH_INDIRECT_CALL	ACCESS:          0  HIT:          0  MISS:          0
BTB BRANCH_RETURN	ACCESS:         44  HIT:         42  MISS:          2
BTB BRANCH_OTHER ACCESS:          0  HIT:          0  MISS:          0

L2C TOTAL     ACCESS:    5402981  HIT:    1871332  MISS:    3531649  HIT %:    34.6352  MISS %:    65.3648   MPKI: 35.3165
L2C LOAD      ACCESS:    1332046  HIT:     139605  MISS:    1192441  HIT %:    10.4805  MISS %:    89.5195   MPKI: 11.9244
L2C DATA LOAD MPKI: 11.9244
L2C INSTRUCTION LOAD MPKI: 0
L2C RFO       ACCESS:     216470  HIT:       5888  MISS:     210582  HIT %:    2.72001  MISS %:      97.28   MPKI: 2.10582
L2C PREFETCH  ACCESS:    3141128  HIT:    1028367  MISS:    2112761  HIT %:    32.7388  MISS %:    67.2612   MPKI: 21.1276
L2C DATA PREFETCH MPKI: 21.1276
L2C INSTRUCTION PREFETCH MPKI: 0
L2C WRITEBACK ACCESS:     643594  HIT:     637882  MISS:       5712  HIT %:    99.1125  MISS %:   0.887516   MPKI: 0.05712
L2C LOAD TRANSLATION ACCESS:      69724  HIT:      59590  MISS:      10134  HIT %:    85.4655  MISS %:    14.5345   MPKI: 0.10134
L2C TRANSLATION FROM L1D PREFETCHER ACCESS:         19  HIT:          0  MISS:         19  HIT %:          0  MISS %:        100   MPKI: 0.00019
L2C PREFETCH  REQUESTED:     912990  ISSUED:     912990  USEFUL:      92925  USELESS:    2016487
L2C USEFUL LOAD PREFETCHES:      92925 PREFETCH ISSUED TO LOWER LEVEL:    2126908  ACCURACY: 4.36902
L2C TIMELY PREFETCHES:      92925 LATE PREFETCHES: 14147 DROPPED PREFETCHES: 0
L2C PREFETCHES SAME FILL-ORIGIN LEVEL: 384192 DIFFERENT FILL-ORIGIN LEVEL: 0
L2C AVERAGE MISS LATENCY: 173.567 cycles
L2C RQ	ACCESS:    1618311	FORWARD:          0	MERGED:          0	TO_CACHE:    1618259
L2C WQ	ACCESS:     643594	FORWARD:         75	MERGED:          0	TO_CACHE:     643594
L2C PQ	ACCESS:    3321844	FORWARD:          0	MERGED:      30924	TO_CACHE:    3290897

L2C Instructions Evicting Data 0
L2C Translations Evicting Data 10127
L2C Data Evicting Data 3505698
L2C Instructions Evicting Instructions 0
L2C Translations Evicting Instructions 0
L2C Data Evicting Instructions 0
L2C Instructions Evicting Translations 0
L2C Translations Evicting Translations 26
L2C Data Evicting Translations 10086
L2C Dense regions hint from L2: 0
PSCL5 TOTAL     ACCESS:      69600  HIT:      69600  MISS:          0  HIT %:        100  MISS %:          0   MPKI: 0
PSCL5 LOAD TRANSLATION ACCESS:      69581  HIT:      69581  MISS:          0  HIT %:        100  MISS %:          0   MPKI: 0
PSCL5 TRANSLATION FROM L1D PREFETCHER ACCESS:         19  HIT:         19  MISS:          0  HIT %:        100  MISS %:          0   MPKI: 0
PSCL5 PREFETCH  REQUESTED:          0  ISSUED:          0  USEFUL:          0  USELESS:          0
PSCL5 USEFUL LOAD PREFETCHES:          0 PREFETCH ISSUED TO LOWER LEVEL:          0  ACCURACY: -nan
PSCL5 TIMELY PREFETCHES:          0 LATE PREFETCHES: 0 DROPPED PREFETCHES: 0
PSCL5 PREFETCHES SAME FILL-ORIGIN LEVEL: 0 DIFFERENT FILL-ORIGIN LEVEL: 0

PSCL4 TOTAL     ACCESS:      69600  HIT:      69600  MISS:          0  HIT %:        100  MISS %:          0   MPKI: 0
PSCL4 LOAD TRANSLATION ACCESS:      69581  HIT:      69581  MISS:          0  HIT %:        100  MISS %:          0   MPKI: 0
PSCL4 TRANSLATION FROM L1D PREFETCHER ACCESS:         19  HIT:         19  MISS:          0  HIT %:        100  MISS %:          0   MPKI: 0
PSCL4 PREFETCH  REQUESTED:          0  ISSUED:          0  USEFUL:          0  USELESS:          0
PSCL4 USEFUL LOAD PREFETCHES:          0 PREFETCH ISSUED TO LOWER LEVEL:          0  ACCURACY: -nan
PSCL4 TIMELY PREFETCHES:          0 LATE PREFETCHES: 0 DROPPED PREFETCHES: 0
PSCL4 PREFETCHES SAME FILL-ORIGIN LEVEL: 0 DIFFERENT FILL-ORIGIN LEVEL: 0

PSCL3 TOTAL     ACCESS:      69600  HIT:      69600  MISS:          0  HIT %:        100  MISS %:          0   MPKI: 0
PSCL3 LOAD TRANSLATION ACCESS:      69581  HIT:      69581  MISS:          0  HIT %:        100  MISS %:          0   MPKI: 0
PSCL3 TRANSLATION FROM L1D PREFETCHER ACCESS:         19  HIT:         19  MISS:          0  HIT %:        100  MISS %:          0   MPKI: 0
PSCL3 PREFETCH  REQUESTED:          0  ISSUED:          0  USEFUL:          0  USELESS:          0
PSCL3 USEFUL LOAD PREFETCHES:          0 PREFETCH ISSUED TO LOWER LEVEL:          0  ACCURACY: -nan
PSCL3 TIMELY PREFETCHES:          0 LATE PREFETCHES: 0 DROPPED PREFETCHES: 0
PSCL3 PREFETCHES SAME FILL-ORIGIN LEVEL: 0 DIFFERENT FILL-ORIGIN LEVEL: 0

PSCL2 TOTAL     ACCESS:      69600  HIT:      69406  MISS:        194  HIT %:    99.7213  MISS %:   0.278736   MPKI: 0.00194
PSCL2 LOAD TRANSLATION ACCESS:      69581  HIT:      69387  MISS:        194  HIT %:    99.7212  MISS %:   0.278812   MPKI: 0.00194
PSCL2 TRANSLATION FROM L1D PREFETCHER ACCESS:         19  HIT:         19  MISS:          0  HIT %:        100  MISS %:          0   MPKI: 0
PSCL2 PREFETCH  REQUESTED:          0  ISSUED:          0  USEFUL:          0  USELESS:          0
PSCL2 USEFUL LOAD PREFETCHES:          0 PREFETCH ISSUED TO LOWER LEVEL:          0  ACCURACY: -nan
PSCL2 TIMELY PREFETCHES:          0 LATE PREFETCHES: 0 DROPPED PREFETCHES: 0
PSCL2 PREFETCHES SAME FILL-ORIGIN LEVEL: 0 DIFFERENT FILL-ORIGIN LEVEL: 0

LLC TOTAL     ACCESS:    4108957  HIT:     274467  MISS:    3834490  HIT %:    6.67972  MISS %:    93.3203   MPKI: 38.3449
LLC LOAD      ACCESS:    1178424  HIT:      91238  MISS:    1087186  HIT %:    7.74237  MISS %:    92.2576   MPKI: 10.8719
LLC RFO       ACCESS:     210451  HIT:         95  MISS:     210356  HIT %:  0.0451411  MISS %:    99.9549   MPKI: 2.10356
LLC PREFETCH  ACCESS:    2126908  HIT:     152169  MISS:    1974739  HIT %:    7.15447  MISS %:    92.8455   MPKI: 19.7474
LLC WRITEBACK ACCESS:     583021  HIT:      30465  MISS:     552556  HIT %:    5.22537  MISS %:    94.7746   MPKI: 5.52556
LLC LOAD TRANSLATION ACCESS:      10134  HIT:        500  MISS:       9634  HIT %:    4.93389  MISS %:    95.0661   MPKI: 0.09634
LLC TRANSLATION FROM L1D PREFETCHER ACCESS:         19  HIT:          0  MISS:         19  HIT %:          0  MISS %:        100   MPKI: 0.00019
LLC PREFETCH  REQUESTED:          0  ISSUED:          0  USEFUL:       4981  USELESS:    1962726
LLC USEFUL LOAD PREFETCHES:       4981 PREFETCH ISSUED TO LOWER LEVEL:    1974739  ACCURACY: 0.252236
LLC TIMELY PREFETCHES:       4981 LATE PREFETCHES: 0 DROPPED PREFETCHES: 0
LLC PREFETCHES SAME FILL-ORIGIN LEVEL: 0 DIFFERENT FILL-ORIGIN LEVEL: 0
LLC AVERAGE MISS LATENCY: 132.64 cycles
LLC RQ	ACCESS:    1399029	FORWARD:          0	MERGED:          0	TO_CACHE:    1399028
LLC WQ	ACCESS:     583021	FORWARD:          1	MERGED:          0	TO_CACHE:     583021
LLC PQ	ACCESS:    2126908	FORWARD:          0	MERGED:          0	TO_CACHE:    2126908

LLC Dense regions hint to LLC: 0

RAW hits: 635054
Loads Generated: 31885130
Loads sent to L1D: 31250075
Stores Generated: 28891363
Stores sent to L1D: 28891366
Major fault: 0 Minor fault: 38413
Allocated PAGES: 38413

stream: 
stream:times selected: 11646984
stream:pref_filled: 1054220
stream:pref_useful: 196368
stream:pref_late: 135082
stream:misses: 203636
stream:misses_by_poll: 0

CS: 
CS:times selected: 403006
CS:pref_filled: 271831
CS:pref_useful: 270167
CS:pref_late: 1495
CS:misses: 3441
CS:misses_by_poll: 326

CPLX: 
CPLX:times selected: 11167232
CPLX:pref_filled: 768460
CPLX:pref_useful: 240022
CPLX:pref_late: 234066
CPLX:misses: 1489837
CPLX:misses_by_poll: 4789

NL_L1: 
NL:times selected: 98406
NL:pref_filled: 14150
NL:pref_useful: 6493
NL:pref_late: 1608
NL:misses: 31326
NL:misses_by_poll: 2

total selections: 23315628
total_filled: 2034581
total_useful: 679629
total_late: 376353
total_polluted: 5117
total_misses_after_warmup: 1878394
conflicts: 50388
Degree Incremented Times: 60319
Degree Decremented Times: 180538

L1 IP Table Write Accesses: 15119499
L1 IP Table Read Accesses: 15069111
L1 RST Write Accesses: 11504119
L1 RST Read Accesses: 23008238
L1 CSPT Write Accesses: 11504119
L1 CSPT Read Accesses: 22533557
L1 RR Filter Tag Write Accesses: 12014363
L1 RR Filter Tag Read Accesses: 546347383
L1 IP Table Tag Write Accesses: 15451362
L1 IP Table Tag Read Accesses: 15451362
L1 RST Tag Write Accesses: 0
L1 RST Tag Read Accesses: 113814907
L1 RR Filter Write Accesses: 0
L1 RR Filter Read Accesses: 17970790
test: 6226818
L2 IP Table Read Accesses: 7058076
L2 IP Table Write Accesses: 5994766
L2 IP Table Tag Read Accesses: 3651075
L2 IP Table Tag Write Accesses: 3651075

DRAM Statistics
 CHANNEL 0
 RQ ROW_BUFFER_HIT:    1561764  ROW_BUFFER_MISS:    1720170
 DBUS_CONGESTED:       3355
 WQ ROW_BUFFER_HIT:     121832  ROW_BUFFER_MISS:     468838  FULL:          0

 AVG_CONGESTED_CYCLE: 5
 All warmup complete: 2
Channel 0 Bank busy for read cycles: 0
Channel 0 Bank busy for write cycles: 0
Channel 0
Rank 0
0banks busy for read cycles: 64843565
0banks busy for write cycles: 117239
1banks busy for read cycles: 51160027
1banks busy for write cycles: 16593378
2banks busy for read cycles: 32317262
2banks busy for write cycles: 10169630
3banks busy for read cycles: 18710723
3banks busy for write cycles: 6700337
4banks busy for read cycles: 10860943
4banks busy for write cycles: 4383056
5banks busy for read cycles: 7204917
5banks busy for write cycles: 2693040
6banks busy for read cycles: 5460246
6banks busy for write cycles: 1649033
7banks busy for read cycles: 4114780
7banks busy for write cycles: 1390868
8banks busy for read cycles: 2977001
8banks busy for write cycles: 5548115

CPU 0 Branch Prediction Accuracy: 99.1519% MPKI: 0.83374 Average ROB Occupancy at Mispredict: 265.124
Branch types
NOT_BRANCH: 90169467 90.1695%
BRANCH_DIRECT_JUMP: 463202 0.463202%
BRANCH_INDIRECT: 0 0%
BRANCH_CONDITIONAL: 9367125 9.36712%
BRANCH_DIRECT_CALL: 44 4.4e-05%
BRANCH_INDIRECT_CALL: 0 0%
BRANCH_RETURN: 44 4.4e-05%
BRANCH_OTHER: 0 0%

DRAM PAGES: 1048576
Allocated PAGES: 38413
