
*** ChampSim Multicore Out-of-Order Simulator ***

Warmup Instructions: 50000000
Simulation Instructions: 100000000
Number of CPUs: 1
LLC sets: 2048
LLC ways: 16
Off-chip DRAM Size: 4096 MB Channels: 1 Width: 64-bit Data Rate: 6400 MT/s
CPU 0 runs ../SPEC2017//605.mcf_s-472B.champsimtrace.xz
.xz
NUM_OF_IPS_IN_CRITICAL_IP_TRAINING: 64
NUM_OF_CRITICAL_IP_TRAINING_TABLE_WAYS: 2
NUM_OF_CRITICAL_IP_TRAINING_TABLE_SETS: 32
WOBBLY_CRITICAL_IP_CACHE_SETS: 32
WOBBLY_CRITICAL_IP_CACHE_WAYS: 4
BTB has LRU replacement policy
ITLB has LRU replacement policy
DTLB has LRU replacement policy
STLB has LRU replacement policy
L1I has LRU replacement policy
IP Table Entries: 64
L1D has LRU replacement policy
IP_Table L2 entries: 64
Initialize SRRIP state for L2C
Initialize DRRIP state for LLC
Heartbeat CPU 0 instructions: 10000001 cycles: 3193759 heartbeat IPC: 3.13111 cumulative IPC: 3.13111 (Simulation time: 0 hr 8 min 34 sec) 
Heartbeat CPU 0 instructions: 20000003 cycles: 6534317 heartbeat IPC: 2.99351 cumulative IPC: 3.06076 (Simulation time: 0 hr 16 min 49 sec) 
Heartbeat CPU 0 instructions: 30000002 cycles: 9947141 heartbeat IPC: 2.93012 cumulative IPC: 3.01594 (Simulation time: 0 hr 24 min 6 sec) 
Heartbeat CPU 0 instructions: 40000003 cycles: 13165281 heartbeat IPC: 3.10739 cumulative IPC: 3.03829 (Simulation time: 0 hr 30 min 2 sec) 
Heartbeat CPU 0 instructions: 50000000 cycles: 16408947 heartbeat IPC: 3.08293 cumulative IPC: 3.04712 (Simulation time: 0 hr 35 min 55 sec) 

Warmup complete CPU 0 instructions: 50000004 cycles: 16408948 (Simulation time: 0 hr 35 min 55 sec) 

% increase in all ip prefetch 418.114
% increase in all ip prefetch -39.8611
Heartbeat CPU 0 instructions: 60000001 cycles: 41811682 heartbeat IPC: 0.393658 cumulative IPC: 0.393658 (Simulation time: 0 hr 41 min 48 sec) 
Heartbeat CPU 0 instructions: 70000002 cycles: 66340567 heartbeat IPC: 0.407683 cumulative IPC: 0.400548 (Simulation time: 0 hr 46 min 56 sec) 
Heartbeat CPU 0 instructions: 80000002 cycles: 95809932 heartbeat IPC: 0.339335 cumulative IPC: 0.377829 (Simulation time: 0 hr 52 min 10 sec) 
Heartbeat CPU 0 instructions: 90000000 cycles: 119958330 heartbeat IPC: 0.414106 cumulative IPC: 0.386289 (Simulation time: 0 hr 56 min 57 sec) 
Heartbeat CPU 0 instructions: 100000002 cycles: 147704787 heartbeat IPC: 0.360406 cumulative IPC: 0.380819 (Simulation time: 1 hr 7 min 2 sec) 
Heartbeat CPU 0 instructions: 110000000 cycles: 172087457 heartbeat IPC: 0.410127 cumulative IPC: 0.38541 (Simulation time: 1 hr 14 min 28 sec) 
Heartbeat CPU 0 instructions: 120000002 cycles: 198876979 heartbeat IPC: 0.37328 cumulative IPC: 0.383629 (Simulation time: 1 hr 21 min 40 sec) 
Heartbeat CPU 0 instructions: 130000002 cycles: 226267745 heartbeat IPC: 0.365087 cumulative IPC: 0.381209 (Simulation time: 1 hr 28 min 50 sec) 
Heartbeat CPU 0 instructions: 140000003 cycles: 254472707 heartbeat IPC: 0.354548 cumulative IPC: 0.37805 (Simulation time: 1 hr 35 min 25 sec) 
Heartbeat CPU 0 instructions: 150000002 cycles: 281987114 heartbeat IPC: 0.363446 cumulative IPC: 0.376537 (Simulation time: 1 hr 41 min 13 sec) 
Finished CPU 0 instructions: 100000001 cycles: 265578167 cumulative IPC: 0.376537 (Simulation time: 1 hr 41 min 13 sec) 

ChampSim completed all CPUs

Region of Interest Statistics

CPU 0 cumulative IPC: 0.376537 instructions: 100000001 cycles: 265578167

CPU 0 Average Load ROB stall cycles: 4.51124e+06
CPU 0 Fraction of times ROB stalled by Loads: 2.99632
CPU 0 Percentage of Load stall cycles in Total stall cycles: 4.66344e+07
 Total stall cycles: 176506948
 Total load stall cycles: 82313040125031
CPU 0 NUM of IPS identified critical: 16
CPU 0 Num of Load IPs stalling ROB: 52
Threshold modification factor: -1
Max PIST entries: 24
Min PIST entries: 0
Avg PIST entries: 10.9467
Trouble in retire width: 0.984861
MaC = Marked as critical.
lt_50_percent_before_Mac: 16
gt_90_percent_before_Mac: 0
gt_75_percent_before_Mac: 0
gt_50_percent_before_Mac: 0
stall_proportion_bin_same_before_after: 0
stall_proportion_bin_lower_before_after: 0
stall_proportion_bin_upper_before_after: 0
average_stall_proportion_before: 0.02726
average_stall_proportion_after: 0.0240721
Critical IP stalls, total frequency: 498799
Non-critical IP stalls, total frequency: 47915
Critical_IP_ROB_Stalls_Bucket_0: 79657
Non-critical_IP_ROB_Stalls_Bucket_0: 38839
Critical_IP_ROB_Stalls_Bucket_1: 25556
Non-critical_IP_ROB_Stalls_Bucket_1: 666
Critical_IP_ROB_Stalls_Bucket_2: 20228
Non-critical_IP_ROB_Stalls_Bucket_2: 356
Critical_IP_ROB_Stalls_Bucket_3: 24557
Non-critical_IP_ROB_Stalls_Bucket_3: 796
Critical_IP_ROB_Stalls_Bucket_4: 19643
Non-critical_IP_ROB_Stalls_Bucket_4: 340
Critical_IP_ROB_Stalls_Bucket_5: 23883
Non-critical_IP_ROB_Stalls_Bucket_5: 1089
Critical_IP_ROB_Stalls_Bucket_6: 305275
Non-critical_IP_ROB_Stalls_Bucket_6: 5830
0 => IPs accounting for >50 percent of stalls, 1 => 55, 2 => 60, 3 => 65 and so on till 90.
percent50: 57.7547 num IPs:3
percent55: 57.7547 num IPs:3
percent60: 63.8994 num IPs:4
percent65: 69.4259 num IPs:5
percent70: 73.9965 num IPs:6
percent75: 77.7319 num IPs:7
percent80: 81.049 num IPs:8
percent85: 86.8055 num IPs:10
percent90: 90.5927 num IPs:12
Critical_ROB_Stalls_Percent_0_Bucket_0: 31460
Non-critical_ROB_Stalls_Percent_0_Bucket_0: 87036
Critical_ROB_Stalls_Percent_0_Bucket_1: 16302
Non-critical_ROB_Stalls_Percent_0_Bucket_1: 9920
Critical_ROB_Stalls_Percent_0_Bucket_2: 13194
Non-critical_ROB_Stalls_Percent_0_Bucket_2: 7390
Critical_ROB_Stalls_Percent_0_Bucket_3: 16951
Non-critical_ROB_Stalls_Percent_0_Bucket_3: 8402
Critical_ROB_Stalls_Percent_0_Bucket_4: 12797
Non-critical_ROB_Stalls_Percent_0_Bucket_4: 7186
Critical_ROB_Stalls_Percent_0_Bucket_5: 16713
Non-critical_ROB_Stalls_Percent_0_Bucket_5: 8259
Critical_ROB_Stalls_Percent_0_Bucket_6: 208336
Non-critical_ROB_Stalls_Percent_0_Bucket_6: 102769
Critical_ROB_Stalls_Percent_1_Bucket_0: 31460
Non-critical_ROB_Stalls_Percent_1_Bucket_0: 87036
Critical_ROB_Stalls_Percent_1_Bucket_1: 16302
Non-critical_ROB_Stalls_Percent_1_Bucket_1: 9920
Critical_ROB_Stalls_Percent_1_Bucket_2: 13194
Non-critical_ROB_Stalls_Percent_1_Bucket_2: 7390
Critical_ROB_Stalls_Percent_1_Bucket_3: 16951
Non-critical_ROB_Stalls_Percent_1_Bucket_3: 8402
Critical_ROB_Stalls_Percent_1_Bucket_4: 12797
Non-critical_ROB_Stalls_Percent_1_Bucket_4: 7186
Critical_ROB_Stalls_Percent_1_Bucket_5: 16713
Non-critical_ROB_Stalls_Percent_1_Bucket_5: 8259
Critical_ROB_Stalls_Percent_1_Bucket_6: 208336
Non-critical_ROB_Stalls_Percent_1_Bucket_6: 102769
Critical_ROB_Stalls_Percent_2_Bucket_0: 36084
Non-critical_ROB_Stalls_Percent_2_Bucket_0: 82412
Critical_ROB_Stalls_Percent_2_Bucket_1: 19335
Non-critical_ROB_Stalls_Percent_2_Bucket_1: 6887
Critical_ROB_Stalls_Percent_2_Bucket_2: 14549
Non-critical_ROB_Stalls_Percent_2_Bucket_2: 6035
Critical_ROB_Stalls_Percent_2_Bucket_3: 17962
Non-critical_ROB_Stalls_Percent_2_Bucket_3: 7391
Critical_ROB_Stalls_Percent_2_Bucket_4: 14325
Non-critical_ROB_Stalls_Percent_2_Bucket_4: 5658
Critical_ROB_Stalls_Percent_2_Bucket_5: 17641
Non-critical_ROB_Stalls_Percent_2_Bucket_5: 7331
Critical_ROB_Stalls_Percent_2_Bucket_6: 229451
Non-critical_ROB_Stalls_Percent_2_Bucket_6: 81654
Critical_ROB_Stalls_Percent_3_Bucket_0: 54994
Non-critical_ROB_Stalls_Percent_3_Bucket_0: 63502
Critical_ROB_Stalls_Percent_3_Bucket_1: 19871
Non-critical_ROB_Stalls_Percent_3_Bucket_1: 6351
Critical_ROB_Stalls_Percent_3_Bucket_2: 15306
Non-critical_ROB_Stalls_Percent_3_Bucket_2: 5278
Critical_ROB_Stalls_Percent_3_Bucket_3: 18959
Non-critical_ROB_Stalls_Percent_3_Bucket_3: 6394
Critical_ROB_Stalls_Percent_3_Bucket_4: 15635
Non-critical_ROB_Stalls_Percent_3_Bucket_4: 4348
Critical_ROB_Stalls_Percent_3_Bucket_5: 18754
Non-critical_ROB_Stalls_Percent_3_Bucket_5: 6218
Critical_ROB_Stalls_Percent_3_Bucket_6: 236042
Non-critical_ROB_Stalls_Percent_3_Bucket_6: 75063
Critical_ROB_Stalls_Percent_4_Bucket_0: 56840
Non-critical_ROB_Stalls_Percent_4_Bucket_0: 61656
Critical_ROB_Stalls_Percent_4_Bucket_1: 21204
Non-critical_ROB_Stalls_Percent_4_Bucket_1: 5018
Critical_ROB_Stalls_Percent_4_Bucket_2: 16215
Non-critical_ROB_Stalls_Percent_4_Bucket_2: 4369
Critical_ROB_Stalls_Percent_4_Bucket_3: 20002
Non-critical_ROB_Stalls_Percent_4_Bucket_3: 5351
Critical_ROB_Stalls_Percent_4_Bucket_4: 16280
Non-critical_ROB_Stalls_Percent_4_Bucket_4: 3703
Critical_ROB_Stalls_Percent_4_Bucket_5: 19645
Non-critical_ROB_Stalls_Percent_4_Bucket_5: 5327
Critical_ROB_Stalls_Percent_4_Bucket_6: 254363
Non-critical_ROB_Stalls_Percent_4_Bucket_6: 56742
Critical_ROB_Stalls_Percent_5_Bucket_0: 58291
Non-critical_ROB_Stalls_Percent_5_Bucket_0: 60205
Critical_ROB_Stalls_Percent_5_Bucket_1: 21962
Non-critical_ROB_Stalls_Percent_5_Bucket_1: 4260
Critical_ROB_Stalls_Percent_5_Bucket_2: 17115
Non-critical_ROB_Stalls_Percent_5_Bucket_2: 3469
Critical_ROB_Stalls_Percent_5_Bucket_3: 20616
Non-critical_ROB_Stalls_Percent_5_Bucket_3: 4737
Critical_ROB_Stalls_Percent_5_Bucket_4: 16830
Non-critical_ROB_Stalls_Percent_5_Bucket_4: 3153
Critical_ROB_Stalls_Percent_5_Bucket_5: 20796
Non-critical_ROB_Stalls_Percent_5_Bucket_5: 4176
Critical_ROB_Stalls_Percent_5_Bucket_6: 269361
Non-critical_ROB_Stalls_Percent_5_Bucket_6: 41744
Critical_ROB_Stalls_Percent_6_Bucket_0: 67704
Non-critical_ROB_Stalls_Percent_6_Bucket_0: 50792
Critical_ROB_Stalls_Percent_6_Bucket_1: 22560
Non-critical_ROB_Stalls_Percent_6_Bucket_1: 3662
Critical_ROB_Stalls_Percent_6_Bucket_2: 17478
Non-critical_ROB_Stalls_Percent_6_Bucket_2: 3106
Critical_ROB_Stalls_Percent_6_Bucket_3: 21044
Non-critical_ROB_Stalls_Percent_6_Bucket_3: 4309
Critical_ROB_Stalls_Percent_6_Bucket_4: 17195
Non-critical_ROB_Stalls_Percent_6_Bucket_4: 2788
Critical_ROB_Stalls_Percent_6_Bucket_5: 21889
Non-critical_ROB_Stalls_Percent_6_Bucket_5: 3083
Critical_ROB_Stalls_Percent_6_Bucket_6: 275236
Non-critical_ROB_Stalls_Percent_6_Bucket_6: 35869
Critical_ROB_Stalls_Percent_7_Bucket_0: 86430
Non-critical_ROB_Stalls_Percent_7_Bucket_0: 32066
Critical_ROB_Stalls_Percent_7_Bucket_1: 23623
Non-critical_ROB_Stalls_Percent_7_Bucket_1: 2599
Critical_ROB_Stalls_Percent_7_Bucket_2: 18571
Non-critical_ROB_Stalls_Percent_7_Bucket_2: 2013
Critical_ROB_Stalls_Percent_7_Bucket_3: 23075
Non-critical_ROB_Stalls_Percent_7_Bucket_3: 2278
Critical_ROB_Stalls_Percent_7_Bucket_4: 18127
Non-critical_ROB_Stalls_Percent_7_Bucket_4: 1856
Critical_ROB_Stalls_Percent_7_Bucket_5: 22598
Non-critical_ROB_Stalls_Percent_7_Bucket_5: 2374
Critical_ROB_Stalls_Percent_7_Bucket_6: 282154
Non-critical_ROB_Stalls_Percent_7_Bucket_6: 28951
Critical_ROB_Stalls_Percent_8_Bucket_0: 92089
Non-critical_ROB_Stalls_Percent_8_Bucket_0: 26407
Critical_ROB_Stalls_Percent_8_Bucket_1: 24140
Non-critical_ROB_Stalls_Percent_8_Bucket_1: 2082
Critical_ROB_Stalls_Percent_8_Bucket_2: 19138
Non-critical_ROB_Stalls_Percent_8_Bucket_2: 1446
Critical_ROB_Stalls_Percent_8_Bucket_3: 23632
Non-critical_ROB_Stalls_Percent_8_Bucket_3: 1721
Critical_ROB_Stalls_Percent_8_Bucket_4: 18585
Non-critical_ROB_Stalls_Percent_8_Bucket_4: 1398
Critical_ROB_Stalls_Percent_8_Bucket_5: 23196
Non-critical_ROB_Stalls_Percent_8_Bucket_5: 1776
Critical_ROB_Stalls_Percent_8_Bucket_6: 294503
Non-critical_ROB_Stalls_Percent_8_Bucket_6: 16602
Average ROB occupancy Load Stall Begin: 231.096
Average ROB occupancy Load Stall End: 240.361
Min ROB occupancy Load Stall Begin: 2
Max ROB occupancy Load Stall Begin: 351
Min ROB occupancy Load Stall End: 2
Max ROB occupancy Load Stall End: 352
Average ROB occupancy Critical Load Stall Begin: 246.998
Average ROB occupancy Critical Load Stall End: 256.898
Min ROB occupancy Critical Load Stall Begin: 2
Max ROB occupancy Critical Load Stall Begin: 351
Min ROB occupancy Critical Load Stall End: 2
Max ROB occupancy Critical Load Stall End: 352
 ROB Load Stall Begin Bucket Count 0: 126986
 ROB Load Stall End Bucket Count 0: 118496
 ROB Critical Load Stall Begin Bucket Count 0: 86159
 ROB Critical Load Stall End Bucket Count 0: 78092
 ROB Load Stall Begin Bucket Count 1: 24865
 ROB Load Stall End Bucket Count 1: 26222
 ROB Critical Load Stall Begin Bucket Count 1: 23936
 ROB Critical Load Stall End Bucket Count 1: 25090
 ROB Load Stall Begin Bucket Count 2: 19762
 ROB Load Stall End Bucket Count 2: 20584
 ROB Critical Load Stall Begin Bucket Count 2: 19117
 ROB Critical Load Stall End Bucket Count 2: 19924
 ROB Load Stall Begin Bucket Count 3: 24932
 ROB Load Stall End Bucket Count 3: 25353
 ROB Critical Load Stall Begin Bucket Count 3: 23907
 ROB Critical Load Stall End Bucket Count 3: 24301
 ROB Load Stall Begin Bucket Count 4: 17833
 ROB Load Stall End Bucket Count 4: 19983
 ROB Critical Load Stall Begin Bucket Count 4: 17312
 ROB Critical Load Stall End Bucket Count 4: 19346
 ROB Load Stall Begin Bucket Count 5: 33099
 ROB Load Stall End Bucket Count 5: 24972
 ROB Critical Load Stall Begin Bucket Count 5: 31734
 ROB Critical Load Stall End Bucket Count 5: 23699
 ROB Load Stall Begin Bucket Count 6: 299238
 ROB Load Stall End Bucket Count 6: 311105
 ROB Critical Load Stall Begin Bucket Count 6: 291808
 ROB Critical Load Stall End Bucket Count 6: 303521
PIST Tag Read Accesses: 20264
PIST Read Accesses: 10132
PIST Tag Write Accesses: 20264
PIST Write Accesses: 10132
Criticality detector called times: 22099
Max global_stall_cycles_count: 204438
Threshold Modified: 1 times, factor: -1
ITLB TOTAL     ACCESS:   17297256  HIT:   17297256  MISS:          0  HIT %:        100  MISS %:          0   MPKI: 0
ITLB LOAD TRANSLATION ACCESS:   17297256  HIT:   17297256  MISS:          0  HIT %:        100  MISS %:          0   MPKI: 0
ITLB PREFETCH  REQUESTED:          0  ISSUED:          0  USEFUL:          0  USELESS:          0
ITLB USEFUL LOAD PREFETCHES:          0 PREFETCH ISSUED TO LOWER LEVEL:          0  ACCURACY: -nan
ITLB TIMELY PREFETCHES:          0 LATE PREFETCHES: 0 DROPPED PREFETCHES: 0
ITLB PREFETCHES SAME FILL-ORIGIN LEVEL: 0 DIFFERENT FILL-ORIGIN LEVEL: 0
ITLB AVERAGE MISS LATENCY: -nan cycles
ITLB RQ	ACCESS:   22307362	FORWARD:          0	MERGED:    5010107	TO_CACHE:   17297255

DTLB TOTAL     ACCESS:   27613183  HIT:   27311398  MISS:     301785  HIT %:    98.9071  MISS %:     1.0929   MPKI: 3.01785
DTLB LOAD TRANSLATION ACCESS:   27613183  HIT:   27311398  MISS:     301785  HIT %:    98.9071  MISS %:     1.0929   MPKI: 3.01785
DTLB PREFETCH  REQUESTED:          0  ISSUED:          0  USEFUL:          0  USELESS:          0
DTLB USEFUL LOAD PREFETCHES:          0 PREFETCH ISSUED TO LOWER LEVEL:          0  ACCURACY: -nan
DTLB TIMELY PREFETCHES:          0 LATE PREFETCHES: 0 DROPPED PREFETCHES: 0
DTLB PREFETCHES SAME FILL-ORIGIN LEVEL: 0 DIFFERENT FILL-ORIGIN LEVEL: 0
DTLB AVERAGE MISS LATENCY: 34.1493 cycles
DTLB RQ	ACCESS:   45412499	FORWARD:          0	MERGED:   17723221	TO_CACHE:   27689278

STLB TOTAL     ACCESS:    8579192  HIT:    8449823  MISS:     129369  HIT %:    98.4921  MISS %:    1.50794   MPKI: 1.29369
STLB LOAD TRANSLATION ACCESS:     301785  HIT:     172451  MISS:     129334  HIT %:    57.1437  MISS %:    42.8563   MPKI: 1.29334
STLB TRANSLATION FROM L1D PREFETCHER ACCESS:    8277407  HIT:    8277372  MISS:         35  HIT %:    99.9996  MISS %: 0.000422838   MPKI: 0.00035
STLB PREFETCH  REQUESTED:          0  ISSUED:          0  USEFUL:         18  USELESS:         17
STLB USEFUL LOAD PREFETCHES:         18 PREFETCH ISSUED TO LOWER LEVEL:          0  ACCURACY: inf
STLB TIMELY PREFETCHES:         18 LATE PREFETCHES: 0 DROPPED PREFETCHES: 0
STLB PREFETCHES SAME FILL-ORIGIN LEVEL: 0 DIFFERENT FILL-ORIGIN LEVEL: 0
STLB AVERAGE MISS LATENCY: 58.6142 cycles
STLB RQ	ACCESS:   13092851	FORWARD:          0	MERGED:    4513660	TO_CACHE:    8579191

STLB Hit, L1D data hit: 0
STLB Hit, L2C data hit: 0
STLB Hit, LLC data hit: 0
STLB Hit, LLC data miss: 0
STLB STLB hints to L2: 0
L1D TOTAL     ACCESS:   55828449  HIT:   48451423  MISS:    7377026  HIT %:    86.7863  MISS %:    13.2137   MPKI: 73.7703
L1D LOAD      ACCESS:   20830754  HIT:   17273711  MISS:    3557043  HIT %:    82.9241  MISS %:    17.0759   MPKI: 35.5704
L1D RFO       ACCESS:   23401900  HIT:   23178133  MISS:     223767  HIT %:    99.0438  MISS %:   0.956192   MPKI: 2.23767
L1D PREFETCH  ACCESS:   11595795  HIT:    7999579  MISS:    3596216  HIT %:    68.9869  MISS %:    31.0131   MPKI: 35.9622
L1D PREFETCH  REQUESTED:   25583233  ISSUED:   25582137  USEFUL:    1252745  USELESS:    2343389
L1D USEFUL LOAD PREFETCHES:    1252745 PREFETCH ISSUED TO LOWER LEVEL:    4454430  ACCURACY: 28.1236
L1D TIMELY PREFETCHES:    1252745 LATE PREFETCHES: 855927 DROPPED PREFETCHES: 0
L1D PREFETCHES SAME FILL-ORIGIN LEVEL: 4454430 DIFFERENT FILL-ORIGIN LEVEL: 0
L1D AVERAGE MISS LATENCY: 1.77152e+07 cycles
L1D RQ	ACCESS:   33444037	FORWARD:          0	MERGED:   12116021	TO_CACHE:   21301339
L1D WQ	ACCESS:   24693640	FORWARD:      26682	MERGED:     582480	TO_CACHE:   24111160
L1D PQ	ACCESS:   12791071	FORWARD:          0	MERGED:          0	TO_CACHE:   12791066

L1D UNIQUE REGIONS ACCESSED: 0
L1D REGIONS CONFLICTS: 0
L1D Cross Page Prefetch Requests: 0
L1D Same Page Prefetch Requests: 19735242
L1D ROI Sum of L1D PQ occupancy: 175257973
L1D PREFETCHES PUSHED FROM L2C: 0
L1I TOTAL     ACCESS:   22307360  HIT:   22307360  MISS:          0  HIT %:        100  MISS %:          0   MPKI: 0
L1I LOAD      ACCESS:   22307360  HIT:   22307360  MISS:          0  HIT %:        100  MISS %:          0   MPKI: 0
L1I PREFETCH  REQUESTED:          0  ISSUED:          0  USEFUL:          0  USELESS:          0
L1I USEFUL LOAD PREFETCHES:          0 PREFETCH ISSUED TO LOWER LEVEL:          0  ACCURACY: -nan
L1I TIMELY PREFETCHES:          0 LATE PREFETCHES: 0 DROPPED PREFETCHES: 0
L1I PREFETCHES SAME FILL-ORIGIN LEVEL: 0 DIFFERENT FILL-ORIGIN LEVEL: 0
L1I AVERAGE MISS LATENCY: -nan cycles
L1I RQ	ACCESS:   30585366	FORWARD:          0	MERGED:    8278004	TO_CACHE:   22307362

BTB TOTAL     ACCESS:   11269127  HIT:   11269093  MISS:         34  HIT %:    99.9997  MISS %: 0.000301709   MPKI: 0.00034
BTB BRANCH_DIRECT_JUMP	ACCESS:    1149944  HIT:    1149938  MISS:          6
BTB BRANCH_INDIRECT	ACCESS:          0  HIT:          0  MISS:          0
BTB BRANCH_CONDITIONAL	ACCESS:   10118919  HIT:   10118895  MISS:         24
BTB BRANCH_DIRECT_CALL	ACCESS:        132  HIT:        130  MISS:          2
BTB BRANCH_INDIRECT_CALL	ACCESS:          0  HIT:          0  MISS:          0
BTB BRANCH_RETURN	ACCESS:        132  HIT:        130  MISS:          2
BTB BRANCH_OTHER ACCESS:          0  HIT:          0  MISS:          0

L2C TOTAL     ACCESS:    9458359  HIT:    2489587  MISS:    6968772  HIT %:    26.3216  MISS %:    73.6784   MPKI: 69.6877
L2C LOAD      ACCESS:    2701027  HIT:     173156  MISS:    2527871  HIT %:    6.41075  MISS %:    93.5893   MPKI: 25.2787
L2C DATA LOAD MPKI: 25.2787
L2C INSTRUCTION LOAD MPKI: 0
L2C RFO       ACCESS:     221474  HIT:      11559  MISS:     209915  HIT %:    5.21912  MISS %:    94.7809   MPKI: 2.09915
L2C PREFETCH  ACCESS:    5863455  HIT:    1655893  MISS:    4207562  HIT %:    28.2409  MISS %:    71.7591   MPKI: 42.0756
L2C DATA PREFETCH MPKI: 42.0756
L2C INSTRUCTION PREFETCH MPKI: 0
L2C WRITEBACK ACCESS:     542865  HIT:     538230  MISS:       4635  HIT %:    99.1462  MISS %:   0.853803   MPKI: 0.04635
L2C LOAD TRANSLATION ACCESS:     129503  HIT:     110747  MISS:      18756  HIT %:    85.5169  MISS %:    14.4831   MPKI: 0.18756
L2C TRANSLATION FROM L1D PREFETCHER ACCESS:         35  HIT:          2  MISS:         33  HIT %:    5.71429  MISS %:    94.2857   MPKI: 0.00033
L2C PREFETCH  REQUESTED:    1828666  ISSUED:    1828666  USEFUL:      86043  USELESS:    4124630
L2C USEFUL LOAD PREFETCHES:      86043 PREFETCH ISSUED TO LOWER LEVEL:    4223819  ACCURACY: 2.03709
L2C TIMELY PREFETCHES:      86043 LATE PREFETCHES: 16258 DROPPED PREFETCHES: 0
L2C PREFETCHES SAME FILL-ORIGIN LEVEL: 746428 DIFFERENT FILL-ORIGIN LEVEL: 0
L2C AVERAGE MISS LATENCY: 141.196 cycles
L2C RQ	ACCESS:    3052129	FORWARD:          0	MERGED:          0	TO_CACHE:    3052038
L2C WQ	ACCESS:     542865	FORWARD:        107	MERGED:          0	TO_CACHE:     542865
L2C PQ	ACCESS:    6283096	FORWARD:          0	MERGED:      46670	TO_CACHE:    6236410

L2C Instructions Evicting Data 0
L2C Translations Evicting Data 18749
L2C Data Evicting Data 6926641
L2C Instructions Evicting Instructions 0
L2C Translations Evicting Instructions 0
L2C Data Evicting Instructions 0
L2C Instructions Evicting Translations 0
L2C Translations Evicting Translations 40
L2C Data Evicting Translations 18707
L2C Dense regions hint from L2: 0
PSCL5 TOTAL     ACCESS:     129369  HIT:     129369  MISS:          0  HIT %:        100  MISS %:          0   MPKI: 0
PSCL5 LOAD TRANSLATION ACCESS:     129334  HIT:     129334  MISS:          0  HIT %:        100  MISS %:          0   MPKI: 0
PSCL5 TRANSLATION FROM L1D PREFETCHER ACCESS:         35  HIT:         35  MISS:          0  HIT %:        100  MISS %:          0   MPKI: 0
PSCL5 PREFETCH  REQUESTED:          0  ISSUED:          0  USEFUL:          0  USELESS:          0
PSCL5 USEFUL LOAD PREFETCHES:          0 PREFETCH ISSUED TO LOWER LEVEL:          0  ACCURACY: -nan
PSCL5 TIMELY PREFETCHES:          0 LATE PREFETCHES: 0 DROPPED PREFETCHES: 0
PSCL5 PREFETCHES SAME FILL-ORIGIN LEVEL: 0 DIFFERENT FILL-ORIGIN LEVEL: 0

PSCL4 TOTAL     ACCESS:     129369  HIT:     129369  MISS:          0  HIT %:        100  MISS %:          0   MPKI: 0
PSCL4 LOAD TRANSLATION ACCESS:     129334  HIT:     129334  MISS:          0  HIT %:        100  MISS %:          0   MPKI: 0
PSCL4 TRANSLATION FROM L1D PREFETCHER ACCESS:         35  HIT:         35  MISS:          0  HIT %:        100  MISS %:          0   MPKI: 0
PSCL4 PREFETCH  REQUESTED:          0  ISSUED:          0  USEFUL:          0  USELESS:          0
PSCL4 USEFUL LOAD PREFETCHES:          0 PREFETCH ISSUED TO LOWER LEVEL:          0  ACCURACY: -nan
PSCL4 TIMELY PREFETCHES:          0 LATE PREFETCHES: 0 DROPPED PREFETCHES: 0
PSCL4 PREFETCHES SAME FILL-ORIGIN LEVEL: 0 DIFFERENT FILL-ORIGIN LEVEL: 0

PSCL3 TOTAL     ACCESS:     128574  HIT:     128564  MISS:         10  HIT %:    99.9922  MISS %: 0.00777762   MPKI: 0.0001
PSCL3 LOAD TRANSLATION ACCESS:     128539  HIT:     128529  MISS:         10  HIT %:    99.9922  MISS %: 0.00777974   MPKI: 0.0001
PSCL3 TRANSLATION FROM L1D PREFETCHER ACCESS:         35  HIT:         35  MISS:          0  HIT %:        100  MISS %:          0   MPKI: 0
PSCL3 PREFETCH  REQUESTED:          0  ISSUED:          0  USEFUL:          0  USELESS:          0
PSCL3 USEFUL LOAD PREFETCHES:          0 PREFETCH ISSUED TO LOWER LEVEL:          0  ACCURACY: -nan
PSCL3 TIMELY PREFETCHES:          0 LATE PREFETCHES: 0 DROPPED PREFETCHES: 0
PSCL3 PREFETCHES SAME FILL-ORIGIN LEVEL: 0 DIFFERENT FILL-ORIGIN LEVEL: 0

PSCL2 TOTAL     ACCESS:     129369  HIT:     129156  MISS:        213  HIT %:    99.8354  MISS %:   0.164645   MPKI: 0.00213
PSCL2 LOAD TRANSLATION ACCESS:     129334  HIT:     129121  MISS:        213  HIT %:    99.8353  MISS %:    0.16469   MPKI: 0.00213
PSCL2 TRANSLATION FROM L1D PREFETCHER ACCESS:         35  HIT:         35  MISS:          0  HIT %:        100  MISS %:          0   MPKI: 0
PSCL2 PREFETCH  REQUESTED:          0  ISSUED:          0  USEFUL:          0  USELESS:          0
PSCL2 USEFUL LOAD PREFETCHES:          0 PREFETCH ISSUED TO LOWER LEVEL:          0  ACCURACY: -nan
PSCL2 TIMELY PREFETCHES:          0 LATE PREFETCHES: 0 DROPPED PREFETCHES: 0
PSCL2 PREFETCHES SAME FILL-ORIGIN LEVEL: 0 DIFFERENT FILL-ORIGIN LEVEL: 0

LLC TOTAL     ACCESS:    7403973  HIT:    1628797  MISS:    5775176  HIT %:     21.999  MISS %:     78.001   MPKI: 57.7518
LLC LOAD      ACCESS:    2511809  HIT:     686040  MISS:    1825769  HIT %:    27.3126  MISS %:    72.6874   MPKI: 18.2577
LLC RFO       ACCESS:     209719  HIT:        202  MISS:     209517  HIT %:  0.0963194  MISS %:    99.9037   MPKI: 2.09517
LLC PREFETCH  ACCESS:    4223820  HIT:     915751  MISS:    3308069  HIT %:    21.6806  MISS %:    78.3194   MPKI: 33.0807
LLC WRITEBACK ACCESS:     439836  HIT:      21769  MISS:     418067  HIT %:    4.94934  MISS %:    95.0507   MPKI: 4.18067
LLC LOAD TRANSLATION ACCESS:      18756  HIT:       5035  MISS:      13721  HIT %:    26.8447  MISS %:    73.1553   MPKI: 0.13721
LLC TRANSLATION FROM L1D PREFETCHER ACCESS:         33  HIT:          0  MISS:         33  HIT %:          0  MISS %:        100   MPKI: 0.00033
LLC PREFETCH  REQUESTED:          0  ISSUED:          0  USEFUL:       7437  USELESS:    3303145
LLC USEFUL LOAD PREFETCHES:       7437 PREFETCH ISSUED TO LOWER LEVEL:    3308068  ACCURACY: 0.224814
LLC TIMELY PREFETCHES:       7437 LATE PREFETCHES: 0 DROPPED PREFETCHES: 0
LLC PREFETCHES SAME FILL-ORIGIN LEVEL: 0 DIFFERENT FILL-ORIGIN LEVEL: 0
LLC AVERAGE MISS LATENCY: 134.353 cycles
LLC RQ	ACCESS:    2740316	FORWARD:          0	MERGED:          0	TO_CACHE:    2740316
LLC WQ	ACCESS:     439836	FORWARD:          0	MERGED:          0	TO_CACHE:     439836
LLC PQ	ACCESS:    4223819	FORWARD:          0	MERGED:          0	TO_CACHE:    4223819

LLC Dense regions hint to LLC: 0

RAW hits: 1300618
Loads Generated: 34744652
Loads sent to L1D: 33444037
Stores Generated: 24693637
Stores sent to L1D: 24693640
Major fault: 0 Minor fault: 29216
Allocated PAGES: 29216

stream: 
stream:times selected: 19728421
stream:pref_filled: 3241722
stream:pref_useful: 457294
stream:pref_late: 375784
stream:misses: 434460
stream:misses_by_poll: 0

CS: 
CS:times selected: 1171439
CS:pref_filled: 963220
CS:pref_useful: 958251
CS:pref_late: 7584
CS:misses: 12631
CS:misses_by_poll: 731

CPLX: 
CPLX:times selected: 18476288
CPLX:pref_filled: 1698299
CPLX:pref_useful: 867841
CPLX:pref_late: 1070286
CPLX:misses: 4507028
CPLX:misses_by_poll: 3779

NL_L1: 
NL:times selected: 213567
NL:pref_filled: 40931
NL:pref_useful: 19339
NL:pref_late: 4547
NL:misses: 106663
NL:misses_by_poll: 41

total selections: 39589715
total_filled: 3596216
total_useful: 1252745
total_late: 1490322
total_polluted: 4551
total_misses_after_warmup: 4027634
conflicts: 279858
Degree Incremented Times: 129212
Degree Decremented Times: 173098

L1 IP Table Write Accesses: 20430499
L1 IP Table Read Accesses: 20150641
L1 RST Write Accesses: 13088089
L1 RST Read Accesses: 26176178
L1 CSPT Write Accesses: 13088089
L1 CSPT Read Accesses: 25329076
L1 RR Filter Tag Write Accesses: 12792167
L1 RR Filter Tag Read Accesses: 611447525
L1 IP Table Tag Write Accesses: 21301345
L1 IP Table Tag Read Accesses: 21301345
L1 RST Tag Write Accesses: 0
L1 RST Tag Read Accesses: 123634461
L1 RR Filter Write Accesses: 0
L1 RR Filter Read Accesses: 20831569
test: 8035373
L2 IP Table Read Accesses: 13854852
L2 IP Table Write Accesses: 11411959
L2 IP Table Tag Read Accesses: 7048526
L2 IP Table Tag Write Accesses: 7048526

DRAM Statistics
 CHANNEL 0
 RQ ROW_BUFFER_HIT:    3206916  ROW_BUFFER_MISS:    2150190
 DBUS_CONGESTED:       8394
 WQ ROW_BUFFER_HIT:     110978  ROW_BUFFER_MISS:     324630  FULL:          0

 AVG_CONGESTED_CYCLE: 5
 All warmup complete: 2
Channel 0 Bank busy for read cycles: 0
Channel 0 Bank busy for write cycles: 0
Channel 0
Rank 0
0banks busy for read cycles: 70902441
0banks busy for write cycles: 65238
1banks busy for read cycles: 52060238
1banks busy for write cycles: 10473678
2banks busy for read cycles: 31066188
2banks busy for write cycles: 4958017
3banks busy for read cycles: 21138559
3banks busy for write cycles: 3089772
4banks busy for read cycles: 16134198
4banks busy for write cycles: 2210998
5banks busy for read cycles: 13511846
5banks busy for write cycles: 1741546
6banks busy for read cycles: 11270576
6banks busy for write cycles: 1590747
7banks busy for read cycles: 8859682
7banks busy for write cycles: 2260265
8banks busy for read cycles: 5498937
8banks busy for write cycles: 8745242

CPU 0 Branch Prediction Accuracy: 98.9588% MPKI: 1.19245 Average ROB Occupancy at Mispredict: 216.48
Branch types
NOT_BRANCH: 88547130 88.5471%
BRANCH_DIRECT_JUMP: 1149944 1.14994%
BRANCH_INDIRECT: 0 0%
BRANCH_CONDITIONAL: 10302647 10.3026%
BRANCH_DIRECT_CALL: 132 0.000132%
BRANCH_INDIRECT_CALL: 0 0%
BRANCH_RETURN: 132 0.000132%
BRANCH_OTHER: 0 0%

DRAM PAGES: 1048576
Allocated PAGES: 29216
