
*** ChampSim Multicore Out-of-Order Simulator ***

Warmup Instructions: 50000000
Simulation Instructions: 100000000
Number of CPUs: 1
LLC sets: 2048
LLC ways: 16
Off-chip DRAM Size: 4096 MB Channels: 1 Width: 64-bit Data Rate: 6400 MT/s
CPU 0 runs ../SPEC2017//605.mcf_s-665B.champsimtrace.xz
.xz
BTB has LRU replacement policy
ITLB has LRU replacement policy
DTLB has LRU replacement policy
STLB has LRU replacement policy
L1I has LRU replacement policy
IP Table Entries: 64
L1D has LRU replacement policy
Initialize SRRIP state for L2C
Initialize DRRIP state for LLC
Heartbeat CPU 0 instructions: 10000000 cycles: 3310043 heartbeat IPC: 3.02111 cumulative IPC: 3.02111 (Simulation time: 0 hr 5 min 1 sec) 
Heartbeat CPU 0 instructions: 20000000 cycles: 6620720 heartbeat IPC: 3.02053 cumulative IPC: 3.02082 (Simulation time: 0 hr 9 min 10 sec) 
Heartbeat CPU 0 instructions: 30000002 cycles: 9925625 heartbeat IPC: 3.02581 cumulative IPC: 3.02248 (Simulation time: 0 hr 13 min 20 sec) 
Heartbeat CPU 0 instructions: 40000003 cycles: 13231443 heartbeat IPC: 3.02497 cumulative IPC: 3.0231 (Simulation time: 0 hr 17 min 25 sec) 
Heartbeat CPU 0 instructions: 50000002 cycles: 16533229 heartbeat IPC: 3.02866 cumulative IPC: 3.02421 (Simulation time: 0 hr 21 min 3 sec) 

Warmup complete CPU 0 instructions: 50000002 cycles: 16533229 (Simulation time: 0 hr 21 min 3 sec) 

Heartbeat CPU 0 instructions: 60000003 cycles: 54356968 heartbeat IPC: 0.264384 cumulative IPC: 0.264384 (Simulation time: 0 hr 25 min 30 sec) 
Heartbeat CPU 0 instructions: 70000003 cycles: 91906075 heartbeat IPC: 0.266318 cumulative IPC: 0.265348 (Simulation time: 0 hr 29 min 55 sec) 
Heartbeat CPU 0 instructions: 80000001 cycles: 129612867 heartbeat IPC: 0.265204 cumulative IPC: 0.2653 (Simulation time: 0 hr 34 min 18 sec) 
Heartbeat CPU 0 instructions: 90000002 cycles: 168203943 heartbeat IPC: 0.259127 cumulative IPC: 0.263729 (Simulation time: 0 hr 38 min 31 sec) 
Heartbeat CPU 0 instructions: 100000000 cycles: 205782589 heartbeat IPC: 0.266109 cumulative IPC: 0.264202 (Simulation time: 0 hr 42 min 20 sec) 
Heartbeat CPU 0 instructions: 110000000 cycles: 243379867 heartbeat IPC: 0.265977 cumulative IPC: 0.264496 (Simulation time: 0 hr 46 min 9 sec) 
Heartbeat CPU 0 instructions: 120000000 cycles: 280724520 heartbeat IPC: 0.267776 cumulative IPC: 0.26496 (Simulation time: 0 hr 49 min 51 sec) 
Heartbeat CPU 0 instructions: 130000000 cycles: 317980701 heartbeat IPC: 0.268412 cumulative IPC: 0.265386 (Simulation time: 0 hr 53 min 19 sec) 
Heartbeat CPU 0 instructions: 140000002 cycles: 355946698 heartbeat IPC: 0.263394 cumulative IPC: 0.265163 (Simulation time: 0 hr 56 min 16 sec) 
Heartbeat CPU 0 instructions: 150000000 cycles: 393886553 heartbeat IPC: 0.263575 cumulative IPC: 0.265004 (Simulation time: 0 hr 58 min 35 sec) 
Finished CPU 0 instructions: 100000000 cycles: 377353326 cumulative IPC: 0.265004 (Simulation time: 0 hr 58 min 35 sec) 

ChampSim completed all CPUs

Region of Interest Statistics

CPU 0 cumulative IPC: 0.265004 instructions: 100000000 cycles: 377353326

CPU 0 Average Load ROB stall cycles: 9.3613e+07
CPU 0 Fraction of times ROB stalled by Loads: 45.3502
CPU 0 Percentage of Load stall cycles in Total stall cycles: 8.67348e+08
Issued all: 55647224
Issued LT all: 44100050
rob_not_full_when_issued_lt_all: 41799495
Issued LT one: 31998444
rob_not_full_when_issued_lt_one: 29984901
HPCA_2009 critical_dynamic_instances_0: 6484478
HPCA_2009 unique_critical_ips_0: 473
multiple_destinations_0: 0
load_to_same_dest_0: 0
low_issue_rate_0: 40785284
total_issue_rate_checked_count_0: 45332270
 Total stall cycles: 325491234
 Total load stall cycles: 2823142721320527
Unique Load IPs: 264
CPU 0 NUM of IPS identified critical: 0
CPU 0 Num of Load IPs stalling ROB: 0
Threshold modification factor: 0
Trouble in retire width: -nan
MaC = Marked as critical.
lt_50_percent_before_Mac: 0
gt_90_percent_before_Mac: 0
gt_75_percent_before_Mac: 0
gt_50_percent_before_Mac: 0
stall_proportion_bin_same_before_after: 0
stall_proportion_bin_lower_before_after: 0
stall_proportion_bin_upper_before_after: 0
average_stall_proportion_before: -nan
average_stall_proportion_after: -nan
Critical IP stalls, total frequency: 0
Non-critical IP stalls, total frequency: 0
Total Freq all stalling IPs: 0
Critical_IP_Detector_Accuracy_70: 0.00211416
Critical_IP_Detector_Accuracy_80: 0.00211416
Critical_IP_Detector_Accuracy_90: 0.00211416
Critical_IP_Detector_Coverage_70: 1
Critical_IP_Detector_Coverage_80: 1
Critical_IP_Detector_Coverage_90: 1
stat_90_percent_critical_ip_stalls_freq: 2561568
stat_90_percent_non_critical_ip_stalls_freq: 18446744073706990048
AVERAGE_ROB_Occupancy_90_Percent_Critical_IP_Stalls: 29.7549
AVERAGE_ROB_Occupancy_90_Percent_Non_Critical_IP_Stalls: 1.70559e-11
Critical_IP_ROB_Stalls_Bucket_0: 0
Non-critical_IP_ROB_Stalls_Bucket_0: 11918342
Critical_IP_ROB_Stalls_Bucket_1: 0
Non-critical_IP_ROB_Stalls_Bucket_1: 1169505
Critical_IP_ROB_Stalls_Bucket_2: 0
Non-critical_IP_ROB_Stalls_Bucket_2: 299101
Critical_IP_ROB_Stalls_Bucket_3: 0
Non-critical_IP_ROB_Stalls_Bucket_3: 106702
Critical_IP_ROB_Stalls_Bucket_4: 0
Non-critical_IP_ROB_Stalls_Bucket_4: 56679
Critical_IP_ROB_Stalls_Bucket_5: 0
Non-critical_IP_ROB_Stalls_Bucket_5: 31711
Critical_IP_ROB_Stalls_Bucket_6: 0
Non-critical_IP_ROB_Stalls_Bucket_6: 94471
0 => IPs accounting for >50 percent of stalls, 1 => 55, 2 => 60, 3 => 65 and so on till 90.
percent50: inf num IPs:  1
percent55: inf num IPs: 1
percent60: inf num IPs: 1
percent65: inf num IPs: 1
percent70: inf num IPs: 1
percent75: inf num IPs: 1
percent80: inf num IPs: 1
percent85: inf num IPs: 1
percent90: inf num IPs: 1
Critical_ROB_Stalls_Percent_0_Bucket_0: 2180152
Non-critical_ROB_Stalls_Percent_0_Bucket_0: 9738190
Critical_ROB_Stalls_Percent_0_Bucket_1: 236170
Non-critical_ROB_Stalls_Percent_0_Bucket_1: 933335
Critical_ROB_Stalls_Percent_0_Bucket_2: 75201
Non-critical_ROB_Stalls_Percent_0_Bucket_2: 223900
Critical_ROB_Stalls_Percent_0_Bucket_3: 22124
Non-critical_ROB_Stalls_Percent_0_Bucket_3: 84578
Critical_ROB_Stalls_Percent_0_Bucket_4: 14702
Non-critical_ROB_Stalls_Percent_0_Bucket_4: 41977
Critical_ROB_Stalls_Percent_0_Bucket_5: 8050
Non-critical_ROB_Stalls_Percent_0_Bucket_5: 23661
Critical_ROB_Stalls_Percent_0_Bucket_6: 25169
Non-critical_ROB_Stalls_Percent_0_Bucket_6: 69302
Critical_ROB_Stalls_Percent_1_Bucket_0: 2180152
Non-critical_ROB_Stalls_Percent_1_Bucket_0: 9738190
Critical_ROB_Stalls_Percent_1_Bucket_1: 236170
Non-critical_ROB_Stalls_Percent_1_Bucket_1: 933335
Critical_ROB_Stalls_Percent_1_Bucket_2: 75201
Non-critical_ROB_Stalls_Percent_1_Bucket_2: 223900
Critical_ROB_Stalls_Percent_1_Bucket_3: 22124
Non-critical_ROB_Stalls_Percent_1_Bucket_3: 84578
Critical_ROB_Stalls_Percent_1_Bucket_4: 14702
Non-critical_ROB_Stalls_Percent_1_Bucket_4: 41977
Critical_ROB_Stalls_Percent_1_Bucket_5: 8050
Non-critical_ROB_Stalls_Percent_1_Bucket_5: 23661
Critical_ROB_Stalls_Percent_1_Bucket_6: 25169
Non-critical_ROB_Stalls_Percent_1_Bucket_6: 69302
Critical_ROB_Stalls_Percent_2_Bucket_0: 2180152
Non-critical_ROB_Stalls_Percent_2_Bucket_0: 9738190
Critical_ROB_Stalls_Percent_2_Bucket_1: 236170
Non-critical_ROB_Stalls_Percent_2_Bucket_1: 933335
Critical_ROB_Stalls_Percent_2_Bucket_2: 75201
Non-critical_ROB_Stalls_Percent_2_Bucket_2: 223900
Critical_ROB_Stalls_Percent_2_Bucket_3: 22124
Non-critical_ROB_Stalls_Percent_2_Bucket_3: 84578
Critical_ROB_Stalls_Percent_2_Bucket_4: 14702
Non-critical_ROB_Stalls_Percent_2_Bucket_4: 41977
Critical_ROB_Stalls_Percent_2_Bucket_5: 8050
Non-critical_ROB_Stalls_Percent_2_Bucket_5: 23661
Critical_ROB_Stalls_Percent_2_Bucket_6: 25169
Non-critical_ROB_Stalls_Percent_2_Bucket_6: 69302
Critical_ROB_Stalls_Percent_3_Bucket_0: 2180152
Non-critical_ROB_Stalls_Percent_3_Bucket_0: 9738190
Critical_ROB_Stalls_Percent_3_Bucket_1: 236170
Non-critical_ROB_Stalls_Percent_3_Bucket_1: 933335
Critical_ROB_Stalls_Percent_3_Bucket_2: 75201
Non-critical_ROB_Stalls_Percent_3_Bucket_2: 223900
Critical_ROB_Stalls_Percent_3_Bucket_3: 22124
Non-critical_ROB_Stalls_Percent_3_Bucket_3: 84578
Critical_ROB_Stalls_Percent_3_Bucket_4: 14702
Non-critical_ROB_Stalls_Percent_3_Bucket_4: 41977
Critical_ROB_Stalls_Percent_3_Bucket_5: 8050
Non-critical_ROB_Stalls_Percent_3_Bucket_5: 23661
Critical_ROB_Stalls_Percent_3_Bucket_6: 25169
Non-critical_ROB_Stalls_Percent_3_Bucket_6: 69302
Critical_ROB_Stalls_Percent_4_Bucket_0: 2180152
Non-critical_ROB_Stalls_Percent_4_Bucket_0: 9738190
Critical_ROB_Stalls_Percent_4_Bucket_1: 236170
Non-critical_ROB_Stalls_Percent_4_Bucket_1: 933335
Critical_ROB_Stalls_Percent_4_Bucket_2: 75201
Non-critical_ROB_Stalls_Percent_4_Bucket_2: 223900
Critical_ROB_Stalls_Percent_4_Bucket_3: 22124
Non-critical_ROB_Stalls_Percent_4_Bucket_3: 84578
Critical_ROB_Stalls_Percent_4_Bucket_4: 14702
Non-critical_ROB_Stalls_Percent_4_Bucket_4: 41977
Critical_ROB_Stalls_Percent_4_Bucket_5: 8050
Non-critical_ROB_Stalls_Percent_4_Bucket_5: 23661
Critical_ROB_Stalls_Percent_4_Bucket_6: 25169
Non-critical_ROB_Stalls_Percent_4_Bucket_6: 69302
Critical_ROB_Stalls_Percent_5_Bucket_0: 2180152
Non-critical_ROB_Stalls_Percent_5_Bucket_0: 9738190
Critical_ROB_Stalls_Percent_5_Bucket_1: 236170
Non-critical_ROB_Stalls_Percent_5_Bucket_1: 933335
Critical_ROB_Stalls_Percent_5_Bucket_2: 75201
Non-critical_ROB_Stalls_Percent_5_Bucket_2: 223900
Critical_ROB_Stalls_Percent_5_Bucket_3: 22124
Non-critical_ROB_Stalls_Percent_5_Bucket_3: 84578
Critical_ROB_Stalls_Percent_5_Bucket_4: 14702
Non-critical_ROB_Stalls_Percent_5_Bucket_4: 41977
Critical_ROB_Stalls_Percent_5_Bucket_5: 8050
Non-critical_ROB_Stalls_Percent_5_Bucket_5: 23661
Critical_ROB_Stalls_Percent_5_Bucket_6: 25169
Non-critical_ROB_Stalls_Percent_5_Bucket_6: 69302
Critical_ROB_Stalls_Percent_6_Bucket_0: 2180152
Non-critical_ROB_Stalls_Percent_6_Bucket_0: 9738190
Critical_ROB_Stalls_Percent_6_Bucket_1: 236170
Non-critical_ROB_Stalls_Percent_6_Bucket_1: 933335
Critical_ROB_Stalls_Percent_6_Bucket_2: 75201
Non-critical_ROB_Stalls_Percent_6_Bucket_2: 223900
Critical_ROB_Stalls_Percent_6_Bucket_3: 22124
Non-critical_ROB_Stalls_Percent_6_Bucket_3: 84578
Critical_ROB_Stalls_Percent_6_Bucket_4: 14702
Non-critical_ROB_Stalls_Percent_6_Bucket_4: 41977
Critical_ROB_Stalls_Percent_6_Bucket_5: 8050
Non-critical_ROB_Stalls_Percent_6_Bucket_5: 23661
Critical_ROB_Stalls_Percent_6_Bucket_6: 25169
Non-critical_ROB_Stalls_Percent_6_Bucket_6: 69302
Critical_ROB_Stalls_Percent_7_Bucket_0: 2180152
Non-critical_ROB_Stalls_Percent_7_Bucket_0: 9738190
Critical_ROB_Stalls_Percent_7_Bucket_1: 236170
Non-critical_ROB_Stalls_Percent_7_Bucket_1: 933335
Critical_ROB_Stalls_Percent_7_Bucket_2: 75201
Non-critical_ROB_Stalls_Percent_7_Bucket_2: 223900
Critical_ROB_Stalls_Percent_7_Bucket_3: 22124
Non-critical_ROB_Stalls_Percent_7_Bucket_3: 84578
Critical_ROB_Stalls_Percent_7_Bucket_4: 14702
Non-critical_ROB_Stalls_Percent_7_Bucket_4: 41977
Critical_ROB_Stalls_Percent_7_Bucket_5: 8050
Non-critical_ROB_Stalls_Percent_7_Bucket_5: 23661
Critical_ROB_Stalls_Percent_7_Bucket_6: 25169
Non-critical_ROB_Stalls_Percent_7_Bucket_6: 69302
Critical_ROB_Stalls_Percent_8_Bucket_0: 2180152
Non-critical_ROB_Stalls_Percent_8_Bucket_0: 9738190
Critical_ROB_Stalls_Percent_8_Bucket_1: 236170
Non-critical_ROB_Stalls_Percent_8_Bucket_1: 933335
Critical_ROB_Stalls_Percent_8_Bucket_2: 75201
Non-critical_ROB_Stalls_Percent_8_Bucket_2: 223900
Critical_ROB_Stalls_Percent_8_Bucket_3: 22124
Non-critical_ROB_Stalls_Percent_8_Bucket_3: 84578
Critical_ROB_Stalls_Percent_8_Bucket_4: 14702
Non-critical_ROB_Stalls_Percent_8_Bucket_4: 41977
Critical_ROB_Stalls_Percent_8_Bucket_5: 8050
Non-critical_ROB_Stalls_Percent_8_Bucket_5: 23661
Critical_ROB_Stalls_Percent_8_Bucket_6: 25169
Non-critical_ROB_Stalls_Percent_8_Bucket_6: 69302
Average ROB occupancy Load Stall Begin: 24.6038
Average ROB occupancy Load Stall End: 28.5779
Min ROB occupancy Load Stall Begin: 1
Max ROB occupancy Load Stall Begin: 352
Min ROB occupancy Load Stall End: 1
Max ROB occupancy Load Stall End: 352
Average ROB occupancy Critical Load Stall Begin: -nan
Average ROB occupancy Critical Load Stall End: -nan
Min ROB occupancy Critical Load Stall Begin: 400
Max ROB occupancy Critical Load Stall Begin: 0
Min ROB occupancy Critical Load Stall End: 400
Max ROB occupancy Critical Load Stall End: 0
 ROB Load Stall Begin Bucket Count 0: 12211312
 ROB Load Stall End Bucket Count 0: 11918342
 ROB Critical Load Stall Begin Bucket Count 0: 0
 ROB Critical Load Stall End Bucket Count 0: 0
 ROB Load Stall Begin Bucket Count 1: 954691
 ROB Load Stall End Bucket Count 1: 1169505
 ROB Critical Load Stall Begin Bucket Count 1: 0
 ROB Critical Load Stall End Bucket Count 1: 0
 ROB Load Stall Begin Bucket Count 2: 254310
 ROB Load Stall End Bucket Count 2: 299101
 ROB Critical Load Stall Begin Bucket Count 2: 0
 ROB Critical Load Stall End Bucket Count 2: 0
 ROB Load Stall Begin Bucket Count 3: 87808
 ROB Load Stall End Bucket Count 3: 106702
 ROB Critical Load Stall Begin Bucket Count 3: 0
 ROB Critical Load Stall End Bucket Count 3: 0
 ROB Load Stall Begin Bucket Count 4: 49987
 ROB Load Stall End Bucket Count 4: 56679
 ROB Critical Load Stall Begin Bucket Count 4: 0
 ROB Critical Load Stall End Bucket Count 4: 0
 ROB Load Stall Begin Bucket Count 5: 29083
 ROB Load Stall End Bucket Count 5: 31711
 ROB Critical Load Stall Begin Bucket Count 5: 0
 ROB Critical Load Stall End Bucket Count 5: 0
 ROB Load Stall Begin Bucket Count 6: 89320
 ROB Load Stall End Bucket Count 6: 94471
 ROB Critical Load Stall Begin Bucket Count 6: 0
 ROB Critical Load Stall End Bucket Count 6: 0
PIST Tag Read Accesses: 0
PIST Read Accesses: 0
PIST Tag Write Accesses: 0
PIST Write Accesses: 0
Criticality detector called times: 0
Max global_stall_cycles_count: 0
Threshold Modified: 0 times, factor: 0
ITLB TOTAL     ACCESS:   18144891  HIT:   18144891  MISS:          0  HIT %:        100  MISS %:          0   MPKI: 0
ITLB LOAD TRANSLATION ACCESS:   18144891  HIT:   18144891  MISS:          0  HIT %:        100  MISS %:          0   MPKI: 0
ITLB PREFETCH  REQUESTED:          0  ISSUED:          0  USEFUL:          0  USELESS:          0
ITLB USEFUL LOAD PREFETCHES:          0 PREFETCH ISSUED TO LOWER LEVEL:          0  ACCURACY: -nan
ITLB TIMELY PREFETCHES:          0 LATE PREFETCHES: 0 DROPPED PREFETCHES: 0
ITLB PREFETCHES SAME FILL-ORIGIN LEVEL: 0 DIFFERENT FILL-ORIGIN LEVEL: 0
ITLB AVERAGE MISS LATENCY: -nan cycles
ITLB RQ	ACCESS:   18994857	FORWARD:          0	MERGED:     849967	TO_CACHE:   18144890

DTLB TOTAL     ACCESS:   31064993  HIT:   29490215  MISS:    1574778  HIT %:    94.9307  MISS %:     5.0693   MPKI: 15.7478
DTLB LOAD TRANSLATION ACCESS:   31064993  HIT:   29490215  MISS:    1574778  HIT %:    94.9307  MISS %:     5.0693   MPKI: 15.7478
DTLB PREFETCH  REQUESTED:          0  ISSUED:          0  USEFUL:          0  USELESS:          0
DTLB USEFUL LOAD PREFETCHES:          0 PREFETCH ISSUED TO LOWER LEVEL:          0  ACCURACY: -nan
DTLB TIMELY PREFETCHES:          0 LATE PREFETCHES: 0 DROPPED PREFETCHES: 0
DTLB PREFETCHES SAME FILL-ORIGIN LEVEL: 0 DIFFERENT FILL-ORIGIN LEVEL: 0
DTLB AVERAGE MISS LATENCY: 10.5393 cycles
DTLB RQ	ACCESS:   37833022	FORWARD:          0	MERGED:    6580052	TO_CACHE:   31252970

STLB TOTAL     ACCESS:    1992985  HIT:    1969789  MISS:      23196  HIT %:    98.8361  MISS %:    1.16388   MPKI: 0.23196
STLB LOAD TRANSLATION ACCESS:    1574778  HIT:    1551582  MISS:      23196  HIT %:     98.527  MISS %:    1.47297   MPKI: 0.23196
STLB TRANSLATION FROM L1D PREFETCHER ACCESS:     418207  HIT:     418207  MISS:          0  HIT %:        100  MISS %:          0   MPKI: 0
STLB PREFETCH  REQUESTED:          0  ISSUED:          0  USEFUL:          0  USELESS:          0
STLB USEFUL LOAD PREFETCHES:          0 PREFETCH ISSUED TO LOWER LEVEL:          0  ACCURACY: -nan
STLB TIMELY PREFETCHES:          0 LATE PREFETCHES: 0 DROPPED PREFETCHES: 0
STLB PREFETCHES SAME FILL-ORIGIN LEVEL: 0 DIFFERENT FILL-ORIGIN LEVEL: 0
STLB AVERAGE MISS LATENCY: 100.303 cycles
STLB RQ	ACCESS:    2037174	FORWARD:          0	MERGED:      44189	TO_CACHE:    1992985

STLB Hit, L1D data hit: 0
STLB Hit, L2C data hit: 0
STLB Hit, LLC data hit: 0
STLB Hit, LLC data miss: 0
STLB STLB hints to L2: 0
L1D TOTAL     ACCESS:   37562668  HIT:   33729390  MISS:    3833278  HIT %:     89.795  MISS %:     10.205   MPKI: 38.3328
L1D LOAD      ACCESS:   26016710  HIT:   22817072  MISS:    3199638  HIT %:    87.7016  MISS %:    12.2984   MPKI: 31.9964
L1D RFO       ACCESS:   11095309  HIT:   10716782  MISS:     378527  HIT %:    96.5884  MISS %:    3.41159   MPKI: 3.78527
L1D PREFETCH  ACCESS:     450649  HIT:     195536  MISS:     255113  HIT %:    43.3899  MISS %:    56.6101   MPKI: 2.55113
L1D PREFETCH  REQUESTED:     925094  ISSUED:     925094  USEFUL:      55166  USELESS:     199831
L1D USEFUL LOAD PREFETCHES:      55166 PREFETCH ISSUED TO LOWER LEVEL:     257825  ACCURACY: 21.3967
L1D TIMELY PREFETCHES:      55166 LATE PREFETCHES: 2679 DROPPED PREFETCHES: 0
L1D PREFETCHES SAME FILL-ORIGIN LEVEL: 257825 DIFFERENT FILL-ORIGIN LEVEL: 0
L1D AVERAGE MISS LATENCY: 141044 cycles
L1D RQ	ACCESS:   33577636	FORWARD:          0	MERGED:    6327693	TO_CACHE:   26119687
L1D WQ	ACCESS:   11754634	FORWARD:    1130558	MERGED:      41299	TO_CACHE:   11713335
L1D PQ	ACCESS:     462698	FORWARD:          0	MERGED:          0	TO_CACHE:     462396

L1D UNIQUE REGIONS ACCESSED: 0
L1D REGIONS CONFLICTS: 0
L1D Cross Page Prefetch Requests: 0
L1D Same Page Prefetch Requests: 557272
L1D ROI Sum of L1D PQ occupancy: 6000413
L1D PREFETCHES PUSHED FROM L2C: 0
L1I TOTAL     ACCESS:   18994858  HIT:   18994856  MISS:          2  HIT %:        100  MISS %: 1.05292e-05   MPKI: 2e-05
L1I LOAD      ACCESS:   18994858  HIT:   18994856  MISS:          2  HIT %:        100  MISS %: 1.05292e-05   MPKI: 2e-05
L1I PREFETCH  REQUESTED:          0  ISSUED:          0  USEFUL:          0  USELESS:          0
L1I USEFUL LOAD PREFETCHES:          0 PREFETCH ISSUED TO LOWER LEVEL:          0  ACCURACY: -nan
L1I TIMELY PREFETCHES:          0 LATE PREFETCHES: 0 DROPPED PREFETCHES: 0
L1I PREFETCHES SAME FILL-ORIGIN LEVEL: 0 DIFFERENT FILL-ORIGIN LEVEL: 0
L1I AVERAGE MISS LATENCY: 214 cycles
L1I RQ	ACCESS:   30757861	FORWARD:          0	MERGED:   11763004	TO_CACHE:   18994857

BTB TOTAL     ACCESS:   23681315  HIT:   22481474  MISS:    1199841  HIT %:    94.9334  MISS %:    5.06661   MPKI: 11.9984
BTB BRANCH_DIRECT_JUMP	ACCESS:    2599450  HIT:    2599413  MISS:         37
BTB BRANCH_INDIRECT	ACCESS:          0  HIT:          0  MISS:          0
BTB BRANCH_CONDITIONAL	ACCESS:   15578423  HIT:   15578344  MISS:         79
BTB BRANCH_DIRECT_CALL	ACCESS:    2602035  HIT:    2602017  MISS:         18
BTB BRANCH_INDIRECT_CALL	ACCESS:     149686  HIT:     149678  MISS:          8
BTB BRANCH_RETURN	ACCESS:    2751721  HIT:    1552022  MISS:    1199699
BTB BRANCH_OTHER ACCESS:          0  HIT:          0  MISS:          0

L2C TOTAL     ACCESS:    4383583  HIT:    2216695  MISS:    2166888  HIT %:    50.5681  MISS %:    49.4319   MPKI: 21.6689
L2C LOAD      ACCESS:    3196945  HIT:    1199649  MISS:    1997296  HIT %:    37.5249  MISS %:    62.4751   MPKI: 19.973
L2C DATA LOAD MPKI: 19.9729
L2C INSTRUCTION LOAD MPKI: 2e-05
L2C RFO       ACCESS:     378493  HIT:     349896  MISS:      28597  HIT %:    92.4445  MISS %:    7.55549   MPKI: 0.28597
L2C PREFETCH  ACCESS:     257820  HIT:     126875  MISS:     130945  HIT %:    49.2107  MISS %:    50.7893   MPKI: 1.30945
L2C DATA PREFETCH MPKI: 1.30945
L2C INSTRUCTION PREFETCH MPKI: 0
L2C WRITEBACK ACCESS:     526912  HIT:     526289  MISS:        623  HIT %:    99.8818  MISS %:   0.118236   MPKI: 0.00623
L2C LOAD TRANSLATION ACCESS:      23413  HIT:      13986  MISS:       9427  HIT %:     59.736  MISS %:     40.264   MPKI: 0.09427
L2C PREFETCH  REQUESTED:          0  ISSUED:          0  USEFUL:       8954  USELESS:     121747
L2C USEFUL LOAD PREFETCHES:       8954 PREFETCH ISSUED TO LOWER LEVEL:     130945  ACCURACY: 6.83799
L2C TIMELY PREFETCHES:       8954 LATE PREFETCHES: 0 DROPPED PREFETCHES: 0
L2C PREFETCHES SAME FILL-ORIGIN LEVEL: 0 DIFFERENT FILL-ORIGIN LEVEL: 0
L2C AVERAGE MISS LATENCY: 96.5976 cycles
L2C RQ	ACCESS:    3598869	FORWARD:          0	MERGED:          0	TO_CACHE:    3598851
L2C WQ	ACCESS:     526912	FORWARD:         22	MERGED:          0	TO_CACHE:     526912
L2C PQ	ACCESS:     257825	FORWARD:          0	MERGED:          0	TO_CACHE:     257821

L2C Instructions Evicting Data 2
L2C Translations Evicting Data 9391
L2C Data Evicting Data 2147422
L2C Instructions Evicting Instructions 0
L2C Translations Evicting Instructions 0
L2C Data Evicting Instructions 2
L2C Instructions Evicting Translations 0
L2C Translations Evicting Translations 36
L2C Data Evicting Translations 9412
L2C Dense regions hint from L2: 0
PSCL5 TOTAL     ACCESS:      23196  HIT:      23196  MISS:          0  HIT %:        100  MISS %:          0   MPKI: 0
PSCL5 LOAD TRANSLATION ACCESS:      23196  HIT:      23196  MISS:          0  HIT %:        100  MISS %:          0   MPKI: 0
PSCL5 PREFETCH  REQUESTED:          0  ISSUED:          0  USEFUL:          0  USELESS:          0
PSCL5 USEFUL LOAD PREFETCHES:          0 PREFETCH ISSUED TO LOWER LEVEL:          0  ACCURACY: -nan
PSCL5 TIMELY PREFETCHES:          0 LATE PREFETCHES: 0 DROPPED PREFETCHES: 0
PSCL5 PREFETCHES SAME FILL-ORIGIN LEVEL: 0 DIFFERENT FILL-ORIGIN LEVEL: 0

PSCL4 TOTAL     ACCESS:      23196  HIT:      23196  MISS:          0  HIT %:        100  MISS %:          0   MPKI: 0
PSCL4 LOAD TRANSLATION ACCESS:      23196  HIT:      23196  MISS:          0  HIT %:        100  MISS %:          0   MPKI: 0
PSCL4 PREFETCH  REQUESTED:          0  ISSUED:          0  USEFUL:          0  USELESS:          0
PSCL4 USEFUL LOAD PREFETCHES:          0 PREFETCH ISSUED TO LOWER LEVEL:          0  ACCURACY: -nan
PSCL4 TIMELY PREFETCHES:          0 LATE PREFETCHES: 0 DROPPED PREFETCHES: 0
PSCL4 PREFETCHES SAME FILL-ORIGIN LEVEL: 0 DIFFERENT FILL-ORIGIN LEVEL: 0

PSCL3 TOTAL     ACCESS:      23196  HIT:      23196  MISS:          0  HIT %:        100  MISS %:          0   MPKI: 0
PSCL3 LOAD TRANSLATION ACCESS:      23196  HIT:      23196  MISS:          0  HIT %:        100  MISS %:          0   MPKI: 0
PSCL3 PREFETCH  REQUESTED:          0  ISSUED:          0  USEFUL:          0  USELESS:          0
PSCL3 USEFUL LOAD PREFETCHES:          0 PREFETCH ISSUED TO LOWER LEVEL:          0  ACCURACY: -nan
PSCL3 TIMELY PREFETCHES:          0 LATE PREFETCHES: 0 DROPPED PREFETCHES: 0
PSCL3 PREFETCHES SAME FILL-ORIGIN LEVEL: 0 DIFFERENT FILL-ORIGIN LEVEL: 0

PSCL2 TOTAL     ACCESS:      23196  HIT:      22864  MISS:        332  HIT %:    98.5687  MISS %:    1.43128   MPKI: 0.00332
PSCL2 LOAD TRANSLATION ACCESS:      23196  HIT:      22864  MISS:        332  HIT %:    98.5687  MISS %:    1.43128   MPKI: 0.00332
PSCL2 PREFETCH  REQUESTED:          0  ISSUED:          0  USEFUL:          0  USELESS:          0
PSCL2 USEFUL LOAD PREFETCHES:          0 PREFETCH ISSUED TO LOWER LEVEL:          0  ACCURACY: -nan
PSCL2 TIMELY PREFETCHES:          0 LATE PREFETCHES: 0 DROPPED PREFETCHES: 0
PSCL2 PREFETCHES SAME FILL-ORIGIN LEVEL: 0 DIFFERENT FILL-ORIGIN LEVEL: 0

LLC TOTAL     ACCESS:    2234021  HIT:    1121341  MISS:    1112680  HIT %:    50.1938  MISS %:    49.8062   MPKI: 11.1268
LLC LOAD      ACCESS:    1997295  HIT:     974708  MISS:    1022587  HIT %:    48.8014  MISS %:    51.1986   MPKI: 10.2259
LLC RFO       ACCESS:      28597  HIT:      27447  MISS:       1150  HIT %:    95.9786  MISS %:     4.0214   MPKI: 0.0115
LLC PREFETCH  ACCESS:     130945  HIT:      54123  MISS:      76822  HIT %:    41.3326  MISS %:    58.6674   MPKI: 0.76822
LLC WRITEBACK ACCESS:      67757  HIT:      58330  MISS:       9427  HIT %:     86.087  MISS %:     13.913   MPKI: 0.09427
LLC LOAD TRANSLATION ACCESS:       9427  HIT:       6733  MISS:       2694  HIT %:    71.4225  MISS %:    28.5775   MPKI: 0.02694
LLC PREFETCH  REQUESTED:          0  ISSUED:          0  USEFUL:       5265  USELESS:      71504
LLC USEFUL LOAD PREFETCHES:       5265 PREFETCH ISSUED TO LOWER LEVEL:      76822  ACCURACY: 6.85351
LLC TIMELY PREFETCHES:       5265 LATE PREFETCHES: 0 DROPPED PREFETCHES: 0
LLC PREFETCHES SAME FILL-ORIGIN LEVEL: 0 DIFFERENT FILL-ORIGIN LEVEL: 0
LLC AVERAGE MISS LATENCY: 129.228 cycles
LLC RQ	ACCESS:    2035320	FORWARD:          0	MERGED:          0	TO_CACHE:    2035319
LLC WQ	ACCESS:      67757	FORWARD:          1	MERGED:          0	TO_CACHE:      67757
LLC PQ	ACCESS:     130945	FORWARD:          0	MERGED:          0	TO_CACHE:     130945

LLC Dense regions hint to LLC: 0

RAW hits: 1544613
Loads Generated: 35122249
Loads sent to L1D: 33577636
Stores Generated: 11754604
Stores sent to L1D: 11754634
Major fault: 0 Minor fault: 20569
Allocated PAGES: 20569

stream: 
stream:times selected: 805522
stream:pref_filled: 294102
stream:pref_useful: 46545
stream:pref_late: 5810
stream:misses: 54316
stream:misses_by_poll: 0

CS: 
CS:times selected: 23563
CS:pref_filled: 15307
CS:pref_useful: 14740
CS:pref_late: 815
CS:misses: 2911
CS:misses_by_poll: 18

CPLX: 
CPLX:times selected: 775245
CPLX:pref_filled: 11331
CPLX:pref_useful: 2006
CPLX:pref_late: 66
CPLX:misses: 184939
CPLX:misses_by_poll: 7

NL_L1: 
NL:times selected: 6864
NL:pref_filled: 3325
NL:pref_useful: 532
NL:pref_late: 61
NL:misses: 2331
NL:misses_by_poll: 0

total selections: 1611194
total_filled: 255113
total_useful: 55166
total_late: 6936
total_polluted: 25
total_misses_after_warmup: 160332
conflicts: 38456
Degree Incremented Times: 8185
Degree Decremented Times: 19155

L1 IP Table Write Accesses: 1675184
L1 IP Table Read Accesses: 1636728
L1 RST Write Accesses: 704926
L1 RST Read Accesses: 1409852
L1 CSPT Write Accesses: 704926
L1 CSPT Read Accesses: 1380985
L1 RR Filter Tag Write Accesses: 462698
L1 RR Filter Tag Read Accesses: 21512043
L1 IP Table Tag Write Accesses: 1879094
L1 IP Table Tag Read Accesses: 1879094
L1 RST Tag Write Accesses: 0
L1 RST Tag Read Accesses: 6327004
L1 RR Filter Write Accesses: 0
L1 RR Filter Read Accesses: 784421
test: 419343

DRAM Statistics
 CHANNEL 0
 RQ ROW_BUFFER_HIT:     490329  ROW_BUFFER_MISS:     612921
 DBUS_CONGESTED:        142
 WQ ROW_BUFFER_HIT:       4439  ROW_BUFFER_MISS:      18435  FULL:          0

 AVG_CONGESTED_CYCLE: 4
 All warmup complete: 2
Channel 0 Bank busy for read cycles: 0
Channel 0 Bank busy for write cycles: 0
Channel 0
Rank 0
0banks busy for read cycles: 301655900
0banks busy for write cycles: 19131
1banks busy for read cycles: 43381710
1banks busy for write cycles: 3648077
2banks busy for read cycles: 17336617
2banks busy for write cycles: 413777
3banks busy for read cycles: 6934437
3banks busy for write cycles: 87882
4banks busy for read cycles: 2454045
4banks busy for write cycles: 29889
5banks busy for read cycles: 805164
5banks busy for write cycles: 13973
6banks busy for read cycles: 286564
6banks busy for write cycles: 7313
7banks busy for read cycles: 132627
7banks busy for write cycles: 4390
8banks busy for read cycles: 138516
8banks busy for write cycles: 3315

CPU 0 Branch Prediction Accuracy: 93.0034% MPKI: 17.3454 Average ROB Occupancy at Mispredict: 19.875
Branch types
NOT_BRANCH: 75208488 75.2085%
BRANCH_DIRECT_JUMP: 2599450 2.59945%
BRANCH_INDIRECT: 0 0%
BRANCH_CONDITIONAL: 16688242 16.6882%
BRANCH_DIRECT_CALL: 2602035 2.60203%
BRANCH_INDIRECT_CALL: 149686 0.149686%
BRANCH_RETURN: 2751721 2.75172%
BRANCH_OTHER: 0 0%

DRAM PAGES: 1048576
Allocated PAGES: 20569
