Initialize SIGNATURE TABLE
ST_SET: 1
ST_WAY: 256
ST_TAG_BIT: 16
ST_TAG_MASK: ffff

Initialize PATTERN TABLE
PT_SET: 512
PT_WAY: 4
SIG_DELTA_BIT: 7
C_SIG_BIT: 4
C_DELTA_BIT: 4

Initialize PREFETCH FILTER
FILTER_SET: 1024

*** ChampSim Multicore Out-of-Order Simulator ***

Warmup Instructions: 50000000
Simulation Instructions: 100000000
Number of CPUs: 1
LLC sets: 2048
LLC ways: 16
Off-chip DRAM Size: 4096 MB Channels: 1 Width: 64-bit Data Rate: 6400 MT/s
CPU 0 runs ../SPEC2017//605.mcf_s-665B.champsimtrace.xz
.xz
NUM_OF_IPS_IN_CRITICAL_IP_TRAINING: 64
NUM_OF_CRITICAL_IP_TRAINING_TABLE_WAYS: 2
NUM_OF_CRITICAL_IP_TRAINING_TABLE_SETS: 32
WOBBLY_CRITICAL_IP_CACHE_SETS: 32
WOBBLY_CRITICAL_IP_CACHE_WAYS: 4
BTB has LRU replacement policy
ITLB has LRU replacement policy
DTLB has LRU replacement policy
STLB has LRU replacement policy
L1I has LRU replacement policy
L1D has LRU replacement policy
Initialize SRRIP state for L2C
Initialize DRRIP state for LLC
Heartbeat CPU 0 instructions: 10000000 cycles: 3308332 heartbeat IPC: 3.02267 cumulative IPC: 3.02267 (Simulation time: 0 hr 7 min 10 sec) 
Heartbeat CPU 0 instructions: 20000000 cycles: 6617467 heartbeat IPC: 3.02194 cumulative IPC: 3.0223 (Simulation time: 0 hr 13 min 2 sec) 
Heartbeat CPU 0 instructions: 30000002 cycles: 9920728 heartbeat IPC: 3.02731 cumulative IPC: 3.02397 (Simulation time: 0 hr 18 min 3 sec) 
Heartbeat CPU 0 instructions: 40000003 cycles: 13224892 heartbeat IPC: 3.02648 cumulative IPC: 3.0246 (Simulation time: 0 hr 22 min 41 sec) 
Heartbeat CPU 0 instructions: 50000002 cycles: 16525114 heartbeat IPC: 3.0301 cumulative IPC: 3.0257 (Simulation time: 0 hr 26 min 53 sec) 

Warmup complete CPU 0 instructions: 50000002 cycles: 16525114 (Simulation time: 0 hr 26 min 53 sec) 

Heartbeat CPU 0 instructions: 60000003 cycles: 52471851 heartbeat IPC: 0.278189 cumulative IPC: 0.278189 (Simulation time: 0 hr 31 min 55 sec) 
Heartbeat CPU 0 instructions: 70000003 cycles: 88498049 heartbeat IPC: 0.277576 cumulative IPC: 0.277882 (Simulation time: 0 hr 36 min 39 sec) 
Heartbeat CPU 0 instructions: 80000001 cycles: 124639625 heartbeat IPC: 0.27669 cumulative IPC: 0.277484 (Simulation time: 0 hr 40 min 52 sec) 
Heartbeat CPU 0 instructions: 90000002 cycles: 161666421 heartbeat IPC: 0.270075 cumulative IPC: 0.275593 (Simulation time: 0 hr 44 min 41 sec) 
Heartbeat CPU 0 instructions: 100000000 cycles: 197532367 heartbeat IPC: 0.278816 cumulative IPC: 0.276232 (Simulation time: 0 hr 48 min 12 sec) 
Heartbeat CPU 0 instructions: 110000000 cycles: 233464929 heartbeat IPC: 0.278299 cumulative IPC: 0.276574 (Simulation time: 0 hr 51 min 31 sec) 
Heartbeat CPU 0 instructions: 120000000 cycles: 269168087 heartbeat IPC: 0.280087 cumulative IPC: 0.277071 (Simulation time: 0 hr 58 min 43 sec) 
Heartbeat CPU 0 instructions: 130000000 cycles: 304807885 heartbeat IPC: 0.280585 cumulative IPC: 0.277505 (Simulation time: 1 hr 5 min 29 sec) 
Heartbeat CPU 0 instructions: 140000002 cycles: 341174457 heartbeat IPC: 0.274978 cumulative IPC: 0.277222 (Simulation time: 1 hr 11 min 16 sec) 
Heartbeat CPU 0 instructions: 150000000 cycles: 377351866 heartbeat IPC: 0.276416 cumulative IPC: 0.277141 (Simulation time: 1 hr 16 min 46 sec) 
Finished CPU 0 instructions: 100000000 cycles: 360826754 cumulative IPC: 0.277141 (Simulation time: 1 hr 16 min 46 sec) 

ChampSim completed all CPUs

Region of Interest Statistics

CPU 0 cumulative IPC: 0.277141 instructions: 100000000 cycles: 360826754

CPU 0 Average Load ROB stall cycles: 8.98264e+07
CPU 0 Fraction of times ROB stalled by Loads: 45.3475
CPU 0 Percentage of Load stall cycles in Total stall cycles: 8.78712e+08
Issued all: 55660488
Issued LT all: 44112270
rob_not_full_when_issued_lt_all: 41801063
Issued LT one: 32013907
rob_not_full_when_issued_lt_one: 29986711
 Total stall cycles: 308978226
 Total load stall cycles: 2715027847477893
CPU 0 NUM of IPS identified critical: 0
CPU 0 Num of Load IPs stalling ROB: 255
Threshold modification factor: 0
Max PIST entries: 63
Min PIST entries: 0
Avg PIST entries: 38.8333
Trouble in retire width: 0.973356
MaC = Marked as critical.
lt_50_percent_before_Mac: 0
gt_90_percent_before_Mac: 0
gt_75_percent_before_Mac: 0
gt_50_percent_before_Mac: 0
stall_proportion_bin_same_before_after: 0
stall_proportion_bin_lower_before_after: 0
stall_proportion_bin_upper_before_after: 0
average_stall_proportion_before: -nan
average_stall_proportion_after: -nan
Critical IP stalls, total frequency: 0
Non-critical IP stalls, total frequency: 13706390
Total Freq all stalling IPs: 13706390
stat_90_percent_critical_ip_stalls_freq: 12375802
stat_90_percent_non_critical_ip_stalls_freq: 1330588
Critical_IP_ROB_Stalls_Bucket_0: 0
Non-critical_IP_ROB_Stalls_Bucket_0: 11985408
Critical_IP_ROB_Stalls_Bucket_1: 0
Non-critical_IP_ROB_Stalls_Bucket_1: 1161774
Critical_IP_ROB_Stalls_Bucket_2: 0
Non-critical_IP_ROB_Stalls_Bucket_2: 286834
Critical_IP_ROB_Stalls_Bucket_3: 0
Non-critical_IP_ROB_Stalls_Bucket_3: 95115
Critical_IP_ROB_Stalls_Bucket_4: 0
Non-critical_IP_ROB_Stalls_Bucket_4: 54512
Critical_IP_ROB_Stalls_Bucket_5: 0
Non-critical_IP_ROB_Stalls_Bucket_5: 30223
Critical_IP_ROB_Stalls_Bucket_6: 0
Non-critical_IP_ROB_Stalls_Bucket_6: 92524
0 => IPs accounting for >50 percent of stalls, 1 => 55, 2 => 60, 3 => 65 and so on till 90.
percent50: 50.9887 num IPs:  5
percent55: 55.4024 num IPs: 6
percent60: 63.0062 num IPs: 8
percent65: 66.1649 num IPs: 9
percent70: 71.3393 num IPs: 11
percent75: 76.1264 num IPs: 13
percent80: 80.334 num IPs: 15
percent85: 86.0836 num IPs: 19
percent90: 90.2922 num IPs: 25
Critical_ROB_Stalls_Percent_0_Bucket_0: 6274436
Non-critical_ROB_Stalls_Percent_0_Bucket_0: 5710972
Critical_ROB_Stalls_Percent_0_Bucket_1: 498311
Non-critical_ROB_Stalls_Percent_0_Bucket_1: 663463
Critical_ROB_Stalls_Percent_0_Bucket_2: 118589
Non-critical_ROB_Stalls_Percent_0_Bucket_2: 168245
Critical_ROB_Stalls_Percent_0_Bucket_3: 35329
Non-critical_ROB_Stalls_Percent_0_Bucket_3: 59786
Critical_ROB_Stalls_Percent_0_Bucket_4: 20168
Non-critical_ROB_Stalls_Percent_0_Bucket_4: 34344
Critical_ROB_Stalls_Percent_0_Bucket_5: 10777
Non-critical_ROB_Stalls_Percent_0_Bucket_5: 19446
Critical_ROB_Stalls_Percent_0_Bucket_6: 31099
Non-critical_ROB_Stalls_Percent_0_Bucket_6: 61425
Critical_ROB_Stalls_Percent_1_Bucket_0: 6841317
Non-critical_ROB_Stalls_Percent_1_Bucket_0: 5144091
Critical_ROB_Stalls_Percent_1_Bucket_1: 530532
Non-critical_ROB_Stalls_Percent_1_Bucket_1: 631242
Critical_ROB_Stalls_Percent_1_Bucket_2: 121823
Non-critical_ROB_Stalls_Percent_1_Bucket_2: 165011
Critical_ROB_Stalls_Percent_1_Bucket_3: 36343
Non-critical_ROB_Stalls_Percent_1_Bucket_3: 58772
Critical_ROB_Stalls_Percent_1_Bucket_4: 20579
Non-critical_ROB_Stalls_Percent_1_Bucket_4: 33933
Critical_ROB_Stalls_Percent_1_Bucket_5: 11082
Non-critical_ROB_Stalls_Percent_1_Bucket_5: 19141
Critical_ROB_Stalls_Percent_1_Bucket_6: 31994
Non-critical_ROB_Stalls_Percent_1_Bucket_6: 60530
Critical_ROB_Stalls_Percent_2_Bucket_0: 7633468
Non-critical_ROB_Stalls_Percent_2_Bucket_0: 4351940
Critical_ROB_Stalls_Percent_2_Bucket_1: 680260
Non-critical_ROB_Stalls_Percent_2_Bucket_1: 481514
Critical_ROB_Stalls_Percent_2_Bucket_2: 186864
Non-critical_ROB_Stalls_Percent_2_Bucket_2: 99970
Critical_ROB_Stalls_Percent_2_Bucket_3: 50757
Non-critical_ROB_Stalls_Percent_2_Bucket_3: 44358
Critical_ROB_Stalls_Percent_2_Bucket_4: 32095
Non-critical_ROB_Stalls_Percent_2_Bucket_4: 22417
Critical_ROB_Stalls_Percent_2_Bucket_5: 15568
Non-critical_ROB_Stalls_Percent_2_Bucket_5: 14655
Critical_ROB_Stalls_Percent_2_Bucket_6: 36865
Non-critical_ROB_Stalls_Percent_2_Bucket_6: 55659
Critical_ROB_Stalls_Percent_3_Bucket_0: 8037035
Non-critical_ROB_Stalls_Percent_3_Bucket_0: 3948373
Critical_ROB_Stalls_Percent_3_Bucket_1: 705146
Non-critical_ROB_Stalls_Percent_3_Bucket_1: 456628
Critical_ROB_Stalls_Percent_3_Bucket_2: 189101
Non-critical_ROB_Stalls_Percent_3_Bucket_2: 97733
Critical_ROB_Stalls_Percent_3_Bucket_3: 51759
Non-critical_ROB_Stalls_Percent_3_Bucket_3: 43356
Critical_ROB_Stalls_Percent_3_Bucket_4: 32477
Non-critical_ROB_Stalls_Percent_3_Bucket_4: 22035
Critical_ROB_Stalls_Percent_3_Bucket_5: 15767
Non-critical_ROB_Stalls_Percent_3_Bucket_5: 14456
Critical_ROB_Stalls_Percent_3_Bucket_6: 37537
Non-critical_ROB_Stalls_Percent_3_Bucket_6: 54987
Critical_ROB_Stalls_Percent_4_Bucket_0: 8637742
Non-critical_ROB_Stalls_Percent_4_Bucket_0: 3347666
Critical_ROB_Stalls_Percent_4_Bucket_1: 773229
Non-critical_ROB_Stalls_Percent_4_Bucket_1: 388545
Critical_ROB_Stalls_Percent_4_Bucket_2: 212162
Non-critical_ROB_Stalls_Percent_4_Bucket_2: 74672
Critical_ROB_Stalls_Percent_4_Bucket_3: 59611
Non-critical_ROB_Stalls_Percent_4_Bucket_3: 35504
Critical_ROB_Stalls_Percent_4_Bucket_4: 38094
Non-critical_ROB_Stalls_Percent_4_Bucket_4: 16418
Critical_ROB_Stalls_Percent_4_Bucket_5: 17757
Non-critical_ROB_Stalls_Percent_4_Bucket_5: 12466
Critical_ROB_Stalls_Percent_4_Bucket_6: 39453
Non-critical_ROB_Stalls_Percent_4_Bucket_6: 53071
Critical_ROB_Stalls_Percent_5_Bucket_0: 9285505
Non-critical_ROB_Stalls_Percent_5_Bucket_0: 2699903
Critical_ROB_Stalls_Percent_5_Bucket_1: 778551
Non-critical_ROB_Stalls_Percent_5_Bucket_1: 383223
Critical_ROB_Stalls_Percent_5_Bucket_2: 213840
Non-critical_ROB_Stalls_Percent_5_Bucket_2: 72994
Critical_ROB_Stalls_Percent_5_Bucket_3: 60572
Non-critical_ROB_Stalls_Percent_5_Bucket_3: 34543
Critical_ROB_Stalls_Percent_5_Bucket_4: 38326
Non-critical_ROB_Stalls_Percent_5_Bucket_4: 16186
Critical_ROB_Stalls_Percent_5_Bucket_5: 17864
Non-critical_ROB_Stalls_Percent_5_Bucket_5: 12359
Critical_ROB_Stalls_Percent_5_Bucket_6: 39525
Non-critical_ROB_Stalls_Percent_5_Bucket_6: 52999
Critical_ROB_Stalls_Percent_6_Bucket_0: 9793984
Non-critical_ROB_Stalls_Percent_6_Bucket_0: 2191424
Critical_ROB_Stalls_Percent_6_Bucket_1: 831371
Non-critical_ROB_Stalls_Percent_6_Bucket_1: 330403
Critical_ROB_Stalls_Percent_6_Bucket_2: 224342
Non-critical_ROB_Stalls_Percent_6_Bucket_2: 62492
Critical_ROB_Stalls_Percent_6_Bucket_3: 63271
Non-critical_ROB_Stalls_Percent_6_Bucket_3: 31844
Critical_ROB_Stalls_Percent_6_Bucket_4: 39502
Non-critical_ROB_Stalls_Percent_6_Bucket_4: 15010
Critical_ROB_Stalls_Percent_6_Bucket_5: 18411
Non-critical_ROB_Stalls_Percent_6_Bucket_5: 11812
Critical_ROB_Stalls_Percent_6_Bucket_6: 40008
Non-critical_ROB_Stalls_Percent_6_Bucket_6: 52516
Critical_ROB_Stalls_Percent_7_Bucket_0: 10561968
Non-critical_ROB_Stalls_Percent_7_Bucket_0: 1423440
Critical_ROB_Stalls_Percent_7_Bucket_1: 845739
Non-critical_ROB_Stalls_Percent_7_Bucket_1: 316035
Critical_ROB_Stalls_Percent_7_Bucket_2: 226757
Non-critical_ROB_Stalls_Percent_7_Bucket_2: 60077
Critical_ROB_Stalls_Percent_7_Bucket_3: 64449
Non-critical_ROB_Stalls_Percent_7_Bucket_3: 30666
Critical_ROB_Stalls_Percent_7_Bucket_4: 40026
Non-critical_ROB_Stalls_Percent_7_Bucket_4: 14486
Critical_ROB_Stalls_Percent_7_Bucket_5: 18817
Non-critical_ROB_Stalls_Percent_7_Bucket_5: 11406
Critical_ROB_Stalls_Percent_7_Bucket_6: 41206
Non-critical_ROB_Stalls_Percent_7_Bucket_6: 51318
Critical_ROB_Stalls_Percent_8_Bucket_0: 10989992
Non-critical_ROB_Stalls_Percent_8_Bucket_0: 995416
Critical_ROB_Stalls_Percent_8_Bucket_1: 967123
Non-critical_ROB_Stalls_Percent_8_Bucket_1: 194651
Critical_ROB_Stalls_Percent_8_Bucket_2: 245579
Non-critical_ROB_Stalls_Percent_8_Bucket_2: 41255
Critical_ROB_Stalls_Percent_8_Bucket_3: 69844
Non-critical_ROB_Stalls_Percent_8_Bucket_3: 25271
Critical_ROB_Stalls_Percent_8_Bucket_4: 41719
Non-critical_ROB_Stalls_Percent_8_Bucket_4: 12793
Critical_ROB_Stalls_Percent_8_Bucket_5: 19559
Non-critical_ROB_Stalls_Percent_8_Bucket_5: 10664
Critical_ROB_Stalls_Percent_8_Bucket_6: 41986
Non-critical_ROB_Stalls_Percent_8_Bucket_6: 50538
Average ROB occupancy Load Stall Begin: 24.2836
Average ROB occupancy Load Stall End: 28.2355
Min ROB occupancy Load Stall Begin: 1
Max ROB occupancy Load Stall Begin: 352
Min ROB occupancy Load Stall End: 1
Max ROB occupancy Load Stall End: 352
Average ROB occupancy Critical Load Stall Begin: -nan
Average ROB occupancy Critical Load Stall End: -nan
Min ROB occupancy Critical Load Stall Begin: 400
Max ROB occupancy Critical Load Stall Begin: 0
Min ROB occupancy Critical Load Stall End: 400
Max ROB occupancy Critical Load Stall End: 0
 ROB Load Stall Begin Bucket Count 0: 12278866
 ROB Load Stall End Bucket Count 0: 11985408
 ROB Critical Load Stall Begin Bucket Count 0: 0
 ROB Critical Load Stall End Bucket Count 0: 0
 ROB Load Stall Begin Bucket Count 1: 947575
 ROB Load Stall End Bucket Count 1: 1161774
 ROB Critical Load Stall Begin Bucket Count 1: 0
 ROB Critical Load Stall End Bucket Count 1: 0
 ROB Load Stall Begin Bucket Count 2: 238018
 ROB Load Stall End Bucket Count 2: 286834
 ROB Critical Load Stall Begin Bucket Count 2: 0
 ROB Critical Load Stall End Bucket Count 2: 0
 ROB Load Stall Begin Bucket Count 3: 78832
 ROB Load Stall End Bucket Count 3: 95115
 ROB Critical Load Stall Begin Bucket Count 3: 0
 ROB Critical Load Stall End Bucket Count 3: 0
 ROB Load Stall Begin Bucket Count 4: 47605
 ROB Load Stall End Bucket Count 4: 54512
 ROB Critical Load Stall Begin Bucket Count 4: 0
 ROB Critical Load Stall End Bucket Count 4: 0
 ROB Load Stall Begin Bucket Count 5: 27857
 ROB Load Stall End Bucket Count 5: 30223
 ROB Critical Load Stall Begin Bucket Count 5: 0
 ROB Critical Load Stall End Bucket Count 5: 0
 ROB Load Stall Begin Bucket Count 6: 87637
 ROB Load Stall End Bucket Count 6: 92524
 ROB Critical Load Stall Begin Bucket Count 6: 0
 ROB Critical Load Stall End Bucket Count 6: 0
PIST Tag Read Accesses: 728552
PIST Read Accesses: 364276
PIST Tag Write Accesses: 728552
PIST Write Accesses: 364276
Criticality detector called times: 3926834
Max global_stall_cycles_count: 877631
Threshold Modified: 0 times, factor: 0
Sturdy critical IP cache stats: 
 Unused entries: 0
CIC Tag Read Accesses: 0
CIC Read Accesses: 0
CIC Tag Write Accesses: 0
CIC Write Accesses: 0
Wobbly critical IP cache stats: 
 Unused entries: 104
CIC Tag Read Accesses: 354719883
CIC Read Accesses: 0
CIC Tag Write Accesses: 207097
CIC Write Accesses: 0
ITLB TOTAL     ACCESS:   18143942  HIT:   18143942  MISS:          0  HIT %:        100  MISS %:          0   MPKI: 0
ITLB LOAD TRANSLATION ACCESS:   18143942  HIT:   18143942  MISS:          0  HIT %:        100  MISS %:          0   MPKI: 0
ITLB PREFETCH  REQUESTED:          0  ISSUED:          0  USEFUL:          0  USELESS:          0
ITLB USEFUL LOAD PREFETCHES:          0 PREFETCH ISSUED TO LOWER LEVEL:          0  ACCURACY: -nan
ITLB TIMELY PREFETCHES:          0 LATE PREFETCHES: 0 DROPPED PREFETCHES: 0
ITLB PREFETCHES SAME FILL-ORIGIN LEVEL: 0 DIFFERENT FILL-ORIGIN LEVEL: 0
ITLB AVERAGE MISS LATENCY: -nan cycles
ITLB RQ	ACCESS:   18993820	FORWARD:          0	MERGED:     849879	TO_CACHE:   18143941

DTLB TOTAL     ACCESS:   31064304  HIT:   29489632  MISS:    1574672  HIT %:    94.9309  MISS %:    5.06907   MPKI: 15.7467
DTLB LOAD TRANSLATION ACCESS:   31064304  HIT:   29489632  MISS:    1574672  HIT %:    94.9309  MISS %:    5.06907   MPKI: 15.7467
DTLB PREFETCH  REQUESTED:          0  ISSUED:          0  USEFUL:          0  USELESS:          0
DTLB USEFUL LOAD PREFETCHES:          0 PREFETCH ISSUED TO LOWER LEVEL:          0  ACCURACY: -nan
DTLB TIMELY PREFETCHES:          0 LATE PREFETCHES: 0 DROPPED PREFETCHES: 0
DTLB PREFETCHES SAME FILL-ORIGIN LEVEL: 0 DIFFERENT FILL-ORIGIN LEVEL: 0
DTLB AVERAGE MISS LATENCY: 10.647 cycles
DTLB RQ	ACCESS:   37831514	FORWARD:          0	MERGED:    6577120	TO_CACHE:   31254394

STLB TOTAL     ACCESS:    1574672  HIT:    1551456  MISS:      23216  HIT %:    98.5257  MISS %:    1.47434   MPKI: 0.23216
STLB LOAD TRANSLATION ACCESS:    1574672  HIT:    1551456  MISS:      23216  HIT %:    98.5257  MISS %:    1.47434   MPKI: 0.23216
STLB PREFETCH  REQUESTED:          0  ISSUED:          0  USEFUL:          0  USELESS:          0
STLB USEFUL LOAD PREFETCHES:          0 PREFETCH ISSUED TO LOWER LEVEL:          0  ACCURACY: -nan
STLB TIMELY PREFETCHES:          0 LATE PREFETCHES: 0 DROPPED PREFETCHES: 0
STLB PREFETCHES SAME FILL-ORIGIN LEVEL: 0 DIFFERENT FILL-ORIGIN LEVEL: 0
STLB AVERAGE MISS LATENCY: 106.3 cycles
STLB RQ	ACCESS:    1574672	FORWARD:          0	MERGED:          0	TO_CACHE:    1574672

STLB Hit, L1D data hit: 0
STLB Hit, L2C data hit: 0
STLB Hit, LLC data hit: 0
STLB Hit, LLC data miss: 0
STLB STLB hints to L2: 0
L1D TOTAL     ACCESS:   37122752  HIT:   33535723  MISS:    3587029  HIT %:    90.3374  MISS %:    9.66262   MPKI: 35.8703
L1D LOAD      ACCESS:   26026370  HIT:   22815918  MISS:    3210452  HIT %:    87.6646  MISS %:    12.3354   MPKI: 32.1045
L1D RFO       ACCESS:   11096382  HIT:   10719805  MISS:     376577  HIT %:    96.6063  MISS %:    3.39369   MPKI: 3.76577
L1D PREFETCH  REQUESTED:          0  ISSUED:          0  USEFUL:          0  USELESS:          0
L1D USEFUL LOAD PREFETCHES:          0 PREFETCH ISSUED TO LOWER LEVEL:          0  ACCURACY: -nan
L1D TIMELY PREFETCHES:          0 LATE PREFETCHES: 0 DROPPED PREFETCHES: 0
L1D PREFETCHES SAME FILL-ORIGIN LEVEL: 0 DIFFERENT FILL-ORIGIN LEVEL: 0
L1D AVERAGE MISS LATENCY: 56.9865 cycles
L1D RQ	ACCESS:   33577526	FORWARD:          0	MERGED:    6330022	TO_CACHE:   26117474
L1D WQ	ACCESS:   11754634	FORWARD:    1130030	MERGED:      40594	TO_CACHE:   11714040

L1D UNIQUE REGIONS ACCESSED: 0
L1D REGIONS CONFLICTS: 0
L1D Cross Page Prefetch Requests: 0
L1D Same Page Prefetch Requests: 0
L1D ROI Sum of L1D PQ occupancy: 0
L1D PREFETCHES PUSHED FROM L2C: 0
L1I TOTAL     ACCESS:   18993821  HIT:   18993819  MISS:          2  HIT %:        100  MISS %: 1.05297e-05   MPKI: 2e-05
L1I LOAD      ACCESS:   18993821  HIT:   18993819  MISS:          2  HIT %:        100  MISS %: 1.05297e-05   MPKI: 2e-05
L1I PREFETCH  REQUESTED:          0  ISSUED:          0  USEFUL:          0  USELESS:          0
L1I USEFUL LOAD PREFETCHES:          0 PREFETCH ISSUED TO LOWER LEVEL:          0  ACCURACY: -nan
L1I TIMELY PREFETCHES:          0 LATE PREFETCHES: 0 DROPPED PREFETCHES: 0
L1I PREFETCHES SAME FILL-ORIGIN LEVEL: 0 DIFFERENT FILL-ORIGIN LEVEL: 0
L1I AVERAGE MISS LATENCY: 214 cycles
L1I RQ	ACCESS:   30756583	FORWARD:          0	MERGED:   11762763	TO_CACHE:   18993820

BTB TOTAL     ACCESS:   23681315  HIT:   22481474  MISS:    1199841  HIT %:    94.9334  MISS %:    5.06661   MPKI: 11.9984
BTB BRANCH_DIRECT_JUMP	ACCESS:    2599450  HIT:    2599413  MISS:         37
BTB BRANCH_INDIRECT	ACCESS:          0  HIT:          0  MISS:          0
BTB BRANCH_CONDITIONAL	ACCESS:   15578423  HIT:   15578344  MISS:         79
BTB BRANCH_DIRECT_CALL	ACCESS:    2602035  HIT:    2602017  MISS:         18
BTB BRANCH_INDIRECT_CALL	ACCESS:     149686  HIT:     149678  MISS:          8
BTB BRANCH_RETURN	ACCESS:    2751721  HIT:    1552022  MISS:    1199699
BTB BRANCH_OTHER ACCESS:          0  HIT:          0  MISS:          0

L2C TOTAL     ACCESS:    4351063  HIT:    2295407  MISS:    2055656  HIT %:    52.7551  MISS %:    47.2449   MPKI: 20.5566
L2C LOAD      ACCESS:    3210438  HIT:    1288120  MISS:    1922318  HIT %:    40.1229  MISS %:    59.8771   MPKI: 19.2232
L2C DATA LOAD MPKI: 19.2232
L2C INSTRUCTION LOAD MPKI: 2e-05
L2C RFO       ACCESS:     376573  HIT:     346012  MISS:      30561  HIT %:    91.8844  MISS %:    8.11556   MPKI: 0.30561
L2C PREFETCH  ACCESS:     220618  HIT:     127959  MISS:      92659  HIT %:    58.0003  MISS %:    41.9997   MPKI: 0.92659
L2C DATA PREFETCH MPKI: 0.92659
L2C INSTRUCTION PREFETCH MPKI: 0
L2C WRITEBACK ACCESS:     520001  HIT:     519311  MISS:        690  HIT %:    99.8673  MISS %:   0.132692   MPKI: 0.0069
L2C LOAD TRANSLATION ACCESS:      23433  HIT:      14005  MISS:       9428  HIT %:    59.7661  MISS %:    40.2339   MPKI: 0.09428
L2C PREFETCH  REQUESTED:    2268237  ISSUED:    2268235  USEFUL:      85948  USELESS:       6696
L2C USEFUL LOAD PREFETCHES:      85948 PREFETCH ISSUED TO LOWER LEVEL:    1917531  ACCURACY: 4.48222
L2C TIMELY PREFETCHES:      85948 LATE PREFETCHES: 100894 DROPPED PREFETCHES: 0
L2C PREFETCHES SAME FILL-ORIGIN LEVEL: 193553 DIFFERENT FILL-ORIGIN LEVEL: 1723978
L2C AVERAGE MISS LATENCY: 77.3042 cycles
L2C RQ	ACCESS:    3610464	FORWARD:          0	MERGED:          0	TO_CACHE:    3610444
L2C WQ	ACCESS:     520001	FORWARD:         20	MERGED:          0	TO_CACHE:     520001
L2C PQ	ACCESS:    2268235	FORWARD:          0	MERGED:     143628	TO_CACHE:    2124607

L2C Instructions Evicting Data 2
L2C Translations Evicting Data 9381
L2C Data Evicting Data 2036131
L2C Instructions Evicting Instructions 0
L2C Translations Evicting Instructions 0
L2C Data Evicting Instructions 2
L2C Instructions Evicting Translations 0
L2C Translations Evicting Translations 47
L2C Data Evicting Translations 9403
L2C Dense regions hint from L2: 0
PSCL5 TOTAL     ACCESS:      23216  HIT:      23216  MISS:          0  HIT %:        100  MISS %:          0   MPKI: 0
PSCL5 LOAD TRANSLATION ACCESS:      23216  HIT:      23216  MISS:          0  HIT %:        100  MISS %:          0   MPKI: 0
PSCL5 PREFETCH  REQUESTED:          0  ISSUED:          0  USEFUL:          0  USELESS:          0
PSCL5 USEFUL LOAD PREFETCHES:          0 PREFETCH ISSUED TO LOWER LEVEL:          0  ACCURACY: -nan
PSCL5 TIMELY PREFETCHES:          0 LATE PREFETCHES: 0 DROPPED PREFETCHES: 0
PSCL5 PREFETCHES SAME FILL-ORIGIN LEVEL: 0 DIFFERENT FILL-ORIGIN LEVEL: 0

PSCL4 TOTAL     ACCESS:      23216  HIT:      23216  MISS:          0  HIT %:        100  MISS %:          0   MPKI: 0
PSCL4 LOAD TRANSLATION ACCESS:      23216  HIT:      23216  MISS:          0  HIT %:        100  MISS %:          0   MPKI: 0
PSCL4 PREFETCH  REQUESTED:          0  ISSUED:          0  USEFUL:          0  USELESS:          0
PSCL4 USEFUL LOAD PREFETCHES:          0 PREFETCH ISSUED TO LOWER LEVEL:          0  ACCURACY: -nan
PSCL4 TIMELY PREFETCHES:          0 LATE PREFETCHES: 0 DROPPED PREFETCHES: 0
PSCL4 PREFETCHES SAME FILL-ORIGIN LEVEL: 0 DIFFERENT FILL-ORIGIN LEVEL: 0

PSCL3 TOTAL     ACCESS:      23216  HIT:      23216  MISS:          0  HIT %:        100  MISS %:          0   MPKI: 0
PSCL3 LOAD TRANSLATION ACCESS:      23216  HIT:      23216  MISS:          0  HIT %:        100  MISS %:          0   MPKI: 0
PSCL3 PREFETCH  REQUESTED:          0  ISSUED:          0  USEFUL:          0  USELESS:          0
PSCL3 USEFUL LOAD PREFETCHES:          0 PREFETCH ISSUED TO LOWER LEVEL:          0  ACCURACY: -nan
PSCL3 TIMELY PREFETCHES:          0 LATE PREFETCHES: 0 DROPPED PREFETCHES: 0
PSCL3 PREFETCHES SAME FILL-ORIGIN LEVEL: 0 DIFFERENT FILL-ORIGIN LEVEL: 0

PSCL2 TOTAL     ACCESS:      23216  HIT:      22884  MISS:        332  HIT %:      98.57  MISS %:    1.43005   MPKI: 0.00332
PSCL2 LOAD TRANSLATION ACCESS:      23216  HIT:      22884  MISS:        332  HIT %:      98.57  MISS %:    1.43005   MPKI: 0.00332
PSCL2 PREFETCH  REQUESTED:          0  ISSUED:          0  USEFUL:          0  USELESS:          0
PSCL2 USEFUL LOAD PREFETCHES:          0 PREFETCH ISSUED TO LOWER LEVEL:          0  ACCURACY: -nan
PSCL2 TIMELY PREFETCHES:          0 LATE PREFETCHES: 0 DROPPED PREFETCHES: 0
PSCL2 PREFETCHES SAME FILL-ORIGIN LEVEL: 0 DIFFERENT FILL-ORIGIN LEVEL: 0

LLC TOTAL     ACCESS:    3306740  HIT:    2098449  MISS:    1208291  HIT %:    63.4598  MISS %:    36.5402   MPKI: 12.0829
LLC LOAD      ACCESS:    1821424  HIT:    1262833  MISS:     558591  HIT %:    69.3322  MISS %:    30.6678   MPKI: 5.58591
LLC RFO       ACCESS:      30561  HIT:      28660  MISS:       1901  HIT %:    93.7797  MISS %:    6.22035   MPKI: 0.01901
LLC PREFETCH  ACCESS:    1375548  HIT:     746478  MISS:     629070  HIT %:    54.2677  MISS %:    45.7323   MPKI: 6.2907
LLC WRITEBACK ACCESS:      69779  HIT:      54467  MISS:      15312  HIT %:    78.0564  MISS %:    21.9436   MPKI: 0.15312
LLC LOAD TRANSLATION ACCESS:       9428  HIT:       6011  MISS:       3417  HIT %:    63.7569  MISS %:    36.2431   MPKI: 0.03417
LLC PREFETCH  REQUESTED:          0  ISSUED:          0  USEFUL:     394548  USELESS:     229269
LLC USEFUL LOAD PREFETCHES:     394548 PREFETCH ISSUED TO LOWER LEVEL:     755516  ACCURACY: 52.2223
LLC TIMELY PREFETCHES:     394548 LATE PREFETCHES: 126446 DROPPED PREFETCHES: 0
LLC PREFETCHES SAME FILL-ORIGIN LEVEL: 723212 DIFFERENT FILL-ORIGIN LEVEL: 0
LLC AVERAGE MISS LATENCY: 140.327 cycles
LLC RQ	ACCESS:    1861413	FORWARD:          0	MERGED:          0	TO_CACHE:    1861413
LLC WQ	ACCESS:      69779	FORWARD:          0	MERGED:          0	TO_CACHE:      69779
LLC PQ	ACCESS:    1917531	FORWARD:          0	MERGED:      10378	TO_CACHE:    1907153

LLC Dense regions hint to LLC: 0

RAW hits: 1544723
Loads Generated: 35122249
Loads sent to L1D: 33577526
Stores Generated: 11754604
Stores sent to L1D: 11754634
Major fault: 0 Minor fault: 20569
Allocated PAGES: 20569
 All Calls: 4972421
 Critical Calls: 2850705
------------------
Depth Distribution
------------------
depth 0: 0
depth 1: 786342
depth 2: 730759
depth 3: 431709
depth 4: 219844
depth 5: 82532
depth 6: 9290
depth 7: 4733
depth 8: 2667
depth 9: 359
depth 10: 0
depth 11: 0
depth 12: 0
depth 13: 0
depth 14: 0
depth 15: 0
depth 16: 0
depth 17: 0
depth 18: 0
depth 19: 0
depth 20: 0
depth 21: 0
depth 22: 0
depth 23: 0
depth 24: 0
depth 25: 0
depth 26: 0
depth 27: 0
depth 28: 0
depth 29: 0
Total: 2268235
-----------------------------
-----------------------------
	Captured at Filter
-----------------------------
depth 0: 0
depth 1: 4283
depth 2: 3549
depth 3: 2342
depth 4: 1476
depth 5: 741
depth 6: 408
depth 7: 195
depth 8: 99
depth 9: 14
depth 10: 0
depth 11: 0
depth 12: 0
depth 13: 0
depth 14: 0
depth 15: 0
depth 16: 0
depth 17: 0
depth 18: 0
depth 19: 0
depth 20: 0
depth 21: 0
depth 22: 0
depth 23: 0
depth 24: 0
depth 25: 0
depth 26: 0
depth 27: 0
depth 28: 0
depth 29: 0
-----------------------------
-----------------------------
		Lost at Page
-----------------------------
depth 0: 0
depth 1: 11788
depth 2: 21749
depth 3: 19445
depth 4: 13566
depth 5: 6725
depth 6: 1393
depth 7: 1107
depth 8: 794
depth 9: 140
depth 10: 0
depth 11: 0
depth 12: 0
depth 13: 0
depth 14: 0
depth 15: 0
depth 16: 0
depth 17: 0
depth 18: 0
depth 19: 0
depth 20: 0
depth 21: 0
depth 22: 0
depth 23: 0
depth 24: 0
depth 25: 0
depth 26: 0
depth 27: 0
depth 28: 0
depth 29: 0
-----------------------------
-----------------------------
	Lost due to PQ Size
-----------------------------
2
-----------------------------
ST read accesses: 1965671
ST write accesses: 885034
PT read accesses: 32056713
PT write accesses: 2591186
FILTER read accesses: 7186360
FILTER write accesses: 2518809
GHR read accesses: 7517318
GHR write accesses: 76707
GHR counter read accesses: 26467990
GHR counter write accesses: 3291848
ST tag read accesses: 1549529586
ST tag write accesses: 293946365

DRAM Statistics
 CHANNEL 0
 RQ ROW_BUFFER_HIT:     427001  ROW_BUFFER_MISS:     765975
 DBUS_CONGESTED:        145
 WQ ROW_BUFFER_HIT:       3698  ROW_BUFFER_MISS:      24943  FULL:          0

 AVG_CONGESTED_CYCLE: 5
 All warmup complete: 2
Channel 0 Bank busy for read cycles: 0
Channel 0 Bank busy for write cycles: 0
Channel 0
Rank 0
0banks busy for read cycles: 290415962
0banks busy for write cycles: 23708
1banks busy for read cycles: 32338907
1banks busy for write cycles: 4000969
2banks busy for read cycles: 14995243
2banks busy for write cycles: 529290
3banks busy for read cycles: 8097162
3banks busy for write cycles: 103618
4banks busy for read cycles: 5121072
4banks busy for write cycles: 26760
5banks busy for read cycles: 2939816
5banks busy for write cycles: 11847
6banks busy for read cycles: 1373907
6banks busy for write cycles: 3305
7banks busy for read cycles: 543413
7banks busy for write cycles: 1934
8banks busy for read cycles: 299556
8banks busy for write cycles: 286

CPU 0 Branch Prediction Accuracy: 93.0034% MPKI: 17.3454 Average ROB Occupancy at Mispredict: 19.6894
Branch types
NOT_BRANCH: 75208488 75.2085%
BRANCH_DIRECT_JUMP: 2599450 2.59945%
BRANCH_INDIRECT: 0 0%
BRANCH_CONDITIONAL: 16688242 16.6882%
BRANCH_DIRECT_CALL: 2602035 2.60203%
BRANCH_INDIRECT_CALL: 149686 0.149686%
BRANCH_RETURN: 2751721 2.75172%
BRANCH_OTHER: 0 0%

DRAM PAGES: 1048576
Allocated PAGES: 20569
