
*** ChampSim Multicore Out-of-Order Simulator ***

Warmup Instructions: 50000000
Simulation Instructions: 100000000
Number of CPUs: 1
LLC sets: 2048
LLC ways: 16
Off-chip DRAM Size: 4096 MB Channels: 1 Width: 64-bit Data Rate: 6400 MT/s
CPU 0 runs ../SPEC2017//605.mcf_s-1536B.champsimtrace.xz
.xz
BTB has LRU replacement policy
ITLB has LRU replacement policy
DTLB has LRU replacement policy
STLB has LRU replacement policy
L1I has LRU replacement policy
IP Table Entries: 64
L1D has LRU replacement policy
Initialize SRRIP state for L2C
Initialize DRRIP state for LLC
Heartbeat CPU 0 instructions: 10000003 cycles: 2841264 heartbeat IPC: 3.51956 cumulative IPC: 3.51956 (Simulation time: 0 hr 4 min 47 sec) 
Heartbeat CPU 0 instructions: 20000003 cycles: 5672608 heartbeat IPC: 3.53189 cumulative IPC: 3.52572 (Simulation time: 0 hr 8 min 30 sec) 
Heartbeat CPU 0 instructions: 30000001 cycles: 8520768 heartbeat IPC: 3.51104 cumulative IPC: 3.52081 (Simulation time: 0 hr 12 min 11 sec) 
Heartbeat CPU 0 instructions: 40000001 cycles: 11376904 heartbeat IPC: 3.50123 cumulative IPC: 3.5159 (Simulation time: 0 hr 15 min 51 sec) 
Heartbeat CPU 0 instructions: 50000003 cycles: 14237514 heartbeat IPC: 3.49576 cumulative IPC: 3.51185 (Simulation time: 0 hr 19 min 14 sec) 

Warmup complete CPU 0 instructions: 50000003 cycles: 14237514 (Simulation time: 0 hr 19 min 14 sec) 

Heartbeat CPU 0 instructions: 60000003 cycles: 51016757 heartbeat IPC: 0.271892 cumulative IPC: 0.271892 (Simulation time: 0 hr 25 min 37 sec) 
Heartbeat CPU 0 instructions: 70000000 cycles: 87816274 heartbeat IPC: 0.271743 cumulative IPC: 0.271818 (Simulation time: 0 hr 31 min 58 sec) 
Heartbeat CPU 0 instructions: 80000003 cycles: 124600944 heartbeat IPC: 0.271852 cumulative IPC: 0.271829 (Simulation time: 0 hr 38 min 20 sec) 
Heartbeat CPU 0 instructions: 90000000 cycles: 161550369 heartbeat IPC: 0.27064 cumulative IPC: 0.271531 (Simulation time: 0 hr 44 min 55 sec) 
Heartbeat CPU 0 instructions: 100000002 cycles: 198574165 heartbeat IPC: 0.270097 cumulative IPC: 0.271243 (Simulation time: 0 hr 50 min 58 sec) 
Heartbeat CPU 0 instructions: 110000000 cycles: 235483275 heartbeat IPC: 0.270936 cumulative IPC: 0.271192 (Simulation time: 0 hr 56 min 13 sec) 
Heartbeat CPU 0 instructions: 120000000 cycles: 273022980 heartbeat IPC: 0.266385 cumulative IPC: 0.270494 (Simulation time: 0 hr 59 min 44 sec) 
Heartbeat CPU 0 instructions: 130000003 cycles: 310168943 heartbeat IPC: 0.269208 cumulative IPC: 0.270333 (Simulation time: 1 hr 2 min 34 sec) 
Heartbeat CPU 0 instructions: 140000000 cycles: 347932228 heartbeat IPC: 0.264807 cumulative IPC: 0.269708 (Simulation time: 1 hr 4 min 48 sec) 
Heartbeat CPU 0 instructions: 150000001 cycles: 385517014 heartbeat IPC: 0.266065 cumulative IPC: 0.269339 (Simulation time: 1 hr 6 min 35 sec) 
Finished CPU 0 instructions: 100000002 cycles: 371279501 cumulative IPC: 0.269339 (Simulation time: 1 hr 6 min 35 sec) 

ChampSim completed all CPUs

Region of Interest Statistics

CPU 0 cumulative IPC: 0.269339 instructions: 100000002 cycles: 371279501

CPU 0 Average Load ROB stall cycles: 8.17056e+07
CPU 0 Fraction of times ROB stalled by Loads: 40.9838
CPU 0 Percentage of Load stall cycles in Total stall cycles: 2.71603e+08
Issued all: 352409988
Issued LT all: 347841468
rob_not_full_when_issued_lt_all: 12884889
Issued LT one: 325418786
rob_not_full_when_issued_lt_one: 10958824
HPCA_2009 critical_dynamic_instances_0: 4436618
HPCA_2009 unique_critical_ips_0: 18
multiple_destinations_0: 0
load_to_same_dest_0: 0
low_issue_rate_0: 29051003
total_issue_rate_checked_count_0: 29051003
 Total stall cycles: 344896185
 Total load stall cycles: 936747408391876
Unique Load IPs: 15
CPU 0 NUM of IPS identified critical: 0
CPU 0 Num of Load IPs stalling ROB: 0
Threshold modification factor: 0
Trouble in retire width: -nan
MaC = Marked as critical.
lt_50_percent_before_Mac: 0
gt_90_percent_before_Mac: 0
gt_75_percent_before_Mac: 0
gt_50_percent_before_Mac: 0
stall_proportion_bin_same_before_after: 0
stall_proportion_bin_lower_before_after: 0
stall_proportion_bin_upper_before_after: 0
average_stall_proportion_before: -nan
average_stall_proportion_after: -nan
Critical IP stalls, total frequency: 0
Non-critical IP stalls, total frequency: 0
Total Freq all stalling IPs: 0
Critical_IP_Detector_Accuracy_70: 0.0555556
Critical_IP_Detector_Accuracy_80: 0.0555556
Critical_IP_Detector_Accuracy_90: 0.0555556
Critical_IP_Detector_Coverage_70: 1
Critical_IP_Detector_Coverage_80: 1
Critical_IP_Detector_Coverage_90: 1
stat_90_percent_critical_ip_stalls_freq: 1805185
stat_90_percent_non_critical_ip_stalls_freq: 18446744073707746431
AVERAGE_ROB_Occupancy_90_Percent_Critical_IP_Stalls: 349.329
AVERAGE_ROB_Occupancy_90_Percent_Non_Critical_IP_Stalls: 5.47264e-11
Critical_IP_ROB_Stalls_Bucket_0: 0
Non-critical_IP_ROB_Stalls_Bucket_0: 6194
Critical_IP_ROB_Stalls_Bucket_1: 0
Non-critical_IP_ROB_Stalls_Bucket_1: 4054
Critical_IP_ROB_Stalls_Bucket_2: 0
Non-critical_IP_ROB_Stalls_Bucket_2: 4160
Critical_IP_ROB_Stalls_Bucket_3: 0
Non-critical_IP_ROB_Stalls_Bucket_3: 4171
Critical_IP_ROB_Stalls_Bucket_4: 0
Non-critical_IP_ROB_Stalls_Bucket_4: 3917
Critical_IP_ROB_Stalls_Bucket_5: 0
Non-critical_IP_ROB_Stalls_Bucket_5: 9289
Critical_IP_ROB_Stalls_Bucket_6: 0
Non-critical_IP_ROB_Stalls_Bucket_6: 4666974
0 => IPs accounting for >50 percent of stalls, 1 => 55, 2 => 60, 3 => 65 and so on till 90.
percent50: inf num IPs:  1
percent55: inf num IPs: 1
percent60: inf num IPs: 1
percent65: inf num IPs: 1
percent70: inf num IPs: 1
percent75: inf num IPs: 1
percent80: inf num IPs: 1
percent85: inf num IPs: 1
percent90: inf num IPs: 1
Critical_ROB_Stalls_Percent_0_Bucket_0: 1532
Non-critical_ROB_Stalls_Percent_0_Bucket_0: 4662
Critical_ROB_Stalls_Percent_0_Bucket_1: 1455
Non-critical_ROB_Stalls_Percent_0_Bucket_1: 2599
Critical_ROB_Stalls_Percent_0_Bucket_2: 1517
Non-critical_ROB_Stalls_Percent_0_Bucket_2: 2643
Critical_ROB_Stalls_Percent_0_Bucket_3: 1496
Non-critical_ROB_Stalls_Percent_0_Bucket_3: 2675
Critical_ROB_Stalls_Percent_0_Bucket_4: 1458
Non-critical_ROB_Stalls_Percent_0_Bucket_4: 2459
Critical_ROB_Stalls_Percent_0_Bucket_5: 2324
Non-critical_ROB_Stalls_Percent_0_Bucket_5: 6965
Critical_ROB_Stalls_Percent_0_Bucket_6: 1795403
Non-critical_ROB_Stalls_Percent_0_Bucket_6: 2871571
Critical_ROB_Stalls_Percent_1_Bucket_0: 1532
Non-critical_ROB_Stalls_Percent_1_Bucket_0: 4662
Critical_ROB_Stalls_Percent_1_Bucket_1: 1455
Non-critical_ROB_Stalls_Percent_1_Bucket_1: 2599
Critical_ROB_Stalls_Percent_1_Bucket_2: 1517
Non-critical_ROB_Stalls_Percent_1_Bucket_2: 2643
Critical_ROB_Stalls_Percent_1_Bucket_3: 1496
Non-critical_ROB_Stalls_Percent_1_Bucket_3: 2675
Critical_ROB_Stalls_Percent_1_Bucket_4: 1458
Non-critical_ROB_Stalls_Percent_1_Bucket_4: 2459
Critical_ROB_Stalls_Percent_1_Bucket_5: 2324
Non-critical_ROB_Stalls_Percent_1_Bucket_5: 6965
Critical_ROB_Stalls_Percent_1_Bucket_6: 1795403
Non-critical_ROB_Stalls_Percent_1_Bucket_6: 2871571
Critical_ROB_Stalls_Percent_2_Bucket_0: 1532
Non-critical_ROB_Stalls_Percent_2_Bucket_0: 4662
Critical_ROB_Stalls_Percent_2_Bucket_1: 1455
Non-critical_ROB_Stalls_Percent_2_Bucket_1: 2599
Critical_ROB_Stalls_Percent_2_Bucket_2: 1517
Non-critical_ROB_Stalls_Percent_2_Bucket_2: 2643
Critical_ROB_Stalls_Percent_2_Bucket_3: 1496
Non-critical_ROB_Stalls_Percent_2_Bucket_3: 2675
Critical_ROB_Stalls_Percent_2_Bucket_4: 1458
Non-critical_ROB_Stalls_Percent_2_Bucket_4: 2459
Critical_ROB_Stalls_Percent_2_Bucket_5: 2324
Non-critical_ROB_Stalls_Percent_2_Bucket_5: 6965
Critical_ROB_Stalls_Percent_2_Bucket_6: 1795403
Non-critical_ROB_Stalls_Percent_2_Bucket_6: 2871571
Critical_ROB_Stalls_Percent_3_Bucket_0: 1532
Non-critical_ROB_Stalls_Percent_3_Bucket_0: 4662
Critical_ROB_Stalls_Percent_3_Bucket_1: 1455
Non-critical_ROB_Stalls_Percent_3_Bucket_1: 2599
Critical_ROB_Stalls_Percent_3_Bucket_2: 1517
Non-critical_ROB_Stalls_Percent_3_Bucket_2: 2643
Critical_ROB_Stalls_Percent_3_Bucket_3: 1496
Non-critical_ROB_Stalls_Percent_3_Bucket_3: 2675
Critical_ROB_Stalls_Percent_3_Bucket_4: 1458
Non-critical_ROB_Stalls_Percent_3_Bucket_4: 2459
Critical_ROB_Stalls_Percent_3_Bucket_5: 2324
Non-critical_ROB_Stalls_Percent_3_Bucket_5: 6965
Critical_ROB_Stalls_Percent_3_Bucket_6: 1795403
Non-critical_ROB_Stalls_Percent_3_Bucket_6: 2871571
Critical_ROB_Stalls_Percent_4_Bucket_0: 1532
Non-critical_ROB_Stalls_Percent_4_Bucket_0: 4662
Critical_ROB_Stalls_Percent_4_Bucket_1: 1455
Non-critical_ROB_Stalls_Percent_4_Bucket_1: 2599
Critical_ROB_Stalls_Percent_4_Bucket_2: 1517
Non-critical_ROB_Stalls_Percent_4_Bucket_2: 2643
Critical_ROB_Stalls_Percent_4_Bucket_3: 1496
Non-critical_ROB_Stalls_Percent_4_Bucket_3: 2675
Critical_ROB_Stalls_Percent_4_Bucket_4: 1458
Non-critical_ROB_Stalls_Percent_4_Bucket_4: 2459
Critical_ROB_Stalls_Percent_4_Bucket_5: 2324
Non-critical_ROB_Stalls_Percent_4_Bucket_5: 6965
Critical_ROB_Stalls_Percent_4_Bucket_6: 1795403
Non-critical_ROB_Stalls_Percent_4_Bucket_6: 2871571
Critical_ROB_Stalls_Percent_5_Bucket_0: 1532
Non-critical_ROB_Stalls_Percent_5_Bucket_0: 4662
Critical_ROB_Stalls_Percent_5_Bucket_1: 1455
Non-critical_ROB_Stalls_Percent_5_Bucket_1: 2599
Critical_ROB_Stalls_Percent_5_Bucket_2: 1517
Non-critical_ROB_Stalls_Percent_5_Bucket_2: 2643
Critical_ROB_Stalls_Percent_5_Bucket_3: 1496
Non-critical_ROB_Stalls_Percent_5_Bucket_3: 2675
Critical_ROB_Stalls_Percent_5_Bucket_4: 1458
Non-critical_ROB_Stalls_Percent_5_Bucket_4: 2459
Critical_ROB_Stalls_Percent_5_Bucket_5: 2324
Non-critical_ROB_Stalls_Percent_5_Bucket_5: 6965
Critical_ROB_Stalls_Percent_5_Bucket_6: 1795403
Non-critical_ROB_Stalls_Percent_5_Bucket_6: 2871571
Critical_ROB_Stalls_Percent_6_Bucket_0: 1532
Non-critical_ROB_Stalls_Percent_6_Bucket_0: 4662
Critical_ROB_Stalls_Percent_6_Bucket_1: 1455
Non-critical_ROB_Stalls_Percent_6_Bucket_1: 2599
Critical_ROB_Stalls_Percent_6_Bucket_2: 1517
Non-critical_ROB_Stalls_Percent_6_Bucket_2: 2643
Critical_ROB_Stalls_Percent_6_Bucket_3: 1496
Non-critical_ROB_Stalls_Percent_6_Bucket_3: 2675
Critical_ROB_Stalls_Percent_6_Bucket_4: 1458
Non-critical_ROB_Stalls_Percent_6_Bucket_4: 2459
Critical_ROB_Stalls_Percent_6_Bucket_5: 2324
Non-critical_ROB_Stalls_Percent_6_Bucket_5: 6965
Critical_ROB_Stalls_Percent_6_Bucket_6: 1795403
Non-critical_ROB_Stalls_Percent_6_Bucket_6: 2871571
Critical_ROB_Stalls_Percent_7_Bucket_0: 1532
Non-critical_ROB_Stalls_Percent_7_Bucket_0: 4662
Critical_ROB_Stalls_Percent_7_Bucket_1: 1455
Non-critical_ROB_Stalls_Percent_7_Bucket_1: 2599
Critical_ROB_Stalls_Percent_7_Bucket_2: 1517
Non-critical_ROB_Stalls_Percent_7_Bucket_2: 2643
Critical_ROB_Stalls_Percent_7_Bucket_3: 1496
Non-critical_ROB_Stalls_Percent_7_Bucket_3: 2675
Critical_ROB_Stalls_Percent_7_Bucket_4: 1458
Non-critical_ROB_Stalls_Percent_7_Bucket_4: 2459
Critical_ROB_Stalls_Percent_7_Bucket_5: 2324
Non-critical_ROB_Stalls_Percent_7_Bucket_5: 6965
Critical_ROB_Stalls_Percent_7_Bucket_6: 1795403
Non-critical_ROB_Stalls_Percent_7_Bucket_6: 2871571
Critical_ROB_Stalls_Percent_8_Bucket_0: 1532
Non-critical_ROB_Stalls_Percent_8_Bucket_0: 4662
Critical_ROB_Stalls_Percent_8_Bucket_1: 1455
Non-critical_ROB_Stalls_Percent_8_Bucket_1: 2599
Critical_ROB_Stalls_Percent_8_Bucket_2: 1517
Non-critical_ROB_Stalls_Percent_8_Bucket_2: 2643
Critical_ROB_Stalls_Percent_8_Bucket_3: 1496
Non-critical_ROB_Stalls_Percent_8_Bucket_3: 2675
Critical_ROB_Stalls_Percent_8_Bucket_4: 1458
Non-critical_ROB_Stalls_Percent_8_Bucket_4: 2459
Critical_ROB_Stalls_Percent_8_Bucket_5: 2324
Non-critical_ROB_Stalls_Percent_8_Bucket_5: 6965
Critical_ROB_Stalls_Percent_8_Bucket_6: 1795403
Non-critical_ROB_Stalls_Percent_8_Bucket_6: 2871571
Average ROB occupancy Load Stall Begin: 344.125
Average ROB occupancy Load Stall End: 349.055
Min ROB occupancy Load Stall Begin: 2
Max ROB occupancy Load Stall Begin: 352
Min ROB occupancy Load Stall End: 2
Max ROB occupancy Load Stall End: 352
Average ROB occupancy Critical Load Stall Begin: -nan
Average ROB occupancy Critical Load Stall End: -nan
Min ROB occupancy Critical Load Stall Begin: 400
Max ROB occupancy Critical Load Stall Begin: 0
Min ROB occupancy Critical Load Stall End: 400
Max ROB occupancy Critical Load Stall End: 0
 ROB Load Stall Begin Bucket Count 0: 8123
 ROB Load Stall End Bucket Count 0: 6194
 ROB Critical Load Stall Begin Bucket Count 0: 0
 ROB Critical Load Stall End Bucket Count 0: 0
 ROB Load Stall Begin Bucket Count 1: 3999
 ROB Load Stall End Bucket Count 1: 4054
 ROB Critical Load Stall Begin Bucket Count 1: 0
 ROB Critical Load Stall End Bucket Count 1: 0
 ROB Load Stall Begin Bucket Count 2: 4132
 ROB Load Stall End Bucket Count 2: 4160
 ROB Critical Load Stall Begin Bucket Count 2: 0
 ROB Critical Load Stall End Bucket Count 2: 0
 ROB Load Stall Begin Bucket Count 3: 4147
 ROB Load Stall End Bucket Count 3: 4171
 ROB Critical Load Stall Begin Bucket Count 3: 0
 ROB Critical Load Stall End Bucket Count 3: 0
 ROB Load Stall Begin Bucket Count 4: 3918
 ROB Load Stall End Bucket Count 4: 3917
 ROB Critical Load Stall Begin Bucket Count 4: 0
 ROB Critical Load Stall End Bucket Count 4: 0
 ROB Load Stall Begin Bucket Count 5: 82649
 ROB Load Stall End Bucket Count 5: 9289
 ROB Critical Load Stall Begin Bucket Count 5: 0
 ROB Critical Load Stall End Bucket Count 5: 0
 ROB Load Stall Begin Bucket Count 6: 4591791
 ROB Load Stall End Bucket Count 6: 4666974
 ROB Critical Load Stall Begin Bucket Count 6: 0
 ROB Critical Load Stall End Bucket Count 6: 0
PIST Tag Read Accesses: 0
PIST Read Accesses: 0
PIST Tag Write Accesses: 0
PIST Write Accesses: 0
Criticality detector called times: 0
Max global_stall_cycles_count: 0
Threshold Modified: 0 times, factor: 0
ITLB TOTAL     ACCESS:   17895635  HIT:   17895635  MISS:          0  HIT %:        100  MISS %:          0   MPKI: 0
ITLB LOAD TRANSLATION ACCESS:   17895635  HIT:   17895635  MISS:          0  HIT %:        100  MISS %:          0   MPKI: 0
ITLB PREFETCH  REQUESTED:          0  ISSUED:          0  USEFUL:          0  USELESS:          0
ITLB USEFUL LOAD PREFETCHES:          0 PREFETCH ISSUED TO LOWER LEVEL:          0  ACCURACY: -nan
ITLB TIMELY PREFETCHES:          0 LATE PREFETCHES: 0 DROPPED PREFETCHES: 0
ITLB PREFETCHES SAME FILL-ORIGIN LEVEL: 0 DIFFERENT FILL-ORIGIN LEVEL: 0
ITLB AVERAGE MISS LATENCY: -nan cycles
ITLB RQ	ACCESS:   19296975	FORWARD:          0	MERGED:    1401340	TO_CACHE:   17895635

DTLB TOTAL     ACCESS:   15032209  HIT:   12587003  MISS:    2445206  HIT %:    83.7336  MISS %:    16.2664   MPKI: 24.4521
DTLB LOAD TRANSLATION ACCESS:   15032209  HIT:   12587003  MISS:    2445206  HIT %:    83.7336  MISS %:    16.2664   MPKI: 24.4521
DTLB PREFETCH  REQUESTED:          0  ISSUED:          0  USEFUL:          0  USELESS:          0
DTLB USEFUL LOAD PREFETCHES:          0 PREFETCH ISSUED TO LOWER LEVEL:          0  ACCURACY: -nan
DTLB TIMELY PREFETCHES:          0 LATE PREFETCHES: 0 DROPPED PREFETCHES: 0
DTLB PREFETCHES SAME FILL-ORIGIN LEVEL: 0 DIFFERENT FILL-ORIGIN LEVEL: 0
DTLB AVERAGE MISS LATENCY: 67.1229 cycles
DTLB RQ	ACCESS:   17414383	FORWARD:          0	MERGED:    2360918	TO_CACHE:   15053465

STLB TOTAL     ACCESS:    2445252  HIT:     205984  MISS:    2239268  HIT %:    8.42384  MISS %:    91.5762   MPKI: 22.3927
STLB LOAD TRANSLATION ACCESS:    2445206  HIT:     205938  MISS:    2239268  HIT %:    8.42211  MISS %:    91.5779   MPKI: 22.3927
STLB TRANSLATION FROM L1D PREFETCHER ACCESS:         46  HIT:         46  MISS:          0  HIT %:        100  MISS %:          0   MPKI: 0
STLB PREFETCH  REQUESTED:          0  ISSUED:          0  USEFUL:          0  USELESS:          0
STLB USEFUL LOAD PREFETCHES:          0 PREFETCH ISSUED TO LOWER LEVEL:          0  ACCURACY: -nan
STLB TIMELY PREFETCHES:          0 LATE PREFETCHES: 0 DROPPED PREFETCHES: 0
STLB PREFETCHES SAME FILL-ORIGIN LEVEL: 0 DIFFERENT FILL-ORIGIN LEVEL: 0
STLB AVERAGE MISS LATENCY: 63.3386 cycles
STLB RQ	ACCESS:    2445257	FORWARD:          0	MERGED:          3	TO_CACHE:    2445254

STLB Hit, L1D data hit: 0
STLB Hit, L2C data hit: 0
STLB Hit, LLC data hit: 0
STLB Hit, LLC data miss: 0
STLB STLB hints to L2: 0
L1D TOTAL     ACCESS:   17337678  HIT:   11792671  MISS:    5545007  HIT %:    68.0176  MISS %:    31.9824   MPKI: 55.4501
L1D LOAD      ACCESS:   12903383  HIT:    7635608  MISS:    5267775  HIT %:    59.1752  MISS %:    40.8248   MPKI: 52.6777
L1D RFO       ACCESS:    4434260  HIT:    4157061  MISS:     277199  HIT %:    93.7487  MISS %:     6.2513   MPKI: 2.77199
L1D PREFETCH  ACCESS:         35  HIT:          2  MISS:         33  HIT %:    5.71429  MISS %:    94.2857   MPKI: 0.00033
L1D PREFETCH  REQUESTED:         98  ISSUED:         98  USEFUL:          0  USELESS:         77
L1D USEFUL LOAD PREFETCHES:          0 PREFETCH ISSUED TO LOWER LEVEL:         33  ACCURACY: 0
L1D TIMELY PREFETCHES:          0 LATE PREFETCHES: 0 DROPPED PREFETCHES: 0
L1D PREFETCHES SAME FILL-ORIGIN LEVEL: 33 DIFFERENT FILL-ORIGIN LEVEL: 0
L1D AVERAGE MISS LATENCY: 111.201 cycles
L1D RQ	ACCESS:   24616738	FORWARD:          0	MERGED:   11408421	TO_CACHE:   12980121
L1D WQ	ACCESS:    4434265	FORWARD:     228196	MERGED:          3	TO_CACHE:    4434262
L1D PQ	ACCESS:         49	FORWARD:          0	MERGED:          0	TO_CACHE:         49

L1D UNIQUE REGIONS ACCESSED: 0
L1D REGIONS CONFLICTS: 0
L1D Cross Page Prefetch Requests: 0
L1D Same Page Prefetch Requests: 205614
L1D ROI Sum of L1D PQ occupancy: 633
L1D PREFETCHES PUSHED FROM L2C: 0
L1I TOTAL     ACCESS:   19296974  HIT:   19296974  MISS:          0  HIT %:        100  MISS %:          0   MPKI: 0
L1I LOAD      ACCESS:   19296974  HIT:   19296974  MISS:          0  HIT %:        100  MISS %:          0   MPKI: 0
L1I PREFETCH  REQUESTED:          0  ISSUED:          0  USEFUL:          0  USELESS:          0
L1I USEFUL LOAD PREFETCHES:          0 PREFETCH ISSUED TO LOWER LEVEL:          0  ACCURACY: -nan
L1I TIMELY PREFETCHES:          0 LATE PREFETCHES: 0 DROPPED PREFETCHES: 0
L1I PREFETCHES SAME FILL-ORIGIN LEVEL: 0 DIFFERENT FILL-ORIGIN LEVEL: 0
L1I AVERAGE MISS LATENCY: -nan cycles
L1I RQ	ACCESS:   28980308	FORWARD:          0	MERGED:    9683333	TO_CACHE:   19296975

BTB TOTAL     ACCESS:   13288682  HIT:   13288674  MISS:          8  HIT %:    99.9999  MISS %: 6.02016e-05   MPKI: 8e-05
BTB BRANCH_DIRECT_JUMP	ACCESS:    2274658  HIT:    2274656  MISS:          2
BTB BRANCH_INDIRECT	ACCESS:          0  HIT:          0  MISS:          0
BTB BRANCH_CONDITIONAL	ACCESS:    6579762  HIT:    6579758  MISS:          4
BTB BRANCH_DIRECT_CALL	ACCESS:    2217131  HIT:    2217130  MISS:          1
BTB BRANCH_INDIRECT_CALL	ACCESS:          0  HIT:          0  MISS:          0
BTB BRANCH_RETURN	ACCESS:    2217131  HIT:    2217130  MISS:          1
BTB BRANCH_OTHER ACCESS:          0  HIT:          0  MISS:          0

L2C TOTAL     ACCESS:   10306994  HIT:    5417201  MISS:    4889793  HIT %:    52.5585  MISS %:    47.4415   MPKI: 48.8979
L2C LOAD      ACCESS:    5267775  HIT:    2226079  MISS:    3041696  HIT %:    42.2584  MISS %:    57.7416   MPKI: 30.417
L2C DATA LOAD MPKI: 30.417
L2C INSTRUCTION LOAD MPKI: 0
L2C RFO       ACCESS:     277199  HIT:      31152  MISS:     246047  HIT %:    11.2381  MISS %:    88.7619   MPKI: 2.46047
L2C PREFETCH  ACCESS:         33  HIT:          5  MISS:         28  HIT %:    15.1515  MISS %:    84.8485   MPKI: 0.00028
L2C DATA PREFETCH MPKI: 0.00028
L2C INSTRUCTION PREFETCH MPKI: 0
L2C WRITEBACK ACCESS:    2217114  HIT:    2190043  MISS:      27071  HIT %:     98.779  MISS %:      1.221   MPKI: 0.27071
L2C LOAD TRANSLATION ACCESS:    2544873  HIT:     969922  MISS:    1574951  HIT %:    38.1128  MISS %:    61.8872   MPKI: 15.7495
L2C PREFETCH  REQUESTED:          0  ISSUED:          0  USEFUL:         13  USELESS:        256
L2C USEFUL LOAD PREFETCHES:         13 PREFETCH ISSUED TO LOWER LEVEL:         28  ACCURACY: 46.4286
L2C TIMELY PREFETCHES:         13 LATE PREFETCHES: 0 DROPPED PREFETCHES: 0
L2C PREFETCHES SAME FILL-ORIGIN LEVEL: 0 DIFFERENT FILL-ORIGIN LEVEL: 0
L2C AVERAGE MISS LATENCY: 118.986 cycles
L2C RQ	ACCESS:    8089847	FORWARD:          0	MERGED:          0	TO_CACHE:    8089847
L2C WQ	ACCESS:    2217114	FORWARD:          0	MERGED:          0	TO_CACHE:    2217114
L2C PQ	ACCESS:         33	FORWARD:          0	MERGED:          0	TO_CACHE:         33

L2C Instructions Evicting Data 0
L2C Translations Evicting Data 791211
L2C Data Evicting Data 2500980
L2C Instructions Evicting Instructions 0
L2C Translations Evicting Instructions 0
L2C Data Evicting Instructions 0
L2C Instructions Evicting Translations 0
L2C Translations Evicting Translations 783740
L2C Data Evicting Translations 786791
L2C Dense regions hint from L2: 0
PSCL5 TOTAL     ACCESS:    2239268  HIT:    2239268  MISS:          0  HIT %:        100  MISS %:          0   MPKI: 0
PSCL5 LOAD TRANSLATION ACCESS:    2239268  HIT:    2239268  MISS:          0  HIT %:        100  MISS %:          0   MPKI: 0
PSCL5 PREFETCH  REQUESTED:          0  ISSUED:          0  USEFUL:          0  USELESS:          0
PSCL5 USEFUL LOAD PREFETCHES:          0 PREFETCH ISSUED TO LOWER LEVEL:          0  ACCURACY: -nan
PSCL5 TIMELY PREFETCHES:          0 LATE PREFETCHES: 0 DROPPED PREFETCHES: 0
PSCL5 PREFETCHES SAME FILL-ORIGIN LEVEL: 0 DIFFERENT FILL-ORIGIN LEVEL: 0

PSCL4 TOTAL     ACCESS:    2239268  HIT:    2239268  MISS:          0  HIT %:        100  MISS %:          0   MPKI: 0
PSCL4 LOAD TRANSLATION ACCESS:    2239268  HIT:    2239268  MISS:          0  HIT %:        100  MISS %:          0   MPKI: 0
PSCL4 PREFETCH  REQUESTED:          0  ISSUED:          0  USEFUL:          0  USELESS:          0
PSCL4 USEFUL LOAD PREFETCHES:          0 PREFETCH ISSUED TO LOWER LEVEL:          0  ACCURACY: -nan
PSCL4 TIMELY PREFETCHES:          0 LATE PREFETCHES: 0 DROPPED PREFETCHES: 0
PSCL4 PREFETCHES SAME FILL-ORIGIN LEVEL: 0 DIFFERENT FILL-ORIGIN LEVEL: 0

PSCL3 TOTAL     ACCESS:    2239268  HIT:    2239268  MISS:          0  HIT %:        100  MISS %:          0   MPKI: 0
PSCL3 LOAD TRANSLATION ACCESS:    2239268  HIT:    2239268  MISS:          0  HIT %:        100  MISS %:          0   MPKI: 0
PSCL3 PREFETCH  REQUESTED:          0  ISSUED:          0  USEFUL:          0  USELESS:          0
PSCL3 USEFUL LOAD PREFETCHES:          0 PREFETCH ISSUED TO LOWER LEVEL:          0  ACCURACY: -nan
PSCL3 TIMELY PREFETCHES:          0 LATE PREFETCHES: 0 DROPPED PREFETCHES: 0
PSCL3 PREFETCHES SAME FILL-ORIGIN LEVEL: 0 DIFFERENT FILL-ORIGIN LEVEL: 0

PSCL2 TOTAL     ACCESS:    2239268  HIT:    1933663  MISS:     305605  HIT %:    86.3525  MISS %:    13.6475   MPKI: 3.05605
PSCL2 LOAD TRANSLATION ACCESS:    2239268  HIT:    1933663  MISS:     305605  HIT %:    86.3525  MISS %:    13.6475   MPKI: 3.05605
PSCL2 PREFETCH  REQUESTED:          0  ISSUED:          0  USEFUL:          0  USELESS:          0
PSCL2 USEFUL LOAD PREFETCHES:          0 PREFETCH ISSUED TO LOWER LEVEL:          0  ACCURACY: -nan
PSCL2 TIMELY PREFETCHES:          0 LATE PREFETCHES: 0 DROPPED PREFETCHES: 0
PSCL2 PREFETCHES SAME FILL-ORIGIN LEVEL: 0 DIFFERENT FILL-ORIGIN LEVEL: 0

LLC TOTAL     ACCESS:    7080088  HIT:    4485571  MISS:    2594517  HIT %:    63.3547  MISS %:    36.6453   MPKI: 25.9452
LLC LOAD      ACCESS:    3041696  HIT:     496802  MISS:    2544894  HIT %:    16.3331  MISS %:    83.6669   MPKI: 25.4489
LLC RFO       ACCESS:     246047  HIT:     242380  MISS:       3667  HIT %:    98.5096  MISS %:    1.49037   MPKI: 0.03667
LLC PREFETCH  ACCESS:         28  HIT:          3  MISS:         25  HIT %:    10.7143  MISS %:    89.2857   MPKI: 0.00025
LLC WRITEBACK ACCESS:    2217366  HIT:    2184257  MISS:      33109  HIT %:    98.5068  MISS %:    1.49317   MPKI: 0.33109
LLC LOAD TRANSLATION ACCESS:    1574951  HIT:    1562129  MISS:      12822  HIT %:    99.1859  MISS %:   0.814121   MPKI: 0.12822
LLC PREFETCH  REQUESTED:          0  ISSUED:          0  USEFUL:         91  USELESS:        672
LLC USEFUL LOAD PREFETCHES:         91 PREFETCH ISSUED TO LOWER LEVEL:         25  ACCURACY: 364
LLC TIMELY PREFETCHES:         91 LATE PREFETCHES: 0 DROPPED PREFETCHES: 0
LLC PREFETCHES SAME FILL-ORIGIN LEVEL: 0 DIFFERENT FILL-ORIGIN LEVEL: 0
LLC AVERAGE MISS LATENCY: 167.77 cycles
LLC RQ	ACCESS:    4862694	FORWARD:          0	MERGED:          0	TO_CACHE:    4862694
LLC WQ	ACCESS:    2217366	FORWARD:          0	MERGED:          0	TO_CACHE:    2217366
LLC PQ	ACCESS:         28	FORWARD:          0	MERGED:          0	TO_CACHE:         28

LLC Dense regions hint to LLC: 0

RAW hits: 1987316
Loads Generated: 26604056
Loads sent to L1D: 24616738
Stores Generated: 4434263
Stores sent to L1D: 4434265
Major fault: 0 Minor fault: 62133
Allocated PAGES: 62133

stream: 
stream:times selected: 219472
stream:pref_filled: 168533
stream:pref_useful: 4347
stream:pref_late: 495
stream:misses: 31348
stream:misses_by_poll: 0

CS: 
CS:times selected: 168
CS:pref_filled: 292
CS:pref_useful: 36
CS:pref_late: 0
CS:misses: 73
CS:misses_by_poll: 0

CPLX: 
CPLX:times selected: 216095
CPLX:pref_filled: 3422
CPLX:pref_useful: 291
CPLX:pref_late: 9
CPLX:misses: 100564
CPLX:misses_by_poll: 0

NL_L1: 
NL:times selected: 2909
NL:pref_filled: 2531
NL:pref_useful: 44
NL:pref_late: 0
NL:misses: 1664
NL:misses_by_poll: 0

total selections: 438644
total_filled: 33
total_useful: 0
total_late: 979
total_polluted: 0
total_misses_after_warmup: 25
conflicts: 7
Degree Incremented Times: 0
Degree Decremented Times: 17336

L1 IP Table Write Accesses: 520
L1 IP Table Read Accesses: 513
L1 RST Write Accesses: 50
L1 RST Read Accesses: 100
L1 CSPT Write Accesses: 50
L1 CSPT Read Accesses: 99
L1 RR Filter Tag Write Accesses: 49
L1 RR Filter Tag Read Accesses: 1588
L1 IP Table Tag Write Accesses: 526
L1 IP Table Tag Read Accesses: 526
L1 RST Tag Write Accesses: 0
L1 RST Tag Read Accesses: 444
L1 RR Filter Write Accesses: 0
L1 RR Filter Read Accesses: 50
test: 140860

DRAM Statistics
 CHANNEL 0
 RQ ROW_BUFFER_HIT:       9515  ROW_BUFFER_MISS:    2551893
 DBUS_CONGESTED:          6
 WQ ROW_BUFFER_HIT:     631690  ROW_BUFFER_MISS:    1584821  FULL:          0

 AVG_CONGESTED_CYCLE: 5
 All warmup complete: 2
Channel 0 Bank busy for read cycles: 0
Channel 0 Bank busy for write cycles: 0
Channel 0
Rank 0
0banks busy for read cycles: 17289167
0banks busy for write cycles: 361720
1banks busy for read cycles: 93469212
1banks busy for write cycles: 25888239
2banks busy for read cycles: 60283530
2banks busy for write cycles: 31947582
3banks busy for read cycles: 41421221
3banks busy for write cycles: 44102414
4banks busy for read cycles: 11025230
4banks busy for write cycles: 30638210
5banks busy for read cycles: 170919
5banks busy for write cycles: 8729890
6banks busy for read cycles: 1085
6banks busy for write cycles: 2643545
7banks busy for read cycles: 0
7banks busy for write cycles: 1195955
8banks busy for read cycles: 0
8banks busy for write cycles: 2111583

CPU 0 Branch Prediction Accuracy: 99.9869% MPKI: 0.02047 Average ROB Occupancy at Mispredict: 311.804
Branch types
NOT_BRANCH: 84422558 84.4226%
BRANCH_DIRECT_JUMP: 2274658 2.27466%
BRANCH_INDIRECT: 0 0%
BRANCH_CONDITIONAL: 8868524 8.86852%
BRANCH_DIRECT_CALL: 2217131 2.21713%
BRANCH_INDIRECT_CALL: 0 0%
BRANCH_RETURN: 2217131 2.21713%
BRANCH_OTHER: 0 0%

DRAM PAGES: 1048576
Allocated PAGES: 62133
