Initialize SIGNATURE TABLE
ST_SET: 1
ST_WAY: 256
ST_TAG_BIT: 16
ST_TAG_MASK: ffff

Initialize PATTERN TABLE
PT_SET: 512
PT_WAY: 4
SIG_DELTA_BIT: 7
C_SIG_BIT: 4
C_DELTA_BIT: 4

Initialize PREFETCH FILTER
FILTER_SET: 1024

Initialize PERCEPTRON
PERC_ENTRIES: 4096
PERC_FEATURES: 9

*** ChampSim Multicore Out-of-Order Simulator ***

Warmup Instructions: 50000000
Simulation Instructions: 100000000
Number of CPUs: 1
LLC sets: 2048
LLC ways: 16
Off-chip DRAM Size: 4096 MB Channels: 1 Width: 64-bit Data Rate: 6400 MT/s
CPU 0 runs ../SPEC2017//605.mcf_s-1644B.champsimtrace.xz
.xz
NUM_OF_IPS_IN_CRITICAL_IP_TRAINING: 128
NUM_OF_CRITICAL_IP_TRAINING_TABLE_WAYS: 8
NUM_OF_CRITICAL_IP_TRAINING_TABLE_SETS: 16
BTB has LRU replacement policy
ITLB has LRU replacement policy
DTLB has LRU replacement policy
STLB has LRU replacement policy
L1I has LRU replacement policy
L1D has LRU replacement policy
Initialize SRRIP state for L2C
Initialize DRRIP state for LLC
Heartbeat CPU 0 instructions: 10000003 cycles: 5109438 heartbeat IPC: 1.95716 cumulative IPC: 1.95716 (Simulation time: 0 hr 10 min 4 sec) 
Heartbeat CPU 0 instructions: 20000001 cycles: 10215172 heartbeat IPC: 1.95858 cumulative IPC: 1.95787 (Simulation time: 0 hr 18 min 39 sec) 
Heartbeat CPU 0 instructions: 30000001 cycles: 15315776 heartbeat IPC: 1.96055 cumulative IPC: 1.95876 (Simulation time: 0 hr 26 min 32 sec) 
Heartbeat CPU 0 instructions: 40000000 cycles: 20405484 heartbeat IPC: 1.96475 cumulative IPC: 1.96026 (Simulation time: 0 hr 33 min 31 sec) 
Heartbeat CPU 0 instructions: 50000003 cycles: 25489066 heartbeat IPC: 1.96712 cumulative IPC: 1.96163 (Simulation time: 0 hr 39 min 35 sec) 

Warmup complete CPU 0 instructions: 50000003 cycles: 25489066 (Simulation time: 0 hr 39 min 35 sec) 

% increase in all ip prefetch 920.826
% increase in all ip prefetch -0.768672
Heartbeat CPU 0 instructions: 60000001 cycles: 89185277 heartbeat IPC: 0.156995 cumulative IPC: 0.156995 (Simulation time: 0 hr 47 min 50 sec) 
Heartbeat CPU 0 instructions: 70000000 cycles: 153174232 heartbeat IPC: 0.156277 cumulative IPC: 0.156635 (Simulation time: 1 hr 0 min 53 sec) 
Heartbeat CPU 0 instructions: 80000000 cycles: 217838940 heartbeat IPC: 0.154644 cumulative IPC: 0.155966 (Simulation time: 1 hr 15 min 2 sec) 
Heartbeat CPU 0 instructions: 90000000 cycles: 282303753 heartbeat IPC: 0.155123 cumulative IPC: 0.155754 (Simulation time: 1 hr 26 min 43 sec) 
Heartbeat CPU 0 instructions: 100000001 cycles: 348135940 heartbeat IPC: 0.151901 cumulative IPC: 0.154968 (Simulation time: 1 hr 36 min 58 sec) 
Heartbeat CPU 0 instructions: 110000000 cycles: 414150885 heartbeat IPC: 0.151481 cumulative IPC: 0.154376 (Simulation time: 1 hr 45 min 23 sec) 
Heartbeat CPU 0 instructions: 120000000 cycles: 480228272 heartbeat IPC: 0.151338 cumulative IPC: 0.153934 (Simulation time: 1 hr 50 min 33 sec) 
Heartbeat CPU 0 instructions: 130000000 cycles: 545756448 heartbeat IPC: 0.152606 cumulative IPC: 0.153767 (Simulation time: 1 hr 53 min 20 sec) 
Heartbeat CPU 0 instructions: 140000003 cycles: 609683114 heartbeat IPC: 0.156429 cumulative IPC: 0.154058 (Simulation time: 1 hr 55 min 15 sec) 
Heartbeat CPU 0 instructions: 150000002 cycles: 670049588 heartbeat IPC: 0.165655 cumulative IPC: 0.155144 (Simulation time: 1 hr 56 min 18 sec) 
Finished CPU 0 instructions: 100000000 cycles: 644560533 cumulative IPC: 0.155144 (Simulation time: 1 hr 56 min 18 sec) 

ChampSim completed all CPUs

Region of Interest Statistics

CPU 0 cumulative IPC: 0.155144 instructions: 100000000 cycles: 644560533

CPU 0 Average Load ROB stall cycles: 2.02896e+07
CPU 0 Fraction of times ROB stalled by Loads: 5.80165
CPU 0 Percentage of Load stall cycles in Total stall cycles: 7.93877e+07
 Total stall cycles: 480592129
 Total load stall cycles: 381530920917788
CPU 0 NUM of IPS identified critical: 3

Threshold modification factor: -1
Max PIST entries: 6
Min PIST entries: 0
Avg PIST entries: 2.78667
Average ROB occupancy Load Stall Begin: 104.8
Average ROB occupancy Load Stall End: 110.638
Min ROB occupancy Load Stall Begin: 4
Max ROB occupancy Load Stall Begin: 351
Min ROB occupancy Load Stall End: 4
Max ROB occupancy Load Stall End: 352
Average ROB occupancy Critical Load Stall Begin: 131.567
Average ROB occupancy Critical Load Stall End: 137.792
Min ROB occupancy Critical Load Stall Begin: 18
Max ROB occupancy Critical Load Stall Begin: 351
Min ROB occupancy Critical Load Stall End: 18
Max ROB occupancy Critical Load Stall End: 352
 ROB Load Stall Begin Bucket Count 0: 560677
 ROB Load Stall End Bucket Count 0: 560082
 ROB Critical Load Stall Begin Bucket Count 0: 309699
 ROB Critical Load Stall End Bucket Count 0: 309106
 ROB Load Stall Begin Bucket Count 1: 128074
 ROB Load Stall End Bucket Count 1: 128175
 ROB Critical Load Stall Begin Bucket Count 1: 125962
 ROB Critical Load Stall End Bucket Count 1: 126062
 ROB Load Stall Begin Bucket Count 2: 92386
 ROB Load Stall End Bucket Count 2: 92577
 ROB Critical Load Stall Begin Bucket Count 2: 91009
 ROB Critical Load Stall End Bucket Count 2: 91201
 ROB Load Stall Begin Bucket Count 3: 87018
 ROB Load Stall End Bucket Count 3: 61859
 ROB Critical Load Stall Begin Bucket Count 3: 85603
 ROB Critical Load Stall End Bucket Count 3: 60811
 ROB Load Stall Begin Bucket Count 4: 40353
 ROB Load Stall End Bucket Count 4: 46642
 ROB Critical Load Stall Begin Bucket Count 4: 39651
 ROB Critical Load Stall End Bucket Count 4: 45697
 ROB Load Stall Begin Bucket Count 5: 38510
 ROB Load Stall End Bucket Count 5: 38815
 ROB Critical Load Stall Begin Bucket Count 5: 37882
 ROB Critical Load Stall End Bucket Count 5: 38241
 ROB Load Stall Begin Bucket Count 6: 143942
 ROB Load Stall End Bucket Count 6: 162810
 ROB Critical Load Stall Begin Bucket Count 6: 141609
 ROB Critical Load Stall End Bucket Count 6: 160297
Threshold Modified: 1 times, factor: -1
ITLB TOTAL     ACCESS:   17765666  HIT:   17765666  MISS:          0  HIT %:        100  MISS %:          0   MPKI: 0
ITLB LOAD TRANSLATION ACCESS:   17765666  HIT:   17765666  MISS:          0  HIT %:        100  MISS %:          0   MPKI: 0
ITLB AVERAGE MISS LATENCY: -nan cycles
ITLB RQ	ACCESS:   17821331	FORWARD:          0	MERGED:      55666	TO_CACHE:   17765665

DTLB TOTAL     ACCESS:   41252571  HIT:   38291884  MISS:    2960687  HIT %:     92.823  MISS %:    7.17698   MPKI: 29.6069
DTLB LOAD TRANSLATION ACCESS:   41252571  HIT:   38291884  MISS:    2960687  HIT %:     92.823  MISS %:    7.17698   MPKI: 29.6069
DTLB AVERAGE MISS LATENCY: 901.664 cycles
DTLB RQ	ACCESS:   64680570	FORWARD:          0	MERGED:    7649602	TO_CACHE:   57030968

STLB TOTAL     ACCESS:    2960687  HIT:     539114  MISS:    2421573  HIT %:    18.2091  MISS %:    81.7909   MPKI: 24.2157
STLB LOAD TRANSLATION ACCESS:    2960687  HIT:     539114  MISS:    2421573  HIT %:    18.2091  MISS %:    81.7909   MPKI: 24.2157
STLB AVERAGE MISS LATENCY: 1091.34 cycles
STLB RQ	ACCESS:    2960694	FORWARD:          0	MERGED:          0	TO_CACHE:    2960694

STLB Hit, L1D data hit: 0
STLB Hit, L2C data hit: 0
STLB Hit, LLC data hit: 0
STLB Hit, LLC data miss: 0
STLB STLB hints to L2: 0
L1D TOTAL     ACCESS:   49328895  HIT:   40358529  MISS:    8970366  HIT %:    81.8152  MISS %:    18.1848   MPKI: 89.7037
L1D LOAD      ACCESS:   29649458  HIT:   25052312  MISS:    4597146  HIT %:     84.495  MISS %:     15.505   MPKI: 45.9715
L1D RFO       ACCESS:   19679437  HIT:   15306217  MISS:    4373220  HIT %:    77.7777  MISS %:    22.2223   MPKI: 43.7322
L1D AVERAGE MISS LATENCY: 218.233 cycles
L1D RQ	ACCESS:   38915960	FORWARD:          0	MERGED:    8515601	TO_CACHE:   29695868
L1D WQ	ACCESS:   34985916	FORWARD:     704491	MERGED:       1214	TO_CACHE:   34984702

L1D UNIQUE REGIONS ACCESSED: 0
L1D REGIONS CONFLICTS: 0
L1D Cross Page Prefetch Requests: 0
L1D Same Page Prefetch Requests: 0
L1D ROI Sum of L1D PQ occupancy: 0
L1D PREFETCHES PUSHED FROM L2C: 0
L1I TOTAL     ACCESS:   17821332  HIT:   17821332  MISS:          0  HIT %:        100  MISS %:          0   MPKI: 0
L1I LOAD      ACCESS:   17821332  HIT:   17821332  MISS:          0  HIT %:        100  MISS %:          0   MPKI: 0
L1I AVERAGE MISS LATENCY: -nan cycles
L1I RQ	ACCESS:   29872429	FORWARD:          0	MERGED:   12051098	TO_CACHE:   17821331

BTB TOTAL     ACCESS:   10240262  HIT:   10240257  MISS:          5  HIT %:        100  MISS %: 4.88269e-05   MPKI: 5e-05
BTB BRANCH_DIRECT_JUMP	ACCESS:    1493832  HIT:    1493831  MISS:          1
BTB BRANCH_INDIRECT	ACCESS:          0  HIT:          0  MISS:          0
BTB BRANCH_CONDITIONAL	ACCESS:    4373200  HIT:    4373198  MISS:          2
BTB BRANCH_DIRECT_CALL	ACCESS:    2186615  HIT:    2186614  MISS:          1
BTB BRANCH_INDIRECT_CALL	ACCESS:          0  HIT:          0  MISS:          0
BTB BRANCH_RETURN	ACCESS:    2186615  HIT:    2186614  MISS:          1
BTB BRANCH_OTHER ACCESS:          0  HIT:          0  MISS:          0

L2C TOTAL     ACCESS:   24254435  HIT:   12905580  MISS:   11348855  HIT %:    53.2092  MISS %:    46.7908   MPKI: 113.489
L2C LOAD      ACCESS:    4597099  HIT:    2965455  MISS:    1631644  HIT %:    64.5071  MISS %:    35.4929   MPKI: 16.3164
L2C DATA LOAD MPKI: 16.3164
L2C INSTRUCTION LOAD MPKI: 0
L2C RFO       ACCESS:    4373220  HIT:        312  MISS:    4372908  HIT %: 0.00713433  MISS %:    99.9929   MPKI: 43.7291
L2C PREFETCH  ACCESS:    2804634  HIT:     236121  MISS:    2568513  HIT %:    8.41896  MISS %:     91.581   MPKI: 25.6851
L2C DATA PREFETCH MPKI: 25.6851
L2C INSTRUCTION PREFETCH MPKI: 0
L2C WRITEBACK ACCESS:    8970366  HIT:    8346895  MISS:     623471  HIT %:    93.0497  MISS %:    6.95034   MPKI: 6.23471
L2C LOAD TRANSLATION ACCESS:    3509116  HIT:    1356797  MISS:    2152319  HIT %:    38.6649  MISS %:    61.3351   MPKI: 21.5232
L2C PREFETCH  REQUESTED:    3286995  ISSUED:    3286995  USEFUL:    2367845  USELESS:     200659
L2C USEFUL LOAD PREFETCHES:    2367845 PREFETCH ISSUED TO LOWER LEVEL:    2960257  ACCURACY: 79.9878
L2C TIMELY PREFETCHES:    2367845 LATE PREFETCHES: 25115 DROPPED PREFETCHES: 0
L2C PREFETCHES SAME FILL-ORIGIN LEVEL: 2593629 DIFFERENT FILL-ORIGIN LEVEL: 366628
L2C AVERAGE MISS LATENCY: 285.713 cycles
L2C RQ	ACCESS:   12479487	FORWARD:          0	MERGED:          0	TO_CACHE:   12479440
L2C WQ	ACCESS:    8970366	FORWARD:         50	MERGED:          0	TO_CACHE:    8970366
L2C PQ	ACCESS:    3286995	FORWARD:          0	MERGED:      25380	TO_CACHE:    3261612

L2C Instructions Evicting Data0
L2C Translations Evicting Data1735883
L2C Data Evicting Data6892140
L2C Instructions Evicting Instructions0
L2C Translations Evicting Instructions0
L2C Data Evicting Instructions0
L2C Instructions Evicting Translations0
L2C Translations Evicting Translations416436
L2C Data Evicting Translations1680925
L2C Dense regions hint from L2: 0
PSCL5 TOTAL     ACCESS:    2421574  HIT:    2421574  MISS:          0  HIT %:        100  MISS %:          0   MPKI: 0
PSCL5 LOAD TRANSLATION ACCESS:    2421574  HIT:    2421574  MISS:          0  HIT %:        100  MISS %:          0   MPKI: 0

PSCL4 TOTAL     ACCESS:    2421574  HIT:    2421574  MISS:          0  HIT %:        100  MISS %:          0   MPKI: 0
PSCL4 LOAD TRANSLATION ACCESS:    2421574  HIT:    2421574  MISS:          0  HIT %:        100  MISS %:          0   MPKI: 0

PSCL3 TOTAL     ACCESS:    2421574  HIT:    2421574  MISS:          0  HIT %:        100  MISS %:          0   MPKI: 0
PSCL3 LOAD TRANSLATION ACCESS:    2421574  HIT:    2421574  MISS:          0  HIT %:        100  MISS %:          0   MPKI: 0

PSCL2 TOTAL     ACCESS:    2421573  HIT:    1333956  MISS:    1087617  HIT %:    55.0863  MISS %:    44.9137   MPKI: 10.8762
PSCL2 LOAD TRANSLATION ACCESS:    2421573  HIT:    1333956  MISS:    1087617  HIT %:    55.0863  MISS %:    44.9137   MPKI: 10.8762

LLC TOTAL     ACCESS:   19460342  HIT:    9945776  MISS:    9514566  HIT %:    51.1079  MISS %:    48.8921   MPKI: 95.1457
LLC LOAD      ACCESS:    1606507  HIT:     919747  MISS:     686760  HIT %:    57.2514  MISS %:    42.7486   MPKI: 6.8676
LLC RFO       ACCESS:    4372908  HIT:      21748  MISS:    4351160  HIT %:   0.497335  MISS %:    99.5027   MPKI: 43.5116
LLC PREFETCH  ACCESS:    2955042  HIT:     218382  MISS:    2736660  HIT %:    7.39015  MISS %:    92.6099   MPKI: 27.3666
LLC WRITEBACK ACCESS:    8373566  HIT:    8221388  MISS:     152178  HIT %:    98.1826  MISS %:    1.81736   MPKI: 1.52178
LLC LOAD TRANSLATION ACCESS:    2152319  HIT:     564511  MISS:    1587808  HIT %:     26.228  MISS %:     73.772   MPKI: 15.8781
LLC AVERAGE MISS LATENCY: 316.637 cycles
LLC RQ	ACCESS:    8131761	FORWARD:          0	MERGED:          0	TO_CACHE:    8131739
LLC WQ	ACCESS:    8373566	FORWARD:         26	MERGED:          0	TO_CACHE:    8373566
LLC PQ	ACCESS:    2960257	FORWARD:          0	MERGED:        180	TO_CACHE:    2960073

LLC Dense regions hint to LLC: 0

RAW hits: 2629839
Loads Generated: 41545798
Loads sent to L1D: 38915960
Stores Generated: 34985939
Stores sent to L1D: 34985916
Major fault: 0 Minor fault: 270333
Allocated PAGES: 270333
------------------
Depth Distribution
------------------
depth 0: 2425832
depth 1: 675944
depth 2: 102718
depth 3: 12843
depth 4: 11348
depth 5: 220442
depth 6: 252639
depth 7: 607458
depth 8: 824388
depth 9: 1050518
depth 10: 214352
depth 11: 440518
depth 12: 49325
depth 13: 4826
depth 14: 1770
depth 15: 0
depth 16: 0
depth 17: 0
depth 18: 0
depth 19: 0
depth 20: 0
depth 21: 0
depth 22: 0
depth 23: 0
depth 24: 0
depth 25: 0
depth 26: 0
depth 27: 0
depth 28: 0
depth 29: 0
Total: 6894921
------------------
ST read accesses: 4410399
ST write accesses: 186701
PT read accesses: 148182363
PT write accesses: 6400539
FILTER read accesses: 42567483
FILTER write accesses: 29276490
GHR read accesses: 13283903
GHR write accesses: 2145551
PERC read accesses: 989634987
PERC write accesses: 29858642
GHR counter read accesses: 9194200
GHR counter write accesses: 10148595
GHR ip read accesses: 25952340
GHR ip write accesses: 18388400
ST tag read accesses: 1862687392
ST tag write accesses: 116276250

DRAM Statistics
 CHANNEL 0
 RQ ROW_BUFFER_HIT:     162817  ROW_BUFFER_MISS:    9198040
 DBUS_CONGESTED:         43
 WQ ROW_BUFFER_HIT:    1267172  ROW_BUFFER_MISS:    6200343  FULL:          0

 AVG_CONGESTED_CYCLE: 4
 All warmup complete: 2
Channel 0 Bank busy for read cycles: 0
Channel 0 Bank busy for write cycles: 0
Channel 0
Rank 0
0banks busy for read cycles: 737939
0banks busy for write cycles: 0
1banks busy for read cycles: 55622217
1banks busy for write cycles: 1112219
2banks busy for read cycles: 72169511
2banks busy for write cycles: 1111781
3banks busy for read cycles: 112862454
3banks busy for write cycles: 1134223
4banks busy for read cycles: 78037717
4banks busy for write cycles: 2343139
5banks busy for read cycles: 53599148
5banks busy for write cycles: 4819513
6banks busy for read cycles: 30876721
6banks busy for write cycles: 11259386
7banks busy for read cycles: 15356312
7banks busy for write cycles: 43843826
8banks busy for read cycles: 8408264
8banks busy for write cycles: 151266164

CPU 0 Branch Prediction Accuracy: 95.3107% MPKI: 5.82735 Average ROB Occupancy at Mispredict: 113.899
Branch types
NOT_BRANCH: 87572869 87.5729%
BRANCH_DIRECT_JUMP: 1493832 1.49383%
BRANCH_INDIRECT: 0 0%
BRANCH_CONDITIONAL: 6559846 6.55985%
BRANCH_DIRECT_CALL: 2186615 2.18662%
BRANCH_INDIRECT_CALL: 0 0%
BRANCH_RETURN: 2186615 2.18662%
BRANCH_OTHER: 0 0%

DRAM PAGES: 1048576
Allocated PAGES: 270333
