
*** ChampSim Multicore Out-of-Order Simulator ***

Warmup Instructions: 50000000
Simulation Instructions: 100000000
Number of CPUs: 1
LLC sets: 2048
LLC ways: 16
Off-chip DRAM Size: 4096 MB Channels: 1 Width: 64-bit Data Rate: 6400 MT/s
CPU 0 runs ../SPEC2017//605.mcf_s-1152B.champsimtrace.xz
.xz
NUM_OF_IPS_IN_CRITICAL_IP_TRAINING: 64
NUM_OF_CRITICAL_IP_TRAINING_TABLE_WAYS: 2
NUM_OF_CRITICAL_IP_TRAINING_TABLE_SETS: 32
WOBBLY_CRITICAL_IP_CACHE_SETS: 32
WOBBLY_CRITICAL_IP_CACHE_WAYS: 4
BTB has LRU replacement policy
ITLB has LRU replacement policy
DTLB has LRU replacement policy
STLB has LRU replacement policy
L1I has LRU replacement policy
IP Table Entries: 256
L1D has LRU replacement policy
Initialize SRRIP state for L2C
Initialize DRRIP state for LLC
Heartbeat CPU 0 instructions: 10000001 cycles: 3345023 heartbeat IPC: 2.98952 cumulative IPC: 2.98952 (Simulation time: 0 hr 7 min 44 sec) 
Heartbeat CPU 0 instructions: 20000000 cycles: 6692332 heartbeat IPC: 2.98747 cumulative IPC: 2.98849 (Simulation time: 0 hr 14 min 37 sec) 
Heartbeat CPU 0 instructions: 30000001 cycles: 10034680 heartbeat IPC: 2.99191 cumulative IPC: 2.98963 (Simulation time: 0 hr 20 min 34 sec) 
Heartbeat CPU 0 instructions: 40000001 cycles: 13380127 heartbeat IPC: 2.98914 cumulative IPC: 2.98951 (Simulation time: 0 hr 26 min 0 sec) 
Heartbeat CPU 0 instructions: 50000001 cycles: 16731459 heartbeat IPC: 2.98389 cumulative IPC: 2.98838 (Simulation time: 0 hr 31 min 13 sec) 

Warmup complete CPU 0 instructions: 50000001 cycles: 16731459 (Simulation time: 0 hr 31 min 13 sec) 

% increase in all ip prefetch 823.156
% increase in all ip prefetch 1.9724
Heartbeat CPU 0 instructions: 60000001 cycles: 53216896 heartbeat IPC: 0.274082 cumulative IPC: 0.274082 (Simulation time: 0 hr 35 min 49 sec) 
Heartbeat CPU 0 instructions: 70000001 cycles: 89981112 heartbeat IPC: 0.272004 cumulative IPC: 0.273039 (Simulation time: 0 hr 40 min 3 sec) 
Heartbeat CPU 0 instructions: 80000001 cycles: 126329206 heartbeat IPC: 0.275118 cumulative IPC: 0.273728 (Simulation time: 0 hr 44 min 5 sec) 
Heartbeat CPU 0 instructions: 90000003 cycles: 162820970 heartbeat IPC: 0.274035 cumulative IPC: 0.273805 (Simulation time: 0 hr 47 min 58 sec) 
Heartbeat CPU 0 instructions: 100000001 cycles: 199434214 heartbeat IPC: 0.273125 cumulative IPC: 0.273669 (Simulation time: 0 hr 51 min 48 sec) 
Heartbeat CPU 0 instructions: 110000000 cycles: 236080075 heartbeat IPC: 0.272882 cumulative IPC: 0.273537 (Simulation time: 0 hr 58 min 38 sec) 
Heartbeat CPU 0 instructions: 120000002 cycles: 272952588 heartbeat IPC: 0.271205 cumulative IPC: 0.273202 (Simulation time: 1 hr 5 min 54 sec) 
Heartbeat CPU 0 instructions: 130000000 cycles: 310037511 heartbeat IPC: 0.269651 cumulative IPC: 0.272753 (Simulation time: 1 hr 12 min 1 sec) 
Heartbeat CPU 0 instructions: 140000003 cycles: 347501196 heartbeat IPC: 0.266925 cumulative IPC: 0.272093 (Simulation time: 1 hr 17 min 36 sec) 
Heartbeat CPU 0 instructions: 150000001 cycles: 384715492 heartbeat IPC: 0.268714 cumulative IPC: 0.271751 (Simulation time: 1 hr 23 min 8 sec) 
Finished CPU 0 instructions: 100000000 cycles: 367984033 cumulative IPC: 0.271751 (Simulation time: 1 hr 23 min 8 sec) 

ChampSim completed all CPUs

Region of Interest Statistics

CPU 0 cumulative IPC: 0.271751 instructions: 100000000 cycles: 367984033

CPU 0 Average Load ROB stall cycles: 8.46227e+07
CPU 0 Fraction of times ROB stalled by Loads: 42.9807
CPU 0 Percentage of Load stall cycles in Total stall cycles: 7.60842e+08
Issued all: 58403414
Issued LT all: 46137985
rob_not_full_when_issued_lt_all: 42014342
Issued LT one: 36047943
rob_not_full_when_issued_lt_one: 32508757
 Total stall cycles: 319737592
 Total load stall cycles: 2432696587010271
CPU 0 NUM of IPS identified critical: 0
CPU 0 Num of Load IPs stalling ROB: 259
Threshold modification factor: -1
Max PIST entries: 64
Min PIST entries: 0
Avg PIST entries: 40.6667
Trouble in retire width: 0.974074
MaC = Marked as critical.
lt_50_percent_before_Mac: 0
gt_90_percent_before_Mac: 0
gt_75_percent_before_Mac: 0
gt_50_percent_before_Mac: 0
stall_proportion_bin_same_before_after: 0
stall_proportion_bin_lower_before_after: 0
stall_proportion_bin_upper_before_after: 0
average_stall_proportion_before: -nan
average_stall_proportion_after: -nan
Critical IP stalls, total frequency: 0
Non-critical IP stalls, total frequency: 12355909
Total Freq all stalling IPs: 12355909
stat_90_percent_critical_ip_stalls_freq: 11136721
stat_90_percent_non_critical_ip_stalls_freq: 1219188
Critical_IP_ROB_Stalls_Bucket_0: 0
Non-critical_IP_ROB_Stalls_Bucket_0: 10090619
Critical_IP_ROB_Stalls_Bucket_1: 0
Non-critical_IP_ROB_Stalls_Bucket_1: 1284230
Critical_IP_ROB_Stalls_Bucket_2: 0
Non-critical_IP_ROB_Stalls_Bucket_2: 383353
Critical_IP_ROB_Stalls_Bucket_3: 0
Non-critical_IP_ROB_Stalls_Bucket_3: 188182
Critical_IP_ROB_Stalls_Bucket_4: 0
Non-critical_IP_ROB_Stalls_Bucket_4: 119721
Critical_IP_ROB_Stalls_Bucket_5: 0
Non-critical_IP_ROB_Stalls_Bucket_5: 79557
Critical_IP_ROB_Stalls_Bucket_6: 0
Non-critical_IP_ROB_Stalls_Bucket_6: 210247
0 => IPs accounting for >50 percent of stalls, 1 => 55, 2 => 60, 3 => 65 and so on till 90.
percent50: 51.8009 num IPs:  6
percent55: 56.6467 num IPs: 7
percent60: 61.2906 num IPs: 8
percent65: 65.0791 num IPs: 9
percent70: 70.5304 num IPs: 11
percent75: 76.5954 num IPs: 14
percent80: 80.1186 num IPs: 16
percent85: 85.8699 num IPs: 20
percent90: 90.1328 num IPs: 28
Critical_ROB_Stalls_Percent_0_Bucket_0: 5060564
Non-critical_ROB_Stalls_Percent_0_Bucket_0: 5030055
Critical_ROB_Stalls_Percent_0_Bucket_1: 772232
Non-critical_ROB_Stalls_Percent_0_Bucket_1: 511998
Critical_ROB_Stalls_Percent_0_Bucket_2: 252901
Non-critical_ROB_Stalls_Percent_0_Bucket_2: 130452
Critical_ROB_Stalls_Percent_0_Bucket_3: 104274
Non-critical_ROB_Stalls_Percent_0_Bucket_3: 83908
Critical_ROB_Stalls_Percent_0_Bucket_4: 70465
Non-critical_ROB_Stalls_Percent_0_Bucket_4: 49256
Critical_ROB_Stalls_Percent_0_Bucket_5: 41437
Non-critical_ROB_Stalls_Percent_0_Bucket_5: 38120
Critical_ROB_Stalls_Percent_0_Bucket_6: 98596
Non-critical_ROB_Stalls_Percent_0_Bucket_6: 111651
Critical_ROB_Stalls_Percent_1_Bucket_0: 5572358
Non-critical_ROB_Stalls_Percent_1_Bucket_0: 4518261
Critical_ROB_Stalls_Percent_1_Bucket_1: 830398
Non-critical_ROB_Stalls_Percent_1_Bucket_1: 453832
Critical_ROB_Stalls_Percent_1_Bucket_2: 260781
Non-critical_ROB_Stalls_Percent_1_Bucket_2: 122572
Critical_ROB_Stalls_Percent_1_Bucket_3: 110501
Non-critical_ROB_Stalls_Percent_1_Bucket_3: 77681
Critical_ROB_Stalls_Percent_1_Bucket_4: 74260
Non-critical_ROB_Stalls_Percent_1_Bucket_4: 45461
Critical_ROB_Stalls_Percent_1_Bucket_5: 44184
Non-critical_ROB_Stalls_Percent_1_Bucket_5: 35373
Critical_ROB_Stalls_Percent_1_Bucket_6: 106739
Non-critical_ROB_Stalls_Percent_1_Bucket_6: 103508
Critical_ROB_Stalls_Percent_2_Bucket_0: 6086706
Non-critical_ROB_Stalls_Percent_2_Bucket_0: 4003913
Critical_ROB_Stalls_Percent_2_Bucket_1: 858854
Non-critical_ROB_Stalls_Percent_2_Bucket_1: 425376
Critical_ROB_Stalls_Percent_2_Bucket_2: 269725
Non-critical_ROB_Stalls_Percent_2_Bucket_2: 113628
Critical_ROB_Stalls_Percent_2_Bucket_3: 119382
Non-critical_ROB_Stalls_Percent_2_Bucket_3: 68800
Critical_ROB_Stalls_Percent_2_Bucket_4: 78145
Non-critical_ROB_Stalls_Percent_2_Bucket_4: 41576
Critical_ROB_Stalls_Percent_2_Bucket_5: 48271
Non-critical_ROB_Stalls_Percent_2_Bucket_5: 31286
Critical_ROB_Stalls_Percent_2_Bucket_6: 111934
Non-critical_ROB_Stalls_Percent_2_Bucket_6: 98313
Critical_ROB_Stalls_Percent_3_Bucket_0: 6513017
Non-critical_ROB_Stalls_Percent_3_Bucket_0: 3577602
Critical_ROB_Stalls_Percent_3_Bucket_1: 882073
Non-critical_ROB_Stalls_Percent_3_Bucket_1: 402157
Critical_ROB_Stalls_Percent_3_Bucket_2: 274640
Non-critical_ROB_Stalls_Percent_3_Bucket_2: 108713
Critical_ROB_Stalls_Percent_3_Bucket_3: 122278
Non-critical_ROB_Stalls_Percent_3_Bucket_3: 65904
Critical_ROB_Stalls_Percent_3_Bucket_4: 80076
Non-critical_ROB_Stalls_Percent_3_Bucket_4: 39645
Critical_ROB_Stalls_Percent_3_Bucket_5: 49999
Non-critical_ROB_Stalls_Percent_3_Bucket_5: 29558
Critical_ROB_Stalls_Percent_3_Bucket_6: 119029
Non-critical_ROB_Stalls_Percent_3_Bucket_6: 91218
Critical_ROB_Stalls_Percent_4_Bucket_0: 7118365
Non-critical_ROB_Stalls_Percent_4_Bucket_0: 2972254
Critical_ROB_Stalls_Percent_4_Bucket_1: 932583
Non-critical_ROB_Stalls_Percent_4_Bucket_1: 351647
Critical_ROB_Stalls_Percent_4_Bucket_2: 284655
Non-critical_ROB_Stalls_Percent_4_Bucket_2: 98698
Critical_ROB_Stalls_Percent_4_Bucket_3: 125113
Non-critical_ROB_Stalls_Percent_4_Bucket_3: 63069
Critical_ROB_Stalls_Percent_4_Bucket_4: 81345
Non-critical_ROB_Stalls_Percent_4_Bucket_4: 38376
Critical_ROB_Stalls_Percent_4_Bucket_5: 50842
Non-critical_ROB_Stalls_Percent_4_Bucket_5: 28715
Critical_ROB_Stalls_Percent_4_Bucket_6: 121771
Non-critical_ROB_Stalls_Percent_4_Bucket_6: 88476
Critical_ROB_Stalls_Percent_5_Bucket_0: 7844561
Non-critical_ROB_Stalls_Percent_5_Bucket_0: 2246058
Critical_ROB_Stalls_Percent_5_Bucket_1: 940685
Non-critical_ROB_Stalls_Percent_5_Bucket_1: 343545
Critical_ROB_Stalls_Percent_5_Bucket_2: 288824
Non-critical_ROB_Stalls_Percent_5_Bucket_2: 94529
Critical_ROB_Stalls_Percent_5_Bucket_3: 129661
Non-critical_ROB_Stalls_Percent_5_Bucket_3: 58521
Critical_ROB_Stalls_Percent_5_Bucket_4: 83290
Non-critical_ROB_Stalls_Percent_5_Bucket_4: 36431
Critical_ROB_Stalls_Percent_5_Bucket_5: 52934
Non-critical_ROB_Stalls_Percent_5_Bucket_5: 26623
Critical_ROB_Stalls_Percent_5_Bucket_6: 124097
Non-critical_ROB_Stalls_Percent_5_Bucket_6: 86150
Critical_ROB_Stalls_Percent_6_Bucket_0: 8235516
Non-critical_ROB_Stalls_Percent_6_Bucket_0: 1855103
Critical_ROB_Stalls_Percent_6_Bucket_1: 961418
Non-critical_ROB_Stalls_Percent_6_Bucket_1: 322812
Critical_ROB_Stalls_Percent_6_Bucket_2: 298618
Non-critical_ROB_Stalls_Percent_6_Bucket_2: 84735
Critical_ROB_Stalls_Percent_6_Bucket_3: 136051
Non-critical_ROB_Stalls_Percent_6_Bucket_3: 52131
Critical_ROB_Stalls_Percent_6_Bucket_4: 86238
Non-critical_ROB_Stalls_Percent_6_Bucket_4: 33483
Critical_ROB_Stalls_Percent_6_Bucket_5: 54570
Non-critical_ROB_Stalls_Percent_6_Bucket_5: 24987
Critical_ROB_Stalls_Percent_6_Bucket_6: 126971
Non-critical_ROB_Stalls_Percent_6_Bucket_6: 83276
Critical_ROB_Stalls_Percent_7_Bucket_0: 8923773
Non-critical_ROB_Stalls_Percent_7_Bucket_0: 1166846
Critical_ROB_Stalls_Percent_7_Bucket_1: 971478
Non-critical_ROB_Stalls_Percent_7_Bucket_1: 312752
Critical_ROB_Stalls_Percent_7_Bucket_2: 301574
Non-critical_ROB_Stalls_Percent_7_Bucket_2: 81779
Critical_ROB_Stalls_Percent_7_Bucket_3: 138033
Non-critical_ROB_Stalls_Percent_7_Bucket_3: 50149
Critical_ROB_Stalls_Percent_7_Bucket_4: 87615
Non-critical_ROB_Stalls_Percent_7_Bucket_4: 32106
Critical_ROB_Stalls_Percent_7_Bucket_5: 55743
Non-critical_ROB_Stalls_Percent_7_Bucket_5: 23814
Critical_ROB_Stalls_Percent_7_Bucket_6: 131786
Non-critical_ROB_Stalls_Percent_7_Bucket_6: 78461
Critical_ROB_Stalls_Percent_8_Bucket_0: 9261442
Non-critical_ROB_Stalls_Percent_8_Bucket_0: 829177
Critical_ROB_Stalls_Percent_8_Bucket_1: 1103532
Non-critical_ROB_Stalls_Percent_8_Bucket_1: 180698
Critical_ROB_Stalls_Percent_8_Bucket_2: 332574
Non-critical_ROB_Stalls_Percent_8_Bucket_2: 50779
Critical_ROB_Stalls_Percent_8_Bucket_3: 150459
Non-critical_ROB_Stalls_Percent_8_Bucket_3: 37723
Critical_ROB_Stalls_Percent_8_Bucket_4: 92174
Non-critical_ROB_Stalls_Percent_8_Bucket_4: 27547
Critical_ROB_Stalls_Percent_8_Bucket_5: 58151
Non-critical_ROB_Stalls_Percent_8_Bucket_5: 21406
Critical_ROB_Stalls_Percent_8_Bucket_6: 138389
Non-critical_ROB_Stalls_Percent_8_Bucket_6: 71858
Average ROB occupancy Load Stall Begin: 33.2073
Average ROB occupancy Load Stall End: 37.7307
Min ROB occupancy Load Stall Begin: 1
Max ROB occupancy Load Stall Begin: 352
Min ROB occupancy Load Stall End: 1
Max ROB occupancy Load Stall End: 352
Average ROB occupancy Critical Load Stall Begin: -nan
Average ROB occupancy Critical Load Stall End: -nan
Min ROB occupancy Critical Load Stall Begin: 400
Max ROB occupancy Critical Load Stall Begin: 0
Min ROB occupancy Critical Load Stall End: 400
Max ROB occupancy Critical Load Stall End: 0
 ROB Load Stall Begin Bucket Count 0: 10410569
 ROB Load Stall End Bucket Count 0: 10090619
 ROB Critical Load Stall Begin Bucket Count 0: 0
 ROB Critical Load Stall End Bucket Count 0: 0
 ROB Load Stall Begin Bucket Count 1: 1067082
 ROB Load Stall End Bucket Count 1: 1284230
 ROB Critical Load Stall Begin Bucket Count 1: 0
 ROB Critical Load Stall End Bucket Count 1: 0
 ROB Load Stall Begin Bucket Count 2: 333933
 ROB Load Stall End Bucket Count 2: 383353
 ROB Critical Load Stall Begin Bucket Count 2: 0
 ROB Critical Load Stall End Bucket Count 2: 0
 ROB Load Stall Begin Bucket Count 3: 166363
 ROB Load Stall End Bucket Count 3: 188182
 ROB Critical Load Stall Begin Bucket Count 3: 0
 ROB Critical Load Stall End Bucket Count 3: 0
 ROB Load Stall Begin Bucket Count 4: 106180
 ROB Load Stall End Bucket Count 4: 119721
 ROB Critical Load Stall Begin Bucket Count 4: 0
 ROB Critical Load Stall End Bucket Count 4: 0
 ROB Load Stall Begin Bucket Count 5: 75908
 ROB Load Stall End Bucket Count 5: 79557
 ROB Critical Load Stall Begin Bucket Count 5: 0
 ROB Critical Load Stall End Bucket Count 5: 0
 ROB Load Stall Begin Bucket Count 6: 195874
 ROB Load Stall End Bucket Count 6: 210247
 ROB Critical Load Stall Begin Bucket Count 6: 0
 ROB Critical Load Stall End Bucket Count 6: 0
PIST Tag Read Accesses: 918116
PIST Read Accesses: 459058
PIST Tag Write Accesses: 918116
PIST Write Accesses: 459058
Criticality detector called times: 2599985
Max global_stall_cycles_count: 1051302
Threshold Modified: 1 times, factor: -1
Sturdy critical IP cache stats: 
 Unused entries: 0
CIC Tag Read Accesses: 0
CIC Read Accesses: 0
CIC Tag Write Accesses: 0
CIC Write Accesses: 0
Wobbly critical IP cache stats: 
 Unused entries: 100
CIC Tag Read Accesses: 255501619
CIC Read Accesses: 0
CIC Tag Write Accesses: 2438905
CIC Write Accesses: 0
ITLB TOTAL     ACCESS:   17479936  HIT:   17479936  MISS:          0  HIT %:        100  MISS %:          0   MPKI: 0
ITLB LOAD TRANSLATION ACCESS:   17479936  HIT:   17479936  MISS:          0  HIT %:        100  MISS %:          0   MPKI: 0
ITLB PREFETCH  REQUESTED:          0  ISSUED:          0  USEFUL:          0  USELESS:          0
ITLB USEFUL LOAD PREFETCHES:          0 PREFETCH ISSUED TO LOWER LEVEL:          0  ACCURACY: -nan
ITLB TIMELY PREFETCHES:          0 LATE PREFETCHES: 0 DROPPED PREFETCHES: 0
ITLB PREFETCHES SAME FILL-ORIGIN LEVEL: 0 DIFFERENT FILL-ORIGIN LEVEL: 0
ITLB AVERAGE MISS LATENCY: -nan cycles
ITLB RQ	ACCESS:   18275024	FORWARD:          0	MERGED:     795088	TO_CACHE:   17479936

DTLB TOTAL     ACCESS:   28844051  HIT:   25901708  MISS:    2942343  HIT %:    89.7991  MISS %:    10.2009   MPKI: 29.4234
DTLB LOAD TRANSLATION ACCESS:   28844051  HIT:   25901708  MISS:    2942343  HIT %:    89.7991  MISS %:    10.2009   MPKI: 29.4234
DTLB PREFETCH  REQUESTED:          0  ISSUED:          0  USEFUL:          0  USELESS:          0
DTLB USEFUL LOAD PREFETCHES:          0 PREFETCH ISSUED TO LOWER LEVEL:          0  ACCURACY: -nan
DTLB TIMELY PREFETCHES:          0 LATE PREFETCHES: 0 DROPPED PREFETCHES: 0
DTLB PREFETCHES SAME FILL-ORIGIN LEVEL: 0 DIFFERENT FILL-ORIGIN LEVEL: 0
DTLB AVERAGE MISS LATENCY: 10.9292 cycles
DTLB RQ	ACCESS:   35108970	FORWARD:          0	MERGED:    6065181	TO_CACHE:   29043789

STLB TOTAL     ACCESS:   10090738  HIT:   10052494  MISS:      38244  HIT %:     99.621  MISS %:   0.379001   MPKI: 0.38244
STLB LOAD TRANSLATION ACCESS:    2942343  HIT:    2904099  MISS:      38244  HIT %:    98.7002  MISS %:    1.29978   MPKI: 0.38244
STLB TRANSLATION FROM L1D PREFETCHER ACCESS:    7148395  HIT:    7148395  MISS:          0  HIT %:        100  MISS %:          0   MPKI: 0
STLB PREFETCH  REQUESTED:          0  ISSUED:          0  USEFUL:          0  USELESS:          0
STLB USEFUL LOAD PREFETCHES:          0 PREFETCH ISSUED TO LOWER LEVEL:          0  ACCURACY: -nan
STLB TIMELY PREFETCHES:          0 LATE PREFETCHES: 0 DROPPED PREFETCHES: 0
STLB PREFETCHES SAME FILL-ORIGIN LEVEL: 0 DIFFERENT FILL-ORIGIN LEVEL: 0
STLB AVERAGE MISS LATENCY: 128.998 cycles
STLB RQ	ACCESS:   11066095	FORWARD:          0	MERGED:     975357	TO_CACHE:   10090738

STLB Hit, L1D data hit: 0
STLB Hit, L2C data hit: 0
STLB Hit, LLC data hit: 0
STLB Hit, LLC data miss: 0
STLB STLB hints to L2: 0
L1D TOTAL     ACCESS:   42036972  HIT:   32186136  MISS:    9850836  HIT %:    76.5663  MISS %:    23.4337   MPKI: 98.5084
L1D LOAD      ACCESS:   25174062  HIT:   20782196  MISS:    4391866  HIT %:     82.554  MISS %:     17.446   MPKI: 43.9187
L1D RFO       ACCESS:    9273208  HIT:    8923848  MISS:     349360  HIT %:    96.2326  MISS %:    3.76741   MPKI: 3.4936
L1D PREFETCH  ACCESS:    7589702  HIT:    2480092  MISS:    5109610  HIT %:    32.6771  MISS %:    67.3229   MPKI: 51.0961
L1D PREFETCH  REQUESTED:   16249062  ISSUED:   16249056  USEFUL:    1304742  USELESS:    3804956
L1D USEFUL LOAD PREFETCHES:    1304742 PREFETCH ISSUED TO LOWER LEVEL:    5462641  ACCURACY: 23.8848
L1D TIMELY PREFETCHES:    1304742 LATE PREFETCHES: 353004 DROPPED PREFETCHES: 0
L1D PREFETCHES SAME FILL-ORIGIN LEVEL: 5462641 DIFFERENT FILL-ORIGIN LEVEL: 0
L1D AVERAGE MISS LATENCY: 7.9555e+06 cycles
L1D RQ	ACCESS:   34108253	FORWARD:          0	MERGED:    7889057	TO_CACHE:   25244592
L1D WQ	ACCESS:    9921850	FORWARD:     976156	MERGED:      57472	TO_CACHE:    9864378
L1D PQ	ACCESS:    8125304	FORWARD:          0	MERGED:          0	TO_CACHE:    8123752

L1D UNIQUE REGIONS ACCESSED: 0
L1D REGIONS CONFLICTS: 0
L1D Cross Page Prefetch Requests: 0
L1D Same Page Prefetch Requests: 12450881
L1D ROI Sum of L1D PQ occupancy: 106109407
L1D PREFETCHES PUSHED FROM L2C: 0
L1I TOTAL     ACCESS:   18275024  HIT:   18275024  MISS:          0  HIT %:        100  MISS %:          0   MPKI: 0
L1I LOAD      ACCESS:   18275024  HIT:   18275024  MISS:          0  HIT %:        100  MISS %:          0   MPKI: 0
L1I PREFETCH  REQUESTED:          0  ISSUED:          0  USEFUL:          0  USELESS:          0
L1I USEFUL LOAD PREFETCHES:          0 PREFETCH ISSUED TO LOWER LEVEL:          0  ACCURACY: -nan
L1I TIMELY PREFETCHES:          0 LATE PREFETCHES: 0 DROPPED PREFETCHES: 0
L1I PREFETCHES SAME FILL-ORIGIN LEVEL: 0 DIFFERENT FILL-ORIGIN LEVEL: 0
L1I AVERAGE MISS LATENCY: -nan cycles
L1I RQ	ACCESS:   28580720	FORWARD:          0	MERGED:   10305696	TO_CACHE:   18275024

BTB TOTAL     ACCESS:   24144380  HIT:   23206832  MISS:     937548  HIT %:    96.1169  MISS %:    3.88309   MPKI: 9.37548
BTB BRANCH_DIRECT_JUMP	ACCESS:    2725127  HIT:    2725091  MISS:         36
BTB BRANCH_INDIRECT	ACCESS:          0  HIT:          0  MISS:          0
BTB BRANCH_CONDITIONAL	ACCESS:   17002725  HIT:   17002650  MISS:         75
BTB BRANCH_DIRECT_CALL	ACCESS:    2072101  HIT:    2072083  MISS:         18
BTB BRANCH_INDIRECT_CALL	ACCESS:     136160  HIT:     136152  MISS:          8
BTB BRANCH_RETURN	ACCESS:    2208267  HIT:    1270856  MISS:     937411
BTB BRANCH_OTHER ACCESS:          0  HIT:          0  MISS:          0

L2C TOTAL     ACCESS:   11453477  HIT:    3979119  MISS:    7474358  HIT %:    34.7416  MISS %:    65.2584   MPKI: 74.7436
L2C LOAD      ACCESS:    4038836  HIT:    1163614  MISS:    2875222  HIT %:    28.8106  MISS %:    71.1894   MPKI: 28.7522
L2C DATA LOAD MPKI: 28.7522
L2C INSTRUCTION LOAD MPKI: 0
L2C RFO       ACCESS:     349343  HIT:     262222  MISS:      87121  HIT %:    75.0615  MISS %:    24.9385   MPKI: 0.87121
L2C PREFETCH  ACCESS:    6496453  HIT:    1999538  MISS:    4496915  HIT %:    30.7789  MISS %:    69.2211   MPKI: 44.9691
L2C DATA PREFETCH MPKI: 44.9691
L2C INSTRUCTION PREFETCH MPKI: 0
L2C WRITEBACK ACCESS:     530406  HIT:     529635  MISS:        771  HIT %:    99.8546  MISS %:    0.14536   MPKI: 0.00771
L2C LOAD TRANSLATION ACCESS:      38439  HIT:      24110  MISS:      14329  HIT %:    62.7228  MISS %:    37.2772   MPKI: 0.14329
L2C PREFETCH  REQUESTED:    2741870  ISSUED:    2741870  USEFUL:     215900  USELESS:    4281221
L2C USEFUL LOAD PREFETCHES:     215900 PREFETCH ISSUED TO LOWER LEVEL:    4509581  ACCURACY: 4.78758
L2C TIMELY PREFETCHES:     215900 LATE PREFETCHES: 12662 DROPPED PREFETCHES: 0
L2C PREFETCHES SAME FILL-ORIGIN LEVEL: 1136817 DIFFERENT FILL-ORIGIN LEVEL: 0
L2C AVERAGE MISS LATENCY: 93.564 cycles
L2C RQ	ACCESS:    4426645	FORWARD:          0	MERGED:          0	TO_CACHE:    4426619
L2C WQ	ACCESS:     530406	FORWARD:         36	MERGED:          0	TO_CACHE:     530406
L2C PQ	ACCESS:    8204504	FORWARD:          0	MERGED:     820510	TO_CACHE:    7383984

L2C Instructions Evicting Data 0
L2C Translations Evicting Data 14314
L2C Data Evicting Data 7444950
L2C Instructions Evicting Instructions 0
L2C Translations Evicting Instructions 0
L2C Data Evicting Instructions 0
L2C Instructions Evicting Translations 0
L2C Translations Evicting Translations 15
L2C Data Evicting Translations 14308
L2C Dense regions hint from L2: 0
PSCL5 TOTAL     ACCESS:      38244  HIT:      38244  MISS:          0  HIT %:        100  MISS %:          0   MPKI: 0
PSCL5 LOAD TRANSLATION ACCESS:      38244  HIT:      38244  MISS:          0  HIT %:        100  MISS %:          0   MPKI: 0
PSCL5 PREFETCH  REQUESTED:          0  ISSUED:          0  USEFUL:          0  USELESS:          0
PSCL5 USEFUL LOAD PREFETCHES:          0 PREFETCH ISSUED TO LOWER LEVEL:          0  ACCURACY: -nan
PSCL5 TIMELY PREFETCHES:          0 LATE PREFETCHES: 0 DROPPED PREFETCHES: 0
PSCL5 PREFETCHES SAME FILL-ORIGIN LEVEL: 0 DIFFERENT FILL-ORIGIN LEVEL: 0

PSCL4 TOTAL     ACCESS:      38244  HIT:      38244  MISS:          0  HIT %:        100  MISS %:          0   MPKI: 0
PSCL4 LOAD TRANSLATION ACCESS:      38244  HIT:      38244  MISS:          0  HIT %:        100  MISS %:          0   MPKI: 0
PSCL4 PREFETCH  REQUESTED:          0  ISSUED:          0  USEFUL:          0  USELESS:          0
PSCL4 USEFUL LOAD PREFETCHES:          0 PREFETCH ISSUED TO LOWER LEVEL:          0  ACCURACY: -nan
PSCL4 TIMELY PREFETCHES:          0 LATE PREFETCHES: 0 DROPPED PREFETCHES: 0
PSCL4 PREFETCHES SAME FILL-ORIGIN LEVEL: 0 DIFFERENT FILL-ORIGIN LEVEL: 0

PSCL3 TOTAL     ACCESS:      38244  HIT:      38244  MISS:          0  HIT %:        100  MISS %:          0   MPKI: 0
PSCL3 LOAD TRANSLATION ACCESS:      38244  HIT:      38244  MISS:          0  HIT %:        100  MISS %:          0   MPKI: 0
PSCL3 PREFETCH  REQUESTED:          0  ISSUED:          0  USEFUL:          0  USELESS:          0
PSCL3 USEFUL LOAD PREFETCHES:          0 PREFETCH ISSUED TO LOWER LEVEL:          0  ACCURACY: -nan
PSCL3 TIMELY PREFETCHES:          0 LATE PREFETCHES: 0 DROPPED PREFETCHES: 0
PSCL3 PREFETCHES SAME FILL-ORIGIN LEVEL: 0 DIFFERENT FILL-ORIGIN LEVEL: 0

PSCL2 TOTAL     ACCESS:      38244  HIT:      37850  MISS:        394  HIT %:    98.9698  MISS %:    1.03023   MPKI: 0.00394
PSCL2 LOAD TRANSLATION ACCESS:      38244  HIT:      37850  MISS:        394  HIT %:    98.9698  MISS %:    1.03023   MPKI: 0.00394
PSCL2 PREFETCH  REQUESTED:          0  ISSUED:          0  USEFUL:          0  USELESS:          0
PSCL2 USEFUL LOAD PREFETCHES:          0 PREFETCH ISSUED TO LOWER LEVEL:          0  ACCURACY: -nan
PSCL2 TIMELY PREFETCHES:          0 LATE PREFETCHES: 0 DROPPED PREFETCHES: 0
PSCL2 PREFETCHES SAME FILL-ORIGIN LEVEL: 0 DIFFERENT FILL-ORIGIN LEVEL: 0

LLC TOTAL     ACCESS:    7685080  HIT:    4823764  MISS:    2861316  HIT %:    62.7679  MISS %:    37.2321   MPKI: 28.6132
LLC LOAD      ACCESS:    2862559  HIT:    2235072  MISS:     627487  HIT %:    78.0795  MISS %:    21.9205   MPKI: 6.27487
LLC RFO       ACCESS:      87118  HIT:      84854  MISS:       2264  HIT %:    97.4012  MISS %:    2.59877   MPKI: 0.02264
LLC PREFETCH  ACCESS:    4509577  HIT:    2297881  MISS:    2211696  HIT %:    50.9556  MISS %:    49.0444   MPKI: 22.117
LLC WRITEBACK ACCESS:     211497  HIT:     198365  MISS:      13132  HIT %:    93.7909  MISS %:    6.20907   MPKI: 0.13132
LLC LOAD TRANSLATION ACCESS:      14329  HIT:       7592  MISS:       6737  HIT %:    52.9835  MISS %:    47.0165   MPKI: 0.06737
LLC PREFETCH  REQUESTED:          0  ISSUED:          0  USEFUL:     123160  USELESS:    2088330
LLC USEFUL LOAD PREFETCHES:     123160 PREFETCH ISSUED TO LOWER LEVEL:    2211699  ACCURACY: 5.56857
LLC TIMELY PREFETCHES:     123160 LATE PREFETCHES: 0 DROPPED PREFETCHES: 0
LLC PREFETCHES SAME FILL-ORIGIN LEVEL: 0 DIFFERENT FILL-ORIGIN LEVEL: 0
LLC AVERAGE MISS LATENCY: 165.702 cycles
LLC RQ	ACCESS:    2964011	FORWARD:          0	MERGED:          0	TO_CACHE:    2964007
LLC WQ	ACCESS:     211497	FORWARD:          5	MERGED:          0	TO_CACHE:     211497
LLC PQ	ACCESS:    4509581	FORWARD:          0	MERGED:          0	TO_CACHE:    4509580

LLC Dense regions hint to LLC: 0

RAW hits: 1309725
Loads Generated: 35417978
Loads sent to L1D: 34108253
Stores Generated: 9921850
Stores sent to L1D: 9921850
Major fault: 0 Minor fault: 38847
Allocated PAGES: 38847

stream: 
stream:times selected: 17997797
stream:pref_filled: 5230835
stream:pref_useful: 249866
stream:pref_late: 5295
stream:misses: 1254355
stream:misses_by_poll: 0

CS: 
CS:times selected: 2950837
CS:pref_filled: 1648566
CS:pref_useful: 1609343
CS:pref_late: 504148
CS:misses: 760480
CS:misses_by_poll: 3662

CPLX: 
CPLX:times selected: 14914477
CPLX:pref_filled: 554395
CPLX:pref_useful: 39312
CPLX:pref_late: 754
CPLX:misses: 4489519
CPLX:misses_by_poll: 1282

NL_L1: 
NL:times selected: 115751
NL:pref_filled: 38731
NL:pref_useful: 1871
NL:pref_late: 39
NL:misses: 43302
NL:misses_by_poll: 1

total selections: 35978862
total_filled: 5109610
total_useful: 1304742
total_late: 532663
total_polluted: 4945
total_misses_after_warmup: 4462396
conflicts: 161132
Degree Incremented Times: 132649
Degree Decremented Times: 434000

L1 IP Table Write Accesses: 24831689
L1 IP Table Read Accesses: 24670557
L1 RST Write Accesses: 11957413
L1 RST Read Accesses: 23914826
L1 CSPT Write Accesses: 11957413
L1 CSPT Read Accesses: 21923358
L1 RR Filter Tag Write Accesses: 8125310
L1 RR Filter Tag Read Accesses: 428319005
L1 IP Table Tag Write Accesses: 25244592
L1 IP Table Tag Read Accesses: 25244592
L1 RST Tag Write Accesses: 0
L1 RST Tag Read Accesses: 113112469
L1 RR Filter Write Accesses: 0
L1 RR Filter Read Accesses: 14891898
test: 8530051
L2 IP Table Read Accesses: 17608290
L2 IP Table Write Accesses: 13577275
L2 IP Table Tag Read Accesses: 8807218
L2 IP Table Tag Write Accesses: 8807218

DRAM Statistics
 CHANNEL 0
 RQ ROW_BUFFER_HIT:     865834  ROW_BUFFER_MISS:    1982337
 DBUS_CONGESTED:        531
 WQ ROW_BUFFER_HIT:       3188  ROW_BUFFER_MISS:      23302  FULL:          0

 AVG_CONGESTED_CYCLE: 4
 All warmup complete: 2
Channel 0 Bank busy for read cycles: 0
Channel 0 Bank busy for write cycles: 0
Channel 0
Rank 0
0banks busy for read cycles: 236680749
0banks busy for write cycles: 22315
1banks busy for read cycles: 40021803
1banks busy for write cycles: 4689693
2banks busy for read cycles: 29036555
2banks busy for write cycles: 640625
3banks busy for read cycles: 21135585
3banks busy for write cycles: 104836
4banks busy for read cycles: 15381068
4banks busy for write cycles: 14989
5banks busy for read cycles: 9884527
5banks busy for write cycles: 1898
6banks busy for read cycles: 5853454
6banks busy for write cycles: 153
7banks busy for read cycles: 3040487
7banks busy for write cycles: 344
8banks busy for read cycles: 1474953
8banks busy for write cycles: 0

CPU 0 Branch Prediction Accuracy: 93.8692% MPKI: 15.451 Average ROB Occupancy at Mispredict: 24.0299
Branch types
NOT_BRANCH: 74797529 74.7975%
BRANCH_DIRECT_JUMP: 2725127 2.72513%
BRANCH_INDIRECT: 0 0%
BRANCH_CONDITIONAL: 18060505 18.0605%
BRANCH_DIRECT_CALL: 2072101 2.0721%
BRANCH_INDIRECT_CALL: 136160 0.13616%
BRANCH_RETURN: 2208267 2.20827%
BRANCH_OTHER: 0 0%

DRAM PAGES: 1048576
Allocated PAGES: 38847
