
*** ChampSim Multicore Out-of-Order Simulator ***

Warmup Instructions: 50000000
Simulation Instructions: 100000000
Number of CPUs: 1
LLC sets: 2048
LLC ways: 16
Off-chip DRAM Size: 4096 MB Channels: 1 Width: 64-bit Data Rate: 6400 MT/s
CPU 0 runs ../SPEC2017//605.mcf_s-1536B.champsimtrace.xz
.xz
BTB has LRU replacement policy
ITLB has LRU replacement policy
DTLB has LRU replacement policy
STLB has LRU replacement policy
L1I has LRU replacement policy
L1D has LRU replacement policy
Bingo PHT WAYS: 16 and PHT_SIZE: 16384
Initialize SRRIP state for L2C
Initialize DRRIP state for LLC
Heartbeat CPU 0 instructions: 10000003 cycles: 2840613 heartbeat IPC: 3.52037 cumulative IPC: 3.52037 (Simulation time: 0 hr 8 min 4 sec) 
Heartbeat CPU 0 instructions: 20000003 cycles: 5671139 heartbeat IPC: 3.53291 cumulative IPC: 3.52663 (Simulation time: 0 hr 16 min 41 sec) 
Heartbeat CPU 0 instructions: 30000001 cycles: 8514577 heartbeat IPC: 3.51687 cumulative IPC: 3.52337 (Simulation time: 0 hr 25 min 22 sec) 
Heartbeat CPU 0 instructions: 40000001 cycles: 11370213 heartbeat IPC: 3.50185 cumulative IPC: 3.51796 (Simulation time: 0 hr 32 min 43 sec) 
Heartbeat CPU 0 instructions: 50000003 cycles: 14233368 heartbeat IPC: 3.49265 cumulative IPC: 3.51287 (Simulation time: 0 hr 39 min 22 sec) 

Warmup complete CPU 0 instructions: 50000003 cycles: 14233368 (Simulation time: 0 hr 39 min 22 sec) 

Heartbeat CPU 0 instructions: 60000003 cycles: 51272598 heartbeat IPC: 0.269984 cumulative IPC: 0.269984 (Simulation time: 0 hr 49 min 30 sec) 
Heartbeat CPU 0 instructions: 70000000 cycles: 88136145 heartbeat IPC: 0.271271 cumulative IPC: 0.270626 (Simulation time: 0 hr 58 min 54 sec) 
Heartbeat CPU 0 instructions: 80000001 cycles: 124941921 heartbeat IPC: 0.271697 cumulative IPC: 0.270982 (Simulation time: 1 hr 7 min 29 sec) 
Heartbeat CPU 0 instructions: 90000000 cycles: 162009757 heartbeat IPC: 0.269776 cumulative IPC: 0.270679 (Simulation time: 1 hr 14 min 39 sec) 
Heartbeat CPU 0 instructions: 100000002 cycles: 199212879 heartbeat IPC: 0.268795 cumulative IPC: 0.2703 (Simulation time: 1 hr 21 min 19 sec) 
Heartbeat CPU 0 instructions: 110000000 cycles: 236755125 heartbeat IPC: 0.266367 cumulative IPC: 0.269637 (Simulation time: 1 hr 27 min 8 sec) 
Heartbeat CPU 0 instructions: 120000000 cycles: 275056939 heartbeat IPC: 0.261084 cumulative IPC: 0.268381 (Simulation time: 1 hr 31 min 19 sec) 
Heartbeat CPU 0 instructions: 130000003 cycles: 313092002 heartbeat IPC: 0.262915 cumulative IPC: 0.267685 (Simulation time: 1 hr 40 min 3 sec) 
Heartbeat CPU 0 instructions: 140000000 cycles: 351661468 heartbeat IPC: 0.259272 cumulative IPC: 0.266723 (Simulation time: 1 hr 47 min 31 sec) 
Heartbeat CPU 0 instructions: 150000001 cycles: 390106428 heartbeat IPC: 0.260112 cumulative IPC: 0.266047 (Simulation time: 1 hr 53 min 51 sec) 
Finished CPU 0 instructions: 100000002 cycles: 375873061 cumulative IPC: 0.266047 (Simulation time: 1 hr 53 min 51 sec) 

ChampSim completed all CPUs

Region of Interest Statistics

CPU 0 cumulative IPC: 0.266047 instructions: 100000002 cycles: 375873061

CPU 0 Average Load ROB stall cycles: 8.30841e+07
CPU 0 Fraction of times ROB stalled by Loads: 41.1177
CPU 0 Percentage of Load stall cycles in Total stall cycles: 2.76009e+08
Issued all: 357524080
Issued LT all: 353170917
rob_not_full_when_issued_lt_all: 12521828
Issued LT one: 330356882
rob_not_full_when_issued_lt_one: 10626111
 Total stall cycles: 349458943
 Total load stall cycles: 964538287927088
Unique Load IPs: 15
CPU 0 NUM of IPS identified critical: 7
CPU 0 Num of Load IPs stalling ROB: 0
Threshold modification factor: 0
Trouble in retire width: -nan
MaC = Marked as critical.
lt_50_percent_before_Mac: 7
gt_90_percent_before_Mac: 0
gt_75_percent_before_Mac: 0
gt_50_percent_before_Mac: 0
stall_proportion_bin_same_before_after: 0
stall_proportion_bin_lower_before_after: 0
stall_proportion_bin_upper_before_after: 0
average_stall_proportion_before: 0.0152507
average_stall_proportion_after: 0.0153307
Critical_IP_Detector_Accuracy_70: 0
Critical_IP_Detector_Accuracy_80: 0
Critical_IP_Detector_Accuracy_90: 0
Critical_IP_Detector_Coverage_70: 0
Critical_IP_Detector_Coverage_80: 0
Critical_IP_Detector_Coverage_90: 0
stat_90_percent_critical_ip_stalls_freq: 1842126
stat_90_percent_non_critical_ip_stalls_freq: 18446744073707709490
AVERAGE_ROB_Occupancy_90_Percent_Critical_IP_Stalls: 349.295
AVERAGE_ROB_Occupancy_90_Percent_Non_Critical_IP_Stalls: 5.5468e-11
Critical_IP_ROB_Stalls_Bucket_0: 1600
Non-critical_IP_ROB_Stalls_Bucket_0: 4730
Critical_IP_ROB_Stalls_Bucket_1: 1485
Non-critical_IP_ROB_Stalls_Bucket_1: 2766
Critical_IP_ROB_Stalls_Bucket_2: 1495
Non-critical_IP_ROB_Stalls_Bucket_2: 2685
Critical_IP_ROB_Stalls_Bucket_3: 1565
Non-critical_IP_ROB_Stalls_Bucket_3: 2710
Critical_IP_ROB_Stalls_Bucket_4: 1481
Non-critical_IP_ROB_Stalls_Bucket_4: 2610
Critical_IP_ROB_Stalls_Bucket_5: 1458
Non-critical_IP_ROB_Stalls_Bucket_5: 7167
Critical_IP_ROB_Stalls_Bucket_6: 1739240
Non-critical_IP_ROB_Stalls_Bucket_6: 3002432
0 => IPs accounting for >50 percent of stalls, 1 => 55, 2 => 60, 3 => 65 and so on till 90.
percent50: inf num IPs:  1
percent55: inf num IPs: 1
percent60: inf num IPs: 1
percent65: inf num IPs: 1
percent70: inf num IPs: 1
percent75: inf num IPs: 1
percent80: inf num IPs: 1
percent85: inf num IPs: 1
percent90: inf num IPs: 1
Critical_ROB_Stalls_Percent_0_Bucket_0: 1579
Non-critical_ROB_Stalls_Percent_0_Bucket_0: 4751
Critical_ROB_Stalls_Percent_0_Bucket_1: 1533
Non-critical_ROB_Stalls_Percent_0_Bucket_1: 2718
Critical_ROB_Stalls_Percent_0_Bucket_2: 1511
Non-critical_ROB_Stalls_Percent_0_Bucket_2: 2669
Critical_ROB_Stalls_Percent_0_Bucket_3: 1544
Non-critical_ROB_Stalls_Percent_0_Bucket_3: 2731
Critical_ROB_Stalls_Percent_0_Bucket_4: 1530
Non-critical_ROB_Stalls_Percent_0_Bucket_4: 2561
Critical_ROB_Stalls_Percent_0_Bucket_5: 2323
Non-critical_ROB_Stalls_Percent_0_Bucket_5: 6302
Critical_ROB_Stalls_Percent_0_Bucket_6: 1832106
Non-critical_ROB_Stalls_Percent_0_Bucket_6: 2909566
Critical_ROB_Stalls_Percent_1_Bucket_0: 1579
Non-critical_ROB_Stalls_Percent_1_Bucket_0: 4751
Critical_ROB_Stalls_Percent_1_Bucket_1: 1533
Non-critical_ROB_Stalls_Percent_1_Bucket_1: 2718
Critical_ROB_Stalls_Percent_1_Bucket_2: 1511
Non-critical_ROB_Stalls_Percent_1_Bucket_2: 2669
Critical_ROB_Stalls_Percent_1_Bucket_3: 1544
Non-critical_ROB_Stalls_Percent_1_Bucket_3: 2731
Critical_ROB_Stalls_Percent_1_Bucket_4: 1530
Non-critical_ROB_Stalls_Percent_1_Bucket_4: 2561
Critical_ROB_Stalls_Percent_1_Bucket_5: 2323
Non-critical_ROB_Stalls_Percent_1_Bucket_5: 6302
Critical_ROB_Stalls_Percent_1_Bucket_6: 1832106
Non-critical_ROB_Stalls_Percent_1_Bucket_6: 2909566
Critical_ROB_Stalls_Percent_2_Bucket_0: 1579
Non-critical_ROB_Stalls_Percent_2_Bucket_0: 4751
Critical_ROB_Stalls_Percent_2_Bucket_1: 1533
Non-critical_ROB_Stalls_Percent_2_Bucket_1: 2718
Critical_ROB_Stalls_Percent_2_Bucket_2: 1511
Non-critical_ROB_Stalls_Percent_2_Bucket_2: 2669
Critical_ROB_Stalls_Percent_2_Bucket_3: 1544
Non-critical_ROB_Stalls_Percent_2_Bucket_3: 2731
Critical_ROB_Stalls_Percent_2_Bucket_4: 1530
Non-critical_ROB_Stalls_Percent_2_Bucket_4: 2561
Critical_ROB_Stalls_Percent_2_Bucket_5: 2323
Non-critical_ROB_Stalls_Percent_2_Bucket_5: 6302
Critical_ROB_Stalls_Percent_2_Bucket_6: 1832106
Non-critical_ROB_Stalls_Percent_2_Bucket_6: 2909566
Critical_ROB_Stalls_Percent_3_Bucket_0: 1579
Non-critical_ROB_Stalls_Percent_3_Bucket_0: 4751
Critical_ROB_Stalls_Percent_3_Bucket_1: 1533
Non-critical_ROB_Stalls_Percent_3_Bucket_1: 2718
Critical_ROB_Stalls_Percent_3_Bucket_2: 1511
Non-critical_ROB_Stalls_Percent_3_Bucket_2: 2669
Critical_ROB_Stalls_Percent_3_Bucket_3: 1544
Non-critical_ROB_Stalls_Percent_3_Bucket_3: 2731
Critical_ROB_Stalls_Percent_3_Bucket_4: 1530
Non-critical_ROB_Stalls_Percent_3_Bucket_4: 2561
Critical_ROB_Stalls_Percent_3_Bucket_5: 2323
Non-critical_ROB_Stalls_Percent_3_Bucket_5: 6302
Critical_ROB_Stalls_Percent_3_Bucket_6: 1832106
Non-critical_ROB_Stalls_Percent_3_Bucket_6: 2909566
Critical_ROB_Stalls_Percent_4_Bucket_0: 1579
Non-critical_ROB_Stalls_Percent_4_Bucket_0: 4751
Critical_ROB_Stalls_Percent_4_Bucket_1: 1533
Non-critical_ROB_Stalls_Percent_4_Bucket_1: 2718
Critical_ROB_Stalls_Percent_4_Bucket_2: 1511
Non-critical_ROB_Stalls_Percent_4_Bucket_2: 2669
Critical_ROB_Stalls_Percent_4_Bucket_3: 1544
Non-critical_ROB_Stalls_Percent_4_Bucket_3: 2731
Critical_ROB_Stalls_Percent_4_Bucket_4: 1530
Non-critical_ROB_Stalls_Percent_4_Bucket_4: 2561
Critical_ROB_Stalls_Percent_4_Bucket_5: 2323
Non-critical_ROB_Stalls_Percent_4_Bucket_5: 6302
Critical_ROB_Stalls_Percent_4_Bucket_6: 1832106
Non-critical_ROB_Stalls_Percent_4_Bucket_6: 2909566
Critical_ROB_Stalls_Percent_5_Bucket_0: 1579
Non-critical_ROB_Stalls_Percent_5_Bucket_0: 4751
Critical_ROB_Stalls_Percent_5_Bucket_1: 1533
Non-critical_ROB_Stalls_Percent_5_Bucket_1: 2718
Critical_ROB_Stalls_Percent_5_Bucket_2: 1511
Non-critical_ROB_Stalls_Percent_5_Bucket_2: 2669
Critical_ROB_Stalls_Percent_5_Bucket_3: 1544
Non-critical_ROB_Stalls_Percent_5_Bucket_3: 2731
Critical_ROB_Stalls_Percent_5_Bucket_4: 1530
Non-critical_ROB_Stalls_Percent_5_Bucket_4: 2561
Critical_ROB_Stalls_Percent_5_Bucket_5: 2323
Non-critical_ROB_Stalls_Percent_5_Bucket_5: 6302
Critical_ROB_Stalls_Percent_5_Bucket_6: 1832106
Non-critical_ROB_Stalls_Percent_5_Bucket_6: 2909566
Critical_ROB_Stalls_Percent_6_Bucket_0: 1579
Non-critical_ROB_Stalls_Percent_6_Bucket_0: 4751
Critical_ROB_Stalls_Percent_6_Bucket_1: 1533
Non-critical_ROB_Stalls_Percent_6_Bucket_1: 2718
Critical_ROB_Stalls_Percent_6_Bucket_2: 1511
Non-critical_ROB_Stalls_Percent_6_Bucket_2: 2669
Critical_ROB_Stalls_Percent_6_Bucket_3: 1544
Non-critical_ROB_Stalls_Percent_6_Bucket_3: 2731
Critical_ROB_Stalls_Percent_6_Bucket_4: 1530
Non-critical_ROB_Stalls_Percent_6_Bucket_4: 2561
Critical_ROB_Stalls_Percent_6_Bucket_5: 2323
Non-critical_ROB_Stalls_Percent_6_Bucket_5: 6302
Critical_ROB_Stalls_Percent_6_Bucket_6: 1832106
Non-critical_ROB_Stalls_Percent_6_Bucket_6: 2909566
Critical_ROB_Stalls_Percent_7_Bucket_0: 1579
Non-critical_ROB_Stalls_Percent_7_Bucket_0: 4751
Critical_ROB_Stalls_Percent_7_Bucket_1: 1533
Non-critical_ROB_Stalls_Percent_7_Bucket_1: 2718
Critical_ROB_Stalls_Percent_7_Bucket_2: 1511
Non-critical_ROB_Stalls_Percent_7_Bucket_2: 2669
Critical_ROB_Stalls_Percent_7_Bucket_3: 1544
Non-critical_ROB_Stalls_Percent_7_Bucket_3: 2731
Critical_ROB_Stalls_Percent_7_Bucket_4: 1530
Non-critical_ROB_Stalls_Percent_7_Bucket_4: 2561
Critical_ROB_Stalls_Percent_7_Bucket_5: 2323
Non-critical_ROB_Stalls_Percent_7_Bucket_5: 6302
Critical_ROB_Stalls_Percent_7_Bucket_6: 1832106
Non-critical_ROB_Stalls_Percent_7_Bucket_6: 2909566
Critical_ROB_Stalls_Percent_8_Bucket_0: 1579
Non-critical_ROB_Stalls_Percent_8_Bucket_0: 4751
Critical_ROB_Stalls_Percent_8_Bucket_1: 1533
Non-critical_ROB_Stalls_Percent_8_Bucket_1: 2718
Critical_ROB_Stalls_Percent_8_Bucket_2: 1511
Non-critical_ROB_Stalls_Percent_8_Bucket_2: 2669
Critical_ROB_Stalls_Percent_8_Bucket_3: 1544
Non-critical_ROB_Stalls_Percent_8_Bucket_3: 2731
Critical_ROB_Stalls_Percent_8_Bucket_4: 1530
Non-critical_ROB_Stalls_Percent_8_Bucket_4: 2561
Critical_ROB_Stalls_Percent_8_Bucket_5: 2323
Non-critical_ROB_Stalls_Percent_8_Bucket_5: 6302
Critical_ROB_Stalls_Percent_8_Bucket_6: 1832106
Non-critical_ROB_Stalls_Percent_8_Bucket_6: 2909566
Average ROB occupancy Load Stall Begin: 344.508
Average ROB occupancy Load Stall End: 349.152
Min ROB occupancy Load Stall Begin: 2
Max ROB occupancy Load Stall Begin: 352
Min ROB occupancy Load Stall End: 2
Max ROB occupancy Load Stall End: 352
Average ROB occupancy Critical Load Stall Begin: 346.646
Average ROB occupancy Critical Load Stall End: 350.186
Min ROB occupancy Critical Load Stall Begin: 4
Max ROB occupancy Critical Load Stall Begin: 352
Min ROB occupancy Critical Load Stall End: 4
Max ROB occupancy Critical Load Stall End: 352
 ROB Load Stall Begin Bucket Count 0: 8278
 ROB Load Stall End Bucket Count 0: 6330
 ROB Critical Load Stall Begin Bucket Count 0: 908
 ROB Critical Load Stall End Bucket Count 0: 903
 ROB Load Stall Begin Bucket Count 1: 4177
 ROB Load Stall End Bucket Count 1: 4251
 ROB Critical Load Stall Begin Bucket Count 1: 830
 ROB Critical Load Stall End Bucket Count 1: 833
 ROB Load Stall Begin Bucket Count 2: 4153
 ROB Load Stall End Bucket Count 2: 4180
 ROB Critical Load Stall Begin Bucket Count 2: 880
 ROB Critical Load Stall End Bucket Count 2: 882
 ROB Load Stall Begin Bucket Count 3: 4251
 ROB Load Stall End Bucket Count 3: 4275
 ROB Critical Load Stall Begin Bucket Count 3: 930
 ROB Critical Load Stall End Bucket Count 3: 930
 ROB Load Stall Begin Bucket Count 4: 4088
 ROB Load Stall End Bucket Count 4: 4091
 ROB Critical Load Stall Begin Bucket Count 4: 846
 ROB Critical Load Stall End Bucket Count 4: 843
 ROB Load Stall Begin Bucket Count 5: 71468
 ROB Load Stall End Bucket Count 5: 8625
 ROB Critical Load Stall Begin Bucket Count 5: 890
 ROB Critical Load Stall End Bucket Count 5: 841
 ROB Load Stall Begin Bucket Count 6: 4677009
 ROB Load Stall End Bucket Count 6: 4741672
 ROB Critical Load Stall Begin Bucket Count 6: 968134
 ROB Critical Load Stall End Bucket Count 6: 968187
PIST Tag Read Accesses: 0
PIST Read Accesses: 0
PIST Tag Write Accesses: 0
PIST Write Accesses: 0
Criticality detector called times: 0
Max global_stall_cycles_count: 0
Threshold Modified: 0 times, factor: 0
Sturdy critical IP cache stats: 
 Unused entries: 0
CIC Tag Read Accesses: 0
CIC Read Accesses: 0
CIC Tag Write Accesses: 0
CIC Write Accesses: 0
Wobbly critical IP cache stats: 
 Unused entries: 24
CIC Tag Read Accesses: 257757030
CIC Read Accesses: 0
CIC Tag Write Accesses: 13000791
CIC Write Accesses: 0
ITLB TOTAL     ACCESS:   17930791  HIT:   17930791  MISS:          0  HIT %:        100  MISS %:          0   MPKI: 0
ITLB LOAD TRANSLATION ACCESS:   17930791  HIT:   17930791  MISS:          0  HIT %:        100  MISS %:          0   MPKI: 0
ITLB PREFETCH  REQUESTED:          0  ISSUED:          0  USEFUL:          0  USELESS:          0
ITLB USEFUL LOAD PREFETCHES:          0 PREFETCH ISSUED TO LOWER LEVEL:          0  ACCURACY: -nan
ITLB TIMELY PREFETCHES:          0 LATE PREFETCHES: 0 DROPPED PREFETCHES: 0
ITLB PREFETCHES SAME FILL-ORIGIN LEVEL: 0 DIFFERENT FILL-ORIGIN LEVEL: 0
ITLB AVERAGE MISS LATENCY: -nan cycles
ITLB RQ	ACCESS:   19327075	FORWARD:          0	MERGED:    1396283	TO_CACHE:   17930792

DTLB TOTAL     ACCESS:   15058732  HIT:   12613527  MISS:    2445205  HIT %:    83.7622  MISS %:    16.2378   MPKI: 24.452
DTLB LOAD TRANSLATION ACCESS:   15058732  HIT:   12613527  MISS:    2445205  HIT %:    83.7622  MISS %:    16.2378   MPKI: 24.452
DTLB PREFETCH  REQUESTED:          0  ISSUED:          0  USEFUL:          0  USELESS:          0
DTLB USEFUL LOAD PREFETCHES:          0 PREFETCH ISSUED TO LOWER LEVEL:          0  ACCURACY: -nan
DTLB TIMELY PREFETCHES:          0 LATE PREFETCHES: 0 DROPPED PREFETCHES: 0
DTLB PREFETCHES SAME FILL-ORIGIN LEVEL: 0 DIFFERENT FILL-ORIGIN LEVEL: 0
DTLB AVERAGE MISS LATENCY: 69.779 cycles
DTLB RQ	ACCESS:   17438654	FORWARD:          0	MERGED:    2362332	TO_CACHE:   15076322

STLB TOTAL     ACCESS:    2445205  HIT:     205937  MISS:    2239268  HIT %:    8.42208  MISS %:    91.5779   MPKI: 22.3927
STLB LOAD TRANSLATION ACCESS:    2445205  HIT:     205937  MISS:    2239268  HIT %:    8.42208  MISS %:    91.5779   MPKI: 22.3927
STLB PREFETCH  REQUESTED:          0  ISSUED:          0  USEFUL:          0  USELESS:          0
STLB USEFUL LOAD PREFETCHES:          0 PREFETCH ISSUED TO LOWER LEVEL:          0  ACCURACY: -nan
STLB TIMELY PREFETCHES:          0 LATE PREFETCHES: 0 DROPPED PREFETCHES: 0
STLB PREFETCHES SAME FILL-ORIGIN LEVEL: 0 DIFFERENT FILL-ORIGIN LEVEL: 0
STLB AVERAGE MISS LATENCY: 66.2338 cycles
STLB RQ	ACCESS:    2445208	FORWARD:          0	MERGED:          0	TO_CACHE:    2445208

STLB Hit, L1D data hit: 0
STLB Hit, L2C data hit: 0
STLB Hit, LLC data hit: 0
STLB Hit, LLC data miss: 0
STLB STLB hints to L2: 0
L1D TOTAL     ACCESS:   17361606  HIT:   11816631  MISS:    5544975  HIT %:    68.0619  MISS %:    31.9381   MPKI: 55.4497
L1D LOAD      ACCESS:   12927346  HIT:    7659571  MISS:    5267775  HIT %:    59.2509  MISS %:    40.7491   MPKI: 52.6777
L1D RFO       ACCESS:    4434260  HIT:    4157060  MISS:     277200  HIT %:    93.7487  MISS %:    6.25132   MPKI: 2.772
L1D PREFETCH  REQUESTED:          0  ISSUED:          0  USEFUL:          0  USELESS:          0
L1D USEFUL LOAD PREFETCHES:          0 PREFETCH ISSUED TO LOWER LEVEL:          0  ACCURACY: -nan
L1D TIMELY PREFETCHES:          0 LATE PREFETCHES: 0 DROPPED PREFETCHES: 0
L1D PREFETCHES SAME FILL-ORIGIN LEVEL: 0 DIFFERENT FILL-ORIGIN LEVEL: 0
L1D AVERAGE MISS LATENCY: 110.105 cycles
L1D RQ	ACCESS:   24608921	FORWARD:          0	MERGED:   11384150	TO_CACHE:   13004392
L1D WQ	ACCESS:    4434265	FORWARD:     220379	MERGED:          3	TO_CACHE:    4434262

L1D UNIQUE REGIONS ACCESSED: 0
L1D REGIONS CONFLICTS: 0
L1D Cross Page Prefetch Requests: 0
L1D Same Page Prefetch Requests: 0
L1D ROI Sum of L1D PQ occupancy: 0
L1D PREFETCHES PUSHED FROM L2C: 0
L1I TOTAL     ACCESS:   19327074  HIT:   19327074  MISS:          0  HIT %:        100  MISS %:          0   MPKI: 0
L1I LOAD      ACCESS:   19327074  HIT:   19327074  MISS:          0  HIT %:        100  MISS %:          0   MPKI: 0
L1I PREFETCH  REQUESTED:          0  ISSUED:          0  USEFUL:          0  USELESS:          0
L1I USEFUL LOAD PREFETCHES:          0 PREFETCH ISSUED TO LOWER LEVEL:          0  ACCURACY: -nan
L1I TIMELY PREFETCHES:          0 LATE PREFETCHES: 0 DROPPED PREFETCHES: 0
L1I PREFETCHES SAME FILL-ORIGIN LEVEL: 0 DIFFERENT FILL-ORIGIN LEVEL: 0
L1I AVERAGE MISS LATENCY: -nan cycles
L1I RQ	ACCESS:   29090826	FORWARD:          0	MERGED:    9763751	TO_CACHE:   19327075

BTB TOTAL     ACCESS:   13288682  HIT:   13288674  MISS:          8  HIT %:    99.9999  MISS %: 6.02016e-05   MPKI: 8e-05
BTB BRANCH_DIRECT_JUMP	ACCESS:    2274658  HIT:    2274656  MISS:          2
BTB BRANCH_INDIRECT	ACCESS:          0  HIT:          0  MISS:          0
BTB BRANCH_CONDITIONAL	ACCESS:    6579762  HIT:    6579758  MISS:          4
BTB BRANCH_DIRECT_CALL	ACCESS:    2217131  HIT:    2217130  MISS:          1
BTB BRANCH_INDIRECT_CALL	ACCESS:          0  HIT:          0  MISS:          0
BTB BRANCH_RETURN	ACCESS:    2217131  HIT:    2217130  MISS:          1
BTB BRANCH_OTHER ACCESS:          0  HIT:          0  MISS:          0

L2C TOTAL     ACCESS:   11636817  HIT:    6369371  MISS:    5267446  HIT %:    54.7346  MISS %:    45.2654   MPKI: 52.6745
L2C LOAD      ACCESS:    5267775  HIT:    2292026  MISS:    2975749  HIT %:    43.5103  MISS %:    56.4897   MPKI: 29.7575
L2C DATA LOAD MPKI: 29.7575
L2C INSTRUCTION LOAD MPKI: 0
L2C RFO       ACCESS:     277200  HIT:      53795  MISS:     223405  HIT %:    19.4066  MISS %:    80.5934   MPKI: 2.23405
L2C PREFETCH  ACCESS:    1329835  HIT:    1023850  MISS:     305985  HIT %:    76.9908  MISS %:    23.0092   MPKI: 3.05985
L2C DATA PREFETCH MPKI: 3.05985
L2C INSTRUCTION PREFETCH MPKI: 0
L2C WRITEBACK ACCESS:    2217133  HIT:    2178998  MISS:      38135  HIT %:      98.28  MISS %:    1.72001   MPKI: 0.38135
L2C LOAD TRANSLATION ACCESS:    2544874  HIT:     820702  MISS:    1724172  HIT %:    32.2492  MISS %:    67.7508   MPKI: 17.2417
L2C PREFETCH  REQUESTED:    1756383  ISSUED:    1756383  USEFUL:      23030  USELESS:     282523
L2C USEFUL LOAD PREFETCHES:      23030 PREFETCH ISSUED TO LOWER LEVEL:     307298  ACCURACY: 7.49435
L2C TIMELY PREFETCHES:      23030 LATE PREFETCHES: 1313 DROPPED PREFETCHES: 0
L2C PREFETCHES SAME FILL-ORIGIN LEVEL: 307298 DIFFERENT FILL-ORIGIN LEVEL: 0
L2C AVERAGE MISS LATENCY: 113.232 cycles
L2C RQ	ACCESS:    8089849	FORWARD:          0	MERGED:          0	TO_CACHE:    8089849
L2C WQ	ACCESS:    2217133	FORWARD:          0	MERGED:          0	TO_CACHE:    2217133
L2C PQ	ACCESS:    1756383	FORWARD:          0	MERGED:          4	TO_CACHE:    1756379

L2C Instructions Evicting Data 0
L2C Translations Evicting Data 906451
L2C Data Evicting Data 2605059
L2C Instructions Evicting Instructions 0
L2C Translations Evicting Instructions 0
L2C Data Evicting Instructions 0
L2C Instructions Evicting Translations 0
L2C Translations Evicting Translations 817721
L2C Data Evicting Translations 900080
L2C Dense regions hint from L2: 0
PSCL5 TOTAL     ACCESS:    2239269  HIT:    2239269  MISS:          0  HIT %:        100  MISS %:          0   MPKI: 0
PSCL5 LOAD TRANSLATION ACCESS:    2239269  HIT:    2239269  MISS:          0  HIT %:        100  MISS %:          0   MPKI: 0
PSCL5 PREFETCH  REQUESTED:          0  ISSUED:          0  USEFUL:          0  USELESS:          0
PSCL5 USEFUL LOAD PREFETCHES:          0 PREFETCH ISSUED TO LOWER LEVEL:          0  ACCURACY: -nan
PSCL5 TIMELY PREFETCHES:          0 LATE PREFETCHES: 0 DROPPED PREFETCHES: 0
PSCL5 PREFETCHES SAME FILL-ORIGIN LEVEL: 0 DIFFERENT FILL-ORIGIN LEVEL: 0

PSCL4 TOTAL     ACCESS:    2239269  HIT:    2239269  MISS:          0  HIT %:        100  MISS %:          0   MPKI: 0
PSCL4 LOAD TRANSLATION ACCESS:    2239269  HIT:    2239269  MISS:          0  HIT %:        100  MISS %:          0   MPKI: 0
PSCL4 PREFETCH  REQUESTED:          0  ISSUED:          0  USEFUL:          0  USELESS:          0
PSCL4 USEFUL LOAD PREFETCHES:          0 PREFETCH ISSUED TO LOWER LEVEL:          0  ACCURACY: -nan
PSCL4 TIMELY PREFETCHES:          0 LATE PREFETCHES: 0 DROPPED PREFETCHES: 0
PSCL4 PREFETCHES SAME FILL-ORIGIN LEVEL: 0 DIFFERENT FILL-ORIGIN LEVEL: 0

PSCL3 TOTAL     ACCESS:    2239269  HIT:    2239269  MISS:          0  HIT %:        100  MISS %:          0   MPKI: 0
PSCL3 LOAD TRANSLATION ACCESS:    2239269  HIT:    2239269  MISS:          0  HIT %:        100  MISS %:          0   MPKI: 0
PSCL3 PREFETCH  REQUESTED:          0  ISSUED:          0  USEFUL:          0  USELESS:          0
PSCL3 USEFUL LOAD PREFETCHES:          0 PREFETCH ISSUED TO LOWER LEVEL:          0  ACCURACY: -nan
PSCL3 TIMELY PREFETCHES:          0 LATE PREFETCHES: 0 DROPPED PREFETCHES: 0
PSCL3 PREFETCHES SAME FILL-ORIGIN LEVEL: 0 DIFFERENT FILL-ORIGIN LEVEL: 0

PSCL2 TOTAL     ACCESS:    2239269  HIT:    1933664  MISS:     305605  HIT %:    86.3525  MISS %:    13.6475   MPKI: 3.05605
PSCL2 LOAD TRANSLATION ACCESS:    2239269  HIT:    1933664  MISS:     305605  HIT %:    86.3525  MISS %:    13.6475   MPKI: 3.05605
PSCL2 PREFETCH  REQUESTED:          0  ISSUED:          0  USEFUL:          0  USELESS:          0
PSCL2 USEFUL LOAD PREFETCHES:          0 PREFETCH ISSUED TO LOWER LEVEL:          0  ACCURACY: -nan
PSCL2 TIMELY PREFETCHES:          0 LATE PREFETCHES: 0 DROPPED PREFETCHES: 0
PSCL2 PREFETCHES SAME FILL-ORIGIN LEVEL: 0 DIFFERENT FILL-ORIGIN LEVEL: 0

LLC TOTAL     ACCESS:    7447400  HIT:    4837913  MISS:    2609487  HIT %:    64.9611  MISS %:    35.0389   MPKI: 26.0949
LLC LOAD      ACCESS:    2974436  HIT:     448812  MISS:    2525624  HIT %:     15.089  MISS %:     84.911   MPKI: 25.2562
LLC RFO       ACCESS:     223405  HIT:     220102  MISS:       3303  HIT %:    98.5215  MISS %:    1.47848   MPKI: 0.03303
LLC PREFETCH  ACCESS:     307298  HIT:     271869  MISS:      35429  HIT %:    88.4708  MISS %:    11.5292   MPKI: 0.35429
LLC WRITEBACK ACCESS:    2218089  HIT:    2184915  MISS:      33174  HIT %:    98.5044  MISS %:    1.49561   MPKI: 0.33174
LLC LOAD TRANSLATION ACCESS:    1724172  HIT:    1712215  MISS:      11957  HIT %:    99.3065  MISS %:   0.693492   MPKI: 0.11957
LLC PREFETCH  REQUESTED:          0  ISSUED:          0  USEFUL:       1460  USELESS:      32862
LLC USEFUL LOAD PREFETCHES:       1460 PREFETCH ISSUED TO LOWER LEVEL:      35429  ACCURACY: 4.12092
LLC TIMELY PREFETCHES:       1460 LATE PREFETCHES: 0 DROPPED PREFETCHES: 0
LLC PREFETCHES SAME FILL-ORIGIN LEVEL: 0 DIFFERENT FILL-ORIGIN LEVEL: 0
LLC AVERAGE MISS LATENCY: 168.228 cycles
LLC RQ	ACCESS:    4922013	FORWARD:          0	MERGED:          0	TO_CACHE:    4922013
LLC WQ	ACCESS:    2218089	FORWARD:          0	MERGED:          0	TO_CACHE:    2218089
LLC PQ	ACCESS:     307298	FORWARD:          0	MERGED:          0	TO_CACHE:     307298

LLC Dense regions hint to LLC: 0

RAW hits: 1995133
Loads Generated: 26604056
Loads sent to L1D: 24608921
Stores Generated: 4434263
Stores sent to L1D: 4434265
Major fault: 0 Minor fault: 62133
Allocated PAGES: 62133
[Bingo] PHT Access: 740634
[Bingo] PHT Hit PC+Addr: 102149
[Bingo] PHT Hit PC+Offs: 620713
[Bingo] PHT Miss: 17772
[Bingo] Prefetch PC+Addr: 0
[Bingo] Prefetch PC+Offs: 0
[Bingo] Useful PC+Addr: 0
[Bingo] Useful PC+Offs: 0
[Bingo] Useless PC+Addr: 0
[Bingo] Useless PC+Offs: 0
[Bingo] L1 Prefetch per Region: 0
[Bingo] L2 Prefetch per Region: 3.43473
[Bingo] L3 Prefetch per Region: 0
[Bingo] No Prefetch per Region: 28.5653
[Bingo] Number of Voters Mean: 16
[Bingo] Number of Voters SD: 19.2827
PHT read accesses: 10983982
PHT write accesses: 140960
AT read accesses: 984469
AT write accesses: 1060099
FT read accesses: 478164
FT write accesses: 740634
PS read accesses: 1458188
PS write accesses: 722862
PHT tag read accesses: 14166756
PHT tag write accesses: 243109
AT tag read accesses: 92673978
AT tag write accesses: 1125546
FT tag read accesses: 98444178
FT tag write accesses: 1077721
PS tag read accesses: 52514898
PS tag write accesses: 2179355

DRAM Statistics
 CHANNEL 0
 RQ ROW_BUFFER_HIT:      22899  ROW_BUFFER_MISS:    2553414
 DBUS_CONGESTED:          6
 WQ ROW_BUFFER_HIT:     623433  ROW_BUFFER_MISS:    1592864  FULL:          0

 AVG_CONGESTED_CYCLE: 5
 All warmup complete: 2
Channel 0 Bank busy for read cycles: 0
Channel 0 Bank busy for write cycles: 0
Channel 0
Rank 0
0banks busy for read cycles: 18335343
0banks busy for write cycles: 367362
1banks busy for read cycles: 97284890
1banks busy for write cycles: 26949700
2banks busy for read cycles: 60778246
2banks busy for write cycles: 32161694
3banks busy for read cycles: 40396734
3banks busy for write cycles: 43671557
4banks busy for read cycles: 10328452
4banks busy for write cycles: 29954494
5banks busy for read cycles: 231376
5banks busy for write cycles: 8996342
6banks busy for read cycles: 92716
6banks busy for write cycles: 2964343
7banks busy for read cycles: 85396
7banks busy for write cycles: 1403601
8banks busy for read cycles: 65934
8banks busy for write cycles: 1804882

CPU 0 Branch Prediction Accuracy: 99.9869% MPKI: 0.02047 Average ROB Occupancy at Mispredict: 311.828
Branch types
NOT_BRANCH: 84422558 84.4226%
BRANCH_DIRECT_JUMP: 2274658 2.27466%
BRANCH_INDIRECT: 0 0%
BRANCH_CONDITIONAL: 8868524 8.86852%
BRANCH_DIRECT_CALL: 2217131 2.21713%
BRANCH_INDIRECT_CALL: 0 0%
BRANCH_RETURN: 2217131 2.21713%
BRANCH_OTHER: 0 0%

DRAM PAGES: 1048576
Allocated PAGES: 62133
