Initialize SIGNATURE TABLE
ST_SET: 1
ST_WAY: 16
ST_TAG_BIT: 16
ST_TAG_MASK: ffff

Initialize PATTERN TABLE
PT_SET: 16
PT_WAY: 4
SIG_DELTA_BIT: 7
C_SIG_BIT: 4
C_DELTA_BIT: 4

Initialize PREFETCH FILTER
FILTER_SET: 1024

Initialize PERCEPTRON
PERC_ENTRIES: 64
PERC_FEATURES: 9

*** ChampSim Multicore Out-of-Order Simulator ***

Warmup Instructions: 50000000
Simulation Instructions: 100000000
Number of CPUs: 1
LLC sets: 2048
LLC ways: 16
Off-chip DRAM Size: 4096 MB Channels: 1 Width: 64-bit Data Rate: 6400 MT/s
CPU 0 runs ../SPEC2017//605.mcf_s-472B.champsimtrace.xz
.xz
NUM_OF_IPS_IN_CRITICAL_IP_TRAINING: 64
NUM_OF_CRITICAL_IP_TRAINING_TABLE_WAYS: 2
NUM_OF_CRITICAL_IP_TRAINING_TABLE_SETS: 32
WOBBLY_CRITICAL_IP_CACHE_SETS: 32
WOBBLY_CRITICAL_IP_CACHE_WAYS: 4
BTB has LRU replacement policy
ITLB has LRU replacement policy
DTLB has LRU replacement policy
STLB has LRU replacement policy
L1I has LRU replacement policy
L1D has LRU replacement policy
Initialize SRRIP state for L2C
Initialize DRRIP state for LLC
Heartbeat CPU 0 instructions: 10000001 cycles: 3247965 heartbeat IPC: 3.07885 cumulative IPC: 3.07885 (Simulation time: 0 hr 6 min 56 sec) 
Heartbeat CPU 0 instructions: 20000003 cycles: 6650065 heartbeat IPC: 2.93936 cumulative IPC: 3.00749 (Simulation time: 0 hr 13 min 25 sec) 
Heartbeat CPU 0 instructions: 30000003 cycles: 10134398 heartbeat IPC: 2.86999 cumulative IPC: 2.96022 (Simulation time: 0 hr 18 min 59 sec) 
Heartbeat CPU 0 instructions: 40000003 cycles: 13406151 heartbeat IPC: 3.05647 cumulative IPC: 2.98371 (Simulation time: 0 hr 23 min 31 sec) 
Heartbeat CPU 0 instructions: 50000001 cycles: 16698742 heartbeat IPC: 3.03712 cumulative IPC: 2.99424 (Simulation time: 0 hr 27 min 52 sec) 

Warmup complete CPU 0 instructions: 50000001 cycles: 16698742 (Simulation time: 0 hr 27 min 52 sec) 

Heartbeat CPU 0 instructions: 60000001 cycles: 38741824 heartbeat IPC: 0.453657 cumulative IPC: 0.453657 (Simulation time: 0 hr 34 min 13 sec) 
Heartbeat CPU 0 instructions: 70000002 cycles: 60149647 heartbeat IPC: 0.467119 cumulative IPC: 0.46029 (Simulation time: 0 hr 39 min 49 sec) 
Heartbeat CPU 0 instructions: 80000002 cycles: 85356960 heartbeat IPC: 0.39671 cumulative IPC: 0.436947 (Simulation time: 0 hr 44 min 59 sec) 
Heartbeat CPU 0 instructions: 90000000 cycles: 106328634 heartbeat IPC: 0.476834 cumulative IPC: 0.44628 (Simulation time: 0 hr 49 min 13 sec) 
Heartbeat CPU 0 instructions: 100000002 cycles: 130280417 heartbeat IPC: 0.417506 cumulative IPC: 0.440212 (Simulation time: 0 hr 56 min 11 sec) 
Heartbeat CPU 0 instructions: 110000000 cycles: 151570776 heartbeat IPC: 0.469696 cumulative IPC: 0.444866 (Simulation time: 1 hr 4 min 50 sec) 
Heartbeat CPU 0 instructions: 120000002 cycles: 174846062 heartbeat IPC: 0.42964 cumulative IPC: 0.442625 (Simulation time: 1 hr 12 min 36 sec) 
Heartbeat CPU 0 instructions: 130000002 cycles: 198635055 heartbeat IPC: 0.420362 cumulative IPC: 0.439714 (Simulation time: 1 hr 19 min 51 sec) 
Heartbeat CPU 0 instructions: 140000003 cycles: 222835108 heartbeat IPC: 0.413222 cumulative IPC: 0.436604 (Simulation time: 1 hr 26 min 32 sec) 
Heartbeat CPU 0 instructions: 150000002 cycles: 246548690 heartbeat IPC: 0.421699 cumulative IPC: 0.435066 (Simulation time: 1 hr 32 min 21 sec) 
Finished CPU 0 instructions: 100000001 cycles: 229849948 cumulative IPC: 0.435066 (Simulation time: 1 hr 32 min 21 sec) 

ChampSim completed all CPUs

Region of Interest Statistics

CPU 0 cumulative IPC: 0.435066 instructions: 100000001 cycles: 229849948

CPU 0 Average Load ROB stall cycles: 4.50471e+07
CPU 0 Fraction of times ROB stalled by Loads: 34.7887
CPU 0 Percentage of Load stall cycles in Total stall cycles: 5.12736e+08
Issued all: 125851297
Issued LT all: 116324217
rob_not_full_when_issued_lt_all: 31557001
Issued LT one: 99863213
rob_not_full_when_issued_lt_one: 25552038
 Total stall cycles: 205724279
 Total load stall cycles: 1054823421461067
CPU 0 NUM of IPS identified critical: 0
CPU 0 Num of Load IPs stalling ROB: 87
Threshold modification factor: 0
Max PIST entries: 39
Min PIST entries: 0
Avg PIST entries: 16.5267
Trouble in retire width: 0.995265
MaC = Marked as critical.
lt_50_percent_before_Mac: 0
gt_90_percent_before_Mac: 0
gt_75_percent_before_Mac: 0
gt_50_percent_before_Mac: 0
stall_proportion_bin_same_before_after: 0
stall_proportion_bin_lower_before_after: 0
stall_proportion_bin_upper_before_after: 0
average_stall_proportion_before: -nan
average_stall_proportion_after: -nan
Critical IP stalls, total frequency: 0
Non-critical IP stalls, total frequency: 8146129
Total Freq all stalling IPs: 8146129
stat_90_percent_critical_ip_stalls_freq: 7395607
stat_90_percent_non_critical_ip_stalls_freq: 750522
Critical_IP_ROB_Stalls_Bucket_0: 0
Non-critical_IP_ROB_Stalls_Bucket_0: 800357
Critical_IP_ROB_Stalls_Bucket_1: 0
Non-critical_IP_ROB_Stalls_Bucket_1: 417568
Critical_IP_ROB_Stalls_Bucket_2: 0
Non-critical_IP_ROB_Stalls_Bucket_2: 581297
Critical_IP_ROB_Stalls_Bucket_3: 0
Non-critical_IP_ROB_Stalls_Bucket_3: 784180
Critical_IP_ROB_Stalls_Bucket_4: 0
Non-critical_IP_ROB_Stalls_Bucket_4: 965687
Critical_IP_ROB_Stalls_Bucket_5: 0
Non-critical_IP_ROB_Stalls_Bucket_5: 1193719
Critical_IP_ROB_Stalls_Bucket_6: 0
Non-critical_IP_ROB_Stalls_Bucket_6: 3403321
0 => IPs accounting for >50 percent of stalls, 1 => 55, 2 => 60, 3 => 65 and so on till 90.
percent50: 56.6135 num IPs:  3
percent55: 56.6135 num IPs: 3
percent60: 65.135 num IPs: 4
percent65: 65.135 num IPs: 4
percent70: 72.9328 num IPs: 5
percent75: 77.8521 num IPs: 6
percent80: 81.9402 num IPs: 7
percent85: 85.9293 num IPs: 8
percent90: 90.7868 num IPs: 10
Critical_ROB_Stalls_Percent_0_Bucket_0: 228725
Non-critical_ROB_Stalls_Percent_0_Bucket_0: 571632
Critical_ROB_Stalls_Percent_0_Bucket_1: 126084
Non-critical_ROB_Stalls_Percent_0_Bucket_1: 291484
Critical_ROB_Stalls_Percent_0_Bucket_2: 249513
Non-critical_ROB_Stalls_Percent_0_Bucket_2: 331784
Critical_ROB_Stalls_Percent_0_Bucket_3: 511437
Non-critical_ROB_Stalls_Percent_0_Bucket_3: 272743
Critical_ROB_Stalls_Percent_0_Bucket_4: 729311
Non-critical_ROB_Stalls_Percent_0_Bucket_4: 236376
Critical_ROB_Stalls_Percent_0_Bucket_5: 1045960
Non-critical_ROB_Stalls_Percent_0_Bucket_5: 147759
Critical_ROB_Stalls_Percent_0_Bucket_6: 1720778
Non-critical_ROB_Stalls_Percent_0_Bucket_6: 1682543
Critical_ROB_Stalls_Percent_1_Bucket_0: 228725
Non-critical_ROB_Stalls_Percent_1_Bucket_0: 571632
Critical_ROB_Stalls_Percent_1_Bucket_1: 126084
Non-critical_ROB_Stalls_Percent_1_Bucket_1: 291484
Critical_ROB_Stalls_Percent_1_Bucket_2: 249513
Non-critical_ROB_Stalls_Percent_1_Bucket_2: 331784
Critical_ROB_Stalls_Percent_1_Bucket_3: 511437
Non-critical_ROB_Stalls_Percent_1_Bucket_3: 272743
Critical_ROB_Stalls_Percent_1_Bucket_4: 729311
Non-critical_ROB_Stalls_Percent_1_Bucket_4: 236376
Critical_ROB_Stalls_Percent_1_Bucket_5: 1045960
Non-critical_ROB_Stalls_Percent_1_Bucket_5: 147759
Critical_ROB_Stalls_Percent_1_Bucket_6: 1720778
Non-critical_ROB_Stalls_Percent_1_Bucket_6: 1682543
Critical_ROB_Stalls_Percent_2_Bucket_0: 287873
Non-critical_ROB_Stalls_Percent_2_Bucket_0: 512484
Critical_ROB_Stalls_Percent_2_Bucket_1: 161932
Non-critical_ROB_Stalls_Percent_2_Bucket_1: 255636
Critical_ROB_Stalls_Percent_2_Bucket_2: 311400
Non-critical_ROB_Stalls_Percent_2_Bucket_2: 269897
Critical_ROB_Stalls_Percent_2_Bucket_3: 541747
Non-critical_ROB_Stalls_Percent_2_Bucket_3: 242433
Critical_ROB_Stalls_Percent_2_Bucket_4: 747173
Non-critical_ROB_Stalls_Percent_2_Bucket_4: 218514
Critical_ROB_Stalls_Percent_2_Bucket_5: 1064683
Non-critical_ROB_Stalls_Percent_2_Bucket_5: 129036
Critical_ROB_Stalls_Percent_2_Bucket_6: 2191177
Non-critical_ROB_Stalls_Percent_2_Bucket_6: 1212144
Critical_ROB_Stalls_Percent_3_Bucket_0: 287873
Non-critical_ROB_Stalls_Percent_3_Bucket_0: 512484
Critical_ROB_Stalls_Percent_3_Bucket_1: 161932
Non-critical_ROB_Stalls_Percent_3_Bucket_1: 255636
Critical_ROB_Stalls_Percent_3_Bucket_2: 311400
Non-critical_ROB_Stalls_Percent_3_Bucket_2: 269897
Critical_ROB_Stalls_Percent_3_Bucket_3: 541747
Non-critical_ROB_Stalls_Percent_3_Bucket_3: 242433
Critical_ROB_Stalls_Percent_3_Bucket_4: 747173
Non-critical_ROB_Stalls_Percent_3_Bucket_4: 218514
Critical_ROB_Stalls_Percent_3_Bucket_5: 1064683
Non-critical_ROB_Stalls_Percent_3_Bucket_5: 129036
Critical_ROB_Stalls_Percent_3_Bucket_6: 2191177
Non-critical_ROB_Stalls_Percent_3_Bucket_6: 1212144
Critical_ROB_Stalls_Percent_4_Bucket_0: 304395
Non-critical_ROB_Stalls_Percent_4_Bucket_0: 495962
Critical_ROB_Stalls_Percent_4_Bucket_1: 213925
Non-critical_ROB_Stalls_Percent_4_Bucket_1: 203643
Critical_ROB_Stalls_Percent_4_Bucket_2: 444088
Non-critical_ROB_Stalls_Percent_4_Bucket_2: 137209
Critical_ROB_Stalls_Percent_4_Bucket_3: 676702
Non-critical_ROB_Stalls_Percent_4_Bucket_3: 107478
Critical_ROB_Stalls_Percent_4_Bucket_4: 850878
Non-critical_ROB_Stalls_Percent_4_Bucket_4: 114809
Critical_ROB_Stalls_Percent_4_Bucket_5: 1089320
Non-critical_ROB_Stalls_Percent_4_Bucket_5: 104399
Critical_ROB_Stalls_Percent_4_Bucket_6: 2361896
Non-critical_ROB_Stalls_Percent_4_Bucket_6: 1041425
Critical_ROB_Stalls_Percent_5_Bucket_0: 349988
Non-critical_ROB_Stalls_Percent_5_Bucket_0: 450369
Critical_ROB_Stalls_Percent_5_Bucket_1: 265584
Non-critical_ROB_Stalls_Percent_5_Bucket_1: 151984
Critical_ROB_Stalls_Percent_5_Bucket_2: 475424
Non-critical_ROB_Stalls_Percent_5_Bucket_2: 105873
Critical_ROB_Stalls_Percent_5_Bucket_3: 691369
Non-critical_ROB_Stalls_Percent_5_Bucket_3: 92811
Critical_ROB_Stalls_Percent_5_Bucket_4: 861123
Non-critical_ROB_Stalls_Percent_5_Bucket_4: 104564
Critical_ROB_Stalls_Percent_5_Bucket_5: 1099887
Non-critical_ROB_Stalls_Percent_5_Bucket_5: 93832
Critical_ROB_Stalls_Percent_5_Bucket_6: 2598559
Non-critical_ROB_Stalls_Percent_5_Bucket_6: 804762
Critical_ROB_Stalls_Percent_6_Bucket_0: 379530
Non-critical_ROB_Stalls_Percent_6_Bucket_0: 420827
Critical_ROB_Stalls_Percent_6_Bucket_1: 279111
Non-critical_ROB_Stalls_Percent_6_Bucket_1: 138457
Critical_ROB_Stalls_Percent_6_Bucket_2: 498662
Non-critical_ROB_Stalls_Percent_6_Bucket_2: 82635
Critical_ROB_Stalls_Percent_6_Bucket_3: 702650
Non-critical_ROB_Stalls_Percent_6_Bucket_3: 81530
Critical_ROB_Stalls_Percent_6_Bucket_4: 869808
Non-critical_ROB_Stalls_Percent_6_Bucket_4: 95879
Critical_ROB_Stalls_Percent_6_Bucket_5: 1115446
Non-critical_ROB_Stalls_Percent_6_Bucket_5: 78273
Critical_ROB_Stalls_Percent_6_Bucket_6: 2829748
Non-critical_ROB_Stalls_Percent_6_Bucket_6: 573573
Critical_ROB_Stalls_Percent_7_Bucket_0: 419740
Non-critical_ROB_Stalls_Percent_7_Bucket_0: 380617
Critical_ROB_Stalls_Percent_7_Bucket_1: 341413
Non-critical_ROB_Stalls_Percent_7_Bucket_1: 76155
Critical_ROB_Stalls_Percent_7_Bucket_2: 512971
Non-critical_ROB_Stalls_Percent_7_Bucket_2: 68326
Critical_ROB_Stalls_Percent_7_Bucket_3: 711952
Non-critical_ROB_Stalls_Percent_7_Bucket_3: 72228
Critical_ROB_Stalls_Percent_7_Bucket_4: 879717
Non-critical_ROB_Stalls_Percent_7_Bucket_4: 85970
Critical_ROB_Stalls_Percent_7_Bucket_5: 1125803
Non-critical_ROB_Stalls_Percent_7_Bucket_5: 67916
Critical_ROB_Stalls_Percent_7_Bucket_6: 3008319
Non-critical_ROB_Stalls_Percent_7_Bucket_6: 395002
Critical_ROB_Stalls_Percent_8_Bucket_0: 486724
Non-critical_ROB_Stalls_Percent_8_Bucket_0: 313633
Critical_ROB_Stalls_Percent_8_Bucket_1: 366255
Non-critical_ROB_Stalls_Percent_8_Bucket_1: 51313
Critical_ROB_Stalls_Percent_8_Bucket_2: 534807
Non-critical_ROB_Stalls_Percent_8_Bucket_2: 46490
Critical_ROB_Stalls_Percent_8_Bucket_3: 737813
Non-critical_ROB_Stalls_Percent_8_Bucket_3: 46367
Critical_ROB_Stalls_Percent_8_Bucket_4: 901190
Non-critical_ROB_Stalls_Percent_8_Bucket_4: 64497
Critical_ROB_Stalls_Percent_8_Bucket_5: 1151188
Non-critical_ROB_Stalls_Percent_8_Bucket_5: 42531
Critical_ROB_Stalls_Percent_8_Bucket_6: 3217630
Non-critical_ROB_Stalls_Percent_8_Bucket_6: 185691
Average ROB occupancy Load Stall Begin: 236.71
Average ROB occupancy Load Stall End: 242.928
Min ROB occupancy Load Stall Begin: 1
Max ROB occupancy Load Stall Begin: 352
Min ROB occupancy Load Stall End: 1
Max ROB occupancy Load Stall End: 352
Average ROB occupancy Critical Load Stall Begin: -nan
Average ROB occupancy Critical Load Stall End: -nan
Min ROB occupancy Critical Load Stall Begin: 400
Max ROB occupancy Critical Load Stall Begin: 0
Min ROB occupancy Critical Load Stall End: 400
Max ROB occupancy Critical Load Stall End: 0
 ROB Load Stall Begin Bucket Count 0: 889174
 ROB Load Stall End Bucket Count 0: 800357
 ROB Critical Load Stall Begin Bucket Count 0: 0
 ROB Critical Load Stall End Bucket Count 0: 0
 ROB Load Stall Begin Bucket Count 1: 426049
 ROB Load Stall End Bucket Count 1: 417568
 ROB Critical Load Stall Begin Bucket Count 1: 0
 ROB Critical Load Stall End Bucket Count 1: 0
 ROB Load Stall Begin Bucket Count 2: 605262
 ROB Load Stall End Bucket Count 2: 581297
 ROB Critical Load Stall Begin Bucket Count 2: 0
 ROB Critical Load Stall End Bucket Count 2: 0
 ROB Load Stall Begin Bucket Count 3: 795215
 ROB Load Stall End Bucket Count 3: 784180
 ROB Critical Load Stall Begin Bucket Count 3: 0
 ROB Critical Load Stall End Bucket Count 3: 0
 ROB Load Stall Begin Bucket Count 4: 1017135
 ROB Load Stall End Bucket Count 4: 965687
 ROB Critical Load Stall Begin Bucket Count 4: 0
 ROB Critical Load Stall End Bucket Count 4: 0
 ROB Load Stall Begin Bucket Count 5: 1153671
 ROB Load Stall End Bucket Count 5: 1193719
 ROB Critical Load Stall Begin Bucket Count 5: 0
 ROB Critical Load Stall End Bucket Count 5: 0
 ROB Load Stall Begin Bucket Count 6: 3259623
 ROB Load Stall End Bucket Count 6: 3403321
 ROB Critical Load Stall Begin Bucket Count 6: 0
 ROB Critical Load Stall End Bucket Count 6: 0
PIST Tag Read Accesses: 43422
PIST Read Accesses: 21711
PIST Tag Write Accesses: 43422
PIST Write Accesses: 21711
Criticality detector called times: 145148
Max global_stall_cycles_count: 428582
Threshold Modified: 0 times, factor: 0
Sturdy critical IP cache stats: 
 Unused entries: 0
CIC Tag Read Accesses: 0
CIC Read Accesses: 0
CIC Tag Write Accesses: 0
CIC Write Accesses: 0
Wobbly critical IP cache stats: 
 Unused entries: 103
CIC Tag Read Accesses: 430723249
CIC Read Accesses: 0
CIC Tag Write Accesses: 1411207
CIC Write Accesses: 0
ITLB TOTAL     ACCESS:   16904885  HIT:   16904885  MISS:          0  HIT %:        100  MISS %:          0   MPKI: 0
ITLB LOAD TRANSLATION ACCESS:   16904885  HIT:   16904885  MISS:          0  HIT %:        100  MISS %:          0   MPKI: 0
ITLB PREFETCH  REQUESTED:          0  ISSUED:          0  USEFUL:          0  USELESS:          0
ITLB USEFUL LOAD PREFETCHES:          0 PREFETCH ISSUED TO LOWER LEVEL:          0  ACCURACY: -nan
ITLB TIMELY PREFETCHES:          0 LATE PREFETCHES: 0 DROPPED PREFETCHES: 0
ITLB PREFETCHES SAME FILL-ORIGIN LEVEL: 0 DIFFERENT FILL-ORIGIN LEVEL: 0
ITLB AVERAGE MISS LATENCY: -nan cycles
ITLB RQ	ACCESS:   22106491	FORWARD:          0	MERGED:    5201607	TO_CACHE:   16904884

DTLB TOTAL     ACCESS:   27563009  HIT:   27261695  MISS:     301314  HIT %:    98.9068  MISS %:    1.09318   MPKI: 3.01314
DTLB LOAD TRANSLATION ACCESS:   27563009  HIT:   27261695  MISS:     301314  HIT %:    98.9068  MISS %:    1.09318   MPKI: 3.01314
DTLB PREFETCH  REQUESTED:          0  ISSUED:          0  USEFUL:          0  USELESS:          0
DTLB USEFUL LOAD PREFETCHES:          0 PREFETCH ISSUED TO LOWER LEVEL:          0  ACCURACY: -nan
DTLB TIMELY PREFETCHES:          0 LATE PREFETCHES: 0 DROPPED PREFETCHES: 0
DTLB PREFETCHES SAME FILL-ORIGIN LEVEL: 0 DIFFERENT FILL-ORIGIN LEVEL: 0
DTLB AVERAGE MISS LATENCY: 34.7143 cycles
DTLB RQ	ACCESS:   45415449	FORWARD:          0	MERGED:   17788374	TO_CACHE:   27627075

STLB TOTAL     ACCESS:     301314  HIT:     171495  MISS:     129819  HIT %:    56.9157  MISS %:    43.0843   MPKI: 1.29819
STLB LOAD TRANSLATION ACCESS:     301314  HIT:     171495  MISS:     129819  HIT %:    56.9157  MISS %:    43.0843   MPKI: 1.29819
STLB PREFETCH  REQUESTED:          0  ISSUED:          0  USEFUL:          0  USELESS:          0
STLB USEFUL LOAD PREFETCHES:          0 PREFETCH ISSUED TO LOWER LEVEL:          0  ACCURACY: -nan
STLB TIMELY PREFETCHES:          0 LATE PREFETCHES: 0 DROPPED PREFETCHES: 0
STLB PREFETCHES SAME FILL-ORIGIN LEVEL: 0 DIFFERENT FILL-ORIGIN LEVEL: 0
STLB AVERAGE MISS LATENCY: 59.5746 cycles
STLB RQ	ACCESS:     301314	FORWARD:          0	MERGED:          0	TO_CACHE:     301314

STLB Hit, L1D data hit: 0
STLB Hit, L2C data hit: 0
STLB Hit, LLC data hit: 0
STLB Hit, LLC data miss: 0
STLB STLB hints to L2: 0
L1D TOTAL     ACCESS:   44397237  HIT:   39419710  MISS:    4977527  HIT %:    88.7887  MISS %:    11.2113   MPKI: 49.7753
L1D LOAD      ACCESS:   20940866  HIT:   16193888  MISS:    4746978  HIT %:    77.3315  MISS %:    22.6685   MPKI: 47.4698
L1D RFO       ACCESS:   23456371  HIT:   23225822  MISS:     230549  HIT %:    99.0171  MISS %:   0.982884   MPKI: 2.30549
L1D PREFETCH  REQUESTED:          0  ISSUED:          0  USEFUL:          0  USELESS:          0
L1D USEFUL LOAD PREFETCHES:          0 PREFETCH ISSUED TO LOWER LEVEL:          0  ACCURACY: -nan
L1D TIMELY PREFETCHES:          0 LATE PREFETCHES: 0 DROPPED PREFETCHES: 0
L1D PREFETCHES SAME FILL-ORIGIN LEVEL: 0 DIFFERENT FILL-ORIGIN LEVEL: 0
L1D AVERAGE MISS LATENCY: 73.5197 cycles
L1D RQ	ACCESS:   33442460	FORWARD:          0	MERGED:   12208443	TO_CACHE:   21208915
L1D WQ	ACCESS:   24693640	FORWARD:      25102	MERGED:     487106	TO_CACHE:   24206534

L1D UNIQUE REGIONS ACCESSED: 0
L1D REGIONS CONFLICTS: 0
L1D Cross Page Prefetch Requests: 0
L1D Same Page Prefetch Requests: 0
L1D ROI Sum of L1D PQ occupancy: 0
L1D PREFETCHES PUSHED FROM L2C: 0
L1I TOTAL     ACCESS:   22106490  HIT:   22106490  MISS:          0  HIT %:        100  MISS %:          0   MPKI: 0
L1I LOAD      ACCESS:   22106490  HIT:   22106490  MISS:          0  HIT %:        100  MISS %:          0   MPKI: 0
L1I PREFETCH  REQUESTED:          0  ISSUED:          0  USEFUL:          0  USELESS:          0
L1I USEFUL LOAD PREFETCHES:          0 PREFETCH ISSUED TO LOWER LEVEL:          0  ACCURACY: -nan
L1I TIMELY PREFETCHES:          0 LATE PREFETCHES: 0 DROPPED PREFETCHES: 0
L1I PREFETCHES SAME FILL-ORIGIN LEVEL: 0 DIFFERENT FILL-ORIGIN LEVEL: 0
L1I AVERAGE MISS LATENCY: -nan cycles
L1I RQ	ACCESS:   29925611	FORWARD:          0	MERGED:    7819120	TO_CACHE:   22106491

BTB TOTAL     ACCESS:   11269117  HIT:   11269083  MISS:         34  HIT %:    99.9997  MISS %: 0.00030171   MPKI: 0.00034
BTB BRANCH_DIRECT_JUMP	ACCESS:    1149944  HIT:    1149938  MISS:          6
BTB BRANCH_INDIRECT	ACCESS:          0  HIT:          0  MISS:          0
BTB BRANCH_CONDITIONAL	ACCESS:   10118909  HIT:   10118885  MISS:         24
BTB BRANCH_DIRECT_CALL	ACCESS:        132  HIT:        130  MISS:          2
BTB BRANCH_INDIRECT_CALL	ACCESS:          0  HIT:          0  MISS:          0
BTB BRANCH_RETURN	ACCESS:        132  HIT:        130  MISS:          2
BTB BRANCH_OTHER ACCESS:          0  HIT:          0  MISS:          0

L2C TOTAL     ACCESS:   10889106  HIT:    3713981  MISS:    7175125  HIT %:    34.1073  MISS %:    65.8927   MPKI: 71.7512
L2C LOAD      ACCESS:    4746975  HIT:    2596214  MISS:    2150761  HIT %:     54.692  MISS %:     45.308   MPKI: 21.5076
L2C DATA LOAD MPKI: 21.5076
L2C INSTRUCTION LOAD MPKI: 0
L2C RFO       ACCESS:     230547  HIT:      18950  MISS:     211597  HIT %:    8.21958  MISS %:    91.7804   MPKI: 2.11597
L2C PREFETCH  ACCESS:    5284546  HIT:     501705  MISS:    4782841  HIT %:    9.49381  MISS %:    90.5062   MPKI: 47.8284
L2C DATA PREFETCH MPKI: 47.8284
L2C INSTRUCTION PREFETCH MPKI: 0
L2C WRITEBACK ACCESS:     497026  HIT:     486362  MISS:      10664  HIT %:    97.8544  MISS %:    2.14556   MPKI: 0.10664
L2C LOAD TRANSLATION ACCESS:     130012  HIT:     110750  MISS:      19262  HIT %:    85.1844  MISS %:    14.8156   MPKI: 0.19262
L2C PREFETCH  REQUESTED:    6694423  ISSUED:    6694207  USEFUL:    2545613  USELESS:    2235951
L2C USEFUL LOAD PREFETCHES:    2545613 PREFETCH ISSUED TO LOWER LEVEL:    5925546  ACCURACY: 42.96
L2C TIMELY PREFETCHES:    2545613 LATE PREFETCHES: 1137295 DROPPED PREFETCHES: 0
L2C PREFETCHES SAME FILL-ORIGIN LEVEL: 5920136 DIFFERENT FILL-ORIGIN LEVEL: 5410
L2C AVERAGE MISS LATENCY: 136.266 cycles
L2C RQ	ACCESS:    5107537	FORWARD:          0	MERGED:          0	TO_CACHE:    5107533
L2C WQ	ACCESS:     497026	FORWARD:          9	MERGED:          0	TO_CACHE:     497026
L2C PQ	ACCESS:    6694207	FORWARD:          0	MERGED:       1397	TO_CACHE:    6692805

L2C Instructions Evicting Data 0
L2C Translations Evicting Data 19242
L2C Data Evicting Data 7125996
L2C Instructions Evicting Instructions 0
L2C Translations Evicting Instructions 0
L2C Data Evicting Instructions 0
L2C Instructions Evicting Translations 0
L2C Translations Evicting Translations 20
L2C Data Evicting Translations 19203
L2C Dense regions hint from L2: 0
PSCL5 TOTAL     ACCESS:     129819  HIT:     129819  MISS:          0  HIT %:        100  MISS %:          0   MPKI: 0
PSCL5 LOAD TRANSLATION ACCESS:     129819  HIT:     129819  MISS:          0  HIT %:        100  MISS %:          0   MPKI: 0
PSCL5 PREFETCH  REQUESTED:          0  ISSUED:          0  USEFUL:          0  USELESS:          0
PSCL5 USEFUL LOAD PREFETCHES:          0 PREFETCH ISSUED TO LOWER LEVEL:          0  ACCURACY: -nan
PSCL5 TIMELY PREFETCHES:          0 LATE PREFETCHES: 0 DROPPED PREFETCHES: 0
PSCL5 PREFETCHES SAME FILL-ORIGIN LEVEL: 0 DIFFERENT FILL-ORIGIN LEVEL: 0

PSCL4 TOTAL     ACCESS:     129819  HIT:     129819  MISS:          0  HIT %:        100  MISS %:          0   MPKI: 0
PSCL4 LOAD TRANSLATION ACCESS:     129819  HIT:     129819  MISS:          0  HIT %:        100  MISS %:          0   MPKI: 0
PSCL4 PREFETCH  REQUESTED:          0  ISSUED:          0  USEFUL:          0  USELESS:          0
PSCL4 USEFUL LOAD PREFETCHES:          0 PREFETCH ISSUED TO LOWER LEVEL:          0  ACCURACY: -nan
PSCL4 TIMELY PREFETCHES:          0 LATE PREFETCHES: 0 DROPPED PREFETCHES: 0
PSCL4 PREFETCHES SAME FILL-ORIGIN LEVEL: 0 DIFFERENT FILL-ORIGIN LEVEL: 0

PSCL3 TOTAL     ACCESS:     128991  HIT:     128981  MISS:         10  HIT %:    99.9922  MISS %: 0.00775248   MPKI: 0.0001
PSCL3 LOAD TRANSLATION ACCESS:     128991  HIT:     128981  MISS:         10  HIT %:    99.9922  MISS %: 0.00775248   MPKI: 0.0001
PSCL3 PREFETCH  REQUESTED:          0  ISSUED:          0  USEFUL:          0  USELESS:          0
PSCL3 USEFUL LOAD PREFETCHES:          0 PREFETCH ISSUED TO LOWER LEVEL:          0  ACCURACY: -nan
PSCL3 TIMELY PREFETCHES:          0 LATE PREFETCHES: 0 DROPPED PREFETCHES: 0
PSCL3 PREFETCHES SAME FILL-ORIGIN LEVEL: 0 DIFFERENT FILL-ORIGIN LEVEL: 0

PSCL2 TOTAL     ACCESS:     129819  HIT:     129582  MISS:        237  HIT %:    99.8174  MISS %:   0.182562   MPKI: 0.00237
PSCL2 LOAD TRANSLATION ACCESS:     129819  HIT:     129582  MISS:        237  HIT %:    99.8174  MISS %:   0.182562   MPKI: 0.00237
PSCL2 PREFETCH  REQUESTED:          0  ISSUED:          0  USEFUL:          0  USELESS:          0
PSCL2 USEFUL LOAD PREFETCHES:          0 PREFETCH ISSUED TO LOWER LEVEL:          0  ACCURACY: -nan
PSCL2 TIMELY PREFETCHES:          0 LATE PREFETCHES: 0 DROPPED PREFETCHES: 0
PSCL2 PREFETCHES SAME FILL-ORIGIN LEVEL: 0 DIFFERENT FILL-ORIGIN LEVEL: 0

LLC TOTAL     ACCESS:    7611383  HIT:    1620082  MISS:    5991301  HIT %:     21.285  MISS %:     78.715   MPKI: 59.913
LLC LOAD      ACCESS:    1016943  HIT:     301723  MISS:     715220  HIT %:    29.6696  MISS %:    70.3304   MPKI: 7.1522
LLC RFO       ACCESS:     208118  HIT:        344  MISS:     207774  HIT %:   0.165291  MISS %:    99.8347   MPKI: 2.07774
LLC PREFETCH  ACCESS:    5925061  HIT:    1286455  MISS:    4638606  HIT %:    21.7121  MISS %:    78.2879   MPKI: 46.3861
LLC WRITEBACK ACCESS:     441999  HIT:      26452  MISS:     415547  HIT %:    5.98463  MISS %:    94.0154   MPKI: 4.15547
LLC LOAD TRANSLATION ACCESS:      19262  HIT:       5108  MISS:      14154  HIT %:    26.5185  MISS %:    73.4815   MPKI: 0.14154
LLC PREFETCH  REQUESTED:          0  ISSUED:          0  USEFUL:      11031  USELESS:    4619098
LLC USEFUL LOAD PREFETCHES:      11031 PREFETCH ISSUED TO LOWER LEVEL:    4638723  ACCURACY: 0.237803
LLC TIMELY PREFETCHES:      11031 LATE PREFETCHES: 117 DROPPED PREFETCHES: 0
LLC PREFETCHES SAME FILL-ORIGIN LEVEL: 4828 DIFFERENT FILL-ORIGIN LEVEL: 0
LLC AVERAGE MISS LATENCY: 137.665 cycles
LLC RQ	ACCESS:    1244324	FORWARD:          0	MERGED:          0	TO_CACHE:    1244323
LLC WQ	ACCESS:     441999	FORWARD:          1	MERGED:          0	TO_CACHE:     441999
LLC PQ	ACCESS:    5925546	FORWARD:          0	MERGED:          0	TO_CACHE:    5925546

LLC Dense regions hint to LLC: 0

RAW hits: 1302196
Loads Generated: 34744655
Loads sent to L1D: 33442460
Stores Generated: 24693636
Stores sent to L1D: 24693640
Major fault: 0 Minor fault: 29216
Allocated PAGES: 29216
------------------
Depth Distribution
------------------
depth 0: 63517
depth 1: 1428155
depth 2: 2403068
depth 3: 749978
depth 4: 96790
depth 5: 23
depth 6: 0
depth 7: 0
depth 8: 0
depth 9: 0
depth 10: 0
depth 11: 0
depth 12: 0
depth 13: 0
depth 14: 0
depth 15: 0
depth 16: 0
depth 17: 0
depth 18: 0
depth 19: 0
depth 20: 0
depth 21: 0
depth 22: 0
depth 23: 0
depth 24: 0
depth 25: 0
depth 26: 0
depth 27: 0
depth 28: 0
depth 29: 0
Total: 4741531
------------------
ST read accesses: 4561003
ST write accesses: 180528
PT read accesses: 85177353
PT write accesses: 6752911
FILTER read accesses: 26941350
FILTER write accesses: 24742158
GHR read accesses: 5747634
GHR write accesses: 765144
PERC read accesses: 519234525
PERC write accesses: 73787227
GHR counter read accesses: 9483062
GHR counter write accesses: 16658292
GHR ip read accesses: 34332018
GHR ip write accesses: 18966124
ST tag read accesses: 121991028
ST tag write accesses: 13227066

DRAM Statistics
 CHANNEL 0
 RQ ROW_BUFFER_HIT:    3597992  ROW_BUFFER_MISS:    1977744
 DBUS_CONGESTED:       5972
 WQ ROW_BUFFER_HIT:      76015  ROW_BUFFER_MISS:     360631  FULL:          0

 AVG_CONGESTED_CYCLE: 5
 All warmup complete: 2
Channel 0 Bank busy for read cycles: 0
Channel 0 Bank busy for write cycles: 0
Channel 0
Rank 0
0banks busy for read cycles: 64333421
0banks busy for write cycles: 62666
1banks busy for read cycles: 32661333
1banks busy for write cycles: 8110476
2banks busy for read cycles: 22688578
2banks busy for write cycles: 4254784
3banks busy for read cycles: 19664565
3banks busy for write cycles: 2827842
4banks busy for read cycles: 17147929
4banks busy for write cycles: 2042083
5banks busy for read cycles: 14738175
5banks busy for write cycles: 1668289
6banks busy for read cycles: 12625872
6banks busy for write cycles: 1454367
7banks busy for read cycles: 10071723
7banks busy for write cycles: 1682726
8banks busy for read cycles: 6447346
8banks busy for write cycles: 7367774

CPU 0 Branch Prediction Accuracy: 98.9588% MPKI: 1.19245 Average ROB Occupancy at Mispredict: 203.474
Branch types
NOT_BRANCH: 88547028 88.547%
BRANCH_DIRECT_JUMP: 1149944 1.14994%
BRANCH_INDIRECT: 0 0%
BRANCH_CONDITIONAL: 10302637 10.3026%
BRANCH_DIRECT_CALL: 132 0.000132%
BRANCH_INDIRECT_CALL: 0 0%
BRANCH_RETURN: 132 0.000132%
BRANCH_OTHER: 0 0%

DRAM PAGES: 1048576
Allocated PAGES: 29216
