
*** ChampSim Multicore Out-of-Order Simulator ***

Warmup Instructions: 50000000
Simulation Instructions: 100000000
Number of CPUs: 1
LLC sets: 2048
LLC ways: 16
Off-chip DRAM Size: 4096 MB Channels: 1 Width: 64-bit Data Rate: 6400 MT/s
CPU 0 runs ../SPEC2017//605.mcf_s-1554B.champsimtrace.xz
.xz
NUM_OF_IPS_IN_CRITICAL_IP_TRAINING: 64
NUM_OF_CRITICAL_IP_TRAINING_TABLE_WAYS: 2
NUM_OF_CRITICAL_IP_TRAINING_TABLE_SETS: 32
WOBBLY_CRITICAL_IP_CACHE_SETS: 32
WOBBLY_CRITICAL_IP_CACHE_WAYS: 4
BTB has LRU replacement policy
ITLB has LRU replacement policy
DTLB has LRU replacement policy
STLB has LRU replacement policy
L1I has LRU replacement policy
Bingo PHT WAYS: 16 and PHT_SIZE: 16384
L1D has LRU replacement policy
Initialize SRRIP state for L2C
Initialize DRRIP state for LLC
Heartbeat CPU 0 instructions: 10000001 cycles: 3507306 heartbeat IPC: 2.85119 cumulative IPC: 2.85119 (Simulation time: 0 hr 8 min 37 sec) 
Heartbeat CPU 0 instructions: 20000000 cycles: 7038950 heartbeat IPC: 2.83154 cumulative IPC: 2.84133 (Simulation time: 0 hr 16 min 4 sec) 
Heartbeat CPU 0 instructions: 30000003 cycles: 10581857 heartbeat IPC: 2.82254 cumulative IPC: 2.83504 (Simulation time: 0 hr 22 min 30 sec) 
Heartbeat CPU 0 instructions: 40000000 cycles: 14111392 heartbeat IPC: 2.83323 cumulative IPC: 2.83459 (Simulation time: 0 hr 28 min 36 sec) 
Heartbeat CPU 0 instructions: 50000000 cycles: 17643459 heartbeat IPC: 2.8312 cumulative IPC: 2.83391 (Simulation time: 0 hr 34 min 7 sec) 

Warmup complete CPU 0 instructions: 50000004 cycles: 17643460 (Simulation time: 0 hr 34 min 7 sec) 

% increase in all ip prefetch 428.383
% increase in all ip prefetch 30.9815
% increase in all ip prefetch -4.39082
Heartbeat CPU 0 instructions: 60000002 cycles: 39349993 heartbeat IPC: 0.460691 cumulative IPC: 0.460691 (Simulation time: 0 hr 40 min 22 sec) 
Heartbeat CPU 0 instructions: 70000002 cycles: 61370046 heartbeat IPC: 0.454132 cumulative IPC: 0.457388 (Simulation time: 0 hr 45 min 38 sec) 
Heartbeat CPU 0 instructions: 80000000 cycles: 83814087 heartbeat IPC: 0.445552 cumulative IPC: 0.453373 (Simulation time: 0 hr 50 min 7 sec) 
Heartbeat CPU 0 instructions: 90000000 cycles: 105779984 heartbeat IPC: 0.455251 cumulative IPC: 0.453841 (Simulation time: 1 hr 1 min 13 sec) 
Heartbeat CPU 0 instructions: 100000000 cycles: 127432276 heartbeat IPC: 0.461845 cumulative IPC: 0.45542 (Simulation time: 1 hr 10 min 35 sec) 
Heartbeat CPU 0 instructions: 110000000 cycles: 149186120 heartbeat IPC: 0.459689 cumulative IPC: 0.456126 (Simulation time: 1 hr 18 min 59 sec) 
Heartbeat CPU 0 instructions: 120000000 cycles: 169889172 heartbeat IPC: 0.483021 cumulative IPC: 0.459783 (Simulation time: 1 hr 26 min 51 sec) 
Heartbeat CPU 0 instructions: 130000000 cycles: 191288744 heartbeat IPC: 0.467299 cumulative IPC: 0.460709 (Simulation time: 1 hr 33 min 17 sec) 
Heartbeat CPU 0 instructions: 140000000 cycles: 212916843 heartbeat IPC: 0.462361 cumulative IPC: 0.460892 (Simulation time: 1 hr 38 min 46 sec) 
Heartbeat CPU 0 instructions: 150000001 cycles: 234130336 heartbeat IPC: 0.471398 cumulative IPC: 0.461922 (Simulation time: 1 hr 48 min 12 sec) 
Finished CPU 0 instructions: 100000001 cycles: 216486877 cumulative IPC: 0.461922 (Simulation time: 1 hr 48 min 12 sec) 

ChampSim completed all CPUs

Region of Interest Statistics

CPU 0 cumulative IPC: 0.461922 instructions: 100000001 cycles: 216486877

CPU 0 Average Load ROB stall cycles: 1.5881e+07
CPU 0 Fraction of times ROB stalled by Loads: 12.5311
CPU 0 Percentage of Load stall cycles in Total stall cycles: 1.48941e+08
 Total stall cycles: 135062860
 Total load stall cycles: 201163901934482
CPU 0 NUM of IPS identified critical: 0

Threshold modification factor: -2
Max PIST entries: 20
Min PIST entries: 0
Avg PIST entries: 9.09333
Average ROB occupancy Load Stall Begin: 248.39
Average ROB occupancy Load Stall End: 254.795
Min ROB occupancy Load Stall Begin: 2
Max ROB occupancy Load Stall Begin: 351
Min ROB occupancy Load Stall End: 2
Max ROB occupancy Load Stall End: 352
Average ROB occupancy Critical Load Stall Begin: -nan
Average ROB occupancy Critical Load Stall End: -nan
Min ROB occupancy Critical Load Stall Begin: 400
Max ROB occupancy Critical Load Stall Begin: 0
Min ROB occupancy Critical Load Stall End: 400
Max ROB occupancy Critical Load Stall End: 0
 ROB Load Stall Begin Bucket Count 0: 299940
 ROB Load Stall End Bucket Count 0: 280690
 ROB Critical Load Stall Begin Bucket Count 0: 0
 ROB Critical Load Stall End Bucket Count 0: 0
 ROB Load Stall Begin Bucket Count 1: 109816
 ROB Load Stall End Bucket Count 1: 111619
 ROB Critical Load Stall Begin Bucket Count 1: 0
 ROB Critical Load Stall End Bucket Count 1: 0
 ROB Load Stall Begin Bucket Count 2: 50605
 ROB Load Stall End Bucket Count 2: 59674
 ROB Critical Load Stall Begin Bucket Count 2: 0
 ROB Critical Load Stall End Bucket Count 2: 0
 ROB Load Stall Begin Bucket Count 3: 22905
 ROB Load Stall End Bucket Count 3: 25464
 ROB Critical Load Stall Begin Bucket Count 3: 0
 ROB Critical Load Stall End Bucket Count 3: 0
 ROB Load Stall Begin Bucket Count 4: 15856
 ROB Load Stall End Bucket Count 4: 17250
 ROB Critical Load Stall Begin Bucket Count 4: 0
 ROB Critical Load Stall End Bucket Count 4: 0
 ROB Load Stall Begin Bucket Count 5: 56617
 ROB Load Stall End Bucket Count 5: 32201
 ROB Critical Load Stall Begin Bucket Count 5: 0
 ROB Critical Load Stall End Bucket Count 5: 0
 ROB Load Stall Begin Bucket Count 6: 1031566
 ROB Load Stall End Bucket Count 6: 1060407
 ROB Critical Load Stall Begin Bucket Count 6: 0
 ROB Critical Load Stall End Bucket Count 6: 0
PIST Tag Read Accesses: 19720
PIST Read Accesses: 9860
PIST Tag Write Accesses: 19720
PIST Write Accesses: 9860
Criticality detector called times: 58571
Max global_stall_cycles_count: 171324
Threshold Modified: 2 times, factor: -2
Sturdy critical IP cache stats: 
 Unused entries: 0
CIC Tag Read Accesses: 0
CIC Read Accesses: 0
CIC Tag Write Accesses: 0
CIC Write Accesses: 0
Wobbly critical IP cache stats: 
 Unused entries: 118
CIC Tag Read Accesses: 231293138
CIC Read Accesses: 0
CIC Tag Write Accesses: 355210
CIC Write Accesses: 0
ITLB TOTAL     ACCESS:   20265996  HIT:   20265996  MISS:          0  HIT %:        100  MISS %:          0   MPKI: 0
ITLB LOAD TRANSLATION ACCESS:   20265996  HIT:   20265996  MISS:          0  HIT %:        100  MISS %:          0   MPKI: 0
ITLB PREFETCHES SAME FILL-ORIGIN LEVEL: 0 DIFFERENT FILL-ORIGIN LEVEL: 0
ITLB AVERAGE MISS LATENCY: -nan cycles
ITLB RQ	ACCESS:   24779552	FORWARD:          0	MERGED:    4513556	TO_CACHE:   20265996

DTLB TOTAL     ACCESS:   30883568  HIT:   30488351  MISS:     395217  HIT %:    98.7203  MISS %:     1.2797   MPKI: 3.95217
DTLB LOAD TRANSLATION ACCESS:   30883568  HIT:   30488351  MISS:     395217  HIT %:    98.7203  MISS %:     1.2797   MPKI: 3.95217
DTLB PREFETCHES SAME FILL-ORIGIN LEVEL: 0 DIFFERENT FILL-ORIGIN LEVEL: 0
DTLB AVERAGE MISS LATENCY: 12.6652 cycles
DTLB RQ	ACCESS:   37692893	FORWARD:          0	MERGED:    6784798	TO_CACHE:   30908095

STLB TOTAL     ACCESS:    3728974  HIT:    3720922  MISS:       8052  HIT %:    99.7841  MISS %:   0.215931   MPKI: 0.08052
STLB LOAD TRANSLATION ACCESS:     395217  HIT:     387165  MISS:       8052  HIT %:    97.9626  MISS %:    2.03736   MPKI: 0.08052
STLB TRANSLATION FROM L1D PREFETCHER ACCESS:    3333757  HIT:    3333757  MISS:          0  HIT %:        100  MISS %:          0   MPKI: 0
STLB PREFETCHES SAME FILL-ORIGIN LEVEL: 0 DIFFERENT FILL-ORIGIN LEVEL: 0
STLB AVERAGE MISS LATENCY: 179.255 cycles
STLB RQ	ACCESS:   18956475	FORWARD:          0	MERGED:   15227502	TO_CACHE:    3728973

STLB Hit, L1D data hit: 0
STLB Hit, L2C data hit: 0
STLB Hit, LLC data hit: 0
STLB Hit, LLC data miss: 0
STLB STLB hints to L2: 0
L1D TOTAL     ACCESS:   45464743  HIT:   29287422  MISS:   16177321  HIT %:    64.4179  MISS %:    35.5821   MPKI: 161.773
L1D LOAD      ACCESS:   31582008  HIT:   24699234  MISS:    6882774  HIT %:    78.2067  MISS %:    21.7933   MPKI: 68.8277
L1D RFO       ACCESS:    4838794  HIT:    4569132  MISS:     269662  HIT %:    94.4271  MISS %:    5.57292   MPKI: 2.69662
L1D PREFETCH  ACCESS:    9043941  HIT:      19056  MISS:    9024885  HIT %:   0.210705  MISS %:    99.7893   MPKI: 90.2488
L1D PREFETCH  REQUESTED:   37122519  ISSUED:   37122519  USEFUL:    8253212  USELESS:     771664
L1D USEFUL LOAD PREFETCHES:    8253212 PREFETCH ISSUED TO LOWER LEVEL:   18175618  ACCURACY: 45.4082
L1D TIMELY PREFETCHES:    8253212 LATE PREFETCHES: 1637312 DROPPED PREFETCHES: 0
L1D PREFETCHES SAME FILL-ORIGIN LEVEL: 10662342 DIFFERENT FILL-ORIGIN LEVEL: 7513276
L1D AVERAGE MISS LATENCY: 1.30153e+07 cycles
L1D RQ	ACCESS:   41297428	FORWARD:          0	MERGED:    9301602	TO_CACHE:   31941193
L1D WQ	ACCESS:    7122776	FORWARD:      54633	MERGED:    1371076	TO_CACHE:    5751700
L1D PQ	ACCESS:   18561261	FORWARD:          0	MERGED:          3	TO_CACHE:   18561258

L1D UNIQUE REGIONS ACCESSED: 0
L1D REGIONS CONFLICTS: 0
L1D Cross Page Prefetch Requests: 0
L1D Same Page Prefetch Requests: 27779042
L1D ROI Sum of L1D PQ occupancy: 275061369
L1D PREFETCHES PUSHED FROM L2C: 0
L1I TOTAL     ACCESS:   24779548  HIT:   24779548  MISS:          0  HIT %:        100  MISS %:          0   MPKI: 0
L1I LOAD      ACCESS:   24779548  HIT:   24779548  MISS:          0  HIT %:        100  MISS %:          0   MPKI: 0
L1I PREFETCHES SAME FILL-ORIGIN LEVEL: 0 DIFFERENT FILL-ORIGIN LEVEL: 0
L1I AVERAGE MISS LATENCY: -nan cycles
L1I RQ	ACCESS:   33719534	FORWARD:          0	MERGED:    8939982	TO_CACHE:   24779552

BTB TOTAL     ACCESS:   17751896  HIT:   17751864  MISS:         32  HIT %:    99.9998  MISS %: 0.000180262   MPKI: 0.00032
BTB BRANCH_DIRECT_JUMP	ACCESS:    4133385  HIT:    4133379  MISS:          6
BTB BRANCH_INDIRECT	ACCESS:          0  HIT:          0  MISS:          0
BTB BRANCH_CONDITIONAL	ACCESS:   13616935  HIT:   13616913  MISS:         22
BTB BRANCH_DIRECT_CALL	ACCESS:        788  HIT:        786  MISS:          2
BTB BRANCH_INDIRECT_CALL	ACCESS:          0  HIT:          0  MISS:          0
BTB BRANCH_RETURN	ACCESS:        788  HIT:        786  MISS:          2
BTB BRANCH_OTHER ACCESS:          0  HIT:          0  MISS:          0

L2C TOTAL     ACCESS:   23585933  HIT:    3495210  MISS:   20090723  HIT %:     14.819  MISS %:     85.181   MPKI: 200.907
L2C LOAD      ACCESS:    5245461  HIT:    3058902  MISS:    2186559  HIT %:    58.3152  MISS %:    41.6848   MPKI: 21.8656
L2C DATA LOAD MPKI: 21.8656
L2C INSTRUCTION LOAD MPKI: 0
L2C RFO       ACCESS:     269519  HIT:       5827  MISS:     263692  HIT %:      2.162  MISS %:     97.838   MPKI: 2.63692
L2C PREFETCH  ACCESS:   17720663  HIT:      82990  MISS:   17637673  HIT %:   0.468323  MISS %:    99.5317   MPKI: 176.377
L2C DATA PREFETCH MPKI: 176.377
L2C INSTRUCTION PREFETCH MPKI: 0
L2C WRITEBACK ACCESS:     342229  HIT:     341427  MISS:        802  HIT %:    99.7657  MISS %:   0.234346   MPKI: 0.00802
L2C LOAD TRANSLATION ACCESS:       8061  HIT:       6064  MISS:       1997  HIT %:    75.2264  MISS %:    24.7736   MPKI: 0.01997
L2C PREFETCHES SAME FILL-ORIGIN LEVEL: 7454322 DIFFERENT FILL-ORIGIN LEVEL: 0
L2C AVERAGE MISS LATENCY: 81.5232 cycles
L2C RQ	ACCESS:    5523045	FORWARD:          0	MERGED:          0	TO_CACHE:    5523042
L2C WQ	ACCESS:     342229	FORWARD:          3	MERGED:          0	TO_CACHE:     342229
L2C PQ	ACCESS:   18175618	FORWARD:          0	MERGED:          0	TO_CACHE:   18175618

L2C Instructions Evicting Data0
L2C Translations Evicting Data1997
L2C Data Evicting Data20085922
L2C Instructions Evicting Instructions0
L2C Translations Evicting Instructions0
L2C Data Evicting Instructions0
L2C Instructions Evicting Translations0
L2C Translations Evicting Translations0
L2C Data Evicting Translations2002
L2C Dense regions hint from L2: 0
PSCL5 TOTAL     ACCESS:       8052  HIT:       8052  MISS:          0  HIT %:        100  MISS %:          0   MPKI: 0
PSCL5 LOAD TRANSLATION ACCESS:       8052  HIT:       8052  MISS:          0  HIT %:        100  MISS %:          0   MPKI: 0
PSCL5 PREFETCHES SAME FILL-ORIGIN LEVEL: 0 DIFFERENT FILL-ORIGIN LEVEL: 0

PSCL4 TOTAL     ACCESS:       8052  HIT:       8052  MISS:          0  HIT %:        100  MISS %:          0   MPKI: 0
PSCL4 LOAD TRANSLATION ACCESS:       8052  HIT:       8052  MISS:          0  HIT %:        100  MISS %:          0   MPKI: 0
PSCL4 PREFETCHES SAME FILL-ORIGIN LEVEL: 0 DIFFERENT FILL-ORIGIN LEVEL: 0

PSCL3 TOTAL     ACCESS:       8052  HIT:       8052  MISS:          0  HIT %:        100  MISS %:          0   MPKI: 0
PSCL3 LOAD TRANSLATION ACCESS:       8052  HIT:       8052  MISS:          0  HIT %:        100  MISS %:          0   MPKI: 0
PSCL3 PREFETCHES SAME FILL-ORIGIN LEVEL: 0 DIFFERENT FILL-ORIGIN LEVEL: 0

PSCL2 TOTAL     ACCESS:       8052  HIT:       8027  MISS:         25  HIT %:    99.6895  MISS %:   0.310482   MPKI: 0.00025
PSCL2 LOAD TRANSLATION ACCESS:       8052  HIT:       8027  MISS:         25  HIT %:    99.6895  MISS %:   0.310482   MPKI: 0.00025
PSCL2 PREFETCHES SAME FILL-ORIGIN LEVEL: 0 DIFFERENT FILL-ORIGIN LEVEL: 0

LLC TOTAL     ACCESS:   20432438  HIT:   11815812  MISS:    8616626  HIT %:    57.8287  MISS %:    42.1713   MPKI: 86.1663
LLC LOAD      ACCESS:    1736141  HIT:    1037587  MISS:     698554  HIT %:     59.764  MISS %:     40.236   MPKI: 6.98554
LLC RFO       ACCESS:     263653  HIT:       1152  MISS:     262501  HIT %:   0.436938  MISS %:    99.5631   MPKI: 2.62501
LLC PREFETCH  ACCESS:   18088138  HIT:   10755453  MISS:    7332685  HIT %:    59.4614  MISS %:    40.5386   MPKI: 73.3268
LLC WRITEBACK ACCESS:     342509  HIT:      21584  MISS:     320925  HIT %:    6.30173  MISS %:    93.6983   MPKI: 3.20925
LLC LOAD TRANSLATION ACCESS:       1997  HIT:         36  MISS:       1961  HIT %:     1.8027  MISS %:    98.1973   MPKI: 0.01961
LLC PREFETCHES SAME FILL-ORIGIN LEVEL: 0 DIFFERENT FILL-ORIGIN LEVEL: 0
LLC AVERAGE MISS LATENCY: 122.73 cycles
LLC RQ	ACCESS:    2001792	FORWARD:          0	MERGED:          0	TO_CACHE:    2001792
LLC WQ	ACCESS:     342509	FORWARD:          0	MERGED:          0	TO_CACHE:     342509
LLC PQ	ACCESS:   18088148	FORWARD:          0	MERGED:          0	TO_CACHE:   18088148

LLC Dense regions hint to LLC: 0

RAW hits: 4123930
Loads Generated: 45421361
Loads sent to L1D: 41297428
Stores Generated: 7122776
Stores sent to L1D: 7122776
Major fault: 0 Minor fault: 13274
Allocated PAGES: 13274
[Bingo] PHT Access: 826303
[Bingo] PHT Hit PC+Addr: 16542
[Bingo] PHT Hit PC+Offs: 807920
[Bingo] PHT Miss: 1841
[Bingo] Prefetch PC+Addr: 0
[Bingo] Prefetch PC+Offs: 0
[Bingo] Useful PC+Addr: 0
[Bingo] Useful PC+Offs: 0
[Bingo] Useless PC+Addr: 0
[Bingo] Useless PC+Offs: 0
[Bingo] L1 Prefetch per Region: 14.5897
[Bingo] L2 Prefetch per Region: 9.44818
[Bingo] L3 Prefetch per Region: 0
[Bingo] No Prefetch per Region: 7.96217
[Bingo] Number of Voters Mean: 15.6973
[Bingo] Number of Voters SD: 11.3516
PHT read accesses: 13016402
PHT write accesses: 793745
AT read accesses: 28525234
AT write accesses: 28525236
FT read accesses: 9180599
FT write accesses: 826303
PS read accesses: 6003372
PS write accesses: 824462
PHT tag read accesses: 38203451
PHT tag write accesses: 810287
AT tag read accesses: 797385275
AT tag write accesses: 29318981
FT tag read accesses: 365890832
FT tag write accesses: 5829754
PS tag read accesses: 543042219
PS tag write accesses: 6826563

DRAM Statistics
 CHANNEL 0
 RQ ROW_BUFFER_HIT:    6332724  ROW_BUFFER_MISS:    1962966
 DBUS_CONGESTED:       8156
 WQ ROW_BUFFER_HIT:      84122  ROW_BUFFER_MISS:     256560  FULL:          0

 AVG_CONGESTED_CYCLE: 4
 All warmup complete: 2
Channel 0 Bank busy for read cycles: 0
Channel 0 Bank busy for write cycles: 0
Channel 0
Rank 0
0banks busy for read cycles: 32029929
0banks busy for write cycles: 23054
1banks busy for read cycles: 34428876
1banks busy for write cycles: 5903672
2banks busy for read cycles: 26077814
2banks busy for write cycles: 2329472
3banks busy for read cycles: 22406686
3banks busy for write cycles: 1301409
4banks busy for read cycles: 20373341
4banks busy for write cycles: 890728
5banks busy for read cycles: 18648479
5banks busy for write cycles: 739750
6banks busy for read cycles: 16820881
6banks busy for write cycles: 755447
7banks busy for read cycles: 14400143
7banks busy for write cycles: 1560063
8banks busy for read cycles: 10196338
8banks busy for write cycles: 7600796

CPU 0 Branch Prediction Accuracy: 98.5222% MPKI: 2.69335 Average ROB Occupancy at Mispredict: 64.1261
Branch types
NOT_BRANCH: 81775182 81.7752%
BRANCH_DIRECT_JUMP: 4133385 4.13338%
BRANCH_INDIRECT: 0 0%
BRANCH_CONDITIONAL: 14089838 14.0898%
BRANCH_DIRECT_CALL: 788 0.000788%
BRANCH_INDIRECT_CALL: 0 0%
BRANCH_RETURN: 788 0.000788%
BRANCH_OTHER: 0 0%

DRAM PAGES: 1048576
Allocated PAGES: 13274
