Initialize SIGNATURE TABLE
ST_SET: 1
ST_WAY: 256
ST_TAG_BIT: 16
ST_TAG_MASK: ffff

Initialize PATTERN TABLE
PT_SET: 512
PT_WAY: 4
SIG_DELTA_BIT: 7
C_SIG_BIT: 4
C_DELTA_BIT: 4

Initialize PREFETCH FILTER
FILTER_SET: 1024

*** ChampSim Multicore Out-of-Order Simulator ***

Warmup Instructions: 50000000
Simulation Instructions: 100000000
Number of CPUs: 1
LLC sets: 2048
LLC ways: 16
Off-chip DRAM Size: 4096 MB Channels: 1 Width: 64-bit Data Rate: 6400 MT/s
CPU 0 runs ../SPEC2017//605.mcf_s-1536B.champsimtrace.xz
.xz
NUM_OF_IPS_IN_CRITICAL_IP_TRAINING: 64
NUM_OF_CRITICAL_IP_TRAINING_TABLE_WAYS: 2
NUM_OF_CRITICAL_IP_TRAINING_TABLE_SETS: 32
WOBBLY_CRITICAL_IP_CACHE_SETS: 32
WOBBLY_CRITICAL_IP_CACHE_WAYS: 4
BTB has LRU replacement policy
ITLB has LRU replacement policy
DTLB has LRU replacement policy
STLB has LRU replacement policy
L1I has LRU replacement policy
L1D has LRU replacement policy
Initialize SRRIP state for L2C
Initialize DRRIP state for LLC
Heartbeat CPU 0 instructions: 10000003 cycles: 2839363 heartbeat IPC: 3.52192 cumulative IPC: 3.52192 (Simulation time: 0 hr 6 min 39 sec) 
Heartbeat CPU 0 instructions: 20000003 cycles: 5667917 heartbeat IPC: 3.53538 cumulative IPC: 3.52863 (Simulation time: 0 hr 12 min 30 sec) 
Heartbeat CPU 0 instructions: 30000001 cycles: 8508607 heartbeat IPC: 3.52027 cumulative IPC: 3.52584 (Simulation time: 0 hr 17 min 27 sec) 
Heartbeat CPU 0 instructions: 40000001 cycles: 11362928 heartbeat IPC: 3.50346 cumulative IPC: 3.52022 (Simulation time: 0 hr 21 min 53 sec) 
Heartbeat CPU 0 instructions: 50000003 cycles: 14222506 heartbeat IPC: 3.49702 cumulative IPC: 3.51556 (Simulation time: 0 hr 26 min 3 sec) 

Warmup complete CPU 0 instructions: 50000003 cycles: 14222506 (Simulation time: 0 hr 26 min 3 sec) 

Heartbeat CPU 0 instructions: 60000003 cycles: 51584509 heartbeat IPC: 0.267652 cumulative IPC: 0.267652 (Simulation time: 0 hr 33 min 28 sec) 
Heartbeat CPU 0 instructions: 70000000 cycles: 89224004 heartbeat IPC: 0.265678 cumulative IPC: 0.266661 (Simulation time: 0 hr 40 min 21 sec) 
Heartbeat CPU 0 instructions: 80000001 cycles: 127124065 heartbeat IPC: 0.263852 cumulative IPC: 0.265718 (Simulation time: 0 hr 46 min 18 sec) 
Heartbeat CPU 0 instructions: 90000000 cycles: 165001861 heartbeat IPC: 0.264007 cumulative IPC: 0.265288 (Simulation time: 0 hr 51 min 41 sec) 
Heartbeat CPU 0 instructions: 100000002 cycles: 203055487 heartbeat IPC: 0.262787 cumulative IPC: 0.264784 (Simulation time: 1 hr 2 min 48 sec) 
Heartbeat CPU 0 instructions: 110000000 cycles: 240576968 heartbeat IPC: 0.266514 cumulative IPC: 0.265071 (Simulation time: 1 hr 12 min 4 sec) 
Heartbeat CPU 0 instructions: 120000000 cycles: 278986960 heartbeat IPC: 0.260349 cumulative IPC: 0.264386 (Simulation time: 1 hr 20 min 28 sec) 
Heartbeat CPU 0 instructions: 130000003 cycles: 316485823 heartbeat IPC: 0.266675 cumulative IPC: 0.26467 (Simulation time: 1 hr 28 min 1 sec) 
Heartbeat CPU 0 instructions: 140000000 cycles: 354627220 heartbeat IPC: 0.262182 cumulative IPC: 0.264391 (Simulation time: 1 hr 34 min 21 sec) 
Heartbeat CPU 0 instructions: 150000001 cycles: 392618813 heartbeat IPC: 0.263216 cumulative IPC: 0.264273 (Simulation time: 1 hr 39 min 52 sec) 
Finished CPU 0 instructions: 100000002 cycles: 378396308 cumulative IPC: 0.264273 (Simulation time: 1 hr 39 min 52 sec) 

ChampSim completed all CPUs

Region of Interest Statistics

CPU 0 cumulative IPC: 0.264273 instructions: 100000002 cycles: 378396308

CPU 0 Average Load ROB stall cycles: 8.36782e+07
CPU 0 Fraction of times ROB stalled by Loads: 41.2279
CPU 0 Percentage of Load stall cycles in Total stall cycles: 2.76176e+08
Issued all: 360177746
Issued LT all: 355881182
rob_not_full_when_issued_lt_all: 12389603
Issued LT one: 332959673
rob_not_full_when_issued_lt_one: 10506133
 Total stall cycles: 351982572
 Total load stall cycles: 972090839504398
CPU 0 NUM of IPS identified critical: 0
CPU 0 Num of Load IPs stalling ROB: 15
Threshold modification factor: 0
Max PIST entries: 12
Min PIST entries: 0
Avg PIST entries: 0.38
Trouble in retire width: 0.972848
MaC = Marked as critical.
lt_50_percent_before_Mac: 0
gt_90_percent_before_Mac: 0
gt_75_percent_before_Mac: 0
gt_50_percent_before_Mac: 0
stall_proportion_bin_same_before_after: 0
stall_proportion_bin_lower_before_after: 0
stall_proportion_bin_upper_before_after: 0
average_stall_proportion_before: -nan
average_stall_proportion_after: -nan
Critical IP stalls, total frequency: 0
Non-critical IP stalls, total frequency: 4789452
Total Freq all stalling IPs: 4789452
stat_90_percent_critical_ip_stalls_freq: 4356406
stat_90_percent_non_critical_ip_stalls_freq: 433046
Critical_IP_ROB_Stalls_Bucket_0: 0
Non-critical_IP_ROB_Stalls_Bucket_0: 6198
Critical_IP_ROB_Stalls_Bucket_1: 0
Non-critical_IP_ROB_Stalls_Bucket_1: 4251
Critical_IP_ROB_Stalls_Bucket_2: 0
Non-critical_IP_ROB_Stalls_Bucket_2: 4277
Critical_IP_ROB_Stalls_Bucket_3: 0
Non-critical_IP_ROB_Stalls_Bucket_3: 4265
Critical_IP_ROB_Stalls_Bucket_4: 0
Non-critical_IP_ROB_Stalls_Bucket_4: 3975
Critical_IP_ROB_Stalls_Bucket_5: 0
Non-critical_IP_ROB_Stalls_Bucket_5: 8846
Critical_IP_ROB_Stalls_Bucket_6: 0
Non-critical_IP_ROB_Stalls_Bucket_6: 4757640
0 => IPs accounting for >50 percent of stalls, 1 => 55, 2 => 60, 3 => 65 and so on till 90.
percent50: 69.2298 num IPs:  2
percent55: 69.2298 num IPs: 2
percent60: 69.2298 num IPs: 2
percent65: 69.2298 num IPs: 2
percent70: 90.9583 num IPs: 3
percent75: 90.9583 num IPs: 3
percent80: 90.9583 num IPs: 3
percent85: 90.9583 num IPs: 3
percent90: 90.9583 num IPs: 3
Critical_ROB_Stalls_Percent_0_Bucket_0: 2809
Non-critical_ROB_Stalls_Percent_0_Bucket_0: 3389
Critical_ROB_Stalls_Percent_0_Bucket_1: 2777
Non-critical_ROB_Stalls_Percent_0_Bucket_1: 1474
Critical_ROB_Stalls_Percent_0_Bucket_2: 2812
Non-critical_ROB_Stalls_Percent_0_Bucket_2: 1465
Critical_ROB_Stalls_Percent_0_Bucket_3: 2829
Non-critical_ROB_Stalls_Percent_0_Bucket_3: 1436
Critical_ROB_Stalls_Percent_0_Bucket_4: 2678
Non-critical_ROB_Stalls_Percent_0_Bucket_4: 1297
Critical_ROB_Stalls_Percent_0_Bucket_5: 3580
Non-critical_ROB_Stalls_Percent_0_Bucket_5: 5266
Critical_ROB_Stalls_Percent_0_Bucket_6: 3298244
Non-critical_ROB_Stalls_Percent_0_Bucket_6: 1459396
Critical_ROB_Stalls_Percent_1_Bucket_0: 2809
Non-critical_ROB_Stalls_Percent_1_Bucket_0: 3389
Critical_ROB_Stalls_Percent_1_Bucket_1: 2777
Non-critical_ROB_Stalls_Percent_1_Bucket_1: 1474
Critical_ROB_Stalls_Percent_1_Bucket_2: 2812
Non-critical_ROB_Stalls_Percent_1_Bucket_2: 1465
Critical_ROB_Stalls_Percent_1_Bucket_3: 2829
Non-critical_ROB_Stalls_Percent_1_Bucket_3: 1436
Critical_ROB_Stalls_Percent_1_Bucket_4: 2678
Non-critical_ROB_Stalls_Percent_1_Bucket_4: 1297
Critical_ROB_Stalls_Percent_1_Bucket_5: 3580
Non-critical_ROB_Stalls_Percent_1_Bucket_5: 5266
Critical_ROB_Stalls_Percent_1_Bucket_6: 3298244
Non-critical_ROB_Stalls_Percent_1_Bucket_6: 1459396
Critical_ROB_Stalls_Percent_2_Bucket_0: 2809
Non-critical_ROB_Stalls_Percent_2_Bucket_0: 3389
Critical_ROB_Stalls_Percent_2_Bucket_1: 2777
Non-critical_ROB_Stalls_Percent_2_Bucket_1: 1474
Critical_ROB_Stalls_Percent_2_Bucket_2: 2812
Non-critical_ROB_Stalls_Percent_2_Bucket_2: 1465
Critical_ROB_Stalls_Percent_2_Bucket_3: 2829
Non-critical_ROB_Stalls_Percent_2_Bucket_3: 1436
Critical_ROB_Stalls_Percent_2_Bucket_4: 2678
Non-critical_ROB_Stalls_Percent_2_Bucket_4: 1297
Critical_ROB_Stalls_Percent_2_Bucket_5: 3580
Non-critical_ROB_Stalls_Percent_2_Bucket_5: 5266
Critical_ROB_Stalls_Percent_2_Bucket_6: 3298244
Non-critical_ROB_Stalls_Percent_2_Bucket_6: 1459396
Critical_ROB_Stalls_Percent_3_Bucket_0: 2809
Non-critical_ROB_Stalls_Percent_3_Bucket_0: 3389
Critical_ROB_Stalls_Percent_3_Bucket_1: 2777
Non-critical_ROB_Stalls_Percent_3_Bucket_1: 1474
Critical_ROB_Stalls_Percent_3_Bucket_2: 2812
Non-critical_ROB_Stalls_Percent_3_Bucket_2: 1465
Critical_ROB_Stalls_Percent_3_Bucket_3: 2829
Non-critical_ROB_Stalls_Percent_3_Bucket_3: 1436
Critical_ROB_Stalls_Percent_3_Bucket_4: 2678
Non-critical_ROB_Stalls_Percent_3_Bucket_4: 1297
Critical_ROB_Stalls_Percent_3_Bucket_5: 3580
Non-critical_ROB_Stalls_Percent_3_Bucket_5: 5266
Critical_ROB_Stalls_Percent_3_Bucket_6: 3298244
Non-critical_ROB_Stalls_Percent_3_Bucket_6: 1459396
Critical_ROB_Stalls_Percent_4_Bucket_0: 3884
Non-critical_ROB_Stalls_Percent_4_Bucket_0: 2314
Critical_ROB_Stalls_Percent_4_Bucket_1: 3756
Non-critical_ROB_Stalls_Percent_4_Bucket_1: 495
Critical_ROB_Stalls_Percent_4_Bucket_2: 3874
Non-critical_ROB_Stalls_Percent_4_Bucket_2: 403
Critical_ROB_Stalls_Percent_4_Bucket_3: 3843
Non-critical_ROB_Stalls_Percent_4_Bucket_3: 422
Critical_ROB_Stalls_Percent_4_Bucket_4: 3631
Non-critical_ROB_Stalls_Percent_4_Bucket_4: 344
Critical_ROB_Stalls_Percent_4_Bucket_5: 4548
Non-critical_ROB_Stalls_Percent_4_Bucket_5: 4298
Critical_ROB_Stalls_Percent_4_Bucket_6: 4332870
Non-critical_ROB_Stalls_Percent_4_Bucket_6: 424770
Critical_ROB_Stalls_Percent_5_Bucket_0: 3884
Non-critical_ROB_Stalls_Percent_5_Bucket_0: 2314
Critical_ROB_Stalls_Percent_5_Bucket_1: 3756
Non-critical_ROB_Stalls_Percent_5_Bucket_1: 495
Critical_ROB_Stalls_Percent_5_Bucket_2: 3874
Non-critical_ROB_Stalls_Percent_5_Bucket_2: 403
Critical_ROB_Stalls_Percent_5_Bucket_3: 3843
Non-critical_ROB_Stalls_Percent_5_Bucket_3: 422
Critical_ROB_Stalls_Percent_5_Bucket_4: 3631
Non-critical_ROB_Stalls_Percent_5_Bucket_4: 344
Critical_ROB_Stalls_Percent_5_Bucket_5: 4548
Non-critical_ROB_Stalls_Percent_5_Bucket_5: 4298
Critical_ROB_Stalls_Percent_5_Bucket_6: 4332870
Non-critical_ROB_Stalls_Percent_5_Bucket_6: 424770
Critical_ROB_Stalls_Percent_6_Bucket_0: 3884
Non-critical_ROB_Stalls_Percent_6_Bucket_0: 2314
Critical_ROB_Stalls_Percent_6_Bucket_1: 3756
Non-critical_ROB_Stalls_Percent_6_Bucket_1: 495
Critical_ROB_Stalls_Percent_6_Bucket_2: 3874
Non-critical_ROB_Stalls_Percent_6_Bucket_2: 403
Critical_ROB_Stalls_Percent_6_Bucket_3: 3843
Non-critical_ROB_Stalls_Percent_6_Bucket_3: 422
Critical_ROB_Stalls_Percent_6_Bucket_4: 3631
Non-critical_ROB_Stalls_Percent_6_Bucket_4: 344
Critical_ROB_Stalls_Percent_6_Bucket_5: 4548
Non-critical_ROB_Stalls_Percent_6_Bucket_5: 4298
Critical_ROB_Stalls_Percent_6_Bucket_6: 4332870
Non-critical_ROB_Stalls_Percent_6_Bucket_6: 424770
Critical_ROB_Stalls_Percent_7_Bucket_0: 3884
Non-critical_ROB_Stalls_Percent_7_Bucket_0: 2314
Critical_ROB_Stalls_Percent_7_Bucket_1: 3756
Non-critical_ROB_Stalls_Percent_7_Bucket_1: 495
Critical_ROB_Stalls_Percent_7_Bucket_2: 3874
Non-critical_ROB_Stalls_Percent_7_Bucket_2: 403
Critical_ROB_Stalls_Percent_7_Bucket_3: 3843
Non-critical_ROB_Stalls_Percent_7_Bucket_3: 422
Critical_ROB_Stalls_Percent_7_Bucket_4: 3631
Non-critical_ROB_Stalls_Percent_7_Bucket_4: 344
Critical_ROB_Stalls_Percent_7_Bucket_5: 4548
Non-critical_ROB_Stalls_Percent_7_Bucket_5: 4298
Critical_ROB_Stalls_Percent_7_Bucket_6: 4332870
Non-critical_ROB_Stalls_Percent_7_Bucket_6: 424770
Critical_ROB_Stalls_Percent_8_Bucket_0: 3884
Non-critical_ROB_Stalls_Percent_8_Bucket_0: 2314
Critical_ROB_Stalls_Percent_8_Bucket_1: 3756
Non-critical_ROB_Stalls_Percent_8_Bucket_1: 495
Critical_ROB_Stalls_Percent_8_Bucket_2: 3874
Non-critical_ROB_Stalls_Percent_8_Bucket_2: 403
Critical_ROB_Stalls_Percent_8_Bucket_3: 3843
Non-critical_ROB_Stalls_Percent_8_Bucket_3: 422
Critical_ROB_Stalls_Percent_8_Bucket_4: 3631
Non-critical_ROB_Stalls_Percent_8_Bucket_4: 344
Critical_ROB_Stalls_Percent_8_Bucket_5: 4548
Non-critical_ROB_Stalls_Percent_8_Bucket_5: 4298
Critical_ROB_Stalls_Percent_8_Bucket_6: 4332870
Non-critical_ROB_Stalls_Percent_8_Bucket_6: 424770
Average ROB occupancy Load Stall Begin: 344.615
Average ROB occupancy Load Stall End: 349.212
Min ROB occupancy Load Stall Begin: 2
Max ROB occupancy Load Stall Begin: 352
Min ROB occupancy Load Stall End: 2
Max ROB occupancy Load Stall End: 352
Average ROB occupancy Critical Load Stall Begin: -nan
Average ROB occupancy Critical Load Stall End: -nan
Min ROB occupancy Critical Load Stall Begin: 400
Max ROB occupancy Critical Load Stall Begin: 0
Min ROB occupancy Critical Load Stall End: 400
Max ROB occupancy Critical Load Stall End: 0
 ROB Load Stall Begin Bucket Count 0: 8126
 ROB Load Stall End Bucket Count 0: 6198
 ROB Critical Load Stall Begin Bucket Count 0: 0
 ROB Critical Load Stall End Bucket Count 0: 0
 ROB Load Stall Begin Bucket Count 1: 4195
 ROB Load Stall End Bucket Count 1: 4251
 ROB Critical Load Stall Begin Bucket Count 1: 0
 ROB Critical Load Stall End Bucket Count 1: 0
 ROB Load Stall Begin Bucket Count 2: 4257
 ROB Load Stall End Bucket Count 2: 4277
 ROB Critical Load Stall Begin Bucket Count 2: 0
 ROB Critical Load Stall End Bucket Count 2: 0
 ROB Load Stall Begin Bucket Count 3: 4236
 ROB Load Stall End Bucket Count 3: 4265
 ROB Critical Load Stall Begin Bucket Count 3: 0
 ROB Critical Load Stall End Bucket Count 3: 0
 ROB Load Stall Begin Bucket Count 4: 3967
 ROB Load Stall End Bucket Count 4: 3975
 ROB Critical Load Stall Begin Bucket Count 4: 0
 ROB Critical Load Stall End Bucket Count 4: 0
 ROB Load Stall Begin Bucket Count 5: 70325
 ROB Load Stall End Bucket Count 5: 8846
 ROB Critical Load Stall Begin Bucket Count 5: 0
 ROB Critical Load Stall End Bucket Count 5: 0
 ROB Load Stall Begin Bucket Count 6: 4694346
 ROB Load Stall End Bucket Count 6: 4757640
 ROB Critical Load Stall Begin Bucket Count 6: 0
 ROB Critical Load Stall End Bucket Count 6: 0
PIST Tag Read Accesses: 2188
PIST Read Accesses: 1094
PIST Tag Write Accesses: 2188
PIST Write Accesses: 1094
Criticality detector called times: 1369
Max global_stall_cycles_count: 241731
Threshold Modified: 0 times, factor: 0
Sturdy critical IP cache stats: 
 Unused entries: 0
CIC Tag Read Accesses: 0
CIC Read Accesses: 0
CIC Tag Write Accesses: 0
CIC Write Accesses: 0
Wobbly critical IP cache stats: 
 Unused entries: 116
CIC Tag Read Accesses: 224676255
CIC Read Accesses: 0
CIC Tag Write Accesses: 3382609
CIC Write Accesses: 0
ITLB TOTAL     ACCESS:   17953946  HIT:   17953946  MISS:          0  HIT %:        100  MISS %:          0   MPKI: 0
ITLB LOAD TRANSLATION ACCESS:   17953946  HIT:   17953946  MISS:          0  HIT %:        100  MISS %:          0   MPKI: 0
ITLB PREFETCH  REQUESTED:          0  ISSUED:          0  USEFUL:          0  USELESS:          0
ITLB USEFUL LOAD PREFETCHES:          0 PREFETCH ISSUED TO LOWER LEVEL:          0  ACCURACY: -nan
ITLB TIMELY PREFETCHES:          0 LATE PREFETCHES: 0 DROPPED PREFETCHES: 0
ITLB PREFETCHES SAME FILL-ORIGIN LEVEL: 0 DIFFERENT FILL-ORIGIN LEVEL: 0
ITLB AVERAGE MISS LATENCY: -nan cycles
ITLB RQ	ACCESS:   19335536	FORWARD:          0	MERGED:    1381590	TO_CACHE:   17953946

DTLB TOTAL     ACCESS:   15052808  HIT:   12607610  MISS:    2445198  HIT %:    83.7559  MISS %:    16.2441   MPKI: 24.452
DTLB LOAD TRANSLATION ACCESS:   15052808  HIT:   12607610  MISS:    2445198  HIT %:    83.7559  MISS %:    16.2441   MPKI: 24.452
DTLB PREFETCH  REQUESTED:          0  ISSUED:          0  USEFUL:          0  USELESS:          0
DTLB USEFUL LOAD PREFETCHES:          0 PREFETCH ISSUED TO LOWER LEVEL:          0  ACCURACY: -nan
DTLB TIMELY PREFETCHES:          0 LATE PREFETCHES: 0 DROPPED PREFETCHES: 0
DTLB PREFETCHES SAME FILL-ORIGIN LEVEL: 0 DIFFERENT FILL-ORIGIN LEVEL: 0
DTLB AVERAGE MISS LATENCY: 70.6386 cycles
DTLB RQ	ACCESS:   17432824	FORWARD:          0	MERGED:    2362714	TO_CACHE:   15070110

STLB TOTAL     ACCESS:    2445198  HIT:     205933  MISS:    2239265  HIT %:    8.42194  MISS %:    91.5781   MPKI: 22.3926
STLB LOAD TRANSLATION ACCESS:    2445198  HIT:     205933  MISS:    2239265  HIT %:    8.42194  MISS %:    91.5781   MPKI: 22.3926
STLB PREFETCH  REQUESTED:          0  ISSUED:          0  USEFUL:          0  USELESS:          0
STLB USEFUL LOAD PREFETCHES:          0 PREFETCH ISSUED TO LOWER LEVEL:          0  ACCURACY: -nan
STLB TIMELY PREFETCHES:          0 LATE PREFETCHES: 0 DROPPED PREFETCHES: 0
STLB PREFETCHES SAME FILL-ORIGIN LEVEL: 0 DIFFERENT FILL-ORIGIN LEVEL: 0
STLB AVERAGE MISS LATENCY: 67.18 cycles
STLB RQ	ACCESS:    2445200	FORWARD:          0	MERGED:          0	TO_CACHE:    2445200

STLB Hit, L1D data hit: 0
STLB Hit, L2C data hit: 0
STLB Hit, LLC data hit: 0
STLB Hit, LLC data miss: 0
STLB STLB hints to L2: 0
L1D TOTAL     ACCESS:   17355111  HIT:   11810136  MISS:    5544975  HIT %:    68.0499  MISS %:    31.9501   MPKI: 55.4497
L1D LOAD      ACCESS:   12920851  HIT:    7653076  MISS:    5267775  HIT %:    59.2304  MISS %:    40.7696   MPKI: 52.6777
L1D RFO       ACCESS:    4434260  HIT:    4157060  MISS:     277200  HIT %:    93.7487  MISS %:    6.25132   MPKI: 2.772
L1D PREFETCH  REQUESTED:          0  ISSUED:          0  USEFUL:          0  USELESS:          0
L1D USEFUL LOAD PREFETCHES:          0 PREFETCH ISSUED TO LOWER LEVEL:          0  ACCURACY: -nan
L1D TIMELY PREFETCHES:          0 LATE PREFETCHES: 0 DROPPED PREFETCHES: 0
L1D PREFETCHES SAME FILL-ORIGIN LEVEL: 0 DIFFERENT FILL-ORIGIN LEVEL: 0
L1D AVERAGE MISS LATENCY: 110.403 cycles
L1D RQ	ACCESS:   24608305	FORWARD:          0	MERGED:   11389979	TO_CACHE:   12998562
L1D WQ	ACCESS:    4434265	FORWARD:     219764	MERGED:          3	TO_CACHE:    4434262

L1D UNIQUE REGIONS ACCESSED: 0
L1D REGIONS CONFLICTS: 0
L1D Cross Page Prefetch Requests: 0
L1D Same Page Prefetch Requests: 0
L1D ROI Sum of L1D PQ occupancy: 0
L1D PREFETCHES PUSHED FROM L2C: 0
L1I TOTAL     ACCESS:   19335535  HIT:   19335535  MISS:          0  HIT %:        100  MISS %:          0   MPKI: 0
L1I LOAD      ACCESS:   19335535  HIT:   19335535  MISS:          0  HIT %:        100  MISS %:          0   MPKI: 0
L1I PREFETCH  REQUESTED:          0  ISSUED:          0  USEFUL:          0  USELESS:          0
L1I USEFUL LOAD PREFETCHES:          0 PREFETCH ISSUED TO LOWER LEVEL:          0  ACCURACY: -nan
L1I TIMELY PREFETCHES:          0 LATE PREFETCHES: 0 DROPPED PREFETCHES: 0
L1I PREFETCHES SAME FILL-ORIGIN LEVEL: 0 DIFFERENT FILL-ORIGIN LEVEL: 0
L1I AVERAGE MISS LATENCY: -nan cycles
L1I RQ	ACCESS:   29109115	FORWARD:          0	MERGED:    9773579	TO_CACHE:   19335536

BTB TOTAL     ACCESS:   13288682  HIT:   13288674  MISS:          8  HIT %:    99.9999  MISS %: 6.02016e-05   MPKI: 8e-05
BTB BRANCH_DIRECT_JUMP	ACCESS:    2274658  HIT:    2274656  MISS:          2
BTB BRANCH_INDIRECT	ACCESS:          0  HIT:          0  MISS:          0
BTB BRANCH_CONDITIONAL	ACCESS:    6579762  HIT:    6579758  MISS:          4
BTB BRANCH_DIRECT_CALL	ACCESS:    2217131  HIT:    2217130  MISS:          1
BTB BRANCH_INDIRECT_CALL	ACCESS:          0  HIT:          0  MISS:          0
BTB BRANCH_RETURN	ACCESS:    2217131  HIT:    2217130  MISS:          1
BTB BRANCH_OTHER ACCESS:          0  HIT:          0  MISS:          0

L2C TOTAL     ACCESS:   11556424  HIT:    6466584  MISS:    5089840  HIT %:    55.9566  MISS %:    44.0434   MPKI: 50.8984
L2C LOAD      ACCESS:    5267775  HIT:    2210710  MISS:    3057065  HIT %:    41.9667  MISS %:    58.0333   MPKI: 30.5706
L2C DATA LOAD MPKI: 30.5706
L2C INSTRUCTION LOAD MPKI: 0
L2C RFO       ACCESS:     277200  HIT:      25210  MISS:     251990  HIT %:    9.09452  MISS %:    90.9055   MPKI: 2.5199
L2C PREFETCH  ACCESS:    1249447  HIT:    1247451  MISS:       1996  HIT %:    99.8402  MISS %:   0.159751   MPKI: 0.01996
L2C DATA PREFETCH MPKI: 0.01996
L2C INSTRUCTION PREFETCH MPKI: 0
L2C WRITEBACK ACCESS:    2217133  HIT:    2180882  MISS:      36251  HIT %:     98.365  MISS %:    1.63504   MPKI: 0.36251
L2C LOAD TRANSLATION ACCESS:    2544869  HIT:     802331  MISS:    1742538  HIT %:    31.5274  MISS %:    68.4726   MPKI: 17.4254
L2C PREFETCH  REQUESTED:    3283647  ISSUED:    3283647  USEFUL:        898  USELESS:       1098
L2C USEFUL LOAD PREFETCHES:        898 PREFETCH ISSUED TO LOWER LEVEL:    1869651  ACCURACY: 0.0480304
L2C TIMELY PREFETCHES:        898 LATE PREFETCHES: 32 DROPPED PREFETCHES: 0
L2C PREFETCHES SAME FILL-ORIGIN LEVEL: 2028 DIFFERENT FILL-ORIGIN LEVEL: 1867623
L2C AVERAGE MISS LATENCY: 114.605 cycles
L2C RQ	ACCESS:    8089844	FORWARD:          0	MERGED:          0	TO_CACHE:    8089844
L2C WQ	ACCESS:    2217133	FORWARD:          0	MERGED:          0	TO_CACHE:    2217133
L2C PQ	ACCESS:    3283647	FORWARD:          0	MERGED:      24411	TO_CACHE:    3259236

L2C Instructions Evicting Data 0
L2C Translations Evicting Data 889458
L2C Data Evicting Data 2427566
L2C Instructions Evicting Instructions 0
L2C Translations Evicting Instructions 0
L2C Data Evicting Instructions 0
L2C Instructions Evicting Translations 0
L2C Translations Evicting Translations 853080
L2C Data Evicting Translations 883485
L2C Dense regions hint from L2: 0
PSCL5 TOTAL     ACCESS:    2239265  HIT:    2239265  MISS:          0  HIT %:        100  MISS %:          0   MPKI: 0
PSCL5 LOAD TRANSLATION ACCESS:    2239265  HIT:    2239265  MISS:          0  HIT %:        100  MISS %:          0   MPKI: 0
PSCL5 PREFETCH  REQUESTED:          0  ISSUED:          0  USEFUL:          0  USELESS:          0
PSCL5 USEFUL LOAD PREFETCHES:          0 PREFETCH ISSUED TO LOWER LEVEL:          0  ACCURACY: -nan
PSCL5 TIMELY PREFETCHES:          0 LATE PREFETCHES: 0 DROPPED PREFETCHES: 0
PSCL5 PREFETCHES SAME FILL-ORIGIN LEVEL: 0 DIFFERENT FILL-ORIGIN LEVEL: 0

PSCL4 TOTAL     ACCESS:    2239265  HIT:    2239265  MISS:          0  HIT %:        100  MISS %:          0   MPKI: 0
PSCL4 LOAD TRANSLATION ACCESS:    2239265  HIT:    2239265  MISS:          0  HIT %:        100  MISS %:          0   MPKI: 0
PSCL4 PREFETCH  REQUESTED:          0  ISSUED:          0  USEFUL:          0  USELESS:          0
PSCL4 USEFUL LOAD PREFETCHES:          0 PREFETCH ISSUED TO LOWER LEVEL:          0  ACCURACY: -nan
PSCL4 TIMELY PREFETCHES:          0 LATE PREFETCHES: 0 DROPPED PREFETCHES: 0
PSCL4 PREFETCHES SAME FILL-ORIGIN LEVEL: 0 DIFFERENT FILL-ORIGIN LEVEL: 0

PSCL3 TOTAL     ACCESS:    2239265  HIT:    2239265  MISS:          0  HIT %:        100  MISS %:          0   MPKI: 0
PSCL3 LOAD TRANSLATION ACCESS:    2239265  HIT:    2239265  MISS:          0  HIT %:        100  MISS %:          0   MPKI: 0
PSCL3 PREFETCH  REQUESTED:          0  ISSUED:          0  USEFUL:          0  USELESS:          0
PSCL3 USEFUL LOAD PREFETCHES:          0 PREFETCH ISSUED TO LOWER LEVEL:          0  ACCURACY: -nan
PSCL3 TIMELY PREFETCHES:          0 LATE PREFETCHES: 0 DROPPED PREFETCHES: 0
PSCL3 PREFETCHES SAME FILL-ORIGIN LEVEL: 0 DIFFERENT FILL-ORIGIN LEVEL: 0

PSCL2 TOTAL     ACCESS:    2239265  HIT:    1933661  MISS:     305604  HIT %:    86.3525  MISS %:    13.6475   MPKI: 3.05604
PSCL2 LOAD TRANSLATION ACCESS:    2239265  HIT:    1933661  MISS:     305604  HIT %:    86.3525  MISS %:    13.6475   MPKI: 3.05604
PSCL2 PREFETCH  REQUESTED:          0  ISSUED:          0  USEFUL:          0  USELESS:          0
PSCL2 USEFUL LOAD PREFETCHES:          0 PREFETCH ISSUED TO LOWER LEVEL:          0  ACCURACY: -nan
PSCL2 TIMELY PREFETCHES:          0 LATE PREFETCHES: 0 DROPPED PREFETCHES: 0
PSCL2 PREFETCHES SAME FILL-ORIGIN LEVEL: 0 DIFFERENT FILL-ORIGIN LEVEL: 0

LLC TOTAL     ACCESS:    9127953  HIT:    6358533  MISS:    2769420  HIT %:      69.66  MISS %:      30.34   MPKI: 27.6942
LLC LOAD      ACCESS:    3057033  HIT:     547679  MISS:    2509354  HIT %:    17.9154  MISS %:    82.0846   MPKI: 25.0935
LLC RFO       ACCESS:     251990  HIT:     248481  MISS:       3509  HIT %:    98.6075  MISS %:    1.39252   MPKI: 0.03509
LLC PREFETCH  ACCESS:    1858985  HIT:    1695042  MISS:     163943  HIT %:     91.181  MISS %:    8.81895   MPKI: 1.63943
LLC WRITEBACK ACCESS:    2217407  HIT:    2141881  MISS:      75526  HIT %:    96.5939  MISS %:    3.40605   MPKI: 0.75526
LLC LOAD TRANSLATION ACCESS:    1742538  HIT:    1725450  MISS:      17088  HIT %:    99.0194  MISS %:   0.980639   MPKI: 0.17088
LLC PREFETCH  REQUESTED:          0  ISSUED:          0  USEFUL:      31839  USELESS:     129766
LLC USEFUL LOAD PREFETCHES:      31839 PREFETCH ISSUED TO LOWER LEVEL:     169080  ACCURACY: 18.8307
LLC TIMELY PREFETCHES:      31839 LATE PREFETCHES: 5137 DROPPED PREFETCHES: 0
LLC PREFETCHES SAME FILL-ORIGIN LEVEL: 168869 DIFFERENT FILL-ORIGIN LEVEL: 0
LLC AVERAGE MISS LATENCY: 166.323 cycles
LLC RQ	ACCESS:    5051561	FORWARD:          0	MERGED:          0	TO_CACHE:    5051561
LLC WQ	ACCESS:    2217408	FORWARD:          0	MERGED:          0	TO_CACHE:    2217408
LLC PQ	ACCESS:    1869651	FORWARD:          0	MERGED:       4660	TO_CACHE:    1864991

LLC Dense regions hint to LLC: 0

RAW hits: 1995749
Loads Generated: 26604056
Loads sent to L1D: 24608305
Stores Generated: 4434263
Stores sent to L1D: 4434265
Major fault: 0 Minor fault: 62133
Allocated PAGES: 62133
 All Calls: 7259346
 Critical Calls: 5266493
------------------
Depth Distribution
------------------
depth 0: 0
depth 1: 3283646
depth 2: 1
depth 3: 0
depth 4: 0
depth 5: 0
depth 6: 0
depth 7: 0
depth 8: 0
depth 9: 0
depth 10: 0
depth 11: 0
depth 12: 0
depth 13: 0
depth 14: 0
depth 15: 0
depth 16: 0
depth 17: 0
depth 18: 0
depth 19: 0
depth 20: 0
depth 21: 0
depth 22: 0
depth 23: 0
depth 24: 0
depth 25: 0
depth 26: 0
depth 27: 0
depth 28: 0
depth 29: 0
Total: 3283647
-----------------------------
-----------------------------
	Captured at Filter
-----------------------------
depth 0: 0
depth 1: 2598
depth 2: 0
depth 3: 0
depth 4: 0
depth 5: 0
depth 6: 0
depth 7: 0
depth 8: 0
depth 9: 0
depth 10: 0
depth 11: 0
depth 12: 0
depth 13: 0
depth 14: 0
depth 15: 0
depth 16: 0
depth 17: 0
depth 18: 0
depth 19: 0
depth 20: 0
depth 21: 0
depth 22: 0
depth 23: 0
depth 24: 0
depth 25: 0
depth 26: 0
depth 27: 0
depth 28: 0
depth 29: 0
-----------------------------
-----------------------------
		Lost at Page
-----------------------------
depth 0: 0
depth 1: 155163
depth 2: 0
depth 3: 0
depth 4: 0
depth 5: 0
depth 6: 0
depth 7: 0
depth 8: 0
depth 9: 0
depth 10: 0
depth 11: 0
depth 12: 0
depth 13: 0
depth 14: 0
depth 15: 0
depth 16: 0
depth 17: 0
depth 18: 0
depth 19: 0
depth 20: 0
depth 21: 0
depth 22: 0
depth 23: 0
depth 24: 0
depth 25: 0
depth 26: 0
depth 27: 0
depth 28: 0
depth 29: 0
-----------------------------
-----------------------------
	Lost due to PQ Size
-----------------------------
0
-----------------------------
ST read accesses: 2843404
ST write accesses: 2423089
PT read accesses: 44952446
PT write accesses: 3022744
FILTER read accesses: 13642395
FILTER write accesses: 5181541
GHR read accesses: 20691840
GHR write accesses: 155163
GHR counter read accesses: 44037766
GHR counter write accesses: 5276626
ST tag read accesses: 3266025081
ST tag write accesses: 628066583

DRAM Statistics
 CHANNEL 0
 RQ ROW_BUFFER_HIT:      22727  ROW_BUFFER_MISS:    2671156
 DBUS_CONGESTED:         31
 WQ ROW_BUFFER_HIT:     619691  ROW_BUFFER_MISS:    1601423  FULL:          0

 AVG_CONGESTED_CYCLE: 4
 All warmup complete: 2
Channel 0 Bank busy for read cycles: 0
Channel 0 Bank busy for write cycles: 0
Channel 0
Rank 0
0banks busy for read cycles: 16940727
0banks busy for write cycles: 320805
1banks busy for read cycles: 99833933
1banks busy for write cycles: 26682508
2banks busy for read cycles: 62245982
2banks busy for write cycles: 30463386
3banks busy for read cycles: 40866109
3banks busy for write cycles: 37637755
4banks busy for read cycles: 12325248
4banks busy for write cycles: 27213417
5banks busy for read cycles: 936668
5banks busy for write cycles: 12212247
6banks busy for read cycles: 138441
6banks busy for write cycles: 5480139
7banks busy for read cycles: 10513
7banks busy for write cycles: 2729542
8banks busy for read cycles: 204
8banks busy for write cycles: 2358685

CPU 0 Branch Prediction Accuracy: 99.9869% MPKI: 0.02047 Average ROB Occupancy at Mispredict: 311.745
Branch types
NOT_BRANCH: 84422558 84.4226%
BRANCH_DIRECT_JUMP: 2274658 2.27466%
BRANCH_INDIRECT: 0 0%
BRANCH_CONDITIONAL: 8868524 8.86852%
BRANCH_DIRECT_CALL: 2217131 2.21713%
BRANCH_INDIRECT_CALL: 0 0%
BRANCH_RETURN: 2217131 2.21713%
BRANCH_OTHER: 0 0%

DRAM PAGES: 1048576
Allocated PAGES: 62133
