
*** ChampSim Multicore Out-of-Order Simulator ***

Warmup Instructions: 50000000
Simulation Instructions: 100000000
Number of CPUs: 1
LLC sets: 2048
LLC ways: 16
Off-chip DRAM Size: 4096 MB Channels: 1 Width: 64-bit Data Rate: 6400 MT/s
CPU 0 runs ../SPEC2017//605.mcf_s-994B.champsimtrace.xz
.xz
NUM_OF_IPS_IN_CRITICAL_IP_TRAINING: 64
NUM_OF_CRITICAL_IP_TRAINING_TABLE_WAYS: 2
NUM_OF_CRITICAL_IP_TRAINING_TABLE_SETS: 32
WOBBLY_CRITICAL_IP_CACHE_SETS: 32
WOBBLY_CRITICAL_IP_CACHE_WAYS: 4
BTB has LRU replacement policy
ITLB has LRU replacement policy
DTLB has LRU replacement policy
STLB has LRU replacement policy
L1I has LRU replacement policy
IP Table Entries: 64
L1D has LRU replacement policy
IP_Table L2 entries: 64
Initialize SRRIP state for L2C
Initialize DRRIP state for LLC
Heartbeat CPU 0 instructions: 10000000 cycles: 3242539 heartbeat IPC: 3.084 cumulative IPC: 3.084 (Simulation time: 0 hr 9 min 14 sec) 
Heartbeat CPU 0 instructions: 20000003 cycles: 6519103 heartbeat IPC: 3.05198 cumulative IPC: 3.06791 (Simulation time: 0 hr 17 min 26 sec) 
Heartbeat CPU 0 instructions: 30000003 cycles: 9795608 heartbeat IPC: 3.05203 cumulative IPC: 3.0626 (Simulation time: 0 hr 24 min 17 sec) 
Heartbeat CPU 0 instructions: 40000002 cycles: 13055297 heartbeat IPC: 3.06778 cumulative IPC: 3.06389 (Simulation time: 0 hr 30 min 45 sec) 
Heartbeat CPU 0 instructions: 50000001 cycles: 16566726 heartbeat IPC: 2.84784 cumulative IPC: 3.0181 (Simulation time: 0 hr 37 min 21 sec) 

Warmup complete CPU 0 instructions: 50000001 cycles: 16566726 (Simulation time: 0 hr 37 min 21 sec) 

% increase in all ip prefetch 1474.89
% increase in all ip prefetch -29.3084
Heartbeat CPU 0 instructions: 60000000 cycles: 59404017 heartbeat IPC: 0.233441 cumulative IPC: 0.233441 (Simulation time: 0 hr 42 min 26 sec) 
Heartbeat CPU 0 instructions: 70000000 cycles: 108813216 heartbeat IPC: 0.202391 cumulative IPC: 0.21681 (Simulation time: 0 hr 47 min 19 sec) 
Heartbeat CPU 0 instructions: 80000002 cycles: 144283770 heartbeat IPC: 0.281924 cumulative IPC: 0.234894 (Simulation time: 0 hr 51 min 24 sec) 
Heartbeat CPU 0 instructions: 90000002 cycles: 178027833 heartbeat IPC: 0.296348 cumulative IPC: 0.247738 (Simulation time: 0 hr 55 min 0 sec) 
Heartbeat CPU 0 instructions: 100000001 cycles: 210568346 heartbeat IPC: 0.307309 cumulative IPC: 0.25773 (Simulation time: 1 hr 1 min 24 sec) 
Heartbeat CPU 0 instructions: 110000000 cycles: 263914302 heartbeat IPC: 0.187456 cumulative IPC: 0.242574 (Simulation time: 1 hr 10 min 10 sec) 
Heartbeat CPU 0 instructions: 120000000 cycles: 306184849 heartbeat IPC: 0.236571 cumulative IPC: 0.241698 (Simulation time: 1 hr 16 min 39 sec) 
Heartbeat CPU 0 instructions: 130000000 cycles: 345307156 heartbeat IPC: 0.255609 cumulative IPC: 0.243353 (Simulation time: 1 hr 23 min 0 sec) 
Heartbeat CPU 0 instructions: 140000000 cycles: 391465932 heartbeat IPC: 0.216644 cumulative IPC: 0.240065 (Simulation time: 1 hr 29 min 9 sec) 
Heartbeat CPU 0 instructions: 150000001 cycles: 455274577 heartbeat IPC: 0.156719 cumulative IPC: 0.227942 (Simulation time: 1 hr 35 min 33 sec) 
Finished CPU 0 instructions: 100000000 cycles: 438707851 cumulative IPC: 0.227942 (Simulation time: 1 hr 35 min 33 sec) 

ChampSim completed all CPUs

Region of Interest Statistics

CPU 0 cumulative IPC: 0.227942 instructions: 100000000 cycles: 438707851

CPU 0 Average Load ROB stall cycles: 4.06593e+07
CPU 0 Fraction of times ROB stalled by Loads: 17.9107
CPU 0 Percentage of Load stall cycles in Total stall cycles: 2.72794e+08
 Total stall cycles: 355693372
 Total load stall cycles: 970310512090560
CPU 0 NUM of IPS identified critical: 9
CPU 0 Num of Load IPs stalling ROB: 87
Threshold modification factor: -1
Max PIST entries: 32
Min PIST entries: 0
Avg PIST entries: 14.3333
Trouble in retire width: 0.969051
MaC = Marked as critical.
lt_50_percent_before_Mac: 9
gt_90_percent_before_Mac: 0
gt_75_percent_before_Mac: 0
gt_50_percent_before_Mac: 0
stall_proportion_bin_same_before_after: 0
stall_proportion_bin_lower_before_after: 0
stall_proportion_bin_upper_before_after: 0
average_stall_proportion_before: 0.116641
average_stall_proportion_after: 0.10025
Critical IP stalls, total frequency: 2887071
Non-critical IP stalls, total frequency: 1375438
Critical_IP_ROB_Stalls_Bucket_0: 2573466
Non-critical_IP_ROB_Stalls_Bucket_0: 1360548
Critical_IP_ROB_Stalls_Bucket_1: 202248
Non-critical_IP_ROB_Stalls_Bucket_1: 20137
Critical_IP_ROB_Stalls_Bucket_2: 63874
Non-critical_IP_ROB_Stalls_Bucket_2: 4222
Critical_IP_ROB_Stalls_Bucket_3: 22901
Non-critical_IP_ROB_Stalls_Bucket_3: 1187
Critical_IP_ROB_Stalls_Bucket_4: 9777
Non-critical_IP_ROB_Stalls_Bucket_4: 473
Critical_IP_ROB_Stalls_Bucket_5: 5210
Non-critical_IP_ROB_Stalls_Bucket_5: 217
Critical_IP_ROB_Stalls_Bucket_6: 9595
Non-critical_IP_ROB_Stalls_Bucket_6: 424
0 => IPs accounting for >50 percent of stalls, 1 => 55, 2 => 60, 3 => 65 and so on till 90.
percent50: 55.568 num IPs:5
percent55: 55.568 num IPs:5
percent60: 62.1607 num IPs:6
percent65: 68.5151 num IPs:7
percent70: 74.5381 num IPs:8
percent75: 79.6082 num IPs:9
percent80: 84.5819 num IPs:10
percent85: 89.1641 num IPs:11
percent90: 92.5294 num IPs:12
Critical_ROB_Stalls_Percent_0_Bucket_0: 2144018
Non-critical_ROB_Stalls_Percent_0_Bucket_0: 1789996
Critical_ROB_Stalls_Percent_0_Bucket_1: 150076
Non-critical_ROB_Stalls_Percent_0_Bucket_1: 72309
Critical_ROB_Stalls_Percent_0_Bucket_2: 42654
Non-critical_ROB_Stalls_Percent_0_Bucket_2: 25442
Critical_ROB_Stalls_Percent_0_Bucket_3: 15682
Non-critical_ROB_Stalls_Percent_0_Bucket_3: 8406
Critical_ROB_Stalls_Percent_0_Bucket_4: 6319
Non-critical_ROB_Stalls_Percent_0_Bucket_4: 3931
Critical_ROB_Stalls_Percent_0_Bucket_5: 3410
Non-critical_ROB_Stalls_Percent_0_Bucket_5: 2017
Critical_ROB_Stalls_Percent_0_Bucket_6: 6431
Non-critical_ROB_Stalls_Percent_0_Bucket_6: 3588
Critical_ROB_Stalls_Percent_1_Bucket_0: 2144018
Non-critical_ROB_Stalls_Percent_1_Bucket_0: 1789996
Critical_ROB_Stalls_Percent_1_Bucket_1: 150076
Non-critical_ROB_Stalls_Percent_1_Bucket_1: 72309
Critical_ROB_Stalls_Percent_1_Bucket_2: 42654
Non-critical_ROB_Stalls_Percent_1_Bucket_2: 25442
Critical_ROB_Stalls_Percent_1_Bucket_3: 15682
Non-critical_ROB_Stalls_Percent_1_Bucket_3: 8406
Critical_ROB_Stalls_Percent_1_Bucket_4: 6319
Non-critical_ROB_Stalls_Percent_1_Bucket_4: 3931
Critical_ROB_Stalls_Percent_1_Bucket_5: 3410
Non-critical_ROB_Stalls_Percent_1_Bucket_5: 2017
Critical_ROB_Stalls_Percent_1_Bucket_6: 6431
Non-critical_ROB_Stalls_Percent_1_Bucket_6: 3588
Critical_ROB_Stalls_Percent_2_Bucket_0: 2425035
Non-critical_ROB_Stalls_Percent_2_Bucket_0: 1508979
Critical_ROB_Stalls_Percent_2_Bucket_1: 150076
Non-critical_ROB_Stalls_Percent_2_Bucket_1: 72309
Critical_ROB_Stalls_Percent_2_Bucket_2: 42654
Non-critical_ROB_Stalls_Percent_2_Bucket_2: 25442
Critical_ROB_Stalls_Percent_2_Bucket_3: 15682
Non-critical_ROB_Stalls_Percent_2_Bucket_3: 8406
Critical_ROB_Stalls_Percent_2_Bucket_4: 6319
Non-critical_ROB_Stalls_Percent_2_Bucket_4: 3931
Critical_ROB_Stalls_Percent_2_Bucket_5: 3410
Non-critical_ROB_Stalls_Percent_2_Bucket_5: 2017
Critical_ROB_Stalls_Percent_2_Bucket_6: 6431
Non-critical_ROB_Stalls_Percent_2_Bucket_6: 3588
Critical_ROB_Stalls_Percent_3_Bucket_0: 2689562
Non-critical_ROB_Stalls_Percent_3_Bucket_0: 1244452
Critical_ROB_Stalls_Percent_3_Bucket_1: 153918
Non-critical_ROB_Stalls_Percent_3_Bucket_1: 68467
Critical_ROB_Stalls_Percent_3_Bucket_2: 44061
Non-critical_ROB_Stalls_Percent_3_Bucket_2: 24035
Critical_ROB_Stalls_Percent_3_Bucket_3: 16190
Non-critical_ROB_Stalls_Percent_3_Bucket_3: 7898
Critical_ROB_Stalls_Percent_3_Bucket_4: 6577
Non-critical_ROB_Stalls_Percent_3_Bucket_4: 3673
Critical_ROB_Stalls_Percent_3_Bucket_5: 3526
Non-critical_ROB_Stalls_Percent_3_Bucket_5: 1901
Critical_ROB_Stalls_Percent_3_Bucket_6: 6630
Non-critical_ROB_Stalls_Percent_3_Bucket_6: 3389
Critical_ROB_Stalls_Percent_4_Bucket_0: 2936330
Non-critical_ROB_Stalls_Percent_4_Bucket_0: 997684
Critical_ROB_Stalls_Percent_4_Bucket_1: 160347
Non-critical_ROB_Stalls_Percent_4_Bucket_1: 62038
Critical_ROB_Stalls_Percent_4_Bucket_2: 46080
Non-critical_ROB_Stalls_Percent_4_Bucket_2: 22016
Critical_ROB_Stalls_Percent_4_Bucket_3: 16799
Non-critical_ROB_Stalls_Percent_4_Bucket_3: 7289
Critical_ROB_Stalls_Percent_4_Bucket_4: 6960
Non-critical_ROB_Stalls_Percent_4_Bucket_4: 3290
Critical_ROB_Stalls_Percent_4_Bucket_5: 3665
Non-critical_ROB_Stalls_Percent_4_Bucket_5: 1762
Critical_ROB_Stalls_Percent_4_Bucket_6: 7011
Non-critical_ROB_Stalls_Percent_4_Bucket_6: 3008
Critical_ROB_Stalls_Percent_5_Bucket_0: 3113641
Non-critical_ROB_Stalls_Percent_5_Bucket_0: 820373
Critical_ROB_Stalls_Percent_5_Bucket_1: 181896
Non-critical_ROB_Stalls_Percent_5_Bucket_1: 40489
Critical_ROB_Stalls_Percent_5_Bucket_2: 56401
Non-critical_ROB_Stalls_Percent_5_Bucket_2: 11695
Critical_ROB_Stalls_Percent_5_Bucket_3: 19709
Non-critical_ROB_Stalls_Percent_5_Bucket_3: 4379
Critical_ROB_Stalls_Percent_5_Bucket_4: 8425
Non-critical_ROB_Stalls_Percent_5_Bucket_4: 1825
Critical_ROB_Stalls_Percent_5_Bucket_5: 4640
Non-critical_ROB_Stalls_Percent_5_Bucket_5: 787
Critical_ROB_Stalls_Percent_5_Bucket_6: 8593
Non-critical_ROB_Stalls_Percent_5_Bucket_6: 1426
Critical_ROB_Stalls_Percent_6_Bucket_0: 3325648
Non-critical_ROB_Stalls_Percent_6_Bucket_0: 608366
Critical_ROB_Stalls_Percent_6_Bucket_1: 181896
Non-critical_ROB_Stalls_Percent_6_Bucket_1: 40489
Critical_ROB_Stalls_Percent_6_Bucket_2: 56401
Non-critical_ROB_Stalls_Percent_6_Bucket_2: 11695
Critical_ROB_Stalls_Percent_6_Bucket_3: 19709
Non-critical_ROB_Stalls_Percent_6_Bucket_3: 4379
Critical_ROB_Stalls_Percent_6_Bucket_4: 8425
Non-critical_ROB_Stalls_Percent_6_Bucket_4: 1825
Critical_ROB_Stalls_Percent_6_Bucket_5: 4640
Non-critical_ROB_Stalls_Percent_6_Bucket_5: 787
Critical_ROB_Stalls_Percent_6_Bucket_6: 8593
Non-critical_ROB_Stalls_Percent_6_Bucket_6: 1426
Critical_ROB_Stalls_Percent_7_Bucket_0: 3501594
Non-critical_ROB_Stalls_Percent_7_Bucket_0: 432420
Critical_ROB_Stalls_Percent_7_Bucket_1: 194540
Non-critical_ROB_Stalls_Percent_7_Bucket_1: 27845
Critical_ROB_Stalls_Percent_7_Bucket_2: 60285
Non-critical_ROB_Stalls_Percent_7_Bucket_2: 7811
Critical_ROB_Stalls_Percent_7_Bucket_3: 21045
Non-critical_ROB_Stalls_Percent_7_Bucket_3: 3043
Critical_ROB_Stalls_Percent_7_Bucket_4: 9078
Non-critical_ROB_Stalls_Percent_7_Bucket_4: 1172
Critical_ROB_Stalls_Percent_7_Bucket_5: 4971
Non-critical_ROB_Stalls_Percent_7_Bucket_5: 456
Critical_ROB_Stalls_Percent_7_Bucket_6: 9114
Non-critical_ROB_Stalls_Percent_7_Bucket_6: 905
Critical_ROB_Stalls_Percent_8_Bucket_0: 3635103
Non-critical_ROB_Stalls_Percent_8_Bucket_0: 298911
Critical_ROB_Stalls_Percent_8_Bucket_1: 200329
Non-critical_ROB_Stalls_Percent_8_Bucket_1: 22056
Critical_ROB_Stalls_Percent_8_Bucket_2: 62540
Non-critical_ROB_Stalls_Percent_8_Bucket_2: 5556
Critical_ROB_Stalls_Percent_8_Bucket_3: 21924
Non-critical_ROB_Stalls_Percent_8_Bucket_3: 2164
Critical_ROB_Stalls_Percent_8_Bucket_4: 9600
Non-critical_ROB_Stalls_Percent_8_Bucket_4: 650
Critical_ROB_Stalls_Percent_8_Bucket_5: 5151
Non-critical_ROB_Stalls_Percent_8_Bucket_5: 276
Critical_ROB_Stalls_Percent_8_Bucket_6: 9427
Non-critical_ROB_Stalls_Percent_8_Bucket_6: 592
Average ROB occupancy Load Stall Begin: 25.4631
Average ROB occupancy Load Stall End: 29.6933
Min ROB occupancy Load Stall Begin: 1
Max ROB occupancy Load Stall Begin: 351
Min ROB occupancy Load Stall End: 1
Max ROB occupancy Load Stall End: 352
Average ROB occupancy Critical Load Stall Begin: 26.9215
Average ROB occupancy Critical Load Stall End: 31.5622
Min ROB occupancy Critical Load Stall Begin: 2
Max ROB occupancy Critical Load Stall Begin: 351
Min ROB occupancy Critical Load Stall End: 2
Max ROB occupancy Critical Load Stall End: 352
 ROB Load Stall Begin Bucket Count 0: 3982822
 ROB Load Stall End Bucket Count 0: 3934014
 ROB Critical Load Stall Begin Bucket Count 0: 2195502
 ROB Critical Load Stall End Bucket Count 0: 2149237
 ROB Load Stall Begin Bucket Count 1: 191873
 ROB Load Stall End Bucket Count 1: 222385
 ROB Critical Load Stall Begin Bucket Count 1: 149699
 ROB Critical Load Stall End Bucket Count 1: 178680
 ROB Load Stall Begin Bucket Count 2: 55207
 ROB Load Stall End Bucket Count 2: 68096
 ROB Critical Load Stall Begin Bucket Count 2: 46380
 ROB Critical Load Stall End Bucket Count 2: 58516
 ROB Load Stall Begin Bucket Count 3: 21236
 ROB Load Stall End Bucket Count 3: 24088
 ROB Critical Load Stall Begin Bucket Count 3: 18454
 ROB Critical Load Stall End Bucket Count 3: 21139
 ROB Load Stall Begin Bucket Count 4: 9104
 ROB Load Stall End Bucket Count 4: 10250
 ROB Critical Load Stall Begin Bucket Count 4: 7878
 ROB Critical Load Stall End Bucket Count 4: 8962
 ROB Load Stall Begin Bucket Count 5: 5036
 ROB Load Stall End Bucket Count 5: 5427
 ROB Critical Load Stall Begin Bucket Count 5: 4502
 ROB Critical Load Stall End Bucket Count 5: 4880
 ROB Load Stall Begin Bucket Count 6: 9001
 ROB Load Stall End Bucket Count 6: 10019
 ROB Critical Load Stall Begin Bucket Count 6: 7983
 ROB Critical Load Stall End Bucket Count 6: 8984
PIST Tag Read Accesses: 60496
PIST Read Accesses: 30248
PIST Tag Write Accesses: 60496
PIST Write Accesses: 30248
Criticality detector called times: 770229
Max global_stall_cycles_count: 72531
Threshold Modified: 1 times, factor: -1
ITLB TOTAL     ACCESS:   17689650  HIT:   17689650  MISS:          0  HIT %:        100  MISS %:          0   MPKI: 0
ITLB LOAD TRANSLATION ACCESS:   17689650  HIT:   17689650  MISS:          0  HIT %:        100  MISS %:          0   MPKI: 0
ITLB PREFETCH  REQUESTED:          0  ISSUED:          0  USEFUL:          0  USELESS:          0
ITLB USEFUL LOAD PREFETCHES:          0 PREFETCH ISSUED TO LOWER LEVEL:          0  ACCURACY: -nan
ITLB TIMELY PREFETCHES:          0 LATE PREFETCHES: 0 DROPPED PREFETCHES: 0
ITLB PREFETCHES SAME FILL-ORIGIN LEVEL: 0 DIFFERENT FILL-ORIGIN LEVEL: 0
ITLB AVERAGE MISS LATENCY: -nan cycles
ITLB RQ	ACCESS:   18118592	FORWARD:          0	MERGED:     428943	TO_CACHE:   17689649

DTLB TOTAL     ACCESS:   32499174  HIT:   30875649  MISS:    1623525  HIT %:    95.0044  MISS %:    4.99559   MPKI: 16.2353
DTLB LOAD TRANSLATION ACCESS:   32499174  HIT:   30875649  MISS:    1623525  HIT %:    95.0044  MISS %:    4.99559   MPKI: 16.2353
DTLB PREFETCH  REQUESTED:          0  ISSUED:          0  USEFUL:          0  USELESS:          0
DTLB USEFUL LOAD PREFETCHES:          0 PREFETCH ISSUED TO LOWER LEVEL:          0  ACCURACY: -nan
DTLB TIMELY PREFETCHES:          0 LATE PREFETCHES: 0 DROPPED PREFETCHES: 0
DTLB PREFETCHES SAME FILL-ORIGIN LEVEL: 0 DIFFERENT FILL-ORIGIN LEVEL: 0
DTLB AVERAGE MISS LATENCY: 75.1549 cycles
DTLB RQ	ACCESS:   38538793	FORWARD:          0	MERGED:    5581361	TO_CACHE:   32957432

STLB TOTAL     ACCESS:    7656621  HIT:    6848792  MISS:     807829  HIT %:    89.4493  MISS %:    10.5507   MPKI: 8.07829
STLB LOAD TRANSLATION ACCESS:    1623525  HIT:     815946  MISS:     807579  HIT %:    50.2577  MISS %:    49.7423   MPKI: 8.07579
STLB TRANSLATION FROM L1D PREFETCHER ACCESS:    6033096  HIT:    6032846  MISS:        250  HIT %:    99.9959  MISS %: 0.00414381   MPKI: 0.0025
STLB PREFETCH  REQUESTED:          0  ISSUED:          0  USEFUL:        229  USELESS:         21
STLB USEFUL LOAD PREFETCHES:        229 PREFETCH ISSUED TO LOWER LEVEL:          0  ACCURACY: inf
STLB TIMELY PREFETCHES:        229 LATE PREFETCHES: 0 DROPPED PREFETCHES: 0
STLB PREFETCHES SAME FILL-ORIGIN LEVEL: 0 DIFFERENT FILL-ORIGIN LEVEL: 0
STLB AVERAGE MISS LATENCY: 132.879 cycles
STLB RQ	ACCESS:    9569523	FORWARD:          0	MERGED:    1912871	TO_CACHE:    7656652

STLB Hit, L1D data hit: 0
STLB Hit, L2C data hit: 0
STLB Hit, LLC data hit: 0
STLB Hit, LLC data miss: 0
STLB STLB hints to L2: 0
L1D TOTAL     ACCESS:   45313262  HIT:   38304594  MISS:    7008668  HIT %:    84.5329  MISS %:    15.4671   MPKI: 70.0867
L1D LOAD      ACCESS:   28464126  HIT:   24978315  MISS:    3485811  HIT %:    87.7537  MISS %:    12.2463   MPKI: 34.8581
L1D RFO       ACCESS:    9984693  HIT:    9949148  MISS:      35545  HIT %:     99.644  MISS %:   0.355995   MPKI: 0.35545
L1D PREFETCH  ACCESS:    6864443  HIT:    3377131  MISS:    3487312  HIT %:    49.1975  MISS %:    50.8025   MPKI: 34.8731
L1D PREFETCH  REQUESTED:   15895049  ISSUED:   15895046  USEFUL:     463580  USELESS:    3023544
L1D USEFUL LOAD PREFETCHES:     463580 PREFETCH ISSUED TO LOWER LEVEL:    3856764  ACCURACY: 12.0199
L1D TIMELY PREFETCHES:     463580 LATE PREFETCHES: 368872 DROPPED PREFETCHES: 0
L1D PREFETCHES SAME FILL-ORIGIN LEVEL: 3856764 DIFFERENT FILL-ORIGIN LEVEL: 0
L1D AVERAGE MISS LATENCY: 1.22566e+07 cycles
L1D RQ	ACCESS:   33841352	FORWARD:          0	MERGED:    2976819	TO_CACHE:   28499895
L1D WQ	ACCESS:   10094511	FORWARD:    2367688	MERGED:      55613	TO_CACHE:   10038898
L1D PQ	ACCESS:    7949048	FORWARD:          0	MERGED:          0	TO_CACHE:    7945998

L1D UNIQUE REGIONS ACCESSED: 0
L1D REGIONS CONFLICTS: 0
L1D Cross Page Prefetch Requests: 0
L1D Same Page Prefetch Requests: 11104310
L1D ROI Sum of L1D PQ occupancy: 103583527
L1D PREFETCHES PUSHED FROM L2C: 0
L1I TOTAL     ACCESS:   18118593  HIT:   18118593  MISS:          0  HIT %:        100  MISS %:          0   MPKI: 0
L1I LOAD      ACCESS:   18118593  HIT:   18118593  MISS:          0  HIT %:        100  MISS %:          0   MPKI: 0
L1I PREFETCH  REQUESTED:          0  ISSUED:          0  USEFUL:          0  USELESS:          0
L1I USEFUL LOAD PREFETCHES:          0 PREFETCH ISSUED TO LOWER LEVEL:          0  ACCURACY: -nan
L1I TIMELY PREFETCHES:          0 LATE PREFETCHES: 0 DROPPED PREFETCHES: 0
L1I PREFETCHES SAME FILL-ORIGIN LEVEL: 0 DIFFERENT FILL-ORIGIN LEVEL: 0
L1I AVERAGE MISS LATENCY: -nan cycles
L1I RQ	ACCESS:   28694740	FORWARD:          0	MERGED:   10576148	TO_CACHE:   18118592

BTB TOTAL     ACCESS:   23415583  HIT:   22036176  MISS:    1379407  HIT %:     94.109  MISS %:    5.89098   MPKI: 13.7941
BTB BRANCH_DIRECT_JUMP	ACCESS:    2277732  HIT:    2277711  MISS:         21
BTB BRANCH_INDIRECT	ACCESS:          0  HIT:          0  MISS:          0
BTB BRANCH_CONDITIONAL	ACCESS:   14850308  HIT:   14850266  MISS:         42
BTB BRANCH_DIRECT_CALL	ACCESS:    3040680  HIT:    3040667  MISS:         13
BTB BRANCH_INDIRECT_CALL	ACCESS:     103096  HIT:     103088  MISS:          8
BTB BRANCH_RETURN	ACCESS:    3143767  HIT:    1764444  MISS:    1379323
BTB BRANCH_OTHER ACCESS:          0  HIT:          0  MISS:          0

L2C TOTAL     ACCESS:    9127291  HIT:    3713206  MISS:    5414085  HIT %:    40.6825  MISS %:    59.3175   MPKI: 54.1409
L2C LOAD      ACCESS:    3116938  HIT:     908462  MISS:    2208476  HIT %:     29.146  MISS %:     70.854   MPKI: 22.0848
L2C DATA LOAD MPKI: 22.0848
L2C INSTRUCTION LOAD MPKI: 0
L2C RFO       ACCESS:      34969  HIT:      32235  MISS:       2734  HIT %:    92.1816  MISS %:    7.81835   MPKI: 0.02734
L2C PREFETCH  ACCESS:    4358608  HIT:    1498613  MISS:    2859995  HIT %:    34.3828  MISS %:    65.6172   MPKI: 28.5999
L2C DATA PREFETCH MPKI: 28.5999
L2C INSTRUCTION PREFETCH MPKI: 0
L2C WRITEBACK ACCESS:     276342  HIT:     275705  MISS:        637  HIT %:    99.7695  MISS %:   0.230511   MPKI: 0.00637
L2C LOAD TRANSLATION ACCESS:    1340008  HIT:     998028  MISS:     341980  HIT %:    74.4793  MISS %:    25.5207   MPKI: 3.4198
L2C TRANSLATION FROM L1D PREFETCHER ACCESS:        426  HIT:        163  MISS:        263  HIT %:    38.2629  MISS %:    61.7371   MPKI: 0.00263
L2C PREFETCH  REQUESTED:     552404  ISSUED:     552404  USEFUL:      44000  USELESS:    2815066
L2C USEFUL LOAD PREFETCHES:      44000 PREFETCH ISSUED TO LOWER LEVEL:    2860000  ACCURACY: 1.53846
L2C TIMELY PREFETCHES:      44000 LATE PREFETCHES: 5 DROPPED PREFETCHES: 0
L2C PREFETCHES SAME FILL-ORIGIN LEVEL: 123349 DIFFERENT FILL-ORIGIN LEVEL: 0
L2C AVERAGE MISS LATENCY: 168.432 cycles
L2C RQ	ACCESS:    4492344	FORWARD:          0	MERGED:          0	TO_CACHE:    4492341
L2C WQ	ACCESS:     276342	FORWARD:         18	MERGED:          0	TO_CACHE:     276342
L2C PQ	ACCESS:    4409162	FORWARD:          0	MERGED:      50393	TO_CACHE:    4358754

L2C Instructions Evicting Data 0
L2C Translations Evicting Data 315784
L2C Data Evicting Data 4754119
L2C Instructions Evicting Instructions 0
L2C Translations Evicting Instructions 0
L2C Data Evicting Instructions 0
L2C Instructions Evicting Translations 0
L2C Translations Evicting Translations 26459
L2C Data Evicting Translations 317086
L2C Dense regions hint from L2: 0
PSCL5 TOTAL     ACCESS:     807829  HIT:     807829  MISS:          0  HIT %:        100  MISS %:          0   MPKI: 0
PSCL5 LOAD TRANSLATION ACCESS:     807579  HIT:     807579  MISS:          0  HIT %:        100  MISS %:          0   MPKI: 0
PSCL5 TRANSLATION FROM L1D PREFETCHER ACCESS:        250  HIT:        250  MISS:          0  HIT %:        100  MISS %:          0   MPKI: 0
PSCL5 PREFETCH  REQUESTED:          0  ISSUED:          0  USEFUL:          0  USELESS:          0
PSCL5 USEFUL LOAD PREFETCHES:          0 PREFETCH ISSUED TO LOWER LEVEL:          0  ACCURACY: -nan
PSCL5 TIMELY PREFETCHES:          0 LATE PREFETCHES: 0 DROPPED PREFETCHES: 0
PSCL5 PREFETCHES SAME FILL-ORIGIN LEVEL: 0 DIFFERENT FILL-ORIGIN LEVEL: 0

PSCL4 TOTAL     ACCESS:     807829  HIT:     807829  MISS:          0  HIT %:        100  MISS %:          0   MPKI: 0
PSCL4 LOAD TRANSLATION ACCESS:     807579  HIT:     807579  MISS:          0  HIT %:        100  MISS %:          0   MPKI: 0
PSCL4 TRANSLATION FROM L1D PREFETCHER ACCESS:        250  HIT:        250  MISS:          0  HIT %:        100  MISS %:          0   MPKI: 0
PSCL4 PREFETCH  REQUESTED:          0  ISSUED:          0  USEFUL:          0  USELESS:          0
PSCL4 USEFUL LOAD PREFETCHES:          0 PREFETCH ISSUED TO LOWER LEVEL:          0  ACCURACY: -nan
PSCL4 TIMELY PREFETCHES:          0 LATE PREFETCHES: 0 DROPPED PREFETCHES: 0
PSCL4 PREFETCHES SAME FILL-ORIGIN LEVEL: 0 DIFFERENT FILL-ORIGIN LEVEL: 0

PSCL3 TOTAL     ACCESS:     807829  HIT:     807829  MISS:          0  HIT %:        100  MISS %:          0   MPKI: 0
PSCL3 LOAD TRANSLATION ACCESS:     807579  HIT:     807579  MISS:          0  HIT %:        100  MISS %:          0   MPKI: 0
PSCL3 TRANSLATION FROM L1D PREFETCHER ACCESS:        250  HIT:        250  MISS:          0  HIT %:        100  MISS %:          0   MPKI: 0
PSCL3 PREFETCH  REQUESTED:          0  ISSUED:          0  USEFUL:          0  USELESS:          0
PSCL3 USEFUL LOAD PREFETCHES:          0 PREFETCH ISSUED TO LOWER LEVEL:          0  ACCURACY: -nan
PSCL3 TIMELY PREFETCHES:          0 LATE PREFETCHES: 0 DROPPED PREFETCHES: 0
PSCL3 PREFETCHES SAME FILL-ORIGIN LEVEL: 0 DIFFERENT FILL-ORIGIN LEVEL: 0

PSCL2 TOTAL     ACCESS:     807829  HIT:     275217  MISS:     532612  HIT %:    34.0687  MISS %:    65.9313   MPKI: 5.32612
PSCL2 LOAD TRANSLATION ACCESS:     807755  HIT:     275143  MISS:     532612  HIT %:    34.0627  MISS %:    65.9373   MPKI: 5.32612
PSCL2 TRANSLATION FROM L1D PREFETCHER ACCESS:         74  HIT:         74  MISS:          0  HIT %:        100  MISS %:          0   MPKI: 0
PSCL2 PREFETCH  REQUESTED:          0  ISSUED:          0  USEFUL:          0  USELESS:          0
PSCL2 USEFUL LOAD PREFETCHES:          0 PREFETCH ISSUED TO LOWER LEVEL:          0  ACCURACY: -nan
PSCL2 TIMELY PREFETCHES:          0 LATE PREFETCHES: 0 DROPPED PREFETCHES: 0
PSCL2 PREFETCHES SAME FILL-ORIGIN LEVEL: 0 DIFFERENT FILL-ORIGIN LEVEL: 0

LLC TOTAL     ACCESS:    5563830  HIT:    1400987  MISS:    4162843  HIT %:    25.1803  MISS %:    74.8197   MPKI: 41.6284
LLC LOAD      ACCESS:    2208471  HIT:     638088  MISS:    1570383  HIT %:    28.8927  MISS %:    71.1073   MPKI: 15.7038
LLC RFO       ACCESS:       2733  HIT:       1722  MISS:       1011  HIT %:    63.0077  MISS %:    36.9923   MPKI: 0.01011
LLC PREFETCH  ACCESS:    2859998  HIT:     534465  MISS:    2325533  HIT %:    18.6876  MISS %:    81.3124   MPKI: 23.2553
LLC WRITEBACK ACCESS:     150385  HIT:     131094  MISS:      19291  HIT %:    87.1723  MISS %:    12.8277   MPKI: 0.19291
LLC LOAD TRANSLATION ACCESS:     341980  HIT:      95402  MISS:     246578  HIT %:     27.897  MISS %:     72.103   MPKI: 2.46578
LLC TRANSLATION FROM L1D PREFETCHER ACCESS:        263  HIT:        216  MISS:         47  HIT %:    82.1293  MISS %:    17.8707   MPKI: 0.00047
LLC PREFETCH  REQUESTED:          0  ISSUED:          0  USEFUL:      29613  USELESS:    2287933
LLC USEFUL LOAD PREFETCHES:      29613 PREFETCH ISSUED TO LOWER LEVEL:    2325533  ACCURACY: 1.27339
LLC TIMELY PREFETCHES:      29613 LATE PREFETCHES: 0 DROPPED PREFETCHES: 0
LLC PREFETCHES SAME FILL-ORIGIN LEVEL: 0 DIFFERENT FILL-ORIGIN LEVEL: 0
LLC AVERAGE MISS LATENCY: 179.798 cycles
LLC RQ	ACCESS:    2553448	FORWARD:          0	MERGED:          0	TO_CACHE:    2553447
LLC WQ	ACCESS:     150385	FORWARD:          3	MERGED:          0	TO_CACHE:     150385
LLC PQ	ACCESS:    2860000	FORWARD:          0	MERGED:          0	TO_CACHE:    2859998

LLC Dense regions hint to LLC: 0

RAW hits: 855659
Loads Generated: 34697014
Loads sent to L1D: 33841352
Stores Generated: 10094507
Stores sent to L1D: 10094511
Major fault: 0 Minor fault: 167017
Allocated PAGES: 167017

stream: 
stream:times selected: 12743403
stream:pref_filled: 3287003
stream:pref_useful: 496238
stream:pref_late: 345664
stream:misses: 1208843
stream:misses_by_poll: 0

CS: 
CS:times selected: 534960
CS:pref_filled: 295449
CS:pref_useful: 286627
CS:pref_late: 75
CS:misses: 1393
CS:misses_by_poll: 157

CPLX: 
CPLX:times selected: 12094094
CPLX:pref_filled: 1310566
CPLX:pref_useful: 59601
CPLX:pref_late: 3975
CPLX:misses: 3658717
CPLX:misses_by_poll: 9209

NL_L1: 
NL:times selected: 123492
NL:pref_filled: 42838
NL:pref_useful: 9102
NL:pref_late: 4883
NL:misses: 48277
NL:misses_by_poll: 5

total selections: 25495949
total_filled: 3487312
total_useful: 463580
total_late: 390393
total_polluted: 9371
total_misses_after_warmup: 3521582
conflicts: 454277
Degree Incremented Times: 179123
Degree Decremented Times: 461319

L1 IP Table Write Accesses: 25393065
L1 IP Table Read Accesses: 24938788
L1 RST Write Accesses: 8694527
L1 RST Read Accesses: 17389054
L1 CSPT Write Accesses: 8694527
L1 CSPT Read Accesses: 16942726
L1 RR Filter Tag Write Accesses: 7949051
L1 RR Filter Tag Read Accesses: 316224333
L1 IP Table Tag Write Accesses: 28499897
L1 IP Table Tag Read Accesses: 28499897
L1 RST Tag Write Accesses: 0
L1 RST Tag Read Accesses: 80858789
L1 RR Filter Write Accesses: 0
L1 RR Filter Read Accesses: 11267977
test: 7749640
L2 IP Table Read Accesses: 13931631
L2 IP Table Write Accesses: 10818205
L2 IP Table Tag Read Accesses: 6968382
L2 IP Table Tag Write Accesses: 6968382

DRAM Statistics
 CHANNEL 0
 RQ ROW_BUFFER_HIT:     260773  ROW_BUFFER_MISS:    3882764
 DBUS_CONGESTED:        336
 WQ ROW_BUFFER_HIT:      38554  ROW_BUFFER_MISS:      78414  FULL:          0

 AVG_CONGESTED_CYCLE: 4
 All warmup complete: 2
Channel 0 Bank busy for read cycles: 0
Channel 0 Bank busy for write cycles: 0
Channel 0
Rank 0
0banks busy for read cycles: 151456502
0banks busy for write cycles: 84290
1banks busy for read cycles: 93810074
1banks busy for write cycles: 18299029
2banks busy for read cycles: 75727364
2banks busy for write cycles: 4165093
3banks busy for read cycles: 52302050
3banks busy for write cycles: 1011019
4banks busy for read cycles: 23443325
4banks busy for write cycles: 260574
5banks busy for read cycles: 10950445
5banks busy for write cycles: 80780
6banks busy for read cycles: 5137407
6banks busy for write cycles: 22500
7banks busy for read cycles: 1593287
7banks busy for write cycles: 12693
8banks busy for read cycles: 347796
8banks busy for write cycles: 3624

CPU 0 Branch Prediction Accuracy: 94.6877% MPKI: 13.1818 Average ROB Occupancy at Mispredict: 23.4723
Branch types
NOT_BRANCH: 75185764 75.1858%
BRANCH_DIRECT_JUMP: 2277732 2.27773%
BRANCH_INDIRECT: 0 0%
BRANCH_CONDITIONAL: 16248591 16.2486%
BRANCH_DIRECT_CALL: 3040680 3.04068%
BRANCH_INDIRECT_CALL: 103096 0.103096%
BRANCH_RETURN: 3143767 3.14377%
BRANCH_OTHER: 0 0%

DRAM PAGES: 1048576
Allocated PAGES: 167017
