
*** ChampSim Multicore Out-of-Order Simulator ***

Warmup Instructions: 50000000
Simulation Instructions: 100000000
Number of CPUs: 1
LLC sets: 2048
LLC ways: 16
Off-chip DRAM Size: 4096 MB Channels: 1 Width: 64-bit Data Rate: 6400 MT/s
CPU 0 runs ../SPEC2017//605.mcf_s-994B.champsimtrace.xz
.xz
NUM_OF_IPS_IN_CRITICAL_IP_TRAINING: 64
NUM_OF_CRITICAL_IP_TRAINING_TABLE_WAYS: 2
NUM_OF_CRITICAL_IP_TRAINING_TABLE_SETS: 32
WOBBLY_CRITICAL_IP_CACHE_SETS: 32
WOBBLY_CRITICAL_IP_CACHE_WAYS: 4
BTB has LRU replacement policy
ITLB has LRU replacement policy
DTLB has LRU replacement policy
STLB has LRU replacement policy
L1I has LRU replacement policy
L1D has LRU replacement policy
Bingo PHT WAYS: 16 and PHT_SIZE: 16384
Initialize SRRIP state for L2C
Initialize DRRIP state for LLC
Heartbeat CPU 0 instructions: 10000000 cycles: 3243871 heartbeat IPC: 3.08274 cumulative IPC: 3.08274 (Simulation time: 0 hr 7 min 38 sec) 
Heartbeat CPU 0 instructions: 20000003 cycles: 6521025 heartbeat IPC: 3.05143 cumulative IPC: 3.067 (Simulation time: 0 hr 14 min 23 sec) 
Heartbeat CPU 0 instructions: 30000003 cycles: 9798038 heartbeat IPC: 3.05156 cumulative IPC: 3.06184 (Simulation time: 0 hr 20 min 9 sec) 
Heartbeat CPU 0 instructions: 40000002 cycles: 13056667 heartbeat IPC: 3.06877 cumulative IPC: 3.06357 (Simulation time: 0 hr 25 min 34 sec) 
Heartbeat CPU 0 instructions: 50000001 cycles: 16568265 heartbeat IPC: 2.84771 cumulative IPC: 3.01782 (Simulation time: 0 hr 31 min 52 sec) 

Warmup complete CPU 0 instructions: 50000001 cycles: 16568265 (Simulation time: 0 hr 31 min 52 sec) 

% increase in all ip prefetch 1463.36
% increase in all ip prefetch -28.7697
Heartbeat CPU 0 instructions: 60000000 cycles: 57282529 heartbeat IPC: 0.245614 cumulative IPC: 0.245614 (Simulation time: 0 hr 36 min 52 sec) 
Heartbeat CPU 0 instructions: 70000000 cycles: 103131836 heartbeat IPC: 0.218106 cumulative IPC: 0.231044 (Simulation time: 0 hr 41 min 43 sec) 
Heartbeat CPU 0 instructions: 80000001 cycles: 134800446 heartbeat IPC: 0.31577 cumulative IPC: 0.253738 (Simulation time: 0 hr 45 min 19 sec) 
Heartbeat CPU 0 instructions: 90000002 cycles: 167261500 heartbeat IPC: 0.308062 cumulative IPC: 0.26544 (Simulation time: 0 hr 48 min 38 sec) 
Heartbeat CPU 0 instructions: 100000001 cycles: 197932456 heartbeat IPC: 0.326041 cumulative IPC: 0.275688 (Simulation time: 0 hr 51 min 26 sec) 
Heartbeat CPU 0 instructions: 110000000 cycles: 248494764 heartbeat IPC: 0.197776 cumulative IPC: 0.258703 (Simulation time: 0 hr 53 min 53 sec) 
Heartbeat CPU 0 instructions: 120000000 cycles: 288507312 heartbeat IPC: 0.249922 cumulative IPC: 0.257411 (Simulation time: 0 hr 55 min 22 sec) 
Heartbeat CPU 0 instructions: 130000000 cycles: 323683951 heartbeat IPC: 0.28428 cumulative IPC: 0.260488 (Simulation time: 0 hr 56 min 41 sec) 
Heartbeat CPU 0 instructions: 140000000 cycles: 367498272 heartbeat IPC: 0.228236 cumulative IPC: 0.256461 (Simulation time: 0 hr 57 min 53 sec) 
Heartbeat CPU 0 instructions: 150000001 cycles: 429203455 heartbeat IPC: 0.162061 cumulative IPC: 0.242345 (Simulation time: 0 hr 59 min 10 sec) 
Finished CPU 0 instructions: 100000000 cycles: 412635190 cumulative IPC: 0.242345 (Simulation time: 0 hr 59 min 10 sec) 

ChampSim completed all CPUs

Region of Interest Statistics

CPU 0 cumulative IPC: 0.242345 instructions: 100000000 cycles: 412635190

CPU 0 Average Load ROB stall cycles: 3.82087e+07
CPU 0 Fraction of times ROB stalled by Loads: 17.8631
CPU 0 Percentage of Load stall cycles in Total stall cycles: 2.71836e+08
 Total stall cycles: 331641687
 Total load stall cycles: 901522855122063
CPU 0 NUM of IPS identified critical: 0

Threshold modification factor: -1
Max PIST entries: 32
Min PIST entries: 0
Avg PIST entries: 14.34
Average ROB occupancy Load Stall Begin: 25.3565
Average ROB occupancy Load Stall End: 29.5219
Min ROB occupancy Load Stall Begin: 1
Max ROB occupancy Load Stall Begin: 351
Min ROB occupancy Load Stall End: 1
Max ROB occupancy Load Stall End: 352
Average ROB occupancy Critical Load Stall Begin: -nan
Average ROB occupancy Critical Load Stall End: -nan
Min ROB occupancy Critical Load Stall Begin: 400
Max ROB occupancy Critical Load Stall Begin: 0
Min ROB occupancy Critical Load Stall End: 400
Max ROB occupancy Critical Load Stall End: 0
 ROB Load Stall Begin Bucket Count 0: 3935704
 ROB Load Stall End Bucket Count 0: 3885985
 ROB Critical Load Stall Begin Bucket Count 0: 0
 ROB Critical Load Stall End Bucket Count 0: 0
 ROB Load Stall Begin Bucket Count 1: 179347
 ROB Load Stall End Bucket Count 1: 213460
 ROB Critical Load Stall Begin Bucket Count 1: 0
 ROB Critical Load Stall End Bucket Count 1: 0
 ROB Load Stall Begin Bucket Count 2: 55471
 ROB Load Stall End Bucket Count 2: 66405
 ROB Critical Load Stall Begin Bucket Count 2: 0
 ROB Critical Load Stall End Bucket Count 2: 0
 ROB Load Stall Begin Bucket Count 3: 20974
 ROB Load Stall End Bucket Count 3: 23269
 ROB Critical Load Stall Begin Bucket Count 3: 0
 ROB Critical Load Stall End Bucket Count 3: 0
 ROB Load Stall Begin Bucket Count 4: 9204
 ROB Load Stall End Bucket Count 4: 10297
 ROB Critical Load Stall Begin Bucket Count 4: 0
 ROB Critical Load Stall End Bucket Count 4: 0
 ROB Load Stall Begin Bucket Count 5: 4919
 ROB Load Stall End Bucket Count 5: 5326
 ROB Critical Load Stall Begin Bucket Count 5: 0
 ROB Critical Load Stall End Bucket Count 5: 0
 ROB Load Stall Begin Bucket Count 6: 9112
 ROB Load Stall End Bucket Count 6: 9989
 ROB Critical Load Stall Begin Bucket Count 6: 0
 ROB Critical Load Stall End Bucket Count 6: 0
PIST Tag Read Accesses: 50486
PIST Read Accesses: 25243
PIST Tag Write Accesses: 50486
PIST Write Accesses: 25243
Criticality detector called times: 741542
Max global_stall_cycles_count: 61999
Threshold Modified: 1 times, factor: -1
Sturdy critical IP cache stats: 
 Unused entries: 0
CIC Tag Read Accesses: 0
CIC Read Accesses: 0
CIC Tag Write Accesses: 0
CIC Write Accesses: 0
Wobbly critical IP cache stats: 
 Unused entries: 121
CIC Tag Read Accesses: 200753307
CIC Read Accesses: 0
CIC Tag Write Accesses: 7
CIC Write Accesses: 0
ITLB TOTAL     ACCESS:   17689150  HIT:   17689150  MISS:          0  HIT %:        100  MISS %:          0   MPKI: 0
ITLB LOAD TRANSLATION ACCESS:   17689150  HIT:   17689150  MISS:          0  HIT %:        100  MISS %:          0   MPKI: 0
ITLB PREFETCHES SAME FILL-ORIGIN LEVEL: 0 DIFFERENT FILL-ORIGIN LEVEL: 0
ITLB AVERAGE MISS LATENCY: -nan cycles
ITLB RQ	ACCESS:   18118092	FORWARD:          0	MERGED:     428943	TO_CACHE:   17689149

DTLB TOTAL     ACCESS:   32473072  HIT:   30849523  MISS:    1623549  HIT %:    95.0003  MISS %:    4.99968   MPKI: 16.2355
DTLB LOAD TRANSLATION ACCESS:   32473072  HIT:   30849523  MISS:    1623549  HIT %:    95.0003  MISS %:    4.99968   MPKI: 16.2355
DTLB PREFETCHES SAME FILL-ORIGIN LEVEL: 0 DIFFERENT FILL-ORIGIN LEVEL: 0
DTLB AVERAGE MISS LATENCY: 66.0491 cycles
DTLB RQ	ACCESS:   38539021	FORWARD:          0	MERGED:    5603140	TO_CACHE:   32935881

STLB TOTAL     ACCESS:    1623549  HIT:     815913  MISS:     807636  HIT %:    50.2549  MISS %:    49.7451   MPKI: 8.07636
STLB LOAD TRANSLATION ACCESS:    1623549  HIT:     815913  MISS:     807636  HIT %:    50.2549  MISS %:    49.7451   MPKI: 8.07636
STLB PREFETCHES SAME FILL-ORIGIN LEVEL: 0 DIFFERENT FILL-ORIGIN LEVEL: 0
STLB AVERAGE MISS LATENCY: 114.583 cycles
STLB RQ	ACCESS:    1623549	FORWARD:          0	MERGED:          0	TO_CACHE:    1623549

STLB Hit, L1D data hit: 0
STLB Hit, L2C data hit: 0
STLB Hit, LLC data hit: 0
STLB Hit, LLC data miss: 0
STLB STLB hints to L2: 0
L1D TOTAL     ACCESS:   38452295  HIT:   34878726  MISS:    3573569  HIT %:    90.7065  MISS %:    9.29351   MPKI: 35.7357
L1D LOAD      ACCESS:   28448529  HIT:   24900709  MISS:    3547820  HIT %:     87.529  MISS %:     12.471   MPKI: 35.4782
L1D RFO       ACCESS:   10003766  HIT:    9978017  MISS:      25749  HIT %:    99.7426  MISS %:   0.257393   MPKI: 0.25749
L1D PREFETCHES SAME FILL-ORIGIN LEVEL: 0 DIFFERENT FILL-ORIGIN LEVEL: 0
L1D AVERAGE MISS LATENCY: 103.174 cycles
L1D RQ	ACCESS:   33834305	FORWARD:          0	MERGED:    2986826	TO_CACHE:   28490587
L1D WQ	ACCESS:   10094511	FORWARD:    2356892	MERGED:      46077	TO_CACHE:   10048434

L1D UNIQUE REGIONS ACCESSED: 0
L1D REGIONS CONFLICTS: 0
L1D Cross Page Prefetch Requests: 0
L1D Same Page Prefetch Requests: 0
L1D ROI Sum of L1D PQ occupancy: 0
L1D PREFETCHES PUSHED FROM L2C: 0
L1I TOTAL     ACCESS:   18118093  HIT:   18118093  MISS:          0  HIT %:        100  MISS %:          0   MPKI: 0
L1I LOAD      ACCESS:   18118093  HIT:   18118093  MISS:          0  HIT %:        100  MISS %:          0   MPKI: 0
L1I PREFETCHES SAME FILL-ORIGIN LEVEL: 0 DIFFERENT FILL-ORIGIN LEVEL: 0
L1I AVERAGE MISS LATENCY: -nan cycles
L1I RQ	ACCESS:   28694018	FORWARD:          0	MERGED:   10575926	TO_CACHE:   18118092

BTB TOTAL     ACCESS:   23415583  HIT:   22036176  MISS:    1379407  HIT %:     94.109  MISS %:    5.89098   MPKI: 13.7941
BTB BRANCH_DIRECT_JUMP	ACCESS:    2277732  HIT:    2277711  MISS:         21
BTB BRANCH_INDIRECT	ACCESS:          0  HIT:          0  MISS:          0
BTB BRANCH_CONDITIONAL	ACCESS:   14850308  HIT:   14850266  MISS:         42
BTB BRANCH_DIRECT_CALL	ACCESS:    3040680  HIT:    3040667  MISS:         13
BTB BRANCH_INDIRECT_CALL	ACCESS:     103096  HIT:     103088  MISS:          8
BTB BRANCH_RETURN	ACCESS:    3143767  HIT:    1764444  MISS:    1379323
BTB BRANCH_OTHER ACCESS:          0  HIT:          0  MISS:          0

L2C TOTAL     ACCESS:    6613047  HIT:    3326558  MISS:    3286489  HIT %:     50.303  MISS %:     49.697   MPKI: 32.8649
L2C LOAD      ACCESS:    3547816  HIT:    1416347  MISS:    2131469  HIT %:    39.9217  MISS %:    60.0783   MPKI: 21.3147
L2C DATA LOAD MPKI: 21.3147
L2C INSTRUCTION LOAD MPKI: 0
L2C RFO       ACCESS:      25749  HIT:      22051  MISS:       3698  HIT %:    85.6383  MISS %:    14.3617   MPKI: 0.03698
L2C PREFETCH  ACCESS:    1458422  HIT:     623534  MISS:     834888  HIT %:     42.754  MISS %:     57.246   MPKI: 8.34888
L2C DATA PREFETCH MPKI: 8.34888
L2C INSTRUCTION PREFETCH MPKI: 0
L2C WRITEBACK ACCESS:     240949  HIT:     240398  MISS:        551  HIT %:    99.7713  MISS %:   0.228679   MPKI: 0.00551
L2C LOAD TRANSLATION ACCESS:    1340111  HIT:    1024228  MISS:     315883  HIT %:    76.4286  MISS %:    23.5714   MPKI: 3.15883
L2C PREFETCH  REQUESTED:    2048303  ISSUED:    2048303  USEFUL:     286954  USELESS:     548605
L2C USEFUL LOAD PREFETCHES:     286954 PREFETCH ISSUED TO LOWER LEVEL:     997534  ACCURACY: 28.7663
L2C TIMELY PREFETCHES:     286954 LATE PREFETCHES: 162646 DROPPED PREFETCHES: 0
L2C PREFETCHES SAME FILL-ORIGIN LEVEL: 997534 DIFFERENT FILL-ORIGIN LEVEL: 0
L2C AVERAGE MISS LATENCY: 156.262 cycles
L2C RQ	ACCESS:    4913680	FORWARD:          0	MERGED:          0	TO_CACHE:    4913676
L2C WQ	ACCESS:     240949	FORWARD:          7	MERGED:          0	TO_CACHE:     240949
L2C PQ	ACCESS:    2048303	FORWARD:          0	MERGED:          0	TO_CACHE:    2048300

L2C Instructions Evicting Data0
L2C Translations Evicting Data279611
L2C Data Evicting Data2689553
L2C Instructions Evicting Instructions0
L2C Translations Evicting Instructions0
L2C Data Evicting Instructions0
L2C Instructions Evicting Translations0
L2C Translations Evicting Translations36272
L2C Data Evicting Translations280502
L2C Dense regions hint from L2: 0
PSCL5 TOTAL     ACCESS:     807636  HIT:     807636  MISS:          0  HIT %:        100  MISS %:          0   MPKI: 0
PSCL5 LOAD TRANSLATION ACCESS:     807636  HIT:     807636  MISS:          0  HIT %:        100  MISS %:          0   MPKI: 0
PSCL5 PREFETCHES SAME FILL-ORIGIN LEVEL: 0 DIFFERENT FILL-ORIGIN LEVEL: 0

PSCL4 TOTAL     ACCESS:     807636  HIT:     807636  MISS:          0  HIT %:        100  MISS %:          0   MPKI: 0
PSCL4 LOAD TRANSLATION ACCESS:     807636  HIT:     807636  MISS:          0  HIT %:        100  MISS %:          0   MPKI: 0
PSCL4 PREFETCHES SAME FILL-ORIGIN LEVEL: 0 DIFFERENT FILL-ORIGIN LEVEL: 0

PSCL3 TOTAL     ACCESS:     807636  HIT:     807636  MISS:          0  HIT %:        100  MISS %:          0   MPKI: 0
PSCL3 LOAD TRANSLATION ACCESS:     807636  HIT:     807636  MISS:          0  HIT %:        100  MISS %:          0   MPKI: 0
PSCL3 PREFETCHES SAME FILL-ORIGIN LEVEL: 0 DIFFERENT FILL-ORIGIN LEVEL: 0

PSCL2 TOTAL     ACCESS:     807636  HIT:     275154  MISS:     532482  HIT %:    34.0691  MISS %:    65.9309   MPKI: 5.32482
PSCL2 LOAD TRANSLATION ACCESS:     807636  HIT:     275154  MISS:     532482  HIT %:    34.0691  MISS %:    65.9309   MPKI: 5.32482
PSCL2 PREFETCHES SAME FILL-ORIGIN LEVEL: 0 DIFFERENT FILL-ORIGIN LEVEL: 0

LLC TOTAL     ACCESS:    3421987  HIT:    1059728  MISS:    2362259  HIT %:    30.9682  MISS %:    69.0318   MPKI: 23.6226
LLC LOAD      ACCESS:    1968861  HIT:     618246  MISS:    1350615  HIT %:    31.4012  MISS %:    68.5988   MPKI: 13.5061
LLC RFO       ACCESS:       3660  HIT:       2017  MISS:       1643  HIT %:    55.1093  MISS %:    44.8907   MPKI: 0.01643
LLC PREFETCH  ACCESS:     997529  HIT:     207055  MISS:     790474  HIT %:    20.7568  MISS %:    79.2432   MPKI: 7.90474
LLC WRITEBACK ACCESS:     136054  HIT:     120200  MISS:      15854  HIT %:    88.3473  MISS %:    11.6527   MPKI: 0.15854
LLC LOAD TRANSLATION ACCESS:     315883  HIT:     112210  MISS:     203673  HIT %:    35.5226  MISS %:    64.4774   MPKI: 2.03673
LLC PREFETCHES SAME FILL-ORIGIN LEVEL: 0 DIFFERENT FILL-ORIGIN LEVEL: 0
LLC AVERAGE MISS LATENCY: 178.105 cycles
LLC RQ	ACCESS:    2288404	FORWARD:          0	MERGED:          0	TO_CACHE:    2288404
LLC WQ	ACCESS:     136054	FORWARD:          5	MERGED:          0	TO_CACHE:     136054
LLC PQ	ACCESS:     997534	FORWARD:          0	MERGED:          0	TO_CACHE:     997529

LLC Dense regions hint to LLC: 0

RAW hits: 862706
Loads Generated: 34697014
Loads sent to L1D: 33834305
Stores Generated: 10094507
Stores sent to L1D: 10094511
Major fault: 0 Minor fault: 167017
Allocated PAGES: 167017
[Bingo] PHT Access: 1429929
[Bingo] PHT Hit PC+Addr: 142972
[Bingo] PHT Hit PC+Offs: 1286889
[Bingo] PHT Miss: 68
[Bingo] Prefetch PC+Addr: 0
[Bingo] Prefetch PC+Offs: 0
[Bingo] Useful PC+Addr: 0
[Bingo] Useful PC+Offs: 0
[Bingo] Useless PC+Addr: 0
[Bingo] Useless PC+Offs: 0
[Bingo] L1 Prefetch per Region: 0
[Bingo] L2 Prefetch per Region: 2.45183
[Bingo] L3 Prefetch per Region: 0
[Bingo] No Prefetch per Region: 29.5482
[Bingo] Number of Voters Mean: 15.9959
[Bingo] Number of Voters SD: 10.9437
PHT read accesses: 21917423
PHT write accesses: 1163927
AT read accesses: 2129014
AT write accesses: 3274859
FT read accesses: 3524740
FT write accesses: 1429929
PS read accesses: 2869006
PS write accesses: 1429861
PHT tag read accesses: 57069427
PHT tag write accesses: 1306899
AT tag read accesses: 165082260
AT tag write accesses: 3292941
FT tag read accesses: 149351311
FT tag write accesses: 3783787
PS tag read accesses: 107382899
PS tag write accesses: 4296818

DRAM Statistics
 CHANNEL 0
 RQ ROW_BUFFER_HIT:     289162  ROW_BUFFER_MISS:    2057242
 DBUS_CONGESTED:        124
 WQ ROW_BUFFER_HIT:      25625  ROW_BUFFER_MISS:      73911  FULL:          0

 AVG_CONGESTED_CYCLE: 4
 All warmup complete: 2
Channel 0 Bank busy for read cycles: 0
Channel 0 Bank busy for write cycles: 0
Channel 0
Rank 0
0banks busy for read cycles: 242210585
0banks busy for write cycles: 75180
1banks busy for read cycles: 57092321
1banks busy for write cycles: 13823924
2banks busy for read cycles: 58500094
2banks busy for write cycles: 2533112
3banks busy for read cycles: 18728020
3banks busy for write cycles: 578062
4banks busy for read cycles: 10326506
4banks busy for write cycles: 160604
5banks busy for read cycles: 3860326
5banks busy for write cycles: 43875
6banks busy for read cycles: 2062394
6banks busy for write cycles: 12098
7banks busy for read cycles: 1208045
7banks busy for write cycles: 2664
8banks busy for read cycles: 1416466
8banks busy for write cycles: 915

CPU 0 Branch Prediction Accuracy: 94.6877% MPKI: 13.1818 Average ROB Occupancy at Mispredict: 23.3147
Branch types
NOT_BRANCH: 75185764 75.1858%
BRANCH_DIRECT_JUMP: 2277732 2.27773%
BRANCH_INDIRECT: 0 0%
BRANCH_CONDITIONAL: 16248591 16.2486%
BRANCH_DIRECT_CALL: 3040680 3.04068%
BRANCH_INDIRECT_CALL: 103096 0.103096%
BRANCH_RETURN: 3143767 3.14377%
BRANCH_OTHER: 0 0%

DRAM PAGES: 1048576
Allocated PAGES: 167017
