
*** ChampSim Multicore Out-of-Order Simulator ***

Warmup Instructions: 50000000
Simulation Instructions: 100000000
Number of CPUs: 1
LLC sets: 2048
LLC ways: 16
Off-chip DRAM Size: 4096 MB Channels: 1 Width: 64-bit Data Rate: 6400 MT/s
CPU 0 runs ../SPEC2017//605.mcf_s-1152B.champsimtrace.xz
.xz
BTB has LRU replacement policy
ITLB has LRU replacement policy
DTLB has LRU replacement policy
STLB has LRU replacement policy
L1I has LRU replacement policy
L1D has LRU replacement policy
Bingo PHT WAYS: 16 and PHT_SIZE: 16384
Initialize SRRIP state for L2C
Initialize DRRIP state for LLC
Heartbeat CPU 0 instructions: 10000001 cycles: 3330146 heartbeat IPC: 3.00287 cumulative IPC: 3.00287 (Simulation time: 0 hr 8 min 29 sec) 
Heartbeat CPU 0 instructions: 20000000 cycles: 6661489 heartbeat IPC: 3.00179 cumulative IPC: 3.00233 (Simulation time: 0 hr 16 min 2 sec) 
Heartbeat CPU 0 instructions: 30000001 cycles: 9990213 heartbeat IPC: 3.00415 cumulative IPC: 3.00294 (Simulation time: 0 hr 22 min 30 sec) 
Heartbeat CPU 0 instructions: 40000001 cycles: 13321635 heartbeat IPC: 3.00172 cumulative IPC: 3.00263 (Simulation time: 0 hr 28 min 33 sec) 
Heartbeat CPU 0 instructions: 50000001 cycles: 16656159 heartbeat IPC: 2.99893 cumulative IPC: 3.00189 (Simulation time: 0 hr 34 min 0 sec) 

Warmup complete CPU 0 instructions: 50000001 cycles: 16656159 (Simulation time: 0 hr 34 min 0 sec) 

Heartbeat CPU 0 instructions: 60000001 cycles: 51253717 heartbeat IPC: 0.289038 cumulative IPC: 0.289038 (Simulation time: 0 hr 40 min 29 sec) 
Heartbeat CPU 0 instructions: 70000001 cycles: 86078395 heartbeat IPC: 0.287153 cumulative IPC: 0.288092 (Simulation time: 0 hr 46 min 34 sec) 
Heartbeat CPU 0 instructions: 80000001 cycles: 120490990 heartbeat IPC: 0.290591 cumulative IPC: 0.28892 (Simulation time: 0 hr 52 min 30 sec) 
Heartbeat CPU 0 instructions: 90000003 cycles: 155056384 heartbeat IPC: 0.289307 cumulative IPC: 0.289017 (Simulation time: 0 hr 57 min 46 sec) 
Heartbeat CPU 0 instructions: 100000001 cycles: 189693630 heartbeat IPC: 0.288707 cumulative IPC: 0.288955 (Simulation time: 1 hr 2 min 9 sec) 
Heartbeat CPU 0 instructions: 110000000 cycles: 224260269 heartbeat IPC: 0.289296 cumulative IPC: 0.289012 (Simulation time: 1 hr 6 min 28 sec) 
Heartbeat CPU 0 instructions: 120000002 cycles: 258949162 heartbeat IPC: 0.288277 cumulative IPC: 0.288906 (Simulation time: 1 hr 10 min 11 sec) 
Heartbeat CPU 0 instructions: 130000002 cycles: 293753725 heartbeat IPC: 0.287319 cumulative IPC: 0.288707 (Simulation time: 1 hr 13 min 23 sec) 
Heartbeat CPU 0 instructions: 140000003 cycles: 328787119 heartbeat IPC: 0.285442 cumulative IPC: 0.288341 (Simulation time: 1 hr 15 min 50 sec) 
Heartbeat CPU 0 instructions: 150000001 cycles: 363328633 heartbeat IPC: 0.289507 cumulative IPC: 0.288457 (Simulation time: 1 hr 18 min 15 sec) 
Finished CPU 0 instructions: 100000000 cycles: 346672474 cumulative IPC: 0.288457 (Simulation time: 1 hr 18 min 15 sec) 

ChampSim completed all CPUs

Region of Interest Statistics

CPU 0 cumulative IPC: 0.288457 instructions: 100000000 cycles: 346672474

CPU 0 Average Load ROB stall cycles: 8.06736e+07
CPU 0 Fraction of times ROB stalled by Loads: 43.1844
CPU 0 Percentage of Load stall cycles in Total stall cycles: 7.81973e+08
Issued all: 57722779
Issued LT all: 45440773
rob_not_full_when_issued_lt_all: 42048884
Issued LT one: 35390486
rob_not_full_when_issued_lt_one: 32545168
FVP critical_dynamic_instances_0: 27293661
FVP unique_critical_ips_0: 170
 Total stall cycles: 298501098
 Total load stall cycles: 2334197803427631
Unique Load IPs: 262
CPU 0 NUM of IPS identified critical: 0
CPU 0 Num of Load IPs stalling ROB: 0
Threshold modification factor: 0
Trouble in retire width: -nan
MaC = Marked as critical.
lt_50_percent_before_Mac: 0
gt_90_percent_before_Mac: 0
gt_75_percent_before_Mac: 0
gt_50_percent_before_Mac: 0
stall_proportion_bin_same_before_after: 0
stall_proportion_bin_lower_before_after: 0
stall_proportion_bin_upper_before_after: 0
average_stall_proportion_before: -nan
average_stall_proportion_after: -nan
Critical IP stalls, total frequency: 0
Non-critical IP stalls, total frequency: 0
Total Freq all stalling IPs: 0
Critical_IP_Detector_Accuracy_70: 0.00588235
Critical_IP_Detector_Accuracy_80: 0.00588235
Critical_IP_Detector_Accuracy_90: 0.00588235
Critical_IP_Detector_Coverage_70: 1
Critical_IP_Detector_Coverage_80: 1
Critical_IP_Detector_Coverage_90: 1
stat_90_percent_critical_ip_stalls_freq: 2034662
stat_90_percent_non_critical_ip_stalls_freq: 18446744073707516954
AVERAGE_ROB_Occupancy_90_Percent_Critical_IP_Stalls: 38.8777
AVERAGE_ROB_Occupancy_90_Percent_Non_Critical_IP_Stalls: 2.08448e-11
Critical_IP_ROB_Stalls_Bucket_0: 0
Non-critical_IP_ROB_Stalls_Bucket_0: 10255904
Critical_IP_ROB_Stalls_Bucket_1: 0
Non-critical_IP_ROB_Stalls_Bucket_1: 1258613
Critical_IP_ROB_Stalls_Bucket_2: 0
Non-critical_IP_ROB_Stalls_Bucket_2: 415231
Critical_IP_ROB_Stalls_Bucket_3: 0
Non-critical_IP_ROB_Stalls_Bucket_3: 179100
Critical_IP_ROB_Stalls_Bucket_4: 0
Non-critical_IP_ROB_Stalls_Bucket_4: 113097
Critical_IP_ROB_Stalls_Bucket_5: 0
Non-critical_IP_ROB_Stalls_Bucket_5: 75018
Critical_IP_ROB_Stalls_Bucket_6: 0
Non-critical_IP_ROB_Stalls_Bucket_6: 197940
0 => IPs accounting for >50 percent of stalls, 1 => 55, 2 => 60, 3 => 65 and so on till 90.
percent50: inf num IPs:  1
percent55: inf num IPs: 1
percent60: inf num IPs: 1
percent65: inf num IPs: 1
percent70: inf num IPs: 1
percent75: inf num IPs: 1
percent80: inf num IPs: 1
percent85: inf num IPs: 1
percent90: inf num IPs: 1
Critical_ROB_Stalls_Percent_0_Bucket_0: 1653076
Non-critical_ROB_Stalls_Percent_0_Bucket_0: 8602828
Critical_ROB_Stalls_Percent_0_Bucket_1: 187275
Non-critical_ROB_Stalls_Percent_0_Bucket_1: 1071338
Critical_ROB_Stalls_Percent_0_Bucket_2: 78585
Non-critical_ROB_Stalls_Percent_0_Bucket_2: 336646
Critical_ROB_Stalls_Percent_0_Bucket_3: 28627
Non-critical_ROB_Stalls_Percent_0_Bucket_3: 150473
Critical_ROB_Stalls_Percent_0_Bucket_4: 20982
Non-critical_ROB_Stalls_Percent_0_Bucket_4: 92115
Critical_ROB_Stalls_Percent_0_Bucket_5: 15579
Non-critical_ROB_Stalls_Percent_0_Bucket_5: 59439
Critical_ROB_Stalls_Percent_0_Bucket_6: 50538
Non-critical_ROB_Stalls_Percent_0_Bucket_6: 147402
Critical_ROB_Stalls_Percent_1_Bucket_0: 1653076
Non-critical_ROB_Stalls_Percent_1_Bucket_0: 8602828
Critical_ROB_Stalls_Percent_1_Bucket_1: 187275
Non-critical_ROB_Stalls_Percent_1_Bucket_1: 1071338
Critical_ROB_Stalls_Percent_1_Bucket_2: 78585
Non-critical_ROB_Stalls_Percent_1_Bucket_2: 336646
Critical_ROB_Stalls_Percent_1_Bucket_3: 28627
Non-critical_ROB_Stalls_Percent_1_Bucket_3: 150473
Critical_ROB_Stalls_Percent_1_Bucket_4: 20982
Non-critical_ROB_Stalls_Percent_1_Bucket_4: 92115
Critical_ROB_Stalls_Percent_1_Bucket_5: 15579
Non-critical_ROB_Stalls_Percent_1_Bucket_5: 59439
Critical_ROB_Stalls_Percent_1_Bucket_6: 50538
Non-critical_ROB_Stalls_Percent_1_Bucket_6: 147402
Critical_ROB_Stalls_Percent_2_Bucket_0: 1653076
Non-critical_ROB_Stalls_Percent_2_Bucket_0: 8602828
Critical_ROB_Stalls_Percent_2_Bucket_1: 187275
Non-critical_ROB_Stalls_Percent_2_Bucket_1: 1071338
Critical_ROB_Stalls_Percent_2_Bucket_2: 78585
Non-critical_ROB_Stalls_Percent_2_Bucket_2: 336646
Critical_ROB_Stalls_Percent_2_Bucket_3: 28627
Non-critical_ROB_Stalls_Percent_2_Bucket_3: 150473
Critical_ROB_Stalls_Percent_2_Bucket_4: 20982
Non-critical_ROB_Stalls_Percent_2_Bucket_4: 92115
Critical_ROB_Stalls_Percent_2_Bucket_5: 15579
Non-critical_ROB_Stalls_Percent_2_Bucket_5: 59439
Critical_ROB_Stalls_Percent_2_Bucket_6: 50538
Non-critical_ROB_Stalls_Percent_2_Bucket_6: 147402
Critical_ROB_Stalls_Percent_3_Bucket_0: 1653076
Non-critical_ROB_Stalls_Percent_3_Bucket_0: 8602828
Critical_ROB_Stalls_Percent_3_Bucket_1: 187275
Non-critical_ROB_Stalls_Percent_3_Bucket_1: 1071338
Critical_ROB_Stalls_Percent_3_Bucket_2: 78585
Non-critical_ROB_Stalls_Percent_3_Bucket_2: 336646
Critical_ROB_Stalls_Percent_3_Bucket_3: 28627
Non-critical_ROB_Stalls_Percent_3_Bucket_3: 150473
Critical_ROB_Stalls_Percent_3_Bucket_4: 20982
Non-critical_ROB_Stalls_Percent_3_Bucket_4: 92115
Critical_ROB_Stalls_Percent_3_Bucket_5: 15579
Non-critical_ROB_Stalls_Percent_3_Bucket_5: 59439
Critical_ROB_Stalls_Percent_3_Bucket_6: 50538
Non-critical_ROB_Stalls_Percent_3_Bucket_6: 147402
Critical_ROB_Stalls_Percent_4_Bucket_0: 1653076
Non-critical_ROB_Stalls_Percent_4_Bucket_0: 8602828
Critical_ROB_Stalls_Percent_4_Bucket_1: 187275
Non-critical_ROB_Stalls_Percent_4_Bucket_1: 1071338
Critical_ROB_Stalls_Percent_4_Bucket_2: 78585
Non-critical_ROB_Stalls_Percent_4_Bucket_2: 336646
Critical_ROB_Stalls_Percent_4_Bucket_3: 28627
Non-critical_ROB_Stalls_Percent_4_Bucket_3: 150473
Critical_ROB_Stalls_Percent_4_Bucket_4: 20982
Non-critical_ROB_Stalls_Percent_4_Bucket_4: 92115
Critical_ROB_Stalls_Percent_4_Bucket_5: 15579
Non-critical_ROB_Stalls_Percent_4_Bucket_5: 59439
Critical_ROB_Stalls_Percent_4_Bucket_6: 50538
Non-critical_ROB_Stalls_Percent_4_Bucket_6: 147402
Critical_ROB_Stalls_Percent_5_Bucket_0: 1653076
Non-critical_ROB_Stalls_Percent_5_Bucket_0: 8602828
Critical_ROB_Stalls_Percent_5_Bucket_1: 187275
Non-critical_ROB_Stalls_Percent_5_Bucket_1: 1071338
Critical_ROB_Stalls_Percent_5_Bucket_2: 78585
Non-critical_ROB_Stalls_Percent_5_Bucket_2: 336646
Critical_ROB_Stalls_Percent_5_Bucket_3: 28627
Non-critical_ROB_Stalls_Percent_5_Bucket_3: 150473
Critical_ROB_Stalls_Percent_5_Bucket_4: 20982
Non-critical_ROB_Stalls_Percent_5_Bucket_4: 92115
Critical_ROB_Stalls_Percent_5_Bucket_5: 15579
Non-critical_ROB_Stalls_Percent_5_Bucket_5: 59439
Critical_ROB_Stalls_Percent_5_Bucket_6: 50538
Non-critical_ROB_Stalls_Percent_5_Bucket_6: 147402
Critical_ROB_Stalls_Percent_6_Bucket_0: 1653076
Non-critical_ROB_Stalls_Percent_6_Bucket_0: 8602828
Critical_ROB_Stalls_Percent_6_Bucket_1: 187275
Non-critical_ROB_Stalls_Percent_6_Bucket_1: 1071338
Critical_ROB_Stalls_Percent_6_Bucket_2: 78585
Non-critical_ROB_Stalls_Percent_6_Bucket_2: 336646
Critical_ROB_Stalls_Percent_6_Bucket_3: 28627
Non-critical_ROB_Stalls_Percent_6_Bucket_3: 150473
Critical_ROB_Stalls_Percent_6_Bucket_4: 20982
Non-critical_ROB_Stalls_Percent_6_Bucket_4: 92115
Critical_ROB_Stalls_Percent_6_Bucket_5: 15579
Non-critical_ROB_Stalls_Percent_6_Bucket_5: 59439
Critical_ROB_Stalls_Percent_6_Bucket_6: 50538
Non-critical_ROB_Stalls_Percent_6_Bucket_6: 147402
Critical_ROB_Stalls_Percent_7_Bucket_0: 1653076
Non-critical_ROB_Stalls_Percent_7_Bucket_0: 8602828
Critical_ROB_Stalls_Percent_7_Bucket_1: 187275
Non-critical_ROB_Stalls_Percent_7_Bucket_1: 1071338
Critical_ROB_Stalls_Percent_7_Bucket_2: 78585
Non-critical_ROB_Stalls_Percent_7_Bucket_2: 336646
Critical_ROB_Stalls_Percent_7_Bucket_3: 28627
Non-critical_ROB_Stalls_Percent_7_Bucket_3: 150473
Critical_ROB_Stalls_Percent_7_Bucket_4: 20982
Non-critical_ROB_Stalls_Percent_7_Bucket_4: 92115
Critical_ROB_Stalls_Percent_7_Bucket_5: 15579
Non-critical_ROB_Stalls_Percent_7_Bucket_5: 59439
Critical_ROB_Stalls_Percent_7_Bucket_6: 50538
Non-critical_ROB_Stalls_Percent_7_Bucket_6: 147402
Critical_ROB_Stalls_Percent_8_Bucket_0: 1653076
Non-critical_ROB_Stalls_Percent_8_Bucket_0: 8602828
Critical_ROB_Stalls_Percent_8_Bucket_1: 187275
Non-critical_ROB_Stalls_Percent_8_Bucket_1: 1071338
Critical_ROB_Stalls_Percent_8_Bucket_2: 78585
Non-critical_ROB_Stalls_Percent_8_Bucket_2: 336646
Critical_ROB_Stalls_Percent_8_Bucket_3: 28627
Non-critical_ROB_Stalls_Percent_8_Bucket_3: 150473
Critical_ROB_Stalls_Percent_8_Bucket_4: 20982
Non-critical_ROB_Stalls_Percent_8_Bucket_4: 92115
Critical_ROB_Stalls_Percent_8_Bucket_5: 15579
Non-critical_ROB_Stalls_Percent_8_Bucket_5: 59439
Critical_ROB_Stalls_Percent_8_Bucket_6: 50538
Non-critical_ROB_Stalls_Percent_8_Bucket_6: 147402
Average ROB occupancy Load Stall Begin: 32.5701
Average ROB occupancy Load Stall End: 37.1048
Min ROB occupancy Load Stall Begin: 1
Max ROB occupancy Load Stall Begin: 352
Min ROB occupancy Load Stall End: 1
Max ROB occupancy Load Stall End: 352
Average ROB occupancy Critical Load Stall Begin: -nan
Average ROB occupancy Critical Load Stall End: -nan
Min ROB occupancy Critical Load Stall Begin: 400
Max ROB occupancy Critical Load Stall Begin: 0
Min ROB occupancy Critical Load Stall End: 400
Max ROB occupancy Critical Load Stall End: 0
 ROB Load Stall Begin Bucket Count 0: 10572479
 ROB Load Stall End Bucket Count 0: 10255904
 ROB Critical Load Stall Begin Bucket Count 0: 0
 ROB Critical Load Stall End Bucket Count 0: 0
 ROB Load Stall Begin Bucket Count 1: 1083538
 ROB Load Stall End Bucket Count 1: 1258613
 ROB Critical Load Stall Begin Bucket Count 1: 0
 ROB Critical Load Stall End Bucket Count 1: 0
 ROB Load Stall Begin Bucket Count 2: 324162
 ROB Load Stall End Bucket Count 2: 415231
 ROB Critical Load Stall Begin Bucket Count 2: 0
 ROB Critical Load Stall End Bucket Count 2: 0
 ROB Load Stall Begin Bucket Count 3: 158157
 ROB Load Stall End Bucket Count 3: 179100
 ROB Critical Load Stall Begin Bucket Count 3: 0
 ROB Critical Load Stall End Bucket Count 3: 0
 ROB Load Stall Begin Bucket Count 4: 99949
 ROB Load Stall End Bucket Count 4: 113097
 ROB Critical Load Stall Begin Bucket Count 4: 0
 ROB Critical Load Stall End Bucket Count 4: 0
 ROB Load Stall Begin Bucket Count 5: 70980
 ROB Load Stall End Bucket Count 5: 75018
 ROB Critical Load Stall Begin Bucket Count 5: 0
 ROB Critical Load Stall End Bucket Count 5: 0
 ROB Load Stall Begin Bucket Count 6: 185638
 ROB Load Stall End Bucket Count 6: 197940
 ROB Critical Load Stall Begin Bucket Count 6: 0
 ROB Critical Load Stall End Bucket Count 6: 0
PIST Tag Read Accesses: 0
PIST Read Accesses: 0
PIST Tag Write Accesses: 0
PIST Write Accesses: 0
Criticality detector called times: 0
Max global_stall_cycles_count: 0
Threshold Modified: 0 times, factor: 0
ITLB TOTAL     ACCESS:   17473683  HIT:   17473683  MISS:          0  HIT %:        100  MISS %:          0   MPKI: 0
ITLB LOAD TRANSLATION ACCESS:   17473683  HIT:   17473683  MISS:          0  HIT %:        100  MISS %:          0   MPKI: 0
ITLB PREFETCH  REQUESTED:          0  ISSUED:          0  USEFUL:          0  USELESS:          0
ITLB USEFUL LOAD PREFETCHES:          0 PREFETCH ISSUED TO LOWER LEVEL:          0  ACCURACY: -nan
ITLB TIMELY PREFETCHES:          0 LATE PREFETCHES: 0 DROPPED PREFETCHES: 0
ITLB PREFETCHES SAME FILL-ORIGIN LEVEL: 0 DIFFERENT FILL-ORIGIN LEVEL: 0
ITLB AVERAGE MISS LATENCY: -nan cycles
ITLB RQ	ACCESS:   18268568	FORWARD:          0	MERGED:     794885	TO_CACHE:   17473683

DTLB TOTAL     ACCESS:   28856770  HIT:   25914693  MISS:    2942077  HIT %:    89.8046  MISS %:    10.1954   MPKI: 29.4208
DTLB LOAD TRANSLATION ACCESS:   28856770  HIT:   25914693  MISS:    2942077  HIT %:    89.8046  MISS %:    10.1954   MPKI: 29.4208
DTLB PREFETCH  REQUESTED:          0  ISSUED:          0  USEFUL:          0  USELESS:          0
DTLB USEFUL LOAD PREFETCHES:          0 PREFETCH ISSUED TO LOWER LEVEL:          0  ACCURACY: -nan
DTLB TIMELY PREFETCHES:          0 LATE PREFETCHES: 0 DROPPED PREFETCHES: 0
DTLB PREFETCHES SAME FILL-ORIGIN LEVEL: 0 DIFFERENT FILL-ORIGIN LEVEL: 0
DTLB AVERAGE MISS LATENCY: 10.8037 cycles
DTLB RQ	ACCESS:   35123386	FORWARD:          0	MERGED:    6061582	TO_CACHE:   29061804

STLB TOTAL     ACCESS:    2942077  HIT:    2903831  MISS:      38246  HIT %:       98.7  MISS %:    1.29997   MPKI: 0.38246
STLB LOAD TRANSLATION ACCESS:    2942077  HIT:    2903831  MISS:      38246  HIT %:       98.7  MISS %:    1.29997   MPKI: 0.38246
STLB PREFETCH  REQUESTED:          0  ISSUED:          0  USEFUL:          0  USELESS:          0
STLB USEFUL LOAD PREFETCHES:          0 PREFETCH ISSUED TO LOWER LEVEL:          0  ACCURACY: -nan
STLB TIMELY PREFETCHES:          0 LATE PREFETCHES: 0 DROPPED PREFETCHES: 0
STLB PREFETCHES SAME FILL-ORIGIN LEVEL: 0 DIFFERENT FILL-ORIGIN LEVEL: 0
STLB AVERAGE MISS LATENCY: 119.501 cycles
STLB RQ	ACCESS:    2942077	FORWARD:          0	MERGED:          0	TO_CACHE:    2942077

STLB Hit, L1D data hit: 0
STLB Hit, L2C data hit: 0
STLB Hit, LLC data hit: 0
STLB Hit, LLC data miss: 0
STLB STLB hints to L2: 0
L1D TOTAL     ACCESS:   34487020  HIT:   28757150  MISS:    5729870  HIT %:    83.3854  MISS %:    16.6146   MPKI: 57.2987
L1D LOAD      ACCESS:   25188688  HIT:   19795056  MISS:    5393632  HIT %:    78.5871  MISS %:    21.4129   MPKI: 53.9363
L1D RFO       ACCESS:    9298332  HIT:    8962094  MISS:     336238  HIT %:    96.3839  MISS %:    3.61611   MPKI: 3.36238
L1D PREFETCH  REQUESTED:          0  ISSUED:          0  USEFUL:          0  USELESS:          0
L1D USEFUL LOAD PREFETCHES:          0 PREFETCH ISSUED TO LOWER LEVEL:          0  ACCURACY: -nan
L1D TIMELY PREFETCHES:          0 LATE PREFETCHES: 0 DROPPED PREFETCHES: 0
L1D PREFETCHES SAME FILL-ORIGIN LEVEL: 0 DIFFERENT FILL-ORIGIN LEVEL: 0
L1D AVERAGE MISS LATENCY: 45.0935 cycles
L1D RQ	ACCESS:   34108928	FORWARD:          0	MERGED:    7886959	TO_CACHE:   25248359
L1D WQ	ACCESS:    9921850	FORWARD:     973610	MERGED:      46823	TO_CACHE:    9875027

L1D UNIQUE REGIONS ACCESSED: 0
L1D REGIONS CONFLICTS: 0
L1D Cross Page Prefetch Requests: 0
L1D Same Page Prefetch Requests: 0
L1D ROI Sum of L1D PQ occupancy: 0
L1D PREFETCHES PUSHED FROM L2C: 0
L1I TOTAL     ACCESS:   18268568  HIT:   18268568  MISS:          0  HIT %:        100  MISS %:          0   MPKI: 0
L1I LOAD      ACCESS:   18268568  HIT:   18268568  MISS:          0  HIT %:        100  MISS %:          0   MPKI: 0
L1I PREFETCH  REQUESTED:          0  ISSUED:          0  USEFUL:          0  USELESS:          0
L1I USEFUL LOAD PREFETCHES:          0 PREFETCH ISSUED TO LOWER LEVEL:          0  ACCURACY: -nan
L1I TIMELY PREFETCHES:          0 LATE PREFETCHES: 0 DROPPED PREFETCHES: 0
L1I PREFETCHES SAME FILL-ORIGIN LEVEL: 0 DIFFERENT FILL-ORIGIN LEVEL: 0
L1I AVERAGE MISS LATENCY: -nan cycles
L1I RQ	ACCESS:   28568494	FORWARD:          0	MERGED:   10299926	TO_CACHE:   18268568

BTB TOTAL     ACCESS:   24144380  HIT:   23206832  MISS:     937548  HIT %:    96.1169  MISS %:    3.88309   MPKI: 9.37548
BTB BRANCH_DIRECT_JUMP	ACCESS:    2725127  HIT:    2725091  MISS:         36
BTB BRANCH_INDIRECT	ACCESS:          0  HIT:          0  MISS:          0
BTB BRANCH_CONDITIONAL	ACCESS:   17002725  HIT:   17002650  MISS:         75
BTB BRANCH_DIRECT_CALL	ACCESS:    2072101  HIT:    2072083  MISS:         18
BTB BRANCH_INDIRECT_CALL	ACCESS:     136160  HIT:     136152  MISS:          8
BTB BRANCH_RETURN	ACCESS:    2208267  HIT:    1270856  MISS:     937411
BTB BRANCH_OTHER ACCESS:          0  HIT:          0  MISS:          0

L2C TOTAL     ACCESS:    9549708  HIT:    4164972  MISS:    5384736  HIT %:    43.6136  MISS %:    56.3864   MPKI: 53.8474
L2C LOAD      ACCESS:    5393616  HIT:    2745989  MISS:    2647627  HIT %:    50.9118  MISS %:    49.0882   MPKI: 26.4763
L2C DATA LOAD MPKI: 26.4763
L2C INSTRUCTION LOAD MPKI: 0
L2C RFO       ACCESS:     336236  HIT:     253748  MISS:      82488  HIT %:    75.4672  MISS %:    24.5328   MPKI: 0.82488
L2C PREFETCH  ACCESS:    3297962  HIT:     660250  MISS:    2637712  HIT %:    20.0199  MISS %:    79.9801   MPKI: 26.3771
L2C DATA PREFETCH MPKI: 26.3771
L2C INSTRUCTION PREFETCH MPKI: 0
L2C WRITEBACK ACCESS:     483453  HIT:     480610  MISS:       2843  HIT %:    99.4119  MISS %:   0.588061   MPKI: 0.02843
L2C LOAD TRANSLATION ACCESS:      38441  HIT:      24375  MISS:      14066  HIT %:    63.4089  MISS %:    36.5911   MPKI: 0.14066
L2C PREFETCH  REQUESTED:    3506417  ISSUED:    3506417  USEFUL:    1680733  USELESS:     956185
L2C USEFUL LOAD PREFETCHES:    1680733 PREFETCH ISSUED TO LOWER LEVEL:    2746902  ACCURACY: 61.1865
L2C TIMELY PREFETCHES:    1680733 LATE PREFETCHES: 109189 DROPPED PREFETCHES: 0
L2C PREFETCHES SAME FILL-ORIGIN LEVEL: 2746902 DIFFERENT FILL-ORIGIN LEVEL: 0
L2C AVERAGE MISS LATENCY: 102.034 cycles
L2C RQ	ACCESS:    5768312	FORWARD:          0	MERGED:          0	TO_CACHE:    5768294
L2C WQ	ACCESS:     483453	FORWARD:         20	MERGED:          0	TO_CACHE:     483453
L2C PQ	ACCESS:    3506417	FORWARD:          0	MERGED:          3	TO_CACHE:    3506412

L2C Instructions Evicting Data 0
L2C Translations Evicting Data 14041
L2C Data Evicting Data 5353783
L2C Instructions Evicting Instructions 0
L2C Translations Evicting Instructions 0
L2C Data Evicting Instructions 0
L2C Instructions Evicting Translations 0
L2C Translations Evicting Translations 25
L2C Data Evicting Translations 14044
L2C Dense regions hint from L2: 0
PSCL5 TOTAL     ACCESS:      38246  HIT:      38246  MISS:          0  HIT %:        100  MISS %:          0   MPKI: 0
PSCL5 LOAD TRANSLATION ACCESS:      38246  HIT:      38246  MISS:          0  HIT %:        100  MISS %:          0   MPKI: 0
PSCL5 PREFETCH  REQUESTED:          0  ISSUED:          0  USEFUL:          0  USELESS:          0
PSCL5 USEFUL LOAD PREFETCHES:          0 PREFETCH ISSUED TO LOWER LEVEL:          0  ACCURACY: -nan
PSCL5 TIMELY PREFETCHES:          0 LATE PREFETCHES: 0 DROPPED PREFETCHES: 0
PSCL5 PREFETCHES SAME FILL-ORIGIN LEVEL: 0 DIFFERENT FILL-ORIGIN LEVEL: 0

PSCL4 TOTAL     ACCESS:      38246  HIT:      38246  MISS:          0  HIT %:        100  MISS %:          0   MPKI: 0
PSCL4 LOAD TRANSLATION ACCESS:      38246  HIT:      38246  MISS:          0  HIT %:        100  MISS %:          0   MPKI: 0
PSCL4 PREFETCH  REQUESTED:          0  ISSUED:          0  USEFUL:          0  USELESS:          0
PSCL4 USEFUL LOAD PREFETCHES:          0 PREFETCH ISSUED TO LOWER LEVEL:          0  ACCURACY: -nan
PSCL4 TIMELY PREFETCHES:          0 LATE PREFETCHES: 0 DROPPED PREFETCHES: 0
PSCL4 PREFETCHES SAME FILL-ORIGIN LEVEL: 0 DIFFERENT FILL-ORIGIN LEVEL: 0

PSCL3 TOTAL     ACCESS:      38246  HIT:      38246  MISS:          0  HIT %:        100  MISS %:          0   MPKI: 0
PSCL3 LOAD TRANSLATION ACCESS:      38246  HIT:      38246  MISS:          0  HIT %:        100  MISS %:          0   MPKI: 0
PSCL3 PREFETCH  REQUESTED:          0  ISSUED:          0  USEFUL:          0  USELESS:          0
PSCL3 USEFUL LOAD PREFETCHES:          0 PREFETCH ISSUED TO LOWER LEVEL:          0  ACCURACY: -nan
PSCL3 TIMELY PREFETCHES:          0 LATE PREFETCHES: 0 DROPPED PREFETCHES: 0
PSCL3 PREFETCHES SAME FILL-ORIGIN LEVEL: 0 DIFFERENT FILL-ORIGIN LEVEL: 0

PSCL2 TOTAL     ACCESS:      38246  HIT:      37852  MISS:        394  HIT %:    98.9698  MISS %:    1.03017   MPKI: 0.00394
PSCL2 LOAD TRANSLATION ACCESS:      38246  HIT:      37852  MISS:        394  HIT %:    98.9698  MISS %:    1.03017   MPKI: 0.00394
PSCL2 PREFETCH  REQUESTED:          0  ISSUED:          0  USEFUL:          0  USELESS:          0
PSCL2 USEFUL LOAD PREFETCHES:          0 PREFETCH ISSUED TO LOWER LEVEL:          0  ACCURACY: -nan
PSCL2 TIMELY PREFETCHES:          0 LATE PREFETCHES: 0 DROPPED PREFETCHES: 0
PSCL2 PREFETCHES SAME FILL-ORIGIN LEVEL: 0 DIFFERENT FILL-ORIGIN LEVEL: 0

LLC TOTAL     ACCESS:    5573442  HIT:    3295193  MISS:    2278249  HIT %:    59.1231  MISS %:    40.8769   MPKI: 22.7825
LLC LOAD      ACCESS:    2538438  HIT:    2104132  MISS:     434306  HIT %:    82.8908  MISS %:    17.1092   MPKI: 4.34306
LLC RFO       ACCESS:      82487  HIT:      80721  MISS:       1766  HIT %:    97.8591  MISS %:    2.14094   MPKI: 0.01766
LLC PREFETCH  ACCESS:    2746887  HIT:     917452  MISS:    1829435  HIT %:    33.3997  MISS %:    66.6003   MPKI: 18.2944
LLC WRITEBACK ACCESS:     191564  HIT:     184202  MISS:       7362  HIT %:    96.1569  MISS %:     3.8431   MPKI: 0.07362
LLC LOAD TRANSLATION ACCESS:      14066  HIT:       8686  MISS:       5380  HIT %:    61.7517  MISS %:    38.2483   MPKI: 0.0538
LLC PREFETCH  REQUESTED:          0  ISSUED:          0  USEFUL:      67569  USELESS:    1745931
LLC USEFUL LOAD PREFETCHES:      67569 PREFETCH ISSUED TO LOWER LEVEL:    1829436  ACCURACY: 3.69343
LLC TIMELY PREFETCHES:      67569 LATE PREFETCHES: 0 DROPPED PREFETCHES: 0
LLC PREFETCHES SAME FILL-ORIGIN LEVEL: 0 DIFFERENT FILL-ORIGIN LEVEL: 0
LLC AVERAGE MISS LATENCY: 171.893 cycles
LLC RQ	ACCESS:    2634992	FORWARD:          0	MERGED:          0	TO_CACHE:    2634991
LLC WQ	ACCESS:     191564	FORWARD:         15	MERGED:          0	TO_CACHE:     191564
LLC PQ	ACCESS:    2746902	FORWARD:          0	MERGED:          0	TO_CACHE:    2746888

LLC Dense regions hint to LLC: 0

RAW hits: 1309051
Loads Generated: 35417979
Loads sent to L1D: 34108928
Stores Generated: 9921850
Stores sent to L1D: 9921850
Major fault: 0 Minor fault: 38847
Allocated PAGES: 38847
[Bingo] PHT Access: 2628184
[Bingo] PHT Hit PC+Addr: 319614
[Bingo] PHT Hit PC+Offs: 2302675
[Bingo] PHT Miss: 5895
[Bingo] Prefetch PC+Addr: 0
[Bingo] Prefetch PC+Offs: 0
[Bingo] Useful PC+Addr: 0
[Bingo] Useful PC+Offs: 0
[Bingo] Useless PC+Addr: 0
[Bingo] Useless PC+Offs: 0
[Bingo] L1 Prefetch per Region: 0
[Bingo] L2 Prefetch per Region: 2.34899
[Bingo] L3 Prefetch per Region: 0
[Bingo] No Prefetch per Region: 29.651
[Bingo] Number of Voters Mean: 15.8795
[Bingo] Number of Voters SD: 2.22144
PHT read accesses: 39281114
PHT write accesses: 391236
AT read accesses: 2859039
AT write accesses: 3035310
FT read accesses: 1280673
FT write accesses: 2628184
PS read accesses: 5429515
PS write accesses: 2622289
PHT tag read accesses: 49236783
PHT tag write accesses: 710850
AT tag read accesses: 187619642
AT tag write accesses: 3250354
FT tag read accesses: 221053788
FT tag write accesses: 3516275
PS tag read accesses: 173683549
PS tag write accesses: 8035283

DRAM Statistics
 CHANNEL 0
 RQ ROW_BUFFER_HIT:    1353850  ROW_BUFFER_MISS:     917033
 DBUS_CONGESTED:        117
 WQ ROW_BUFFER_HIT:       1838  ROW_BUFFER_MISS:      15836  FULL:          0

 AVG_CONGESTED_CYCLE: 4
 All warmup complete: 2
Channel 0 Bank busy for read cycles: 0
Channel 0 Bank busy for write cycles: 0
Channel 0
Rank 0
0banks busy for read cycles: 268987416
0banks busy for write cycles: 15666
1banks busy for read cycles: 35650844
1banks busy for write cycles: 2650797
2banks busy for read cycles: 14562294
2banks busy for write cycles: 265938
3banks busy for read cycles: 6238500
3banks busy for write cycles: 31893
4banks busy for read cycles: 3031761
4banks busy for write cycles: 4551
5banks busy for read cycles: 1937076
5banks busy for write cycles: 452
6banks busy for read cycles: 1718454
6banks busy for write cycles: 0
7banks busy for read cycles: 2932537
7banks busy for write cycles: 0
8banks busy for read cycles: 8644296
8banks busy for write cycles: 0

CPU 0 Branch Prediction Accuracy: 93.8692% MPKI: 15.451 Average ROB Occupancy at Mispredict: 23.7534
Branch types
NOT_BRANCH: 74797529 74.7975%
BRANCH_DIRECT_JUMP: 2725127 2.72513%
BRANCH_INDIRECT: 0 0%
BRANCH_CONDITIONAL: 18060505 18.0605%
BRANCH_DIRECT_CALL: 2072101 2.0721%
BRANCH_INDIRECT_CALL: 136160 0.13616%
BRANCH_RETURN: 2208267 2.20827%
BRANCH_OTHER: 0 0%

DRAM PAGES: 1048576
Allocated PAGES: 38847
