Initialize SIGNATURE TABLE
ST_SET: 1
ST_WAY: 256
ST_TAG_BIT: 16
ST_TAG_MASK: ffff

Initialize PATTERN TABLE
PT_SET: 512
PT_WAY: 4
SIG_DELTA_BIT: 7
C_SIG_BIT: 4
C_DELTA_BIT: 4

Initialize PREFETCH FILTER
FILTER_SET: 1024

Initialize PERCEPTRON
PERC_ENTRIES: 4096
PERC_FEATURES: 9

*** ChampSim Multicore Out-of-Order Simulator ***

Warmup Instructions: 50000000
Simulation Instructions: 100000000
Number of CPUs: 1
LLC sets: 2048
LLC ways: 16
Off-chip DRAM Size: 4096 MB Channels: 1 Width: 64-bit Data Rate: 6400 MT/s
CPU 0 runs ../SPEC2017//605.mcf_s-472B.champsimtrace.xz
.xz
NUM_OF_IPS_IN_CRITICAL_IP_TRAINING: 128
NUM_OF_CRITICAL_IP_TRAINING_TABLE_WAYS: 8
NUM_OF_CRITICAL_IP_TRAINING_TABLE_SETS: 16
BTB has LRU replacement policy
ITLB has LRU replacement policy
DTLB has LRU replacement policy
STLB has LRU replacement policy
L1I has LRU replacement policy
L1D has LRU replacement policy
Initialize SRRIP state for L2C
Initialize DRRIP state for LLC
Heartbeat CPU 0 instructions: 10000001 cycles: 3198464 heartbeat IPC: 3.1265 cumulative IPC: 3.1265 (Simulation time: 0 hr 6 min 41 sec) 
Heartbeat CPU 0 instructions: 20000003 cycles: 6551654 heartbeat IPC: 2.98224 cumulative IPC: 3.05266 (Simulation time: 0 hr 13 min 27 sec) 
Heartbeat CPU 0 instructions: 30000002 cycles: 9981511 heartbeat IPC: 2.91557 cumulative IPC: 3.00556 (Simulation time: 0 hr 19 min 59 sec) 
Heartbeat CPU 0 instructions: 40000003 cycles: 13200097 heartbeat IPC: 3.10695 cumulative IPC: 3.03028 (Simulation time: 0 hr 24 min 58 sec) 
Heartbeat CPU 0 instructions: 50000001 cycles: 16450137 heartbeat IPC: 3.07688 cumulative IPC: 3.03949 (Simulation time: 0 hr 29 min 50 sec) 

Warmup complete CPU 0 instructions: 50000001 cycles: 16450137 (Simulation time: 0 hr 29 min 50 sec) 

% increase in all ip prefetch 354.18
% increase in all ip prefetch -34.2854
Heartbeat CPU 0 instructions: 60000001 cycles: 37484272 heartbeat IPC: 0.475418 cumulative IPC: 0.475418 (Simulation time: 0 hr 36 min 9 sec) 
Heartbeat CPU 0 instructions: 70000002 cycles: 57914709 heartbeat IPC: 0.489466 cumulative IPC: 0.48234 (Simulation time: 0 hr 41 min 17 sec) 
Heartbeat CPU 0 instructions: 80000002 cycles: 81664892 heartbeat IPC: 0.421049 cumulative IPC: 0.460019 (Simulation time: 0 hr 46 min 23 sec) 
Heartbeat CPU 0 instructions: 90000000 cycles: 101671884 heartbeat IPC: 0.499825 cumulative IPC: 0.469364 (Simulation time: 0 hr 50 min 32 sec) 
Heartbeat CPU 0 instructions: 100000002 cycles: 124346154 heartbeat IPC: 0.441029 cumulative IPC: 0.463409 (Simulation time: 1 hr 1 min 2 sec) 
Heartbeat CPU 0 instructions: 110000000 cycles: 144818563 heartbeat IPC: 0.488462 cumulative IPC: 0.467405 (Simulation time: 1 hr 9 min 22 sec) 
Heartbeat CPU 0 instructions: 120000002 cycles: 166973026 heartbeat IPC: 0.451376 cumulative IPC: 0.465046 (Simulation time: 1 hr 17 min 6 sec) 
Heartbeat CPU 0 instructions: 130000002 cycles: 189584822 heartbeat IPC: 0.442247 cumulative IPC: 0.462068 (Simulation time: 1 hr 24 min 19 sec) 
Heartbeat CPU 0 instructions: 140000002 cycles: 212433155 heartbeat IPC: 0.437669 cumulative IPC: 0.459223 (Simulation time: 1 hr 30 min 57 sec) 
Heartbeat CPU 0 instructions: 150000002 cycles: 234938819 heartbeat IPC: 0.444333 cumulative IPC: 0.45769 (Simulation time: 1 hr 36 min 47 sec) 
Finished CPU 0 instructions: 100000001 cycles: 218488682 cumulative IPC: 0.45769 (Simulation time: 1 hr 36 min 47 sec) 

ChampSim completed all CPUs

Region of Interest Statistics

CPU 0 cumulative IPC: 0.45769 instructions: 100000001 cycles: 218488682

CPU 0 Average Load ROB stall cycles: 4.72819e+06
CPU 0 Fraction of times ROB stalled by Loads: 3.73904
CPU 0 Percentage of Load stall cycles in Total stall cycles: 6.13106e+07
 Total stall cycles: 145106614
 Total load stall cycles: 88965792978927
CPU 0 NUM of IPS identified critical: 14

Threshold modification factor: -1
Max PIST entries: 27
Min PIST entries: 0
Avg PIST entries: 10.8733
Average ROB occupancy Load Stall Begin: 225.454
Average ROB occupancy Load Stall End: 232.402
Min ROB occupancy Load Stall Begin: 2
Max ROB occupancy Load Stall Begin: 351
Min ROB occupancy Load Stall End: 2
Max ROB occupancy Load Stall End: 352
Average ROB occupancy Critical Load Stall Begin: 236.526
Average ROB occupancy Critical Load Stall End: 243.777
Min ROB occupancy Critical Load Stall Begin: 2
Max ROB occupancy Critical Load Stall Begin: 351
Min ROB occupancy Critical Load Stall End: 2
Max ROB occupancy Critical Load Stall End: 352
 ROB Load Stall Begin Bucket Count 0: 145181
 ROB Load Stall End Bucket Count 0: 135890
 ROB Critical Load Stall Begin Bucket Count 0: 108213
 ROB Critical Load Stall End Bucket Count 0: 99294
 ROB Load Stall Begin Bucket Count 1: 48122
 ROB Load Stall End Bucket Count 1: 43556
 ROB Critical Load Stall Begin Bucket Count 1: 46931
 ROB Critical Load Stall End Bucket Count 1: 42136
 ROB Load Stall Begin Bucket Count 2: 52525
 ROB Load Stall End Bucket Count 2: 59556
 ROB Critical Load Stall Begin Bucket Count 2: 50668
 ROB Critical Load Stall End Bucket Count 2: 57820
 ROB Load Stall Begin Bucket Count 3: 31656
 ROB Load Stall End Bucket Count 3: 33034
 ROB Critical Load Stall Begin Bucket Count 3: 30162
 ROB Critical Load Stall End Bucket Count 3: 31363
 ROB Load Stall Begin Bucket Count 4: 30387
 ROB Load Stall End Bucket Count 4: 29785
 ROB Critical Load Stall Begin Bucket Count 4: 28514
 ROB Critical Load Stall End Bucket Count 4: 28074
 ROB Load Stall Begin Bucket Count 5: 35613
 ROB Load Stall End Bucket Count 5: 31534
 ROB Critical Load Stall Begin Bucket Count 5: 34435
 ROB Critical Load Stall End Bucket Count 5: 30228
 ROB Load Stall Begin Bucket Count 6: 360055
 ROB Load Stall End Bucket Count 6: 370184
 ROB Critical Load Stall Begin Bucket Count 6: 354783
 ROB Critical Load Stall End Bucket Count 6: 364791
Threshold Modified: 1 times, factor: -1
ITLB TOTAL     ACCESS:   16849071  HIT:   16849071  MISS:          0  HIT %:        100  MISS %:          0   MPKI: 0
ITLB LOAD TRANSLATION ACCESS:   16849071  HIT:   16849071  MISS:          0  HIT %:        100  MISS %:          0   MPKI: 0
ITLB AVERAGE MISS LATENCY: -nan cycles
ITLB RQ	ACCESS:   22068977	FORWARD:          0	MERGED:    5219907	TO_CACHE:   16849070

DTLB TOTAL     ACCESS:   27553954  HIT:   27252636  MISS:     301318  HIT %:    98.9064  MISS %:    1.09356   MPKI: 3.01318
DTLB LOAD TRANSLATION ACCESS:   27553954  HIT:   27252636  MISS:     301318  HIT %:    98.9064  MISS %:    1.09356   MPKI: 3.01318
DTLB AVERAGE MISS LATENCY: 34.8966 cycles
DTLB RQ	ACCESS:   45417181	FORWARD:          0	MERGED:   17797882	TO_CACHE:   27619299

STLB TOTAL     ACCESS:     301318  HIT:     171500  MISS:     129818  HIT %:    56.9166  MISS %:    43.0834   MPKI: 1.29818
STLB LOAD TRANSLATION ACCESS:     301318  HIT:     171500  MISS:     129818  HIT %:    56.9166  MISS %:    43.0834   MPKI: 1.29818
STLB AVERAGE MISS LATENCY: 59.9961 cycles
STLB RQ	ACCESS:     301318	FORWARD:          0	MERGED:          0	TO_CACHE:     301318

STLB Hit, L1D data hit: 0
STLB Hit, L2C data hit: 0
STLB Hit, LLC data hit: 0
STLB Hit, LLC data miss: 0
STLB STLB hints to L2: 0
L1D TOTAL     ACCESS:   44427593  HIT:   39450074  MISS:    4977519  HIT %:    88.7963  MISS %:    11.2037   MPKI: 49.7752
L1D LOAD      ACCESS:   20967868  HIT:   16220892  MISS:    4746976  HIT %:    77.3607  MISS %:    22.6393   MPKI: 47.4698
L1D RFO       ACCESS:   23459725  HIT:   23229182  MISS:     230543  HIT %:    99.0173  MISS %:   0.982718   MPKI: 2.30543
L1D AVERAGE MISS LATENCY: 66.2763 cycles
L1D RQ	ACCESS:   33442629	FORWARD:          0	MERGED:   12219911	TO_CACHE:   21197283
L1D WQ	ACCESS:   24693640	FORWARD:      25435	MERGED:     473742	TO_CACHE:   24219898

L1D UNIQUE REGIONS ACCESSED: 0
L1D REGIONS CONFLICTS: 0
L1D Cross Page Prefetch Requests: 0
L1D Same Page Prefetch Requests: 0
L1D ROI Sum of L1D PQ occupancy: 0
L1D PREFETCHES PUSHED FROM L2C: 0
L1I TOTAL     ACCESS:   22068976  HIT:   22068976  MISS:          0  HIT %:        100  MISS %:          0   MPKI: 0
L1I LOAD      ACCESS:   22068976  HIT:   22068976  MISS:          0  HIT %:        100  MISS %:          0   MPKI: 0
L1I AVERAGE MISS LATENCY: -nan cycles
L1I RQ	ACCESS:   29850415	FORWARD:          0	MERGED:    7781438	TO_CACHE:   22068977

BTB TOTAL     ACCESS:   11269117  HIT:   11269083  MISS:         34  HIT %:    99.9997  MISS %: 0.00030171   MPKI: 0.00034
BTB BRANCH_DIRECT_JUMP	ACCESS:    1149944  HIT:    1149938  MISS:          6
BTB BRANCH_INDIRECT	ACCESS:          0  HIT:          0  MISS:          0
BTB BRANCH_CONDITIONAL	ACCESS:   10118909  HIT:   10118885  MISS:         24
BTB BRANCH_DIRECT_CALL	ACCESS:        132  HIT:        130  MISS:          2
BTB BRANCH_INDIRECT_CALL	ACCESS:          0  HIT:          0  MISS:          0
BTB BRANCH_RETURN	ACCESS:        132  HIT:        130  MISS:          2
BTB BRANCH_OTHER ACCESS:          0  HIT:          0  MISS:          0

L2C TOTAL     ACCESS:   10896540  HIT:    3972250  MISS:    6924290  HIT %:    36.4542  MISS %:    63.5458   MPKI: 69.2429
L2C LOAD      ACCESS:    4746973  HIT:    2906406  MISS:    1840567  HIT %:    61.2265  MISS %:    38.7735   MPKI: 18.4057
L2C DATA LOAD MPKI: 18.4057
L2C INSTRUCTION LOAD MPKI: 0
L2C RFO       ACCESS:     230541  HIT:      19819  MISS:     210722  HIT %:    8.59674  MISS %:    91.4033   MPKI: 2.10722
L2C PREFETCH  ACCESS:    5291993  HIT:     448949  MISS:    4843044  HIT %:    8.48355  MISS %:    91.5164   MPKI: 48.4304
L2C DATA PREFETCH MPKI: 48.4304
L2C INSTRUCTION PREFETCH MPKI: 0
L2C WRITEBACK ACCESS:     497022  HIT:     486314  MISS:      10708  HIT %:    97.8456  MISS %:    2.15443   MPKI: 0.10708
L2C LOAD TRANSLATION ACCESS:     130011  HIT:     110762  MISS:      19249  HIT %:    85.1943  MISS %:    14.8057   MPKI: 0.19249
L2C PREFETCH  REQUESTED:    6736813  ISSUED:    6736209  USEFUL:    2856742  USELESS:    1986095
L2C USEFUL LOAD PREFETCHES:    2856742 PREFETCH ISSUED TO LOWER LEVEL:    6035979  ACCURACY: 47.3286
L2C TIMELY PREFETCHES:    2856742 LATE PREFETCHES: 1163617 DROPPED PREFETCHES: 0
L2C PREFETCHES SAME FILL-ORIGIN LEVEL: 6006661 DIFFERENT FILL-ORIGIN LEVEL: 29318
L2C AVERAGE MISS LATENCY: 134.86 cycles
L2C RQ	ACCESS:    5107528	FORWARD:          0	MERGED:          0	TO_CACHE:    5107525
L2C WQ	ACCESS:     497022	FORWARD:          6	MERGED:          0	TO_CACHE:     497022
L2C PQ	ACCESS:    6736209	FORWARD:          0	MERGED:       5146	TO_CACHE:    6731060

L2C Instructions Evicting Data0
L2C Translations Evicting Data19224
L2C Data Evicting Data6875195
L2C Instructions Evicting Instructions0
L2C Translations Evicting Instructions0
L2C Data Evicting Instructions0
L2C Instructions Evicting Translations0
L2C Translations Evicting Translations25
L2C Data Evicting Translations19138
L2C Dense regions hint from L2: 0
PSCL5 TOTAL     ACCESS:     129818  HIT:     129818  MISS:          0  HIT %:        100  MISS %:          0   MPKI: 0
PSCL5 LOAD TRANSLATION ACCESS:     129818  HIT:     129818  MISS:          0  HIT %:        100  MISS %:          0   MPKI: 0

PSCL4 TOTAL     ACCESS:     129818  HIT:     129818  MISS:          0  HIT %:        100  MISS %:          0   MPKI: 0
PSCL4 LOAD TRANSLATION ACCESS:     129818  HIT:     129818  MISS:          0  HIT %:        100  MISS %:          0   MPKI: 0

PSCL3 TOTAL     ACCESS:     129023  HIT:     129013  MISS:         10  HIT %:    99.9922  MISS %: 0.00775056   MPKI: 0.0001
PSCL3 LOAD TRANSLATION ACCESS:     129023  HIT:     129013  MISS:         10  HIT %:    99.9922  MISS %: 0.00775056   MPKI: 0.0001

PSCL2 TOTAL     ACCESS:     129818  HIT:     129581  MISS:        237  HIT %:    99.8174  MISS %:   0.182563   MPKI: 0.00237
PSCL2 LOAD TRANSLATION ACCESS:     129818  HIT:     129581  MISS:        237  HIT %:    99.8174  MISS %:   0.182563   MPKI: 0.00237

LLC TOTAL     ACCESS:    7383636  HIT:    1612037  MISS:    5771599  HIT %:    21.8326  MISS %:    78.1674   MPKI: 57.716
LLC LOAD      ACCESS:     678497  HIT:     190277  MISS:     488220  HIT %:    28.0439  MISS %:    71.9561   MPKI: 4.8822
LLC RFO       ACCESS:     209175  HIT:        524  MISS:     208651  HIT %:   0.250508  MISS %:    99.7495   MPKI: 2.08651
LLC PREFETCH  ACCESS:    6034830  HIT:    1386675  MISS:    4648155  HIT %:    22.9779  MISS %:    77.0221   MPKI: 46.4815
LLC WRITEBACK ACCESS:     441885  HIT:      29591  MISS:     412294  HIT %:    6.69654  MISS %:    93.3035   MPKI: 4.12294
LLC LOAD TRANSLATION ACCESS:      19249  HIT:       4970  MISS:      14279  HIT %:    25.8195  MISS %:    74.1805   MPKI: 0.14279
LLC AVERAGE MISS LATENCY: 138.801 cycles
LLC RQ	ACCESS:     906921	FORWARD:          0	MERGED:          0	TO_CACHE:     906921
LLC WQ	ACCESS:     441885	FORWARD:          0	MERGED:          0	TO_CACHE:     441885
LLC PQ	ACCESS:    6035979	FORWARD:          0	MERGED:         17	TO_CACHE:    6035962

LLC Dense regions hint to LLC: 0

RAW hits: 1302027
Loads Generated: 34744655
Loads sent to L1D: 33442629
Stores Generated: 24693636
Stores sent to L1D: 24693640
Major fault: 0 Minor fault: 29216
Allocated PAGES: 29216
------------------
Depth Distribution
------------------
depth 0: 485111
depth 1: 483454
depth 2: 2801208
depth 3: 1221439
depth 4: 798014
depth 5: 912642
depth 6: 352894
depth 7: 231653
depth 8: 15462
depth 9: 77
depth 10: 0
depth 11: 0
depth 12: 0
depth 13: 0
depth 14: 0
depth 15: 0
depth 16: 0
depth 17: 0
depth 18: 0
depth 19: 0
depth 20: 0
depth 21: 0
depth 22: 0
depth 23: 0
depth 24: 0
depth 25: 0
depth 26: 0
depth 27: 0
depth 28: 0
depth 29: 0
Total: 7301954
------------------
ST read accesses: 4619083
ST write accesses: 127890
PT read accesses: 99611806
PT write accesses: 6871675
FILTER read accesses: 31675958
FILTER write accesses: 24736679
GHR read accesses: 9829064
GHR write accesses: 1466108
PERC read accesses: 653763384
PERC write accesses: 70593449
GHR counter read accesses: 9493946
GHR counter write accesses: 16777957
GHR ip read accesses: 34752009
GHR ip write accesses: 18987892
ST tag read accesses: 1890434429
ST tag write accesses: 45842407

DRAM Statistics
 CHANNEL 0
 RQ ROW_BUFFER_HIT:    3583427  ROW_BUFFER_MISS:    1775869
 DBUS_CONGESTED:       4572
 WQ ROW_BUFFER_HIT:      74407  ROW_BUFFER_MISS:     361795  FULL:          0

 AVG_CONGESTED_CYCLE: 5
 All warmup complete: 2
Channel 0 Bank busy for read cycles: 0
Channel 0 Bank busy for write cycles: 0
Channel 0
Rank 0
0banks busy for read cycles: 65125563
0banks busy for write cycles: 61195
1banks busy for read cycles: 30587560
1banks busy for write cycles: 7760641
2banks busy for read cycles: 20133751
2banks busy for write cycles: 3892811
3banks busy for read cycles: 17156782
3banks busy for write cycles: 2619066
4banks busy for read cycles: 15591607
4banks busy for write cycles: 1900426
5banks busy for read cycles: 14111954
5banks busy for write cycles: 1479596
6banks busy for read cycles: 12350452
6banks busy for write cycles: 1309907
7banks busy for read cycles: 9813055
7banks busy for write cycles: 1499592
8banks busy for read cycles: 6030635
8banks busy for write cycles: 7064090

CPU 0 Branch Prediction Accuracy: 98.9588% MPKI: 1.19245 Average ROB Occupancy at Mispredict: 201.346
Branch types
NOT_BRANCH: 88547028 88.547%
BRANCH_DIRECT_JUMP: 1149944 1.14994%
BRANCH_INDIRECT: 0 0%
BRANCH_CONDITIONAL: 10302637 10.3026%
BRANCH_DIRECT_CALL: 132 0.000132%
BRANCH_INDIRECT_CALL: 0 0%
BRANCH_RETURN: 132 0.000132%
BRANCH_OTHER: 0 0%

DRAM PAGES: 1048576
Allocated PAGES: 29216
