
*** ChampSim Multicore Out-of-Order Simulator ***

Warmup Instructions: 50000000
Simulation Instructions: 100000000
Number of CPUs: 1
LLC sets: 2048
LLC ways: 16
Off-chip DRAM Size: 4096 MB Channels: 1 Width: 64-bit Data Rate: 6400 MT/s
CPU 0 runs ../SPEC2017//605.mcf_s-782B.champsimtrace.xz
.xz
BTB has LRU replacement policy
ITLB has LRU replacement policy
DTLB has LRU replacement policy
STLB has LRU replacement policy
L1I has LRU replacement policy
L1D has LRU replacement policy
Bingo PHT WAYS: 16 and PHT_SIZE: 16384
Initialize SRRIP state for L2C
Initialize DRRIP state for LLC
Heartbeat CPU 0 instructions: 10000001 cycles: 3722425 heartbeat IPC: 2.68642 cumulative IPC: 2.68642 (Simulation time: 0 hr 12 min 6 sec) 
Heartbeat CPU 0 instructions: 20000000 cycles: 7423297 heartbeat IPC: 2.70207 cumulative IPC: 2.69422 (Simulation time: 0 hr 24 min 30 sec) 
Heartbeat CPU 0 instructions: 30000000 cycles: 11171109 heartbeat IPC: 2.66822 cumulative IPC: 2.6855 (Simulation time: 0 hr 34 min 59 sec) 
Heartbeat CPU 0 instructions: 40000003 cycles: 14894499 heartbeat IPC: 2.68573 cumulative IPC: 2.68556 (Simulation time: 0 hr 43 min 42 sec) 
Heartbeat CPU 0 instructions: 50000000 cycles: 18651349 heartbeat IPC: 2.6618 cumulative IPC: 2.68077 (Simulation time: 0 hr 50 min 57 sec) 

Warmup complete CPU 0 instructions: 50000001 cycles: 18651350 (Simulation time: 0 hr 50 min 57 sec) 

Heartbeat CPU 0 instructions: 60000000 cycles: 65811201 heartbeat IPC: 0.212045 cumulative IPC: 0.212045 (Simulation time: 1 hr 0 min 34 sec) 
Heartbeat CPU 0 instructions: 70000002 cycles: 110930292 heartbeat IPC: 0.221636 cumulative IPC: 0.216734 (Simulation time: 1 hr 9 min 13 sec) 
Heartbeat CPU 0 instructions: 80000002 cycles: 156200895 heartbeat IPC: 0.220894 cumulative IPC: 0.218103 (Simulation time: 1 hr 16 min 31 sec) 
Heartbeat CPU 0 instructions: 90000000 cycles: 204238945 heartbeat IPC: 0.208168 cumulative IPC: 0.215532 (Simulation time: 1 hr 23 min 38 sec) 
Heartbeat CPU 0 instructions: 100000001 cycles: 255416944 heartbeat IPC: 0.195396 cumulative IPC: 0.211179 (Simulation time: 1 hr 29 min 1 sec) 
Heartbeat CPU 0 instructions: 110000000 cycles: 307759829 heartbeat IPC: 0.191048 cumulative IPC: 0.207535 (Simulation time: 1 hr 35 min 54 sec) 
Heartbeat CPU 0 instructions: 120000000 cycles: 357459313 heartbeat IPC: 0.201209 cumulative IPC: 0.206607 (Simulation time: 1 hr 45 min 4 sec) 
Heartbeat CPU 0 instructions: 130000003 cycles: 404040420 heartbeat IPC: 0.214679 cumulative IPC: 0.207582 (Simulation time: 1 hr 52 min 9 sec) 
Heartbeat CPU 0 instructions: 140000001 cycles: 449440756 heartbeat IPC: 0.220263 cumulative IPC: 0.208919 (Simulation time: 1 hr 57 min 30 sec) 
Heartbeat CPU 0 instructions: 150000000 cycles: 495800731 heartbeat IPC: 0.215703 cumulative IPC: 0.209578 (Simulation time: 1 hr 59 min 17 sec) 
Finished CPU 0 instructions: 100000003 cycles: 477149410 cumulative IPC: 0.209578 (Simulation time: 1 hr 59 min 17 sec) 

ChampSim completed all CPUs

Region of Interest Statistics

CPU 0 cumulative IPC: 0.209578 instructions: 100000003 cycles: 477149410

CPU 0 Average Load ROB stall cycles: 8.61725e+07
CPU 0 Fraction of times ROB stalled by Loads: 33.5528
CPU 0 Percentage of Load stall cycles in Total stall cycles: 4.41395e+08
Issued all: 80837997
Issued LT all: 66079204
rob_not_full_when_issued_lt_all: 44517821
Issued LT one: 61882272
rob_not_full_when_issued_lt_one: 42395306
 Total stall cycles: 439105395
 Total load stall cycles: 1938189281116103
Unique Load IPs: 264
CPU 0 NUM of IPS identified critical: 19
CPU 0 Num of Load IPs stalling ROB: 0
Threshold modification factor: 0
Trouble in retire width: -nan
MaC = Marked as critical.
lt_50_percent_before_Mac: 12
gt_90_percent_before_Mac: 1
gt_75_percent_before_Mac: 2
gt_50_percent_before_Mac: 4
stall_proportion_bin_same_before_after: 0
stall_proportion_bin_lower_before_after: 0
stall_proportion_bin_upper_before_after: 0
average_stall_proportion_before: 0.0179566
average_stall_proportion_after: 0.0192111
Critical_IP_Detector_Accuracy_70: 0.0526316
Critical_IP_Detector_Accuracy_80: 0.0526316
Critical_IP_Detector_Accuracy_90: 0.0526316
Critical_IP_Detector_Coverage_70: 1
Critical_IP_Detector_Coverage_80: 1
Critical_IP_Detector_Coverage_90: 1
stat_90_percent_critical_ip_stalls_freq: 2555560
stat_90_percent_non_critical_ip_stalls_freq: 18446744073706996056
AVERAGE_ROB_Occupancy_90_Percent_Critical_IP_Stalls: 88.9444
AVERAGE_ROB_Occupancy_90_Percent_Non_Critical_IP_Stalls: 2.62383e-11
Critical_IP_ROB_Stalls_Bucket_0: 3067112
Non-critical_IP_ROB_Stalls_Bucket_0: 844590
Critical_IP_ROB_Stalls_Bucket_1: 999392
Non-critical_IP_ROB_Stalls_Bucket_1: 258560
Critical_IP_ROB_Stalls_Bucket_2: 475556
Non-critical_IP_ROB_Stalls_Bucket_2: 182996
Critical_IP_ROB_Stalls_Bucket_3: 264226
Non-critical_IP_ROB_Stalls_Bucket_3: 156864
Critical_IP_ROB_Stalls_Bucket_4: 218698
Non-critical_IP_ROB_Stalls_Bucket_4: 108523
Critical_IP_ROB_Stalls_Bucket_5: 155012
Non-critical_IP_ROB_Stalls_Bucket_5: 87457
Critical_IP_ROB_Stalls_Bucket_6: 327486
Non-critical_IP_ROB_Stalls_Bucket_6: 400212
0 => IPs accounting for >50 percent of stalls, 1 => 55, 2 => 60, 3 => 65 and so on till 90.
percent50: inf num IPs:  1
percent55: inf num IPs: 1
percent60: inf num IPs: 1
percent65: inf num IPs: 1
percent70: inf num IPs: 1
percent75: inf num IPs: 1
percent80: inf num IPs: 1
percent85: inf num IPs: 1
percent90: inf num IPs: 1
Critical_ROB_Stalls_Percent_0_Bucket_0: 1180649
Non-critical_ROB_Stalls_Percent_0_Bucket_0: 2731053
Critical_ROB_Stalls_Percent_0_Bucket_1: 563140
Non-critical_ROB_Stalls_Percent_0_Bucket_1: 694812
Critical_ROB_Stalls_Percent_0_Bucket_2: 324104
Non-critical_ROB_Stalls_Percent_0_Bucket_2: 334448
Critical_ROB_Stalls_Percent_0_Bucket_3: 107320
Non-critical_ROB_Stalls_Percent_0_Bucket_3: 313770
Critical_ROB_Stalls_Percent_0_Bucket_4: 132276
Non-critical_ROB_Stalls_Percent_0_Bucket_4: 194945
Critical_ROB_Stalls_Percent_0_Bucket_5: 79763
Non-critical_ROB_Stalls_Percent_0_Bucket_5: 162706
Critical_ROB_Stalls_Percent_0_Bucket_6: 168308
Non-critical_ROB_Stalls_Percent_0_Bucket_6: 559390
Critical_ROB_Stalls_Percent_1_Bucket_0: 1180649
Non-critical_ROB_Stalls_Percent_1_Bucket_0: 2731053
Critical_ROB_Stalls_Percent_1_Bucket_1: 563140
Non-critical_ROB_Stalls_Percent_1_Bucket_1: 694812
Critical_ROB_Stalls_Percent_1_Bucket_2: 324104
Non-critical_ROB_Stalls_Percent_1_Bucket_2: 334448
Critical_ROB_Stalls_Percent_1_Bucket_3: 107320
Non-critical_ROB_Stalls_Percent_1_Bucket_3: 313770
Critical_ROB_Stalls_Percent_1_Bucket_4: 132276
Non-critical_ROB_Stalls_Percent_1_Bucket_4: 194945
Critical_ROB_Stalls_Percent_1_Bucket_5: 79763
Non-critical_ROB_Stalls_Percent_1_Bucket_5: 162706
Critical_ROB_Stalls_Percent_1_Bucket_6: 168308
Non-critical_ROB_Stalls_Percent_1_Bucket_6: 559390
Critical_ROB_Stalls_Percent_2_Bucket_0: 1180649
Non-critical_ROB_Stalls_Percent_2_Bucket_0: 2731053
Critical_ROB_Stalls_Percent_2_Bucket_1: 563140
Non-critical_ROB_Stalls_Percent_2_Bucket_1: 694812
Critical_ROB_Stalls_Percent_2_Bucket_2: 324104
Non-critical_ROB_Stalls_Percent_2_Bucket_2: 334448
Critical_ROB_Stalls_Percent_2_Bucket_3: 107320
Non-critical_ROB_Stalls_Percent_2_Bucket_3: 313770
Critical_ROB_Stalls_Percent_2_Bucket_4: 132276
Non-critical_ROB_Stalls_Percent_2_Bucket_4: 194945
Critical_ROB_Stalls_Percent_2_Bucket_5: 79763
Non-critical_ROB_Stalls_Percent_2_Bucket_5: 162706
Critical_ROB_Stalls_Percent_2_Bucket_6: 168308
Non-critical_ROB_Stalls_Percent_2_Bucket_6: 559390
Critical_ROB_Stalls_Percent_3_Bucket_0: 1180649
Non-critical_ROB_Stalls_Percent_3_Bucket_0: 2731053
Critical_ROB_Stalls_Percent_3_Bucket_1: 563140
Non-critical_ROB_Stalls_Percent_3_Bucket_1: 694812
Critical_ROB_Stalls_Percent_3_Bucket_2: 324104
Non-critical_ROB_Stalls_Percent_3_Bucket_2: 334448
Critical_ROB_Stalls_Percent_3_Bucket_3: 107320
Non-critical_ROB_Stalls_Percent_3_Bucket_3: 313770
Critical_ROB_Stalls_Percent_3_Bucket_4: 132276
Non-critical_ROB_Stalls_Percent_3_Bucket_4: 194945
Critical_ROB_Stalls_Percent_3_Bucket_5: 79763
Non-critical_ROB_Stalls_Percent_3_Bucket_5: 162706
Critical_ROB_Stalls_Percent_3_Bucket_6: 168308
Non-critical_ROB_Stalls_Percent_3_Bucket_6: 559390
Critical_ROB_Stalls_Percent_4_Bucket_0: 1180649
Non-critical_ROB_Stalls_Percent_4_Bucket_0: 2731053
Critical_ROB_Stalls_Percent_4_Bucket_1: 563140
Non-critical_ROB_Stalls_Percent_4_Bucket_1: 694812
Critical_ROB_Stalls_Percent_4_Bucket_2: 324104
Non-critical_ROB_Stalls_Percent_4_Bucket_2: 334448
Critical_ROB_Stalls_Percent_4_Bucket_3: 107320
Non-critical_ROB_Stalls_Percent_4_Bucket_3: 313770
Critical_ROB_Stalls_Percent_4_Bucket_4: 132276
Non-critical_ROB_Stalls_Percent_4_Bucket_4: 194945
Critical_ROB_Stalls_Percent_4_Bucket_5: 79763
Non-critical_ROB_Stalls_Percent_4_Bucket_5: 162706
Critical_ROB_Stalls_Percent_4_Bucket_6: 168308
Non-critical_ROB_Stalls_Percent_4_Bucket_6: 559390
Critical_ROB_Stalls_Percent_5_Bucket_0: 1180649
Non-critical_ROB_Stalls_Percent_5_Bucket_0: 2731053
Critical_ROB_Stalls_Percent_5_Bucket_1: 563140
Non-critical_ROB_Stalls_Percent_5_Bucket_1: 694812
Critical_ROB_Stalls_Percent_5_Bucket_2: 324104
Non-critical_ROB_Stalls_Percent_5_Bucket_2: 334448
Critical_ROB_Stalls_Percent_5_Bucket_3: 107320
Non-critical_ROB_Stalls_Percent_5_Bucket_3: 313770
Critical_ROB_Stalls_Percent_5_Bucket_4: 132276
Non-critical_ROB_Stalls_Percent_5_Bucket_4: 194945
Critical_ROB_Stalls_Percent_5_Bucket_5: 79763
Non-critical_ROB_Stalls_Percent_5_Bucket_5: 162706
Critical_ROB_Stalls_Percent_5_Bucket_6: 168308
Non-critical_ROB_Stalls_Percent_5_Bucket_6: 559390
Critical_ROB_Stalls_Percent_6_Bucket_0: 1180649
Non-critical_ROB_Stalls_Percent_6_Bucket_0: 2731053
Critical_ROB_Stalls_Percent_6_Bucket_1: 563140
Non-critical_ROB_Stalls_Percent_6_Bucket_1: 694812
Critical_ROB_Stalls_Percent_6_Bucket_2: 324104
Non-critical_ROB_Stalls_Percent_6_Bucket_2: 334448
Critical_ROB_Stalls_Percent_6_Bucket_3: 107320
Non-critical_ROB_Stalls_Percent_6_Bucket_3: 313770
Critical_ROB_Stalls_Percent_6_Bucket_4: 132276
Non-critical_ROB_Stalls_Percent_6_Bucket_4: 194945
Critical_ROB_Stalls_Percent_6_Bucket_5: 79763
Non-critical_ROB_Stalls_Percent_6_Bucket_5: 162706
Critical_ROB_Stalls_Percent_6_Bucket_6: 168308
Non-critical_ROB_Stalls_Percent_6_Bucket_6: 559390
Critical_ROB_Stalls_Percent_7_Bucket_0: 1180649
Non-critical_ROB_Stalls_Percent_7_Bucket_0: 2731053
Critical_ROB_Stalls_Percent_7_Bucket_1: 563140
Non-critical_ROB_Stalls_Percent_7_Bucket_1: 694812
Critical_ROB_Stalls_Percent_7_Bucket_2: 324104
Non-critical_ROB_Stalls_Percent_7_Bucket_2: 334448
Critical_ROB_Stalls_Percent_7_Bucket_3: 107320
Non-critical_ROB_Stalls_Percent_7_Bucket_3: 313770
Critical_ROB_Stalls_Percent_7_Bucket_4: 132276
Non-critical_ROB_Stalls_Percent_7_Bucket_4: 194945
Critical_ROB_Stalls_Percent_7_Bucket_5: 79763
Non-critical_ROB_Stalls_Percent_7_Bucket_5: 162706
Critical_ROB_Stalls_Percent_7_Bucket_6: 168308
Non-critical_ROB_Stalls_Percent_7_Bucket_6: 559390
Critical_ROB_Stalls_Percent_8_Bucket_0: 1180649
Non-critical_ROB_Stalls_Percent_8_Bucket_0: 2731053
Critical_ROB_Stalls_Percent_8_Bucket_1: 563140
Non-critical_ROB_Stalls_Percent_8_Bucket_1: 694812
Critical_ROB_Stalls_Percent_8_Bucket_2: 324104
Non-critical_ROB_Stalls_Percent_8_Bucket_2: 334448
Critical_ROB_Stalls_Percent_8_Bucket_3: 107320
Non-critical_ROB_Stalls_Percent_8_Bucket_3: 313770
Critical_ROB_Stalls_Percent_8_Bucket_4: 132276
Non-critical_ROB_Stalls_Percent_8_Bucket_4: 194945
Critical_ROB_Stalls_Percent_8_Bucket_5: 79763
Non-critical_ROB_Stalls_Percent_8_Bucket_5: 162706
Critical_ROB_Stalls_Percent_8_Bucket_6: 168308
Non-critical_ROB_Stalls_Percent_8_Bucket_6: 559390
Average ROB occupancy Load Stall Begin: 84.7223
Average ROB occupancy Load Stall End: 94.2551
Min ROB occupancy Load Stall Begin: 1
Max ROB occupancy Load Stall Begin: 352
Min ROB occupancy Load Stall End: 1
Max ROB occupancy Load Stall End: 352
Average ROB occupancy Critical Load Stall Begin: 65.7253
Average ROB occupancy Critical Load Stall End: 77.0863
Min ROB occupancy Critical Load Stall Begin: 2
Max ROB occupancy Critical Load Stall Begin: 352
Min ROB occupancy Critical Load Stall End: 2
Max ROB occupancy Critical Load Stall End: 352
 ROB Load Stall Begin Bucket Count 0: 4261390
 ROB Load Stall End Bucket Count 0: 3911702
 ROB Critical Load Stall Begin Bucket Count 0: 3290496
 ROB Critical Load Stall End Bucket Count 0: 2995210
 ROB Load Stall Begin Bucket Count 1: 1224845
 ROB Load Stall End Bucket Count 1: 1257952
 ROB Critical Load Stall Begin Bucket Count 1: 961767
 ROB Critical Load Stall End Bucket Count 1: 971481
 ROB Load Stall Begin Bucket Count 2: 492298
 ROB Load Stall End Bucket Count 2: 658552
 ROB Critical Load Stall Begin Bucket Count 2: 295984
 ROB Critical Load Stall End Bucket Count 2: 460035
 ROB Load Stall Begin Bucket Count 3: 399425
 ROB Load Stall End Bucket Count 3: 421090
 ROB Critical Load Stall Begin Bucket Count 3: 240626
 ROB Critical Load Stall End Bucket Count 3: 251119
 ROB Load Stall Begin Bucket Count 4: 278425
 ROB Load Stall End Bucket Count 4: 327221
 ROB Critical Load Stall Begin Bucket Count 4: 162776
 ROB Critical Load Stall End Bucket Count 4: 210200
 ROB Load Stall Begin Bucket Count 5: 260806
 ROB Load Stall End Bucket Count 5: 242469
 ROB Critical Load Stall Begin Bucket Count 5: 172494
 ROB Critical Load Stall End Bucket Count 5: 148399
 ROB Load Stall Begin Bucket Count 6: 629495
 ROB Load Stall End Bucket Count 6: 727698
 ROB Critical Load Stall Begin Bucket Count 6: 200698
 ROB Critical Load Stall End Bucket Count 6: 288400
PIST Tag Read Accesses: 0
PIST Read Accesses: 0
PIST Tag Write Accesses: 0
PIST Write Accesses: 0
Criticality detector called times: 0
Max global_stall_cycles_count: 0
Threshold Modified: 0 times, factor: 0
Sturdy critical IP cache stats: 
 Unused entries: 0
CIC Tag Read Accesses: 0
CIC Read Accesses: 0
CIC Tag Write Accesses: 0
CIC Write Accesses: 0
Wobbly critical IP cache stats: 
 Unused entries: 5
CIC Tag Read Accesses: 349371814
CIC Read Accesses: 0
CIC Tag Write Accesses: 10186971
CIC Write Accesses: 0
ITLB TOTAL     ACCESS:   16300291  HIT:   16300291  MISS:          0  HIT %:        100  MISS %:          0   MPKI: 0
ITLB LOAD TRANSLATION ACCESS:   16300291  HIT:   16300291  MISS:          0  HIT %:        100  MISS %:          0   MPKI: 0
ITLB PREFETCH  REQUESTED:          0  ISSUED:          0  USEFUL:          0  USELESS:          0
ITLB USEFUL LOAD PREFETCHES:          0 PREFETCH ISSUED TO LOWER LEVEL:          0  ACCURACY: -nan
ITLB TIMELY PREFETCHES:          0 LATE PREFETCHES: 0 DROPPED PREFETCHES: 0
ITLB PREFETCHES SAME FILL-ORIGIN LEVEL: 0 DIFFERENT FILL-ORIGIN LEVEL: 0
ITLB AVERAGE MISS LATENCY: -nan cycles
ITLB RQ	ACCESS:   16518030	FORWARD:          0	MERGED:     217740	TO_CACHE:   16300290

DTLB TOTAL     ACCESS:   21150720  HIT:   12631701  MISS:    8519019  HIT %:    59.7223  MISS %:    40.2777   MPKI: 85.1902
DTLB LOAD TRANSLATION ACCESS:   21150720  HIT:   12631701  MISS:    8519019  HIT %:    59.7223  MISS %:    40.2777   MPKI: 85.1902
DTLB PREFETCH  REQUESTED:          0  ISSUED:          0  USEFUL:          0  USELESS:          0
DTLB USEFUL LOAD PREFETCHES:          0 PREFETCH ISSUED TO LOWER LEVEL:          0  ACCURACY: -nan
DTLB TIMELY PREFETCHES:          0 LATE PREFETCHES: 0 DROPPED PREFETCHES: 0
DTLB PREFETCHES SAME FILL-ORIGIN LEVEL: 0 DIFFERENT FILL-ORIGIN LEVEL: 0
DTLB AVERAGE MISS LATENCY: 11.2334 cycles
DTLB RQ	ACCESS:   23457033	FORWARD:          0	MERGED:    2155154	TO_CACHE:   21301879

STLB TOTAL     ACCESS:    8519019  HIT:    8405818  MISS:     113201  HIT %:    98.6712  MISS %:     1.3288   MPKI: 1.13201
STLB LOAD TRANSLATION ACCESS:    8519019  HIT:    8405818  MISS:     113201  HIT %:    98.6712  MISS %:     1.3288   MPKI: 1.13201
STLB PREFETCH  REQUESTED:          0  ISSUED:          0  USEFUL:          0  USELESS:          0
STLB USEFUL LOAD PREFETCHES:          0 PREFETCH ISSUED TO LOWER LEVEL:          0  ACCURACY: -nan
STLB TIMELY PREFETCHES:          0 LATE PREFETCHES: 0 DROPPED PREFETCHES: 0
STLB PREFETCHES SAME FILL-ORIGIN LEVEL: 0 DIFFERENT FILL-ORIGIN LEVEL: 0
STLB AVERAGE MISS LATENCY: 144.53 cycles
STLB RQ	ACCESS:    8519019	FORWARD:          0	MERGED:          0	TO_CACHE:    8519019

STLB Hit, L1D data hit: 0
STLB Hit, L2C data hit: 0
STLB Hit, LLC data hit: 0
STLB Hit, LLC data miss: 0
STLB STLB hints to L2: 0
L1D TOTAL     ACCESS:   23113350  HIT:    8177159  MISS:   14936191  HIT %:    35.3785  MISS %:    64.6215   MPKI: 149.362
L1D LOAD      ACCESS:   21088588  HIT:    6191272  MISS:   14897316  HIT %:    29.3584  MISS %:    70.6416   MPKI: 148.973
L1D RFO       ACCESS:    2024762  HIT:    1985887  MISS:      38875  HIT %:      98.08  MISS %:    1.91998   MPKI: 0.38875
L1D PREFETCH  REQUESTED:          0  ISSUED:          0  USEFUL:          0  USELESS:          0
L1D USEFUL LOAD PREFETCHES:          0 PREFETCH ISSUED TO LOWER LEVEL:          0  ACCURACY: -nan
L1D TIMELY PREFETCHES:          0 LATE PREFETCHES: 0 DROPPED PREFETCHES: 0
L1D PREFETCHES SAME FILL-ORIGIN LEVEL: 0 DIFFERENT FILL-ORIGIN LEVEL: 0
L1D AVERAGE MISS LATENCY: 56.6846 cycles
L1D RQ	ACCESS:   35637754	FORWARD:          0	MERGED:   13955108	TO_CACHE:   21344503
L1D WQ	ACCESS:    2185912	FORWARD:     338143	MERGED:      73382	TO_CACHE:    2112530

L1D UNIQUE REGIONS ACCESSED: 0
L1D REGIONS CONFLICTS: 0
L1D Cross Page Prefetch Requests: 0
L1D Same Page Prefetch Requests: 0
L1D ROI Sum of L1D PQ occupancy: 0
L1D PREFETCHES PUSHED FROM L2C: 0
L1I TOTAL     ACCESS:   16518031  HIT:   16518031  MISS:          0  HIT %:        100  MISS %:          0   MPKI: 0
L1I LOAD      ACCESS:   16518031  HIT:   16518031  MISS:          0  HIT %:        100  MISS %:          0   MPKI: 0
L1I PREFETCH  REQUESTED:          0  ISSUED:          0  USEFUL:          0  USELESS:          0
L1I USEFUL LOAD PREFETCHES:          0 PREFETCH ISSUED TO LOWER LEVEL:          0  ACCURACY: -nan
L1I TIMELY PREFETCHES:          0 LATE PREFETCHES: 0 DROPPED PREFETCHES: 0
L1I PREFETCHES SAME FILL-ORIGIN LEVEL: 0 DIFFERENT FILL-ORIGIN LEVEL: 0
L1I AVERAGE MISS LATENCY: -nan cycles
L1I RQ	ACCESS:   22059033	FORWARD:          0	MERGED:    5541003	TO_CACHE:   16518030

BTB TOTAL     ACCESS:   29634397  HIT:   29518849  MISS:     115548  HIT %:    99.6101  MISS %:   0.389912   MPKI: 1.15548
BTB BRANCH_DIRECT_JUMP	ACCESS:    3793757  HIT:    3793720  MISS:         37
BTB BRANCH_INDIRECT	ACCESS:          0  HIT:          0  MISS:          0
BTB BRANCH_CONDITIONAL	ACCESS:   24997970  HIT:   24997888  MISS:         82
BTB BRANCH_DIRECT_CALL	ACCESS:     389591  HIT:     389573  MISS:         18
BTB BRANCH_INDIRECT_CALL	ACCESS:      31744  HIT:      31736  MISS:          8
BTB BRANCH_RETURN	ACCESS:     421335  HIT:     305932  MISS:     115403
BTB BRANCH_OTHER ACCESS:          0  HIT:          0  MISS:          0

L2C TOTAL     ACCESS:   27921686  HIT:    8623420  MISS:   19298266  HIT %:    30.8843  MISS %:    69.1157   MPKI: 192.983
L2C LOAD      ACCESS:   14897308  HIT:    6548304  MISS:    8349004  HIT %:    43.9563  MISS %:    56.0437   MPKI: 83.49
L2C DATA LOAD MPKI: 83.49
L2C INSTRUCTION LOAD MPKI: 0
L2C RFO       ACCESS:      38875  HIT:      10597  MISS:      28278  HIT %:    27.2592  MISS %:    72.7408   MPKI: 0.28278
L2C PREFETCH  ACCESS:   12565945  HIT:    1688311  MISS:   10877634  HIT %:    13.4356  MISS %:    86.5644   MPKI: 108.776
L2C DATA PREFETCH MPKI: 108.776
L2C INSTRUCTION PREFETCH MPKI: 0
L2C WRITEBACK ACCESS:     305308  HIT:     300195  MISS:       5113  HIT %:    98.3253  MISS %:     1.6747   MPKI: 0.05113
L2C LOAD TRANSLATION ACCESS:     114250  HIT:      76013  MISS:      38237  HIT %:    66.5322  MISS %:    33.4678   MPKI: 0.38237
L2C PREFETCH  REQUESTED:   13218750  ISSUED:   13218750  USEFUL:    5048880  USELESS:    5827621
L2C USEFUL LOAD PREFETCHES:    5048880 PREFETCH ISSUED TO LOWER LEVEL:   11292303  ACCURACY: 44.7108
L2C TIMELY PREFETCHES:    5048880 LATE PREFETCHES: 414668 DROPPED PREFETCHES: 0
L2C PREFETCHES SAME FILL-ORIGIN LEVEL: 11292303 DIFFERENT FILL-ORIGIN LEVEL: 0
L2C AVERAGE MISS LATENCY: 112.846 cycles
L2C RQ	ACCESS:   15050439	FORWARD:          0	MERGED:          0	TO_CACHE:   15050432
L2C WQ	ACCESS:     305308	FORWARD:          8	MERGED:          0	TO_CACHE:     305308
L2C PQ	ACCESS:   13218750	FORWARD:          0	MERGED:          1	TO_CACHE:   13218748

L2C Instructions Evicting Data 0
L2C Translations Evicting Data 38167
L2C Data Evicting Data 19216762
L2C Instructions Evicting Instructions 0
L2C Translations Evicting Instructions 0
L2C Data Evicting Instructions 0
L2C Instructions Evicting Translations 0
L2C Translations Evicting Translations 70
L2C Data Evicting Translations 38154
L2C Dense regions hint from L2: 0
PSCL5 TOTAL     ACCESS:     113201  HIT:     113201  MISS:          0  HIT %:        100  MISS %:          0   MPKI: 0
PSCL5 LOAD TRANSLATION ACCESS:     113201  HIT:     113201  MISS:          0  HIT %:        100  MISS %:          0   MPKI: 0
PSCL5 PREFETCH  REQUESTED:          0  ISSUED:          0  USEFUL:          0  USELESS:          0
PSCL5 USEFUL LOAD PREFETCHES:          0 PREFETCH ISSUED TO LOWER LEVEL:          0  ACCURACY: -nan
PSCL5 TIMELY PREFETCHES:          0 LATE PREFETCHES: 0 DROPPED PREFETCHES: 0
PSCL5 PREFETCHES SAME FILL-ORIGIN LEVEL: 0 DIFFERENT FILL-ORIGIN LEVEL: 0

PSCL4 TOTAL     ACCESS:     113201  HIT:     113201  MISS:          0  HIT %:        100  MISS %:          0   MPKI: 0
PSCL4 LOAD TRANSLATION ACCESS:     113201  HIT:     113201  MISS:          0  HIT %:        100  MISS %:          0   MPKI: 0
PSCL4 PREFETCH  REQUESTED:          0  ISSUED:          0  USEFUL:          0  USELESS:          0
PSCL4 USEFUL LOAD PREFETCHES:          0 PREFETCH ISSUED TO LOWER LEVEL:          0  ACCURACY: -nan
PSCL4 TIMELY PREFETCHES:          0 LATE PREFETCHES: 0 DROPPED PREFETCHES: 0
PSCL4 PREFETCHES SAME FILL-ORIGIN LEVEL: 0 DIFFERENT FILL-ORIGIN LEVEL: 0

PSCL3 TOTAL     ACCESS:     113201  HIT:     113201  MISS:          0  HIT %:        100  MISS %:          0   MPKI: 0
PSCL3 LOAD TRANSLATION ACCESS:     113201  HIT:     113201  MISS:          0  HIT %:        100  MISS %:          0   MPKI: 0
PSCL3 PREFETCH  REQUESTED:          0  ISSUED:          0  USEFUL:          0  USELESS:          0
PSCL3 USEFUL LOAD PREFETCHES:          0 PREFETCH ISSUED TO LOWER LEVEL:          0  ACCURACY: -nan
PSCL3 TIMELY PREFETCHES:          0 LATE PREFETCHES: 0 DROPPED PREFETCHES: 0
PSCL3 PREFETCHES SAME FILL-ORIGIN LEVEL: 0 DIFFERENT FILL-ORIGIN LEVEL: 0

PSCL2 TOTAL     ACCESS:     113201  HIT:     111839  MISS:       1362  HIT %:    98.7968  MISS %:    1.20317   MPKI: 0.01362
PSCL2 LOAD TRANSLATION ACCESS:     113201  HIT:     111839  MISS:       1362  HIT %:    98.7968  MISS %:    1.20317   MPKI: 0.01362
PSCL2 PREFETCH  REQUESTED:          0  ISSUED:          0  USEFUL:          0  USELESS:          0
PSCL2 USEFUL LOAD PREFETCHES:          0 PREFETCH ISSUED TO LOWER LEVEL:          0  ACCURACY: -nan
PSCL2 TIMELY PREFETCHES:          0 LATE PREFETCHES: 0 DROPPED PREFETCHES: 0
PSCL2 PREFETCHES SAME FILL-ORIGIN LEVEL: 0 DIFFERENT FILL-ORIGIN LEVEL: 0

LLC TOTAL     ACCESS:   19539357  HIT:   10945508  MISS:    8593849  HIT %:    56.0177  MISS %:    43.9823   MPKI: 85.9385
LLC LOAD      ACCESS:    7934333  HIT:    6203196  MISS:    1731137  HIT %:    78.1817  MISS %:    21.8183   MPKI: 17.3114
LLC RFO       ACCESS:      28278  HIT:      25571  MISS:       2707  HIT %:    90.4272  MISS %:    9.57281   MPKI: 0.02707
LLC PREFETCH  ACCESS:   11292301  HIT:    4499249  MISS:    6793052  HIT %:    39.8435  MISS %:    60.1565   MPKI: 67.9305
LLC WRITEBACK ACCESS:     246208  HIT:     204982  MISS:      41226  HIT %:    83.2556  MISS %:    16.7444   MPKI: 0.41226
LLC LOAD TRANSLATION ACCESS:      38237  HIT:      12510  MISS:      25727  HIT %:     32.717  MISS %:     67.283   MPKI: 0.25727
LLC PREFETCH  REQUESTED:          0  ISSUED:          0  USEFUL:      27165  USELESS:    6764317
LLC USEFUL LOAD PREFETCHES:      27165 PREFETCH ISSUED TO LOWER LEVEL:    6793053  ACCURACY: 0.399894
LLC TIMELY PREFETCHES:      27165 LATE PREFETCHES: 0 DROPPED PREFETCHES: 0
LLC PREFETCHES SAME FILL-ORIGIN LEVEL: 0 DIFFERENT FILL-ORIGIN LEVEL: 0
LLC AVERAGE MISS LATENCY: 188.259 cycles
LLC RQ	ACCESS:    8000850	FORWARD:          0	MERGED:          0	TO_CACHE:    8000847
LLC WQ	ACCESS:     246208	FORWARD:          4	MERGED:          0	TO_CACHE:     246208
LLC PQ	ACCESS:   11292303	FORWARD:          0	MERGED:          0	TO_CACHE:   11292302

LLC Dense regions hint to LLC: 0

RAW hits: 288259
Loads Generated: 35926018
Loads sent to L1D: 35637754
Stores Generated: 2185912
Stores sent to L1D: 2185912
Major fault: 0 Minor fault: 128515
Allocated PAGES: 128515
[Bingo] PHT Access: 8020917
[Bingo] PHT Hit PC+Addr: 830879
[Bingo] PHT Hit PC+Offs: 7187975
[Bingo] PHT Miss: 2063
[Bingo] Prefetch PC+Addr: 0
[Bingo] Prefetch PC+Offs: 0
[Bingo] Useful PC+Addr: 0
[Bingo] Useful PC+Offs: 0
[Bingo] Useless PC+Addr: 0
[Bingo] Useless PC+Offs: 0
[Bingo] L1 Prefetch per Region: 0
[Bingo] L2 Prefetch per Region: 2.68306
[Bingo] L3 Prefetch per Region: 0
[Bingo] No Prefetch per Region: 29.3169
[Bingo] Number of Voters Mean: 15.9568
[Bingo] Number of Voters SD: 9.4417
PHT read accesses: 122131495
PHT write accesses: 636959
AT read accesses: 6693972
AT write accesses: 6823489
FT read accesses: 2236803
FT write accesses: 8020917
PS read accesses: 16759022
PS write accesses: 8018854
PHT tag read accesses: 139366128
PHT tag write accesses: 1467838
AT tag read accesses: 560319797
AT tag write accesses: 7331040
FT tag read accesses: 704898661
FT tag write accesses: 9620279
PS tag read accesses: 509282414
PS tag write accesses: 24663495

DRAM Statistics
 CHANNEL 0
 RQ ROW_BUFFER_HIT:    4316096  ROW_BUFFER_MISS:    4236503
 DBUS_CONGESTED:        399
 WQ ROW_BUFFER_HIT:      11134  ROW_BUFFER_MISS:      49777  FULL:          0

 AVG_CONGESTED_CYCLE: 4
 All warmup complete: 2
Channel 0 Bank busy for read cycles: 0
Channel 0 Bank busy for write cycles: 0
Channel 0
Rank 0
0banks busy for read cycles: 177673086
0banks busy for write cycles: 44203
1banks busy for read cycles: 113342429
1banks busy for write cycles: 8679226
2banks busy for read cycles: 60118481
2banks busy for write cycles: 1219493
3banks busy for read cycles: 33334188
3banks busy for write cycles: 292901
4banks busy for read cycles: 19178480
4banks busy for write cycles: 106976
5banks busy for read cycles: 11482297
5banks busy for write cycles: 68376
6banks busy for read cycles: 8387887
6banks busy for write cycles: 48080
7banks busy for read cycles: 11497094
7banks busy for write cycles: 39463
8banks busy for read cycles: 31610198
8banks busy for write cycles: 26553

CPU 0 Branch Prediction Accuracy: 97.0234% MPKI: 8.99605 Average ROB Occupancy at Mispredict: 52.4967
Branch types
NOT_BRANCH: 69777207 69.7772%
BRANCH_DIRECT_JUMP: 3793757 3.79376%
BRANCH_INDIRECT: 0 0%
BRANCH_CONDITIONAL: 25586017 25.586%
BRANCH_DIRECT_CALL: 389591 0.389591%
BRANCH_INDIRECT_CALL: 31744 0.031744%
BRANCH_RETURN: 421335 0.421335%
BRANCH_OTHER: 0 0%

DRAM PAGES: 1048576
Allocated PAGES: 128515
