Initialize SIGNATURE TABLE
ST_SET: 1
ST_WAY: 256
ST_TAG_BIT: 16
ST_TAG_MASK: ffff

Initialize PATTERN TABLE
PT_SET: 512
PT_WAY: 4
SIG_DELTA_BIT: 7
C_SIG_BIT: 4
C_DELTA_BIT: 4

Initialize PREFETCH FILTER
FILTER_SET: 1024

Initialize PERCEPTRON
PERC_ENTRIES: 4096
PERC_FEATURES: 9

*** ChampSim Multicore Out-of-Order Simulator ***

Warmup Instructions: 50000000
Simulation Instructions: 100000000
Number of CPUs: 1
LLC sets: 2048
LLC ways: 16
Off-chip DRAM Size: 4096 MB Channels: 1 Width: 64-bit Data Rate: 6400 MT/s
CPU 0 runs ../SPEC2017//605.mcf_s-782B.champsimtrace.xz
.xz
NUM_OF_IPS_IN_CRITICAL_IP_TRAINING: 64
NUM_OF_CRITICAL_IP_TRAINING_TABLE_WAYS: 2
NUM_OF_CRITICAL_IP_TRAINING_TABLE_SETS: 32
WOBBLY_CRITICAL_IP_CACHE_SETS: 32
WOBBLY_CRITICAL_IP_CACHE_WAYS: 4
BTB has LRU replacement policy
ITLB has LRU replacement policy
DTLB has LRU replacement policy
STLB has LRU replacement policy
L1I has LRU replacement policy
L1D has LRU replacement policy
Initialize SRRIP state for L2C
Initialize DRRIP state for LLC
Heartbeat CPU 0 instructions: 10000001 cycles: 3723900 heartbeat IPC: 2.68536 cumulative IPC: 2.68536 (Simulation time: 0 hr 6 min 59 sec) 
Heartbeat CPU 0 instructions: 20000000 cycles: 7426840 heartbeat IPC: 2.70056 cumulative IPC: 2.69294 (Simulation time: 0 hr 13 min 11 sec) 
Heartbeat CPU 0 instructions: 30000000 cycles: 11179344 heartbeat IPC: 2.66489 cumulative IPC: 2.68352 (Simulation time: 0 hr 18 min 55 sec) 
Heartbeat CPU 0 instructions: 40000003 cycles: 14907153 heartbeat IPC: 2.68254 cumulative IPC: 2.68328 (Simulation time: 0 hr 24 min 5 sec) 
Heartbeat CPU 0 instructions: 50000000 cycles: 18666116 heartbeat IPC: 2.66031 cumulative IPC: 2.67865 (Simulation time: 0 hr 28 min 44 sec) 

Warmup complete CPU 0 instructions: 50000001 cycles: 18666117 (Simulation time: 0 hr 28 min 44 sec) 

% increase in all ip prefetch 884.821
% increase in all ip prefetch 3.40743
Heartbeat CPU 0 instructions: 60000000 cycles: 64253603 heartbeat IPC: 0.219358 cumulative IPC: 0.219358 (Simulation time: 0 hr 34 min 48 sec) 
Heartbeat CPU 0 instructions: 70000002 cycles: 108843040 heartbeat IPC: 0.224268 cumulative IPC: 0.221786 (Simulation time: 0 hr 40 min 16 sec) 
Heartbeat CPU 0 instructions: 80000002 cycles: 153412502 heartbeat IPC: 0.224369 cumulative IPC: 0.22264 (Simulation time: 0 hr 45 min 20 sec) 
Heartbeat CPU 0 instructions: 90000000 cycles: 200572158 heartbeat IPC: 0.212046 cumulative IPC: 0.219894 (Simulation time: 0 hr 52 min 21 sec) 
Heartbeat CPU 0 instructions: 100000001 cycles: 251425979 heartbeat IPC: 0.196642 cumulative IPC: 0.214814 (Simulation time: 1 hr 1 min 51 sec) 
Heartbeat CPU 0 instructions: 110000000 cycles: 303242596 heartbeat IPC: 0.192988 cumulative IPC: 0.21084 (Simulation time: 1 hr 10 min 6 sec) 
Heartbeat CPU 0 instructions: 120000000 cycles: 351943996 heartbeat IPC: 0.205333 cumulative IPC: 0.210035 (Simulation time: 1 hr 17 min 7 sec) 
Heartbeat CPU 0 instructions: 130000000 cycles: 397736355 heartbeat IPC: 0.218377 cumulative IPC: 0.211043 (Simulation time: 1 hr 23 min 45 sec) 
Heartbeat CPU 0 instructions: 140000001 cycles: 441862500 heartbeat IPC: 0.226623 cumulative IPC: 0.212667 (Simulation time: 1 hr 29 min 34 sec) 
Heartbeat CPU 0 instructions: 150000000 cycles: 487054379 heartbeat IPC: 0.221279 cumulative IPC: 0.213498 (Simulation time: 1 hr 34 min 39 sec) 
Finished CPU 0 instructions: 100000003 cycles: 468388291 cumulative IPC: 0.213498 (Simulation time: 1 hr 34 min 39 sec) 

ChampSim completed all CPUs

Region of Interest Statistics

CPU 0 cumulative IPC: 0.213498 instructions: 100000003 cycles: 468388291

CPU 0 Average Load ROB stall cycles: 8.41072e+07
CPU 0 Fraction of times ROB stalled by Loads: 33.3111
CPU 0 Percentage of Load stall cycles in Total stall cycles: 4.39117e+08
Issued all: 80703805
Issued LT all: 65961722
rob_not_full_when_issued_lt_all: 44491366
Issued LT one: 61729386
rob_not_full_when_issued_lt_one: 42365063
 Total stall cycles: 430466207
 Total load stall cycles: 1890251147454515
CPU 0 NUM of IPS identified critical: 0
CPU 0 Num of Load IPs stalling ROB: 262
Threshold modification factor: -1
Max PIST entries: 64
Min PIST entries: 0
Avg PIST entries: 38.7267
Trouble in retire width: 0.988939
MaC = Marked as critical.
lt_50_percent_before_Mac: 0
gt_90_percent_before_Mac: 0
gt_75_percent_before_Mac: 0
gt_50_percent_before_Mac: 0
stall_proportion_bin_same_before_after: 0
stall_proportion_bin_lower_before_after: 0
stall_proportion_bin_upper_before_after: 0
average_stall_proportion_before: -nan
average_stall_proportion_after: -nan
Critical IP stalls, total frequency: 0
Non-critical IP stalls, total frequency: 7486445
Total Freq all stalling IPs: 7486445
stat_90_percent_critical_ip_stalls_freq: 6759233
stat_90_percent_non_critical_ip_stalls_freq: 727212
Critical_IP_ROB_Stalls_Bucket_0: 0
Non-critical_IP_ROB_Stalls_Bucket_0: 3907180
Critical_IP_ROB_Stalls_Bucket_1: 0
Non-critical_IP_ROB_Stalls_Bucket_1: 1226564
Critical_IP_ROB_Stalls_Bucket_2: 0
Non-critical_IP_ROB_Stalls_Bucket_2: 670154
Critical_IP_ROB_Stalls_Bucket_3: 0
Non-critical_IP_ROB_Stalls_Bucket_3: 395038
Critical_IP_ROB_Stalls_Bucket_4: 0
Non-critical_IP_ROB_Stalls_Bucket_4: 319915
Critical_IP_ROB_Stalls_Bucket_5: 0
Non-critical_IP_ROB_Stalls_Bucket_5: 237766
Critical_IP_ROB_Stalls_Bucket_6: 0
Non-critical_IP_ROB_Stalls_Bucket_6: 729828
0 => IPs accounting for >50 percent of stalls, 1 => 55, 2 => 60, 3 => 65 and so on till 90.
percent50: 53.8805 num IPs:  2
percent55: 67.499 num IPs: 3
percent60: 67.499 num IPs: 3
percent65: 67.499 num IPs: 3
percent70: 72.4378 num IPs: 4
percent75: 75.9591 num IPs: 5
percent80: 81.1541 num IPs: 7
percent85: 85.1405 num IPs: 10
percent90: 90.2863 num IPs: 17
Critical_ROB_Stalls_Percent_0_Bucket_0: 1997990
Non-critical_ROB_Stalls_Percent_0_Bucket_0: 1909190
Critical_ROB_Stalls_Percent_0_Bucket_1: 885845
Non-critical_ROB_Stalls_Percent_0_Bucket_1: 340719
Critical_ROB_Stalls_Percent_0_Bucket_2: 425536
Non-critical_ROB_Stalls_Percent_0_Bucket_2: 244618
Critical_ROB_Stalls_Percent_0_Bucket_3: 188540
Non-critical_ROB_Stalls_Percent_0_Bucket_3: 206498
Critical_ROB_Stalls_Percent_0_Bucket_4: 176810
Non-critical_ROB_Stalls_Percent_0_Bucket_4: 143105
Critical_ROB_Stalls_Percent_0_Bucket_5: 124452
Non-critical_ROB_Stalls_Percent_0_Bucket_5: 113314
Critical_ROB_Stalls_Percent_0_Bucket_6: 234560
Non-critical_ROB_Stalls_Percent_0_Bucket_6: 495268
Critical_ROB_Stalls_Percent_1_Bucket_0: 2872644
Non-critical_ROB_Stalls_Percent_1_Bucket_0: 1034536
Critical_ROB_Stalls_Percent_1_Bucket_1: 921731
Non-critical_ROB_Stalls_Percent_1_Bucket_1: 304833
Critical_ROB_Stalls_Percent_1_Bucket_2: 463149
Non-critical_ROB_Stalls_Percent_1_Bucket_2: 207005
Critical_ROB_Stalls_Percent_1_Bucket_3: 210951
Non-critical_ROB_Stalls_Percent_1_Bucket_3: 184087
Critical_ROB_Stalls_Percent_1_Bucket_4: 192802
Non-critical_ROB_Stalls_Percent_1_Bucket_4: 127113
Critical_ROB_Stalls_Percent_1_Bucket_5: 135043
Non-critical_ROB_Stalls_Percent_1_Bucket_5: 102723
Critical_ROB_Stalls_Percent_1_Bucket_6: 256953
Non-critical_ROB_Stalls_Percent_1_Bucket_6: 472875
Critical_ROB_Stalls_Percent_2_Bucket_0: 2872644
Non-critical_ROB_Stalls_Percent_2_Bucket_0: 1034536
Critical_ROB_Stalls_Percent_2_Bucket_1: 921731
Non-critical_ROB_Stalls_Percent_2_Bucket_1: 304833
Critical_ROB_Stalls_Percent_2_Bucket_2: 463149
Non-critical_ROB_Stalls_Percent_2_Bucket_2: 207005
Critical_ROB_Stalls_Percent_2_Bucket_3: 210951
Non-critical_ROB_Stalls_Percent_2_Bucket_3: 184087
Critical_ROB_Stalls_Percent_2_Bucket_4: 192802
Non-critical_ROB_Stalls_Percent_2_Bucket_4: 127113
Critical_ROB_Stalls_Percent_2_Bucket_5: 135043
Non-critical_ROB_Stalls_Percent_2_Bucket_5: 102723
Critical_ROB_Stalls_Percent_2_Bucket_6: 256953
Non-critical_ROB_Stalls_Percent_2_Bucket_6: 472875
Critical_ROB_Stalls_Percent_3_Bucket_0: 2872644
Non-critical_ROB_Stalls_Percent_3_Bucket_0: 1034536
Critical_ROB_Stalls_Percent_3_Bucket_1: 921731
Non-critical_ROB_Stalls_Percent_3_Bucket_1: 304833
Critical_ROB_Stalls_Percent_3_Bucket_2: 463149
Non-critical_ROB_Stalls_Percent_3_Bucket_2: 207005
Critical_ROB_Stalls_Percent_3_Bucket_3: 210951
Non-critical_ROB_Stalls_Percent_3_Bucket_3: 184087
Critical_ROB_Stalls_Percent_3_Bucket_4: 192802
Non-critical_ROB_Stalls_Percent_3_Bucket_4: 127113
Critical_ROB_Stalls_Percent_3_Bucket_5: 135043
Non-critical_ROB_Stalls_Percent_3_Bucket_5: 102723
Critical_ROB_Stalls_Percent_3_Bucket_6: 256953
Non-critical_ROB_Stalls_Percent_3_Bucket_6: 472875
Critical_ROB_Stalls_Percent_4_Bucket_0: 3010352
Non-critical_ROB_Stalls_Percent_4_Bucket_0: 896828
Critical_ROB_Stalls_Percent_4_Bucket_1: 952427
Non-critical_ROB_Stalls_Percent_4_Bucket_1: 274137
Critical_ROB_Stalls_Percent_4_Bucket_2: 507858
Non-critical_ROB_Stalls_Percent_4_Bucket_2: 162296
Critical_ROB_Stalls_Percent_4_Bucket_3: 245356
Non-critical_ROB_Stalls_Percent_4_Bucket_3: 149682
Critical_ROB_Stalls_Percent_4_Bucket_4: 217761
Non-critical_ROB_Stalls_Percent_4_Bucket_4: 102154
Critical_ROB_Stalls_Percent_4_Bucket_5: 156582
Non-critical_ROB_Stalls_Percent_4_Bucket_5: 81184
Critical_ROB_Stalls_Percent_4_Bucket_6: 332681
Non-critical_ROB_Stalls_Percent_4_Bucket_6: 397147
Critical_ROB_Stalls_Percent_5_Bucket_0: 3122232
Non-critical_ROB_Stalls_Percent_5_Bucket_0: 784948
Critical_ROB_Stalls_Percent_5_Bucket_1: 983718
Non-critical_ROB_Stalls_Percent_5_Bucket_1: 242846
Critical_ROB_Stalls_Percent_5_Bucket_2: 527710
Non-critical_ROB_Stalls_Percent_5_Bucket_2: 142444
Critical_ROB_Stalls_Percent_5_Bucket_3: 264117
Non-critical_ROB_Stalls_Percent_5_Bucket_3: 130921
Critical_ROB_Stalls_Percent_5_Bucket_4: 236737
Non-critical_ROB_Stalls_Percent_5_Bucket_4: 83178
Critical_ROB_Stalls_Percent_5_Bucket_5: 167535
Non-critical_ROB_Stalls_Percent_5_Bucket_5: 70231
Critical_ROB_Stalls_Percent_5_Bucket_6: 384588
Non-critical_ROB_Stalls_Percent_5_Bucket_6: 345240
Critical_ROB_Stalls_Percent_6_Bucket_0: 3270229
Non-critical_ROB_Stalls_Percent_6_Bucket_0: 636951
Critical_ROB_Stalls_Percent_6_Bucket_1: 1032404
Non-critical_ROB_Stalls_Percent_6_Bucket_1: 194160
Critical_ROB_Stalls_Percent_6_Bucket_2: 569237
Non-critical_ROB_Stalls_Percent_6_Bucket_2: 100917
Critical_ROB_Stalls_Percent_6_Bucket_3: 301531
Non-critical_ROB_Stalls_Percent_6_Bucket_3: 93507
Critical_ROB_Stalls_Percent_6_Bucket_4: 258584
Non-critical_ROB_Stalls_Percent_6_Bucket_4: 61331
Critical_ROB_Stalls_Percent_6_Bucket_5: 187087
Non-critical_ROB_Stalls_Percent_6_Bucket_5: 50679
Critical_ROB_Stalls_Percent_6_Bucket_6: 456487
Non-critical_ROB_Stalls_Percent_6_Bucket_6: 273341
Critical_ROB_Stalls_Percent_7_Bucket_0: 3436918
Non-critical_ROB_Stalls_Percent_7_Bucket_0: 470262
Critical_ROB_Stalls_Percent_7_Bucket_1: 1077690
Non-critical_ROB_Stalls_Percent_7_Bucket_1: 148874
Critical_ROB_Stalls_Percent_7_Bucket_2: 590394
Non-critical_ROB_Stalls_Percent_7_Bucket_2: 79760
Critical_ROB_Stalls_Percent_7_Bucket_3: 323299
Non-critical_ROB_Stalls_Percent_7_Bucket_3: 71739
Critical_ROB_Stalls_Percent_7_Bucket_4: 271106
Non-critical_ROB_Stalls_Percent_7_Bucket_4: 48809
Critical_ROB_Stalls_Percent_7_Bucket_5: 195301
Non-critical_ROB_Stalls_Percent_7_Bucket_5: 42465
Critical_ROB_Stalls_Percent_7_Bucket_6: 479292
Non-critical_ROB_Stalls_Percent_7_Bucket_6: 250536
Critical_ROB_Stalls_Percent_8_Bucket_0: 3593868
Non-critical_ROB_Stalls_Percent_8_Bucket_0: 313312
Critical_ROB_Stalls_Percent_8_Bucket_1: 1125171
Non-critical_ROB_Stalls_Percent_8_Bucket_1: 101393
Critical_ROB_Stalls_Percent_8_Bucket_2: 622122
Non-critical_ROB_Stalls_Percent_8_Bucket_2: 48032
Critical_ROB_Stalls_Percent_8_Bucket_3: 354883
Non-critical_ROB_Stalls_Percent_8_Bucket_3: 40155
Critical_ROB_Stalls_Percent_8_Bucket_4: 290808
Non-critical_ROB_Stalls_Percent_8_Bucket_4: 29107
Critical_ROB_Stalls_Percent_8_Bucket_5: 211895
Non-critical_ROB_Stalls_Percent_8_Bucket_5: 25871
Critical_ROB_Stalls_Percent_8_Bucket_6: 560486
Non-critical_ROB_Stalls_Percent_8_Bucket_6: 169342
Average ROB occupancy Load Stall Begin: 84.3564
Average ROB occupancy Load Stall End: 93.9493
Min ROB occupancy Load Stall Begin: 1
Max ROB occupancy Load Stall Begin: 352
Min ROB occupancy Load Stall End: 1
Max ROB occupancy Load Stall End: 352
Average ROB occupancy Critical Load Stall Begin: -nan
Average ROB occupancy Critical Load Stall End: -nan
Min ROB occupancy Critical Load Stall Begin: 400
Max ROB occupancy Critical Load Stall Begin: 0
Min ROB occupancy Critical Load Stall End: 400
Max ROB occupancy Critical Load Stall End: 0
 ROB Load Stall Begin Bucket Count 0: 4254456
 ROB Load Stall End Bucket Count 0: 3907180
 ROB Critical Load Stall Begin Bucket Count 0: 0
 ROB Critical Load Stall End Bucket Count 0: 0
 ROB Load Stall Begin Bucket Count 1: 1212090
 ROB Load Stall End Bucket Count 1: 1226564
 ROB Critical Load Stall Begin Bucket Count 1: 0
 ROB Critical Load Stall End Bucket Count 1: 0
 ROB Load Stall Begin Bucket Count 2: 483995
 ROB Load Stall End Bucket Count 2: 670154
 ROB Critical Load Stall Begin Bucket Count 2: 0
 ROB Critical Load Stall End Bucket Count 2: 0
 ROB Load Stall Begin Bucket Count 3: 375694
 ROB Load Stall End Bucket Count 3: 395038
 ROB Critical Load Stall Begin Bucket Count 3: 0
 ROB Critical Load Stall End Bucket Count 3: 0
 ROB Load Stall Begin Bucket Count 4: 272692
 ROB Load Stall End Bucket Count 4: 319915
 ROB Critical Load Stall Begin Bucket Count 4: 0
 ROB Critical Load Stall End Bucket Count 4: 0
 ROB Load Stall Begin Bucket Count 5: 254562
 ROB Load Stall End Bucket Count 5: 237766
 ROB Critical Load Stall Begin Bucket Count 5: 0
 ROB Critical Load Stall End Bucket Count 5: 0
 ROB Load Stall Begin Bucket Count 6: 632956
 ROB Load Stall End Bucket Count 6: 729828
 ROB Critical Load Stall Begin Bucket Count 6: 0
 ROB Critical Load Stall End Bucket Count 6: 0
PIST Tag Read Accesses: 472402
PIST Read Accesses: 236201
PIST Tag Write Accesses: 472402
PIST Write Accesses: 236201
Criticality detector called times: 459376
Max global_stall_cycles_count: 1190290
Threshold Modified: 1 times, factor: -1
Sturdy critical IP cache stats: 
 Unused entries: 0
CIC Tag Read Accesses: 0
CIC Read Accesses: 0
CIC Tag Write Accesses: 0
CIC Write Accesses: 0
Wobbly critical IP cache stats: 
 Unused entries: 91
CIC Tag Read Accesses: 214610034
CIC Read Accesses: 0
CIC Tag Write Accesses: 705290
CIC Write Accesses: 0
ITLB TOTAL     ACCESS:   16299443  HIT:   16299443  MISS:          0  HIT %:        100  MISS %:          0   MPKI: 0
ITLB LOAD TRANSLATION ACCESS:   16299443  HIT:   16299443  MISS:          0  HIT %:        100  MISS %:          0   MPKI: 0
ITLB PREFETCH  REQUESTED:          0  ISSUED:          0  USEFUL:          0  USELESS:          0
ITLB USEFUL LOAD PREFETCHES:          0 PREFETCH ISSUED TO LOWER LEVEL:          0  ACCURACY: -nan
ITLB TIMELY PREFETCHES:          0 LATE PREFETCHES: 0 DROPPED PREFETCHES: 0
ITLB PREFETCHES SAME FILL-ORIGIN LEVEL: 0 DIFFERENT FILL-ORIGIN LEVEL: 0
ITLB AVERAGE MISS LATENCY: -nan cycles
ITLB RQ	ACCESS:   16517730	FORWARD:          0	MERGED:     218288	TO_CACHE:   16299442

DTLB TOTAL     ACCESS:   21147613  HIT:   12627858  MISS:    8519755  HIT %:    59.7129  MISS %:    40.2871   MPKI: 85.1975
DTLB LOAD TRANSLATION ACCESS:   21147613  HIT:   12627858  MISS:    8519755  HIT %:    59.7129  MISS %:    40.2871   MPKI: 85.1975
DTLB PREFETCH  REQUESTED:          0  ISSUED:          0  USEFUL:          0  USELESS:          0
DTLB USEFUL LOAD PREFETCHES:          0 PREFETCH ISSUED TO LOWER LEVEL:          0  ACCURACY: -nan
DTLB TIMELY PREFETCHES:          0 LATE PREFETCHES: 0 DROPPED PREFETCHES: 0
DTLB PREFETCHES SAME FILL-ORIGIN LEVEL: 0 DIFFERENT FILL-ORIGIN LEVEL: 0
DTLB AVERAGE MISS LATENCY: 11.1511 cycles
DTLB RQ	ACCESS:   23452821	FORWARD:          0	MERGED:    2155679	TO_CACHE:   21297142

STLB TOTAL     ACCESS:    8519754  HIT:    8406536  MISS:     113218  HIT %:    98.6711  MISS %:    1.32889   MPKI: 1.13218
STLB LOAD TRANSLATION ACCESS:    8519754  HIT:    8406536  MISS:     113218  HIT %:    98.6711  MISS %:    1.32889   MPKI: 1.13218
STLB PREFETCH  REQUESTED:          0  ISSUED:          0  USEFUL:          0  USELESS:          0
STLB USEFUL LOAD PREFETCHES:          0 PREFETCH ISSUED TO LOWER LEVEL:          0  ACCURACY: -nan
STLB TIMELY PREFETCHES:          0 LATE PREFETCHES: 0 DROPPED PREFETCHES: 0
STLB PREFETCHES SAME FILL-ORIGIN LEVEL: 0 DIFFERENT FILL-ORIGIN LEVEL: 0
STLB AVERAGE MISS LATENCY: 138.657 cycles
STLB RQ	ACCESS:    8519754	FORWARD:          0	MERGED:          0	TO_CACHE:    8519754

STLB Hit, L1D data hit: 0
STLB Hit, L2C data hit: 0
STLB Hit, LLC data hit: 0
STLB Hit, LLC data miss: 0
STLB STLB hints to L2: 0
L1D TOTAL     ACCESS:   23116917  HIT:    8180754  MISS:   14936163  HIT %:    35.3886  MISS %:    64.6114   MPKI: 149.362
L1D LOAD      ACCESS:   21074333  HIT:    6177048  MISS:   14897285  HIT %:    29.3108  MISS %:    70.6892   MPKI: 148.973
L1D RFO       ACCESS:    2042584  HIT:    2003706  MISS:      38878  HIT %:    98.0966  MISS %:    1.90337   MPKI: 0.38878
L1D PREFETCH  REQUESTED:          0  ISSUED:          0  USEFUL:          0  USELESS:          0
L1D USEFUL LOAD PREFETCHES:          0 PREFETCH ISSUED TO LOWER LEVEL:          0  ACCURACY: -nan
L1D TIMELY PREFETCHES:          0 LATE PREFETCHES: 0 DROPPED PREFETCHES: 0
L1D PREFETCHES SAME FILL-ORIGIN LEVEL: 0 DIFFERENT FILL-ORIGIN LEVEL: 0
L1D AVERAGE MISS LATENCY: 54.9432 cycles
L1D RQ	ACCESS:   35639163	FORWARD:          0	MERGED:   13959877	TO_CACHE:   21339706
L1D WQ	ACCESS:    2185912	FORWARD:     339580	MERGED:      72797	TO_CACHE:    2113115

L1D UNIQUE REGIONS ACCESSED: 0
L1D REGIONS CONFLICTS: 0
L1D Cross Page Prefetch Requests: 0
L1D Same Page Prefetch Requests: 0
L1D ROI Sum of L1D PQ occupancy: 0
L1D PREFETCHES PUSHED FROM L2C: 0
L1I TOTAL     ACCESS:   16517731  HIT:   16517731  MISS:          0  HIT %:        100  MISS %:          0   MPKI: 0
L1I LOAD      ACCESS:   16517731  HIT:   16517731  MISS:          0  HIT %:        100  MISS %:          0   MPKI: 0
L1I PREFETCH  REQUESTED:          0  ISSUED:          0  USEFUL:          0  USELESS:          0
L1I USEFUL LOAD PREFETCHES:          0 PREFETCH ISSUED TO LOWER LEVEL:          0  ACCURACY: -nan
L1I TIMELY PREFETCHES:          0 LATE PREFETCHES: 0 DROPPED PREFETCHES: 0
L1I PREFETCHES SAME FILL-ORIGIN LEVEL: 0 DIFFERENT FILL-ORIGIN LEVEL: 0
L1I AVERAGE MISS LATENCY: -nan cycles
L1I RQ	ACCESS:   22050027	FORWARD:          0	MERGED:    5532297	TO_CACHE:   16517730

BTB TOTAL     ACCESS:   29634397  HIT:   29518849  MISS:     115548  HIT %:    99.6101  MISS %:   0.389912   MPKI: 1.15548
BTB BRANCH_DIRECT_JUMP	ACCESS:    3793757  HIT:    3793720  MISS:         37
BTB BRANCH_INDIRECT	ACCESS:          0  HIT:          0  MISS:          0
BTB BRANCH_CONDITIONAL	ACCESS:   24997970  HIT:   24997888  MISS:         82
BTB BRANCH_DIRECT_CALL	ACCESS:     389591  HIT:     389573  MISS:         18
BTB BRANCH_INDIRECT_CALL	ACCESS:      31744  HIT:      31736  MISS:          8
BTB BRANCH_RETURN	ACCESS:     421335  HIT:     305932  MISS:     115403
BTB BRANCH_OTHER ACCESS:          0  HIT:          0  MISS:          0

L2C TOTAL     ACCESS:   20916174  HIT:    6914496  MISS:   14001678  HIT %:    33.0581  MISS %:    66.9419   MPKI: 140.017
L2C LOAD      ACCESS:   14897278  HIT:    6139033  MISS:    8758245  HIT %:    41.2091  MISS %:    58.7909   MPKI: 87.5824
L2C DATA LOAD MPKI: 87.5824
L2C INSTRUCTION LOAD MPKI: 0
L2C RFO       ACCESS:      38878  HIT:      22154  MISS:      16724  HIT %:    56.9834  MISS %:    43.0166   MPKI: 0.16724
L2C PREFETCH  ACCESS:    5560440  HIT:     375480  MISS:    5184960  HIT %:     6.7527  MISS %:    93.2473   MPKI: 51.8496
L2C DATA PREFETCH MPKI: 51.8496
L2C INSTRUCTION PREFETCH MPKI: 0
L2C WRITEBACK ACCESS:     305311  HIT:     301185  MISS:       4126  HIT %:    98.6486  MISS %:    1.35141   MPKI: 0.04126
L2C LOAD TRANSLATION ACCESS:     114267  HIT:      76644  MISS:      37623  HIT %:    67.0745  MISS %:    32.9255   MPKI: 0.37623
L2C PREFETCH  REQUESTED:    7494573  ISSUED:    7494523  USEFUL:    4420154  USELESS:     764797
L2C USEFUL LOAD PREFETCHES:    4420154 PREFETCH ISSUED TO LOWER LEVEL:    6752904  ACCURACY: 65.4556
L2C TIMELY PREFETCHES:    4420154 LATE PREFETCHES: 682330 DROPPED PREFETCHES: 0
L2C PREFETCHES SAME FILL-ORIGIN LEVEL: 5867291 DIFFERENT FILL-ORIGIN LEVEL: 885613
L2C AVERAGE MISS LATENCY: 91.0567 cycles
L2C RQ	ACCESS:   15050429	FORWARD:          0	MERGED:          0	TO_CACHE:   15050422
L2C WQ	ACCESS:     305311	FORWARD:          8	MERGED:          0	TO_CACHE:     305311
L2C PQ	ACCESS:    7494523	FORWARD:          0	MERGED:      73932	TO_CACHE:    7420590

L2C Instructions Evicting Data 0
L2C Translations Evicting Data 37537
L2C Data Evicting Data 13922379
L2C Instructions Evicting Instructions 0
L2C Translations Evicting Instructions 0
L2C Data Evicting Instructions 0
L2C Instructions Evicting Translations 0
L2C Translations Evicting Translations 86
L2C Data Evicting Translations 37550
L2C Dense regions hint from L2: 0
PSCL5 TOTAL     ACCESS:     113218  HIT:     113218  MISS:          0  HIT %:        100  MISS %:          0   MPKI: 0
PSCL5 LOAD TRANSLATION ACCESS:     113218  HIT:     113218  MISS:          0  HIT %:        100  MISS %:          0   MPKI: 0
PSCL5 PREFETCH  REQUESTED:          0  ISSUED:          0  USEFUL:          0  USELESS:          0
PSCL5 USEFUL LOAD PREFETCHES:          0 PREFETCH ISSUED TO LOWER LEVEL:          0  ACCURACY: -nan
PSCL5 TIMELY PREFETCHES:          0 LATE PREFETCHES: 0 DROPPED PREFETCHES: 0
PSCL5 PREFETCHES SAME FILL-ORIGIN LEVEL: 0 DIFFERENT FILL-ORIGIN LEVEL: 0

PSCL4 TOTAL     ACCESS:     113218  HIT:     113218  MISS:          0  HIT %:        100  MISS %:          0   MPKI: 0
PSCL4 LOAD TRANSLATION ACCESS:     113218  HIT:     113218  MISS:          0  HIT %:        100  MISS %:          0   MPKI: 0
PSCL4 PREFETCH  REQUESTED:          0  ISSUED:          0  USEFUL:          0  USELESS:          0
PSCL4 USEFUL LOAD PREFETCHES:          0 PREFETCH ISSUED TO LOWER LEVEL:          0  ACCURACY: -nan
PSCL4 TIMELY PREFETCHES:          0 LATE PREFETCHES: 0 DROPPED PREFETCHES: 0
PSCL4 PREFETCHES SAME FILL-ORIGIN LEVEL: 0 DIFFERENT FILL-ORIGIN LEVEL: 0

PSCL3 TOTAL     ACCESS:     113218  HIT:     113218  MISS:          0  HIT %:        100  MISS %:          0   MPKI: 0
PSCL3 LOAD TRANSLATION ACCESS:     113218  HIT:     113218  MISS:          0  HIT %:        100  MISS %:          0   MPKI: 0
PSCL3 PREFETCH  REQUESTED:          0  ISSUED:          0  USEFUL:          0  USELESS:          0
PSCL3 USEFUL LOAD PREFETCHES:          0 PREFETCH ISSUED TO LOWER LEVEL:          0  ACCURACY: -nan
PSCL3 TIMELY PREFETCHES:          0 LATE PREFETCHES: 0 DROPPED PREFETCHES: 0
PSCL3 PREFETCHES SAME FILL-ORIGIN LEVEL: 0 DIFFERENT FILL-ORIGIN LEVEL: 0

PSCL2 TOTAL     ACCESS:     113218  HIT:     111856  MISS:       1362  HIT %:     98.797  MISS %:    1.20299   MPKI: 0.01362
PSCL2 LOAD TRANSLATION ACCESS:     113218  HIT:     111856  MISS:       1362  HIT %:     98.797  MISS %:    1.20299   MPKI: 0.01362
PSCL2 PREFETCH  REQUESTED:          0  ISSUED:          0  USEFUL:          0  USELESS:          0
PSCL2 USEFUL LOAD PREFETCHES:          0 PREFETCH ISSUED TO LOWER LEVEL:          0  ACCURACY: -nan
PSCL2 TIMELY PREFETCHES:          0 LATE PREFETCHES: 0 DROPPED PREFETCHES: 0
PSCL2 PREFETCHES SAME FILL-ORIGIN LEVEL: 0 DIFFERENT FILL-ORIGIN LEVEL: 0

LLC TOTAL     ACCESS:   15076224  HIT:    7662356  MISS:    7413868  HIT %:    50.8241  MISS %:    49.1759   MPKI: 74.1387
LLC LOAD      ACCESS:    8075902  HIT:    6472220  MISS:    1603682  HIT %:    80.1424  MISS %:    19.8576   MPKI: 16.0368
LLC RFO       ACCESS:      16724  HIT:      14263  MISS:       2461  HIT %:    85.2846  MISS %:    14.7154   MPKI: 0.02461
LLC PREFETCH  ACCESS:    6751088  HIT:    1008749  MISS:    5742339  HIT %:     14.942  MISS %:     85.058   MPKI: 57.4234
LLC WRITEBACK ACCESS:     194887  HIT:     152625  MISS:      42262  HIT %:    78.3146  MISS %:    21.6854   MPKI: 0.42262
LLC LOAD TRANSLATION ACCESS:      37623  HIT:      14499  MISS:      23124  HIT %:    38.5376  MISS %:    61.4624   MPKI: 0.23124
LLC PREFETCH  REQUESTED:          0  ISSUED:          0  USEFUL:      12257  USELESS:    5729582
LLC USEFUL LOAD PREFETCHES:      12257 PREFETCH ISSUED TO LOWER LEVEL:    5742550  ACCURACY: 0.213442
LLC TIMELY PREFETCHES:      12257 LATE PREFETCHES: 210 DROPPED PREFETCHES: 0
LLC PREFETCHES SAME FILL-ORIGIN LEVEL: 396863 DIFFERENT FILL-ORIGIN LEVEL: 0
LLC AVERAGE MISS LATENCY: 133.174 cycles
LLC RQ	ACCESS:    8130261	FORWARD:          0	MERGED:          0	TO_CACHE:    8130248
LLC WQ	ACCESS:     194887	FORWARD:         15	MERGED:          0	TO_CACHE:     194887
LLC PQ	ACCESS:    6752904	FORWARD:          0	MERGED:       1314	TO_CACHE:    6751588

LLC Dense regions hint to LLC: 0

RAW hits: 286850
Loads Generated: 35926018
Loads sent to L1D: 35639163
Stores Generated: 2185912
Stores sent to L1D: 2185912
Major fault: 0 Minor fault: 128515
Allocated PAGES: 128515
------------------
Depth Distribution
------------------
depth 0: 12123467
depth 1: 1711536
depth 2: 535080
depth 3: 109591
depth 4: 409237
depth 5: 1518313
depth 6: 1361657
depth 7: 2080071
depth 8: 1485755
depth 9: 796364
depth 10: 114277
depth 11: 145100
depth 12: 13612
depth 13: 1118
depth 14: 555
depth 15: 1
depth 16: 0
depth 17: 0
depth 18: 0
depth 19: 0
depth 20: 0
depth 21: 0
depth 22: 0
depth 23: 0
depth 24: 0
depth 25: 0
depth 26: 0
depth 27: 0
depth 28: 0
depth 29: 0
Total: 22405734
------------------
ST read accesses: 8704299
ST write accesses: 6192978
PT read accesses: 285919488
PT write accesses: 10655403
FILTER read accesses: 91922205
FILTER write accesses: 46680479
GHR read accesses: 71196693
GHR write accesses: 3676845
PERC read accesses: 2037469392
PERC write accesses: 66632298
GHR counter read accesses: 29794554
GHR counter write accesses: 27602198
GHR ip read accesses: 84180783
GHR ip write accesses: 59589108
ST tag read accesses: 8897893341
ST tag write accesses: 1913327165

DRAM Statistics
 CHANNEL 0
 RQ ROW_BUFFER_HIT:    3835972  ROW_BUFFER_MISS:    3535620
 DBUS_CONGESTED:       2645
 WQ ROW_BUFFER_HIT:      20555  ROW_BUFFER_MISS:      37647  FULL:          0

 AVG_CONGESTED_CYCLE: 4
 All warmup complete: 2
Channel 0 Bank busy for read cycles: 0
Channel 0 Bank busy for write cycles: 0
Channel 0
Rank 0
0banks busy for read cycles: 159691228
0banks busy for write cycles: 41901
1banks busy for read cycles: 119177670
1banks busy for write cycles: 10141739
2banks busy for read cycles: 68802108
2banks busy for write cycles: 1423404
3banks busy for read cycles: 43925305
3banks busy for write cycles: 357734
4banks busy for read cycles: 27299424
4banks busy for write cycles: 140518
5banks busy for read cycles: 16293118
5banks busy for write cycles: 78585
6banks busy for read cycles: 9319024
6banks busy for write cycles: 46528
7banks busy for read cycles: 5451201
7banks busy for write cycles: 43061
8banks busy for read cycles: 6110501
8banks busy for write cycles: 45243

CPU 0 Branch Prediction Accuracy: 97.0234% MPKI: 8.99605 Average ROB Occupancy at Mispredict: 52.3402
Branch types
NOT_BRANCH: 69777207 69.7772%
BRANCH_DIRECT_JUMP: 3793757 3.79376%
BRANCH_INDIRECT: 0 0%
BRANCH_CONDITIONAL: 25586017 25.586%
BRANCH_DIRECT_CALL: 389591 0.389591%
BRANCH_INDIRECT_CALL: 31744 0.031744%
BRANCH_RETURN: 421335 0.421335%
BRANCH_OTHER: 0 0%

DRAM PAGES: 1048576
Allocated PAGES: 128515
