Initialize SIGNATURE TABLE
ST_SET: 1
ST_WAY: 256
ST_TAG_BIT: 16
ST_TAG_MASK: ffff

Initialize PATTERN TABLE
PT_SET: 512
PT_WAY: 4
SIG_DELTA_BIT: 7
C_SIG_BIT: 4
C_DELTA_BIT: 4

Initialize PREFETCH FILTER
FILTER_SET: 1024

*** ChampSim Multicore Out-of-Order Simulator ***

Warmup Instructions: 50000000
Simulation Instructions: 100000000
Number of CPUs: 1
LLC sets: 2048
LLC ways: 16
Off-chip DRAM Size: 4096 MB Channels: 1 Width: 64-bit Data Rate: 6400 MT/s
CPU 0 runs ../SPEC2017//605.mcf_s-472B.champsimtrace.xz
.xz
BTB has LRU replacement policy
ITLB has LRU replacement policy
DTLB has LRU replacement policy
STLB has LRU replacement policy
L1I has LRU replacement policy
L1D has LRU replacement policy
Initialize SRRIP state for L2C
Initialize DRRIP state for LLC
Heartbeat CPU 0 instructions: 10000001 cycles: 3238060 heartbeat IPC: 3.08827 cumulative IPC: 3.08827 (Simulation time: 0 hr 5 min 56 sec) 
Heartbeat CPU 0 instructions: 20000003 cycles: 6630312 heartbeat IPC: 2.94789 cumulative IPC: 3.01645 (Simulation time: 0 hr 11 min 39 sec) 
Heartbeat CPU 0 instructions: 30000003 cycles: 10104498 heartbeat IPC: 2.87837 cumulative IPC: 2.96898 (Simulation time: 0 hr 17 min 32 sec) 
Heartbeat CPU 0 instructions: 40000003 cycles: 13369619 heartbeat IPC: 3.06267 cumulative IPC: 2.99186 (Simulation time: 0 hr 22 min 44 sec) 
Heartbeat CPU 0 instructions: 50000001 cycles: 16654732 heartbeat IPC: 3.04403 cumulative IPC: 3.00215 (Simulation time: 0 hr 27 min 36 sec) 

Warmup complete CPU 0 instructions: 50000001 cycles: 16654732 (Simulation time: 0 hr 27 min 36 sec) 

Heartbeat CPU 0 instructions: 60000001 cycles: 45526418 heartbeat IPC: 0.34636 cumulative IPC: 0.34636 (Simulation time: 0 hr 35 min 39 sec) 
Heartbeat CPU 0 instructions: 70000002 cycles: 71688801 heartbeat IPC: 0.382228 cumulative IPC: 0.363411 (Simulation time: 0 hr 42 min 33 sec) 
Heartbeat CPU 0 instructions: 80000002 cycles: 102814669 heartbeat IPC: 0.321276 cumulative IPC: 0.34819 (Simulation time: 0 hr 50 min 2 sec) 
Heartbeat CPU 0 instructions: 90000000 cycles: 128405947 heartbeat IPC: 0.390758 cumulative IPC: 0.357938 (Simulation time: 0 hr 56 min 12 sec) 
Heartbeat CPU 0 instructions: 100000002 cycles: 158196960 heartbeat IPC: 0.335672 cumulative IPC: 0.353251 (Simulation time: 1 hr 2 min 26 sec) 
Heartbeat CPU 0 instructions: 110000000 cycles: 184651903 heartbeat IPC: 0.378001 cumulative IPC: 0.357149 (Simulation time: 1 hr 9 min 9 sec) 
Heartbeat CPU 0 instructions: 120000002 cycles: 213348563 heartbeat IPC: 0.348473 cumulative IPC: 0.355883 (Simulation time: 1 hr 21 min 29 sec) 
Heartbeat CPU 0 instructions: 130000002 cycles: 242978145 heartbeat IPC: 0.337501 cumulative IPC: 0.353476 (Simulation time: 1 hr 33 min 15 sec) 
Heartbeat CPU 0 instructions: 140000003 cycles: 272494371 heartbeat IPC: 0.338797 cumulative IPC: 0.351783 (Simulation time: 1 hr 43 min 40 sec) 
Heartbeat CPU 0 instructions: 150000002 cycles: 301682275 heartbeat IPC: 0.342608 cumulative IPC: 0.350843 (Simulation time: 1 hr 52 min 25 sec) 
Finished CPU 0 instructions: 100000001 cycles: 285027543 cumulative IPC: 0.350843 (Simulation time: 1 hr 52 min 25 sec) 

ChampSim completed all CPUs

Region of Interest Statistics

CPU 0 cumulative IPC: 0.350843 instructions: 100000001 cycles: 285027543

CPU 0 Average Load ROB stall cycles: 5.38808e+07
CPU 0 Fraction of times ROB stalled by Loads: 34.1697
CPU 0 Percentage of Load stall cycles in Total stall cycles: 4.76088e+08
Issued all: 156825927
Issued LT all: 147757134
rob_not_full_when_issued_lt_all: 30453690
Issued LT one: 130319944
rob_not_full_when_issued_lt_one: 24638676
 Total stall cycles: 260969825
 Total load stall cycles: 1242445223730097
Unique Load IPs: 96
CPU 0 NUM of IPS identified critical: 20
CPU 0 Num of Load IPs stalling ROB: 0
Threshold modification factor: 0
Trouble in retire width: -nan
MaC = Marked as critical.
lt_50_percent_before_Mac: 16
gt_90_percent_before_Mac: 1
gt_75_percent_before_Mac: 3
gt_50_percent_before_Mac: 0
stall_proportion_bin_same_before_after: 0
stall_proportion_bin_lower_before_after: 0
stall_proportion_bin_upper_before_after: 0
average_stall_proportion_before: 0.0336203
average_stall_proportion_after: 0.033688
Critical_IP_Detector_Accuracy_70: 0
Critical_IP_Detector_Accuracy_80: 0
Critical_IP_Detector_Accuracy_90: 0
Critical_IP_Detector_Coverage_70: 0
Critical_IP_Detector_Coverage_80: 0
Critical_IP_Detector_Coverage_90: 0
stat_90_percent_critical_ip_stalls_freq: 1861940
stat_90_percent_non_critical_ip_stalls_freq: 18446744073707689676
AVERAGE_ROB_Occupancy_90_Percent_Critical_IP_Stalls: 262.464
AVERAGE_ROB_Occupancy_90_Percent_Non_Critical_IP_Stalls: 8.07782e-11
Critical_IP_ROB_Stalls_Bucket_0: 409759
Non-critical_IP_ROB_Stalls_Bucket_0: 363777
Critical_IP_ROB_Stalls_Bucket_1: 159019
Non-critical_IP_ROB_Stalls_Bucket_1: 198551
Critical_IP_ROB_Stalls_Bucket_2: 153024
Non-critical_IP_ROB_Stalls_Bucket_2: 348965
Critical_IP_ROB_Stalls_Bucket_3: 107052
Non-critical_IP_ROB_Stalls_Bucket_3: 623709
Critical_IP_ROB_Stalls_Bucket_4: 62218
Non-critical_IP_ROB_Stalls_Bucket_4: 650034
Critical_IP_ROB_Stalls_Bucket_5: 58382
Non-critical_IP_ROB_Stalls_Bucket_5: 948290
Critical_IP_ROB_Stalls_Bucket_6: 1224617
Non-critical_IP_ROB_Stalls_Bucket_6: 2571842
0 => IPs accounting for >50 percent of stalls, 1 => 55, 2 => 60, 3 => 65 and so on till 90.
percent50: inf num IPs:  1
percent55: inf num IPs: 1
percent60: inf num IPs: 1
percent65: inf num IPs: 1
percent70: inf num IPs: 1
percent75: inf num IPs: 1
percent80: inf num IPs: 1
percent85: inf num IPs: 1
percent90: inf num IPs: 1
Critical_ROB_Stalls_Percent_0_Bucket_0: 113659
Non-critical_ROB_Stalls_Percent_0_Bucket_0: 659877
Critical_ROB_Stalls_Percent_0_Bucket_1: 62232
Non-critical_ROB_Stalls_Percent_0_Bucket_1: 295338
Critical_ROB_Stalls_Percent_0_Bucket_2: 115759
Non-critical_ROB_Stalls_Percent_0_Bucket_2: 386230
Critical_ROB_Stalls_Percent_0_Bucket_3: 159358
Non-critical_ROB_Stalls_Percent_0_Bucket_3: 571403
Critical_ROB_Stalls_Percent_0_Bucket_4: 193983
Non-critical_ROB_Stalls_Percent_0_Bucket_4: 518269
Critical_ROB_Stalls_Percent_0_Bucket_5: 315989
Non-critical_ROB_Stalls_Percent_0_Bucket_5: 690683
Critical_ROB_Stalls_Percent_0_Bucket_6: 900960
Non-critical_ROB_Stalls_Percent_0_Bucket_6: 2895499
Critical_ROB_Stalls_Percent_1_Bucket_0: 113659
Non-critical_ROB_Stalls_Percent_1_Bucket_0: 659877
Critical_ROB_Stalls_Percent_1_Bucket_1: 62232
Non-critical_ROB_Stalls_Percent_1_Bucket_1: 295338
Critical_ROB_Stalls_Percent_1_Bucket_2: 115759
Non-critical_ROB_Stalls_Percent_1_Bucket_2: 386230
Critical_ROB_Stalls_Percent_1_Bucket_3: 159358
Non-critical_ROB_Stalls_Percent_1_Bucket_3: 571403
Critical_ROB_Stalls_Percent_1_Bucket_4: 193983
Non-critical_ROB_Stalls_Percent_1_Bucket_4: 518269
Critical_ROB_Stalls_Percent_1_Bucket_5: 315989
Non-critical_ROB_Stalls_Percent_1_Bucket_5: 690683
Critical_ROB_Stalls_Percent_1_Bucket_6: 900960
Non-critical_ROB_Stalls_Percent_1_Bucket_6: 2895499
Critical_ROB_Stalls_Percent_2_Bucket_0: 113659
Non-critical_ROB_Stalls_Percent_2_Bucket_0: 659877
Critical_ROB_Stalls_Percent_2_Bucket_1: 62232
Non-critical_ROB_Stalls_Percent_2_Bucket_1: 295338
Critical_ROB_Stalls_Percent_2_Bucket_2: 115759
Non-critical_ROB_Stalls_Percent_2_Bucket_2: 386230
Critical_ROB_Stalls_Percent_2_Bucket_3: 159358
Non-critical_ROB_Stalls_Percent_2_Bucket_3: 571403
Critical_ROB_Stalls_Percent_2_Bucket_4: 193983
Non-critical_ROB_Stalls_Percent_2_Bucket_4: 518269
Critical_ROB_Stalls_Percent_2_Bucket_5: 315989
Non-critical_ROB_Stalls_Percent_2_Bucket_5: 690683
Critical_ROB_Stalls_Percent_2_Bucket_6: 900960
Non-critical_ROB_Stalls_Percent_2_Bucket_6: 2895499
Critical_ROB_Stalls_Percent_3_Bucket_0: 113659
Non-critical_ROB_Stalls_Percent_3_Bucket_0: 659877
Critical_ROB_Stalls_Percent_3_Bucket_1: 62232
Non-critical_ROB_Stalls_Percent_3_Bucket_1: 295338
Critical_ROB_Stalls_Percent_3_Bucket_2: 115759
Non-critical_ROB_Stalls_Percent_3_Bucket_2: 386230
Critical_ROB_Stalls_Percent_3_Bucket_3: 159358
Non-critical_ROB_Stalls_Percent_3_Bucket_3: 571403
Critical_ROB_Stalls_Percent_3_Bucket_4: 193983
Non-critical_ROB_Stalls_Percent_3_Bucket_4: 518269
Critical_ROB_Stalls_Percent_3_Bucket_5: 315989
Non-critical_ROB_Stalls_Percent_3_Bucket_5: 690683
Critical_ROB_Stalls_Percent_3_Bucket_6: 900960
Non-critical_ROB_Stalls_Percent_3_Bucket_6: 2895499
Critical_ROB_Stalls_Percent_4_Bucket_0: 113659
Non-critical_ROB_Stalls_Percent_4_Bucket_0: 659877
Critical_ROB_Stalls_Percent_4_Bucket_1: 62232
Non-critical_ROB_Stalls_Percent_4_Bucket_1: 295338
Critical_ROB_Stalls_Percent_4_Bucket_2: 115759
Non-critical_ROB_Stalls_Percent_4_Bucket_2: 386230
Critical_ROB_Stalls_Percent_4_Bucket_3: 159358
Non-critical_ROB_Stalls_Percent_4_Bucket_3: 571403
Critical_ROB_Stalls_Percent_4_Bucket_4: 193983
Non-critical_ROB_Stalls_Percent_4_Bucket_4: 518269
Critical_ROB_Stalls_Percent_4_Bucket_5: 315989
Non-critical_ROB_Stalls_Percent_4_Bucket_5: 690683
Critical_ROB_Stalls_Percent_4_Bucket_6: 900960
Non-critical_ROB_Stalls_Percent_4_Bucket_6: 2895499
Critical_ROB_Stalls_Percent_5_Bucket_0: 113659
Non-critical_ROB_Stalls_Percent_5_Bucket_0: 659877
Critical_ROB_Stalls_Percent_5_Bucket_1: 62232
Non-critical_ROB_Stalls_Percent_5_Bucket_1: 295338
Critical_ROB_Stalls_Percent_5_Bucket_2: 115759
Non-critical_ROB_Stalls_Percent_5_Bucket_2: 386230
Critical_ROB_Stalls_Percent_5_Bucket_3: 159358
Non-critical_ROB_Stalls_Percent_5_Bucket_3: 571403
Critical_ROB_Stalls_Percent_5_Bucket_4: 193983
Non-critical_ROB_Stalls_Percent_5_Bucket_4: 518269
Critical_ROB_Stalls_Percent_5_Bucket_5: 315989
Non-critical_ROB_Stalls_Percent_5_Bucket_5: 690683
Critical_ROB_Stalls_Percent_5_Bucket_6: 900960
Non-critical_ROB_Stalls_Percent_5_Bucket_6: 2895499
Critical_ROB_Stalls_Percent_6_Bucket_0: 113659
Non-critical_ROB_Stalls_Percent_6_Bucket_0: 659877
Critical_ROB_Stalls_Percent_6_Bucket_1: 62232
Non-critical_ROB_Stalls_Percent_6_Bucket_1: 295338
Critical_ROB_Stalls_Percent_6_Bucket_2: 115759
Non-critical_ROB_Stalls_Percent_6_Bucket_2: 386230
Critical_ROB_Stalls_Percent_6_Bucket_3: 159358
Non-critical_ROB_Stalls_Percent_6_Bucket_3: 571403
Critical_ROB_Stalls_Percent_6_Bucket_4: 193983
Non-critical_ROB_Stalls_Percent_6_Bucket_4: 518269
Critical_ROB_Stalls_Percent_6_Bucket_5: 315989
Non-critical_ROB_Stalls_Percent_6_Bucket_5: 690683
Critical_ROB_Stalls_Percent_6_Bucket_6: 900960
Non-critical_ROB_Stalls_Percent_6_Bucket_6: 2895499
Critical_ROB_Stalls_Percent_7_Bucket_0: 113659
Non-critical_ROB_Stalls_Percent_7_Bucket_0: 659877
Critical_ROB_Stalls_Percent_7_Bucket_1: 62232
Non-critical_ROB_Stalls_Percent_7_Bucket_1: 295338
Critical_ROB_Stalls_Percent_7_Bucket_2: 115759
Non-critical_ROB_Stalls_Percent_7_Bucket_2: 386230
Critical_ROB_Stalls_Percent_7_Bucket_3: 159358
Non-critical_ROB_Stalls_Percent_7_Bucket_3: 571403
Critical_ROB_Stalls_Percent_7_Bucket_4: 193983
Non-critical_ROB_Stalls_Percent_7_Bucket_4: 518269
Critical_ROB_Stalls_Percent_7_Bucket_5: 315989
Non-critical_ROB_Stalls_Percent_7_Bucket_5: 690683
Critical_ROB_Stalls_Percent_7_Bucket_6: 900960
Non-critical_ROB_Stalls_Percent_7_Bucket_6: 2895499
Critical_ROB_Stalls_Percent_8_Bucket_0: 113659
Non-critical_ROB_Stalls_Percent_8_Bucket_0: 659877
Critical_ROB_Stalls_Percent_8_Bucket_1: 62232
Non-critical_ROB_Stalls_Percent_8_Bucket_1: 295338
Critical_ROB_Stalls_Percent_8_Bucket_2: 115759
Non-critical_ROB_Stalls_Percent_8_Bucket_2: 386230
Critical_ROB_Stalls_Percent_8_Bucket_3: 159358
Non-critical_ROB_Stalls_Percent_8_Bucket_3: 571403
Critical_ROB_Stalls_Percent_8_Bucket_4: 193983
Non-critical_ROB_Stalls_Percent_8_Bucket_4: 518269
Critical_ROB_Stalls_Percent_8_Bucket_5: 315989
Non-critical_ROB_Stalls_Percent_8_Bucket_5: 690683
Critical_ROB_Stalls_Percent_8_Bucket_6: 900960
Non-critical_ROB_Stalls_Percent_8_Bucket_6: 2895499
Average ROB occupancy Load Stall Begin: 244.791
Average ROB occupancy Load Stall End: 251.139
Min ROB occupancy Load Stall Begin: 1
Max ROB occupancy Load Stall Begin: 352
Min ROB occupancy Load Stall End: 1
Max ROB occupancy Load Stall End: 352
Average ROB occupancy Critical Load Stall Begin: 235.449
Average ROB occupancy Critical Load Stall End: 244.381
Min ROB occupancy Critical Load Stall Begin: 2
Max ROB occupancy Critical Load Stall Begin: 352
Min ROB occupancy Critical Load Stall End: 2
Max ROB occupancy Critical Load Stall End: 352
 ROB Load Stall Begin Bucket Count 0: 859798
 ROB Load Stall End Bucket Count 0: 773536
 ROB Critical Load Stall Begin Bucket Count 0: 370587
 ROB Critical Load Stall End Bucket Count 0: 309420
 ROB Load Stall Begin Bucket Count 1: 355085
 ROB Load Stall End Bucket Count 1: 357570
 ROB Critical Load Stall Begin Bucket Count 1: 141431
 ROB Critical Load Stall End Bucket Count 1: 147890
 ROB Load Stall Begin Bucket Count 2: 548154
 ROB Load Stall End Bucket Count 2: 501989
 ROB Critical Load Stall Begin Bucket Count 2: 125993
 ROB Critical Load Stall End Bucket Count 2: 141640
 ROB Load Stall Begin Bucket Count 3: 732652
 ROB Load Stall End Bucket Count 3: 730761
 ROB Critical Load Stall Begin Bucket Count 3: 78310
 ROB Critical Load Stall End Bucket Count 3: 93884
 ROB Load Stall Begin Bucket Count 4: 725366
 ROB Load Stall End Bucket Count 4: 712252
 ROB Critical Load Stall Begin Bucket Count 4: 48483
 ROB Critical Load Stall End Bucket Count 4: 54144
 ROB Load Stall Begin Bucket Count 5: 1048724
 ROB Load Stall End Bucket Count 5: 1006672
 ROB Critical Load Stall Begin Bucket Count 5: 64136
 ROB Critical Load Stall End Bucket Count 5: 50095
 ROB Load Stall Begin Bucket Count 6: 3609460
 ROB Load Stall End Bucket Count 6: 3796459
 ROB Critical Load Stall Begin Bucket Count 6: 1091898
 ROB Critical Load Stall End Bucket Count 6: 1123767
PIST Tag Read Accesses: 0
PIST Read Accesses: 0
PIST Tag Write Accesses: 0
PIST Write Accesses: 0
Criticality detector called times: 0
Max global_stall_cycles_count: 0
Threshold Modified: 0 times, factor: 0
Sturdy critical IP cache stats: 
 Unused entries: 0
CIC Tag Read Accesses: 0
CIC Read Accesses: 0
CIC Tag Write Accesses: 0
CIC Write Accesses: 0
Wobbly critical IP cache stats: 
 Unused entries: 7
CIC Tag Read Accesses: 503238931
CIC Read Accesses: 0
CIC Tag Write Accesses: 13290665
CIC Write Accesses: 0
ITLB TOTAL     ACCESS:   17052201  HIT:   17052201  MISS:          0  HIT %:        100  MISS %:          0   MPKI: 0
ITLB LOAD TRANSLATION ACCESS:   17052201  HIT:   17052201  MISS:          0  HIT %:        100  MISS %:          0   MPKI: 0
ITLB PREFETCH  REQUESTED:          0  ISSUED:          0  USEFUL:          0  USELESS:          0
ITLB USEFUL LOAD PREFETCHES:          0 PREFETCH ISSUED TO LOWER LEVEL:          0  ACCURACY: -nan
ITLB TIMELY PREFETCHES:          0 LATE PREFETCHES: 0 DROPPED PREFETCHES: 0
ITLB PREFETCHES SAME FILL-ORIGIN LEVEL: 0 DIFFERENT FILL-ORIGIN LEVEL: 0
ITLB AVERAGE MISS LATENCY: -nan cycles
ITLB RQ	ACCESS:   22205458	FORWARD:          0	MERGED:    5153258	TO_CACHE:   17052200

DTLB TOTAL     ACCESS:   27608228  HIT:   27306834  MISS:     301394  HIT %:    98.9083  MISS %:    1.09168   MPKI: 3.01394
DTLB LOAD TRANSLATION ACCESS:   27608228  HIT:   27306834  MISS:     301394  HIT %:    98.9083  MISS %:    1.09168   MPKI: 3.01394
DTLB PREFETCH  REQUESTED:          0  ISSUED:          0  USEFUL:          0  USELESS:          0
DTLB USEFUL LOAD PREFETCHES:          0 PREFETCH ISSUED TO LOWER LEVEL:          0  ACCURACY: -nan
DTLB TIMELY PREFETCHES:          0 LATE PREFETCHES: 0 DROPPED PREFETCHES: 0
DTLB PREFETCHES SAME FILL-ORIGIN LEVEL: 0 DIFFERENT FILL-ORIGIN LEVEL: 0
DTLB AVERAGE MISS LATENCY: 37.0877 cycles
DTLB RQ	ACCESS:   45401704	FORWARD:          0	MERGED:   17729813	TO_CACHE:   27671891

STLB TOTAL     ACCESS:     301394  HIT:     171577  MISS:     129817  HIT %:    56.9278  MISS %:    43.0722   MPKI: 1.29817
STLB LOAD TRANSLATION ACCESS:     301394  HIT:     171577  MISS:     129817  HIT %:    56.9278  MISS %:    43.0722   MPKI: 1.29817
STLB PREFETCH  REQUESTED:          0  ISSUED:          0  USEFUL:          0  USELESS:          0
STLB USEFUL LOAD PREFETCHES:          0 PREFETCH ISSUED TO LOWER LEVEL:          0  ACCURACY: -nan
STLB TIMELY PREFETCHES:          0 LATE PREFETCHES: 0 DROPPED PREFETCHES: 0
STLB PREFETCHES SAME FILL-ORIGIN LEVEL: 0 DIFFERENT FILL-ORIGIN LEVEL: 0
STLB AVERAGE MISS LATENCY: 65.1039 cycles
STLB RQ	ACCESS:     301394	FORWARD:          0	MERGED:          0	TO_CACHE:     301394

STLB Hit, L1D data hit: 0
STLB Hit, L2C data hit: 0
STLB Hit, LLC data hit: 0
STLB Hit, LLC data miss: 0
STLB STLB hints to L2: 0
L1D TOTAL     ACCESS:   44189931  HIT:   39212405  MISS:    4977526  HIT %:    88.7361  MISS %:    11.2639   MPKI: 49.7753
L1D LOAD      ACCESS:   20757847  HIT:   16010871  MISS:    4746976  HIT %:    77.1317  MISS %:    22.8683   MPKI: 47.4698
L1D RFO       ACCESS:   23432084  HIT:   23201534  MISS:     230550  HIT %:    99.0161  MISS %:   0.983907   MPKI: 2.3055
L1D PREFETCH  REQUESTED:          0  ISSUED:          0  USEFUL:          0  USELESS:          0
L1D USEFUL LOAD PREFETCHES:          0 PREFETCH ISSUED TO LOWER LEVEL:          0  ACCURACY: -nan
L1D TIMELY PREFETCHES:          0 LATE PREFETCHES: 0 DROPPED PREFETCHES: 0
L1D PREFETCHES SAME FILL-ORIGIN LEVEL: 0 DIFFERENT FILL-ORIGIN LEVEL: 0
L1D AVERAGE MISS LATENCY: 110.953 cycles
L1D RQ	ACCESS:   33441899	FORWARD:          0	MERGED:   12165885	TO_CACHE:   21250597
L1D WQ	ACCESS:   24693640	FORWARD:      25417	MERGED:     542533	TO_CACHE:   24151107

L1D UNIQUE REGIONS ACCESSED: 0
L1D REGIONS CONFLICTS: 0
L1D Cross Page Prefetch Requests: 0
L1D Same Page Prefetch Requests: 0
L1D ROI Sum of L1D PQ occupancy: 0
L1D PREFETCHES PUSHED FROM L2C: 0
L1I TOTAL     ACCESS:   22205457  HIT:   22205457  MISS:          0  HIT %:        100  MISS %:          0   MPKI: 0
L1I LOAD      ACCESS:   22205457  HIT:   22205457  MISS:          0  HIT %:        100  MISS %:          0   MPKI: 0
L1I PREFETCH  REQUESTED:          0  ISSUED:          0  USEFUL:          0  USELESS:          0
L1I USEFUL LOAD PREFETCHES:          0 PREFETCH ISSUED TO LOWER LEVEL:          0  ACCURACY: -nan
L1I TIMELY PREFETCHES:          0 LATE PREFETCHES: 0 DROPPED PREFETCHES: 0
L1I PREFETCHES SAME FILL-ORIGIN LEVEL: 0 DIFFERENT FILL-ORIGIN LEVEL: 0
L1I AVERAGE MISS LATENCY: -nan cycles
L1I RQ	ACCESS:   30255547	FORWARD:          0	MERGED:    8050089	TO_CACHE:   22205458

BTB TOTAL     ACCESS:   11269117  HIT:   11269083  MISS:         34  HIT %:    99.9997  MISS %: 0.00030171   MPKI: 0.00034
BTB BRANCH_DIRECT_JUMP	ACCESS:    1149944  HIT:    1149938  MISS:          6
BTB BRANCH_INDIRECT	ACCESS:          0  HIT:          0  MISS:          0
BTB BRANCH_CONDITIONAL	ACCESS:   10118909  HIT:   10118885  MISS:         24
BTB BRANCH_DIRECT_CALL	ACCESS:        132  HIT:        130  MISS:          2
BTB BRANCH_INDIRECT_CALL	ACCESS:          0  HIT:          0  MISS:          0
BTB BRANCH_RETURN	ACCESS:        132  HIT:        130  MISS:          2
BTB BRANCH_OTHER ACCESS:          0  HIT:          0  MISS:          0

L2C TOTAL     ACCESS:    6329701  HIT:    1384347  MISS:    4945354  HIT %:    21.8707  MISS %:    78.1293   MPKI: 49.4535
L2C LOAD      ACCESS:    4746974  HIT:     620751  MISS:    4126223  HIT %:    13.0768  MISS %:    86.9232   MPKI: 41.2622
L2C DATA LOAD MPKI: 41.2622
L2C INSTRUCTION LOAD MPKI: 0
L2C RFO       ACCESS:     230548  HIT:       4303  MISS:     226245  HIT %:    1.86642  MISS %:    98.1336   MPKI: 2.26245
L2C PREFETCH  ACCESS:     725140  HIT:     160889  MISS:     564251  HIT %:    22.1873  MISS %:    77.8127   MPKI: 5.64251
L2C DATA PREFETCH MPKI: 5.64251
L2C INSTRUCTION PREFETCH MPKI: 0
L2C WRITEBACK ACCESS:     497029  HIT:     487250  MISS:       9779  HIT %:    98.0325  MISS %:    1.96749   MPKI: 0.09779
L2C LOAD TRANSLATION ACCESS:     130010  HIT:     111154  MISS:      18856  HIT %:    85.4965  MISS %:    14.5035   MPKI: 0.18856
L2C PREFETCH  REQUESTED:   10139191  ISSUED:   10111689  USEFUL:     553227  USELESS:      11019
L2C USEFUL LOAD PREFETCHES:     553227 PREFETCH ISSUED TO LOWER LEVEL:    9277265  ACCURACY: 5.96326
L2C TIMELY PREFETCHES:     553227 LATE PREFETCHES: 30650 DROPPED PREFETCHES: 0
L2C PREFETCHES SAME FILL-ORIGIN LEVEL: 594901 DIFFERENT FILL-ORIGIN LEVEL: 8682364
L2C AVERAGE MISS LATENCY: 101.271 cycles
L2C RQ	ACCESS:    5107534	FORWARD:          0	MERGED:          0	TO_CACHE:    5107531
L2C WQ	ACCESS:     497029	FORWARD:          3	MERGED:          0	TO_CACHE:     497029
L2C PQ	ACCESS:   10111689	FORWARD:          0	MERGED:     350574	TO_CACHE:    9761115

L2C Instructions Evicting Data 0
L2C Translations Evicting Data 18821
L2C Data Evicting Data 4897996
L2C Instructions Evicting Instructions 0
L2C Translations Evicting Instructions 0
L2C Data Evicting Instructions 0
L2C Instructions Evicting Translations 0
L2C Translations Evicting Translations 35
L2C Data Evicting Translations 18723
L2C Dense regions hint from L2: 0
PSCL5 TOTAL     ACCESS:     129817  HIT:     129817  MISS:          0  HIT %:        100  MISS %:          0   MPKI: 0
PSCL5 LOAD TRANSLATION ACCESS:     129817  HIT:     129817  MISS:          0  HIT %:        100  MISS %:          0   MPKI: 0
PSCL5 PREFETCH  REQUESTED:          0  ISSUED:          0  USEFUL:          0  USELESS:          0
PSCL5 USEFUL LOAD PREFETCHES:          0 PREFETCH ISSUED TO LOWER LEVEL:          0  ACCURACY: -nan
PSCL5 TIMELY PREFETCHES:          0 LATE PREFETCHES: 0 DROPPED PREFETCHES: 0
PSCL5 PREFETCHES SAME FILL-ORIGIN LEVEL: 0 DIFFERENT FILL-ORIGIN LEVEL: 0

PSCL4 TOTAL     ACCESS:     129817  HIT:     129817  MISS:          0  HIT %:        100  MISS %:          0   MPKI: 0
PSCL4 LOAD TRANSLATION ACCESS:     129817  HIT:     129817  MISS:          0  HIT %:        100  MISS %:          0   MPKI: 0
PSCL4 PREFETCH  REQUESTED:          0  ISSUED:          0  USEFUL:          0  USELESS:          0
PSCL4 USEFUL LOAD PREFETCHES:          0 PREFETCH ISSUED TO LOWER LEVEL:          0  ACCURACY: -nan
PSCL4 TIMELY PREFETCHES:          0 LATE PREFETCHES: 0 DROPPED PREFETCHES: 0
PSCL4 PREFETCHES SAME FILL-ORIGIN LEVEL: 0 DIFFERENT FILL-ORIGIN LEVEL: 0

PSCL3 TOTAL     ACCESS:     128947  HIT:     128937  MISS:         10  HIT %:    99.9922  MISS %: 0.00775512   MPKI: 0.0001
PSCL3 LOAD TRANSLATION ACCESS:     128947  HIT:     128937  MISS:         10  HIT %:    99.9922  MISS %: 0.00775512   MPKI: 0.0001
PSCL3 PREFETCH  REQUESTED:          0  ISSUED:          0  USEFUL:          0  USELESS:          0
PSCL3 USEFUL LOAD PREFETCHES:          0 PREFETCH ISSUED TO LOWER LEVEL:          0  ACCURACY: -nan
PSCL3 TIMELY PREFETCHES:          0 LATE PREFETCHES: 0 DROPPED PREFETCHES: 0
PSCL3 PREFETCHES SAME FILL-ORIGIN LEVEL: 0 DIFFERENT FILL-ORIGIN LEVEL: 0

PSCL2 TOTAL     ACCESS:     129817  HIT:     129580  MISS:        237  HIT %:    99.8174  MISS %:   0.182565   MPKI: 0.00237
PSCL2 LOAD TRANSLATION ACCESS:     129817  HIT:     129580  MISS:        237  HIT %:    99.8174  MISS %:   0.182565   MPKI: 0.00237
PSCL2 PREFETCH  REQUESTED:          0  ISSUED:          0  USEFUL:          0  USELESS:          0
PSCL2 USEFUL LOAD PREFETCHES:          0 PREFETCH ISSUED TO LOWER LEVEL:          0  ACCURACY: -nan
PSCL2 TIMELY PREFETCHES:          0 LATE PREFETCHES: 0 DROPPED PREFETCHES: 0
PSCL2 PREFETCHES SAME FILL-ORIGIN LEVEL: 0 DIFFERENT FILL-ORIGIN LEVEL: 0

LLC TOTAL     ACCESS:   12378377  HIT:    7196555  MISS:    5181822  HIT %:    58.1381  MISS %:    41.8619   MPKI: 51.8182
LLC LOAD      ACCESS:    4095573  HIT:    1580729  MISS:    2514844  HIT %:     38.596  MISS %:     61.404   MPKI: 25.1484
LLC RFO       ACCESS:     226245  HIT:         83  MISS:     226162  HIT %:  0.0366859  MISS %:    99.9633   MPKI: 2.26162
LLC PREFETCH  ACCESS:    7598452  HIT:    5600160  MISS:    1998292  HIT %:    73.7013  MISS %:    26.2987   MPKI: 19.9829
LLC WRITEBACK ACCESS:     439251  HIT:      15411  MISS:     423840  HIT %:    3.50847  MISS %:    96.4915   MPKI: 4.2384
LLC LOAD TRANSLATION ACCESS:      18856  HIT:        172  MISS:      18684  HIT %:   0.912176  MISS %:    99.0878   MPKI: 0.18684
LLC PREFETCH  REQUESTED:          0  ISSUED:          0  USEFUL:    1058891  USELESS:     933885
LLC USEFUL LOAD PREFETCHES:    1058891 PREFETCH ISSUED TO LOWER LEVEL:    2828026  ACCURACY: 37.4428
LLC TIMELY PREFETCHES:    1058891 LATE PREFETCHES: 829734 DROPPED PREFETCHES: 0
LLC PREFETCHES SAME FILL-ORIGIN LEVEL: 2809148 DIFFERENT FILL-ORIGIN LEVEL: 0
LLC AVERAGE MISS LATENCY: 124.434 cycles
LLC RQ	ACCESS:    4340673	FORWARD:          0	MERGED:          0	TO_CACHE:    4340673
LLC WQ	ACCESS:     439251	FORWARD:          0	MERGED:          0	TO_CACHE:     439251
LLC PQ	ACCESS:    9277265	FORWARD:          0	MERGED:     170044	TO_CACHE:    9107221

LLC Dense regions hint to LLC: 0

RAW hits: 1302757
Loads Generated: 34744655
Loads sent to L1D: 33441899
Stores Generated: 24693636
Stores sent to L1D: 24693640
Major fault: 0 Minor fault: 29216
Allocated PAGES: 29216
 All Calls: 7301948
 Critical Calls: 5946677
------------------
Depth Distribution
------------------
depth 0: 0
depth 1: 5400701
depth 2: 1637026
depth 3: 1141522
depth 4: 929930
depth 5: 788997
depth 6: 671392
depth 7: 553655
depth 8: 393160
depth 9: 204677
depth 10: 51709
depth 11: 19640
depth 12: 6369
depth 13: 912
depth 14: 0
depth 15: 0
depth 16: 0
depth 17: 0
depth 18: 0
depth 19: 0
depth 20: 0
depth 21: 0
depth 22: 0
depth 23: 0
depth 24: 0
depth 25: 0
depth 26: 0
depth 27: 0
depth 28: 0
depth 29: 0
Total: 11799690
-----------------------------
-----------------------------
	Captured at Filter
-----------------------------
depth 0: 0
depth 1: 18055
depth 2: 3903
depth 3: 2478
depth 4: 1967
depth 5: 1540
depth 6: 1260
depth 7: 1057
depth 8: 792
depth 9: 434
depth 10: 167
depth 11: 50
depth 12: 17
depth 13: 1
depth 14: 0
depth 15: 0
depth 16: 0
depth 17: 0
depth 18: 0
depth 19: 0
depth 20: 0
depth 21: 0
depth 22: 0
depth 23: 0
depth 24: 0
depth 25: 0
depth 26: 0
depth 27: 0
depth 28: 0
depth 29: 0
-----------------------------
-----------------------------
		Lost at Page
-----------------------------
depth 0: 0
depth 1: 251620
depth 2: 94242
depth 3: 86781
depth 4: 89445
depth 5: 85518
depth 6: 75175
depth 7: 69194
depth 8: 56178
depth 9: 33910
depth 10: 10498
depth 11: 4301
depth 12: 1582
depth 13: 238
depth 14: 0
depth 15: 0
depth 16: 0
depth 17: 0
depth 18: 0
depth 19: 0
depth 20: 0
depth 21: 0
depth 22: 0
depth 23: 0
depth 24: 0
depth 25: 0
depth 26: 0
depth 27: 0
depth 28: 0
depth 29: 0
-----------------------------
-----------------------------
	Lost due to PQ Size
-----------------------------
38390
-----------------------------
ST read accesses: 4063392
ST write accesses: 108451
PT read accesses: 83222482
PT write accesses: 6086620
FILTER read accesses: 19286731
FILTER write accesses: 6187772
GHR read accesses: 5022716
GHR write accesses: 783578
GHR counter read accesses: 66994442
GHR counter write accesses: 5379311
ST tag read accesses: 1659339603
ST tag write accesses: 36029194

DRAM Statistics
 CHANNEL 0
 RQ ROW_BUFFER_HIT:    2679946  ROW_BUFFER_MISS:    2078033
 DBUS_CONGESTED:      10863
 WQ ROW_BUFFER_HIT:     113833  ROW_BUFFER_MISS:     323084  FULL:          0

 AVG_CONGESTED_CYCLE: 5
 All warmup complete: 2
Channel 0 Bank busy for read cycles: 0
Channel 0 Bank busy for write cycles: 0
Channel 0
Rank 0
0banks busy for read cycles: 86372232
0banks busy for write cycles: 53014
1banks busy for read cycles: 65193758
1banks busy for write cycles: 10365091
2banks busy for read cycles: 29441445
2banks busy for write cycles: 4043073
3banks busy for read cycles: 22282632
3banks busy for write cycles: 2250250
4banks busy for read cycles: 18010209
4banks busy for write cycles: 1621769
5banks busy for read cycles: 13526631
5banks busy for write cycles: 1383935
6banks busy for read cycles: 9339429
6banks busy for write cycles: 1420951
7banks busy for read cycles: 5483117
7banks busy for write cycles: 2341897
8banks busy for read cycles: 2619091
8banks busy for write cycles: 9279020

CPU 0 Branch Prediction Accuracy: 98.9588% MPKI: 1.19245 Average ROB Occupancy at Mispredict: 211.01
Branch types
NOT_BRANCH: 88547028 88.547%
BRANCH_DIRECT_JUMP: 1149944 1.14994%
BRANCH_INDIRECT: 0 0%
BRANCH_CONDITIONAL: 10302637 10.3026%
BRANCH_DIRECT_CALL: 132 0.000132%
BRANCH_INDIRECT_CALL: 0 0%
BRANCH_RETURN: 132 0.000132%
BRANCH_OTHER: 0 0%

DRAM PAGES: 1048576
Allocated PAGES: 29216
