
*** ChampSim Multicore Out-of-Order Simulator ***

Warmup Instructions: 50000000
Simulation Instructions: 100000000
Number of CPUs: 1
LLC sets: 2048
LLC ways: 16
Off-chip DRAM Size: 4096 MB Channels: 1 Width: 64-bit Data Rate: 6400 MT/s
CPU 0 runs ../SPEC2017//605.mcf_s-472B.champsimtrace.xz
.xz
BTB has LRU replacement policy
ITLB has LRU replacement policy
DTLB has LRU replacement policy
STLB has LRU replacement policy
L1I has LRU replacement policy
IP Table Entries: 64
L1D has LRU replacement policy
Initialize SRRIP state for L2C
Initialize DRRIP state for LLC
Heartbeat CPU 0 instructions: 10000001 cycles: 3239269 heartbeat IPC: 3.08712 cumulative IPC: 3.08712 (Simulation time: 0 hr 4 min 8 sec) 
Heartbeat CPU 0 instructions: 20000003 cycles: 6628755 heartbeat IPC: 2.9503 cumulative IPC: 3.01716 (Simulation time: 0 hr 8 min 35 sec) 
Heartbeat CPU 0 instructions: 30000001 cycles: 10100060 heartbeat IPC: 2.88076 cumulative IPC: 2.97028 (Simulation time: 0 hr 13 min 8 sec) 
Heartbeat CPU 0 instructions: 40000003 cycles: 13362263 heartbeat IPC: 3.06541 cumulative IPC: 2.99351 (Simulation time: 0 hr 16 min 27 sec) 
Heartbeat CPU 0 instructions: 50000001 cycles: 16644555 heartbeat IPC: 3.04665 cumulative IPC: 3.00399 (Simulation time: 0 hr 19 min 36 sec) 

Warmup complete CPU 0 instructions: 50000001 cycles: 16644555 (Simulation time: 0 hr 19 min 36 sec) 

Heartbeat CPU 0 instructions: 60000001 cycles: 38535442 heartbeat IPC: 0.456811 cumulative IPC: 0.456811 (Simulation time: 0 hr 25 min 14 sec) 
Heartbeat CPU 0 instructions: 70000002 cycles: 60041526 heartbeat IPC: 0.464985 cumulative IPC: 0.460862 (Simulation time: 0 hr 30 min 35 sec) 
Heartbeat CPU 0 instructions: 80000003 cycles: 84832625 heartbeat IPC: 0.403371 cumulative IPC: 0.43996 (Simulation time: 0 hr 36 min 28 sec) 
Heartbeat CPU 0 instructions: 90000000 cycles: 106006118 heartbeat IPC: 0.472288 cumulative IPC: 0.44762 (Simulation time: 0 hr 41 min 38 sec) 
Heartbeat CPU 0 instructions: 100000002 cycles: 129568131 heartbeat IPC: 0.424412 cumulative IPC: 0.442777 (Simulation time: 0 hr 46 min 38 sec) 
Heartbeat CPU 0 instructions: 110000000 cycles: 150922214 heartbeat IPC: 0.468294 cumulative IPC: 0.446835 (Simulation time: 0 hr 56 min 42 sec) 
Heartbeat CPU 0 instructions: 120000002 cycles: 174017500 heartbeat IPC: 0.432989 cumulative IPC: 0.444803 (Simulation time: 1 hr 7 min 3 sec) 
Heartbeat CPU 0 instructions: 130000002 cycles: 197304058 heartbeat IPC: 0.429432 cumulative IPC: 0.442822 (Simulation time: 1 hr 17 min 19 sec) 
Heartbeat CPU 0 instructions: 140000002 cycles: 221319455 heartbeat IPC: 0.4164 cumulative IPC: 0.439722 (Simulation time: 1 hr 25 min 43 sec) 
Heartbeat CPU 0 instructions: 150000002 cycles: 244717498 heartbeat IPC: 0.427386 cumulative IPC: 0.438456 (Simulation time: 1 hr 33 min 29 sec) 
Finished CPU 0 instructions: 100000001 cycles: 228072943 cumulative IPC: 0.438456 (Simulation time: 1 hr 33 min 29 sec) 

ChampSim completed all CPUs

Region of Interest Statistics

CPU 0 cumulative IPC: 0.438456 instructions: 100000001 cycles: 228072943

CPU 0 Average Load ROB stall cycles: 4.52467e+07
CPU 0 Fraction of times ROB stalled by Loads: 35.0857
CPU 0 Percentage of Load stall cycles in Total stall cycles: 5.154e+08
Issued all: 126854967
Issued LT all: 118141102
rob_not_full_when_issued_lt_all: 29938659
Issued LT one: 99785927
rob_not_full_when_issued_lt_one: 24098153
FVP critical_dynamic_instances_0: 29658438
FVP unique_critical_ips_0: 48
 Total stall cycles: 203755858
 Total load stall cycles: 1050157192846410
Unique Load IPs: 96
CPU 0 NUM of IPS identified critical: 0
CPU 0 Num of Load IPs stalling ROB: 0
Threshold modification factor: 0
Trouble in retire width: -nan
MaC = Marked as critical.
lt_50_percent_before_Mac: 0
gt_90_percent_before_Mac: 0
gt_75_percent_before_Mac: 0
gt_50_percent_before_Mac: 0
stall_proportion_bin_same_before_after: 0
stall_proportion_bin_lower_before_after: 0
stall_proportion_bin_upper_before_after: 0
average_stall_proportion_before: -nan
average_stall_proportion_after: -nan
Critical IP stalls, total frequency: 0
Non-critical IP stalls, total frequency: 0
Total Freq all stalling IPs: 0
Critical_IP_Detector_Accuracy_70: 0.0208333
Critical_IP_Detector_Accuracy_80: 0.0208333
Critical_IP_Detector_Accuracy_90: 0.0208333
Critical_IP_Detector_Coverage_70: 1
Critical_IP_Detector_Coverage_80: 1
Critical_IP_Detector_Coverage_90: 1
stat_90_percent_critical_ip_stalls_freq: 1855763
stat_90_percent_non_critical_ip_stalls_freq: 18446744073707695853
AVERAGE_ROB_Occupancy_90_Percent_Critical_IP_Stalls: 259.162
AVERAGE_ROB_Occupancy_90_Percent_Non_Critical_IP_Stalls: 8.44474e-11
Critical_IP_ROB_Stalls_Bucket_0: 0
Non-critical_IP_ROB_Stalls_Bucket_0: 831107
Critical_IP_ROB_Stalls_Bucket_1: 0
Non-critical_IP_ROB_Stalls_Bucket_1: 431333
Critical_IP_ROB_Stalls_Bucket_2: 0
Non-critical_IP_ROB_Stalls_Bucket_2: 470691
Critical_IP_ROB_Stalls_Bucket_3: 0
Non-critical_IP_ROB_Stalls_Bucket_3: 780023
Critical_IP_ROB_Stalls_Bucket_4: 0
Non-critical_IP_ROB_Stalls_Bucket_4: 849652
Critical_IP_ROB_Stalls_Bucket_5: 0
Non-critical_IP_ROB_Stalls_Bucket_5: 775572
Critical_IP_ROB_Stalls_Bucket_6: 0
Non-critical_IP_ROB_Stalls_Bucket_6: 4004869
0 => IPs accounting for >50 percent of stalls, 1 => 55, 2 => 60, 3 => 65 and so on till 90.
percent50: inf num IPs:  1
percent55: inf num IPs: 1
percent60: inf num IPs: 1
percent65: inf num IPs: 1
percent70: inf num IPs: 1
percent75: inf num IPs: 1
percent80: inf num IPs: 1
percent85: inf num IPs: 1
percent90: inf num IPs: 1
Critical_ROB_Stalls_Percent_0_Bucket_0: 113475
Non-critical_ROB_Stalls_Percent_0_Bucket_0: 717632
Critical_ROB_Stalls_Percent_0_Bucket_1: 63215
Non-critical_ROB_Stalls_Percent_0_Bucket_1: 368118
Critical_ROB_Stalls_Percent_0_Bucket_2: 115740
Non-critical_ROB_Stalls_Percent_0_Bucket_2: 354951
Critical_ROB_Stalls_Percent_0_Bucket_3: 185734
Non-critical_ROB_Stalls_Percent_0_Bucket_3: 594289
Critical_ROB_Stalls_Percent_0_Bucket_4: 278100
Non-critical_ROB_Stalls_Percent_0_Bucket_4: 571552
Critical_ROB_Stalls_Percent_0_Bucket_5: 238357
Non-critical_ROB_Stalls_Percent_0_Bucket_5: 537215
Critical_ROB_Stalls_Percent_0_Bucket_6: 861142
Non-critical_ROB_Stalls_Percent_0_Bucket_6: 3143727
Critical_ROB_Stalls_Percent_1_Bucket_0: 113475
Non-critical_ROB_Stalls_Percent_1_Bucket_0: 717632
Critical_ROB_Stalls_Percent_1_Bucket_1: 63215
Non-critical_ROB_Stalls_Percent_1_Bucket_1: 368118
Critical_ROB_Stalls_Percent_1_Bucket_2: 115740
Non-critical_ROB_Stalls_Percent_1_Bucket_2: 354951
Critical_ROB_Stalls_Percent_1_Bucket_3: 185734
Non-critical_ROB_Stalls_Percent_1_Bucket_3: 594289
Critical_ROB_Stalls_Percent_1_Bucket_4: 278100
Non-critical_ROB_Stalls_Percent_1_Bucket_4: 571552
Critical_ROB_Stalls_Percent_1_Bucket_5: 238357
Non-critical_ROB_Stalls_Percent_1_Bucket_5: 537215
Critical_ROB_Stalls_Percent_1_Bucket_6: 861142
Non-critical_ROB_Stalls_Percent_1_Bucket_6: 3143727
Critical_ROB_Stalls_Percent_2_Bucket_0: 113475
Non-critical_ROB_Stalls_Percent_2_Bucket_0: 717632
Critical_ROB_Stalls_Percent_2_Bucket_1: 63215
Non-critical_ROB_Stalls_Percent_2_Bucket_1: 368118
Critical_ROB_Stalls_Percent_2_Bucket_2: 115740
Non-critical_ROB_Stalls_Percent_2_Bucket_2: 354951
Critical_ROB_Stalls_Percent_2_Bucket_3: 185734
Non-critical_ROB_Stalls_Percent_2_Bucket_3: 594289
Critical_ROB_Stalls_Percent_2_Bucket_4: 278100
Non-critical_ROB_Stalls_Percent_2_Bucket_4: 571552
Critical_ROB_Stalls_Percent_2_Bucket_5: 238357
Non-critical_ROB_Stalls_Percent_2_Bucket_5: 537215
Critical_ROB_Stalls_Percent_2_Bucket_6: 861142
Non-critical_ROB_Stalls_Percent_2_Bucket_6: 3143727
Critical_ROB_Stalls_Percent_3_Bucket_0: 113475
Non-critical_ROB_Stalls_Percent_3_Bucket_0: 717632
Critical_ROB_Stalls_Percent_3_Bucket_1: 63215
Non-critical_ROB_Stalls_Percent_3_Bucket_1: 368118
Critical_ROB_Stalls_Percent_3_Bucket_2: 115740
Non-critical_ROB_Stalls_Percent_3_Bucket_2: 354951
Critical_ROB_Stalls_Percent_3_Bucket_3: 185734
Non-critical_ROB_Stalls_Percent_3_Bucket_3: 594289
Critical_ROB_Stalls_Percent_3_Bucket_4: 278100
Non-critical_ROB_Stalls_Percent_3_Bucket_4: 571552
Critical_ROB_Stalls_Percent_3_Bucket_5: 238357
Non-critical_ROB_Stalls_Percent_3_Bucket_5: 537215
Critical_ROB_Stalls_Percent_3_Bucket_6: 861142
Non-critical_ROB_Stalls_Percent_3_Bucket_6: 3143727
Critical_ROB_Stalls_Percent_4_Bucket_0: 113475
Non-critical_ROB_Stalls_Percent_4_Bucket_0: 717632
Critical_ROB_Stalls_Percent_4_Bucket_1: 63215
Non-critical_ROB_Stalls_Percent_4_Bucket_1: 368118
Critical_ROB_Stalls_Percent_4_Bucket_2: 115740
Non-critical_ROB_Stalls_Percent_4_Bucket_2: 354951
Critical_ROB_Stalls_Percent_4_Bucket_3: 185734
Non-critical_ROB_Stalls_Percent_4_Bucket_3: 594289
Critical_ROB_Stalls_Percent_4_Bucket_4: 278100
Non-critical_ROB_Stalls_Percent_4_Bucket_4: 571552
Critical_ROB_Stalls_Percent_4_Bucket_5: 238357
Non-critical_ROB_Stalls_Percent_4_Bucket_5: 537215
Critical_ROB_Stalls_Percent_4_Bucket_6: 861142
Non-critical_ROB_Stalls_Percent_4_Bucket_6: 3143727
Critical_ROB_Stalls_Percent_5_Bucket_0: 113475
Non-critical_ROB_Stalls_Percent_5_Bucket_0: 717632
Critical_ROB_Stalls_Percent_5_Bucket_1: 63215
Non-critical_ROB_Stalls_Percent_5_Bucket_1: 368118
Critical_ROB_Stalls_Percent_5_Bucket_2: 115740
Non-critical_ROB_Stalls_Percent_5_Bucket_2: 354951
Critical_ROB_Stalls_Percent_5_Bucket_3: 185734
Non-critical_ROB_Stalls_Percent_5_Bucket_3: 594289
Critical_ROB_Stalls_Percent_5_Bucket_4: 278100
Non-critical_ROB_Stalls_Percent_5_Bucket_4: 571552
Critical_ROB_Stalls_Percent_5_Bucket_5: 238357
Non-critical_ROB_Stalls_Percent_5_Bucket_5: 537215
Critical_ROB_Stalls_Percent_5_Bucket_6: 861142
Non-critical_ROB_Stalls_Percent_5_Bucket_6: 3143727
Critical_ROB_Stalls_Percent_6_Bucket_0: 113475
Non-critical_ROB_Stalls_Percent_6_Bucket_0: 717632
Critical_ROB_Stalls_Percent_6_Bucket_1: 63215
Non-critical_ROB_Stalls_Percent_6_Bucket_1: 368118
Critical_ROB_Stalls_Percent_6_Bucket_2: 115740
Non-critical_ROB_Stalls_Percent_6_Bucket_2: 354951
Critical_ROB_Stalls_Percent_6_Bucket_3: 185734
Non-critical_ROB_Stalls_Percent_6_Bucket_3: 594289
Critical_ROB_Stalls_Percent_6_Bucket_4: 278100
Non-critical_ROB_Stalls_Percent_6_Bucket_4: 571552
Critical_ROB_Stalls_Percent_6_Bucket_5: 238357
Non-critical_ROB_Stalls_Percent_6_Bucket_5: 537215
Critical_ROB_Stalls_Percent_6_Bucket_6: 861142
Non-critical_ROB_Stalls_Percent_6_Bucket_6: 3143727
Critical_ROB_Stalls_Percent_7_Bucket_0: 113475
Non-critical_ROB_Stalls_Percent_7_Bucket_0: 717632
Critical_ROB_Stalls_Percent_7_Bucket_1: 63215
Non-critical_ROB_Stalls_Percent_7_Bucket_1: 368118
Critical_ROB_Stalls_Percent_7_Bucket_2: 115740
Non-critical_ROB_Stalls_Percent_7_Bucket_2: 354951
Critical_ROB_Stalls_Percent_7_Bucket_3: 185734
Non-critical_ROB_Stalls_Percent_7_Bucket_3: 594289
Critical_ROB_Stalls_Percent_7_Bucket_4: 278100
Non-critical_ROB_Stalls_Percent_7_Bucket_4: 571552
Critical_ROB_Stalls_Percent_7_Bucket_5: 238357
Non-critical_ROB_Stalls_Percent_7_Bucket_5: 537215
Critical_ROB_Stalls_Percent_7_Bucket_6: 861142
Non-critical_ROB_Stalls_Percent_7_Bucket_6: 3143727
Critical_ROB_Stalls_Percent_8_Bucket_0: 113475
Non-critical_ROB_Stalls_Percent_8_Bucket_0: 717632
Critical_ROB_Stalls_Percent_8_Bucket_1: 63215
Non-critical_ROB_Stalls_Percent_8_Bucket_1: 368118
Critical_ROB_Stalls_Percent_8_Bucket_2: 115740
Non-critical_ROB_Stalls_Percent_8_Bucket_2: 354951
Critical_ROB_Stalls_Percent_8_Bucket_3: 185734
Non-critical_ROB_Stalls_Percent_8_Bucket_3: 594289
Critical_ROB_Stalls_Percent_8_Bucket_4: 278100
Non-critical_ROB_Stalls_Percent_8_Bucket_4: 571552
Critical_ROB_Stalls_Percent_8_Bucket_5: 238357
Non-critical_ROB_Stalls_Percent_8_Bucket_5: 537215
Critical_ROB_Stalls_Percent_8_Bucket_6: 861142
Non-critical_ROB_Stalls_Percent_8_Bucket_6: 3143727
Average ROB occupancy Load Stall Begin: 244.377
Average ROB occupancy Load Stall End: 250.358
Min ROB occupancy Load Stall Begin: 1
Max ROB occupancy Load Stall Begin: 352
Min ROB occupancy Load Stall End: 1
Max ROB occupancy Load Stall End: 352
Average ROB occupancy Critical Load Stall Begin: -nan
Average ROB occupancy Critical Load Stall End: -nan
Min ROB occupancy Critical Load Stall Begin: 400
Max ROB occupancy Critical Load Stall Begin: 0
Min ROB occupancy Critical Load Stall End: 400
Max ROB occupancy Critical Load Stall End: 0
 ROB Load Stall Begin Bucket Count 0: 918262
 ROB Load Stall End Bucket Count 0: 831107
 ROB Critical Load Stall Begin Bucket Count 0: 0
 ROB Critical Load Stall End Bucket Count 0: 0
 ROB Load Stall Begin Bucket Count 1: 427071
 ROB Load Stall End Bucket Count 1: 431333
 ROB Critical Load Stall Begin Bucket Count 1: 0
 ROB Critical Load Stall End Bucket Count 1: 0
 ROB Load Stall Begin Bucket Count 2: 513115
 ROB Load Stall End Bucket Count 2: 470691
 ROB Critical Load Stall Begin Bucket Count 2: 0
 ROB Critical Load Stall End Bucket Count 2: 0
 ROB Load Stall Begin Bucket Count 3: 818752
 ROB Load Stall End Bucket Count 3: 780023
 ROB Critical Load Stall Begin Bucket Count 3: 0
 ROB Critical Load Stall End Bucket Count 3: 0
 ROB Load Stall Begin Bucket Count 4: 801396
 ROB Load Stall End Bucket Count 4: 849652
 ROB Critical Load Stall Begin Bucket Count 4: 0
 ROB Critical Load Stall End Bucket Count 4: 0
 ROB Load Stall Begin Bucket Count 5: 799175
 ROB Load Stall End Bucket Count 5: 775572
 ROB Critical Load Stall Begin Bucket Count 5: 0
 ROB Critical Load Stall End Bucket Count 5: 0
 ROB Load Stall Begin Bucket Count 6: 3865476
 ROB Load Stall End Bucket Count 6: 4004869
 ROB Critical Load Stall Begin Bucket Count 6: 0
 ROB Critical Load Stall End Bucket Count 6: 0
PIST Tag Read Accesses: 0
PIST Read Accesses: 0
PIST Tag Write Accesses: 0
PIST Write Accesses: 0
Criticality detector called times: 0
Max global_stall_cycles_count: 0
Threshold Modified: 0 times, factor: 0
ITLB TOTAL     ACCESS:   17099665  HIT:   17099665  MISS:          0  HIT %:        100  MISS %:          0   MPKI: 0
ITLB LOAD TRANSLATION ACCESS:   17099665  HIT:   17099665  MISS:          0  HIT %:        100  MISS %:          0   MPKI: 0
ITLB PREFETCH  REQUESTED:          0  ISSUED:          0  USEFUL:          0  USELESS:          0
ITLB USEFUL LOAD PREFETCHES:          0 PREFETCH ISSUED TO LOWER LEVEL:          0  ACCURACY: -nan
ITLB TIMELY PREFETCHES:          0 LATE PREFETCHES: 0 DROPPED PREFETCHES: 0
ITLB PREFETCHES SAME FILL-ORIGIN LEVEL: 0 DIFFERENT FILL-ORIGIN LEVEL: 0
ITLB AVERAGE MISS LATENCY: -nan cycles
ITLB RQ	ACCESS:   22214261	FORWARD:          0	MERGED:    5114597	TO_CACHE:   17099664

DTLB TOTAL     ACCESS:   27453423  HIT:   27152050  MISS:     301373  HIT %:    98.9022  MISS %:    1.09776   MPKI: 3.01373
DTLB LOAD TRANSLATION ACCESS:   27453423  HIT:   27152050  MISS:     301373  HIT %:    98.9022  MISS %:    1.09776   MPKI: 3.01373
DTLB PREFETCH  REQUESTED:          0  ISSUED:          0  USEFUL:          0  USELESS:          0
DTLB USEFUL LOAD PREFETCHES:          0 PREFETCH ISSUED TO LOWER LEVEL:          0  ACCURACY: -nan
DTLB TIMELY PREFETCHES:          0 LATE PREFETCHES: 0 DROPPED PREFETCHES: 0
DTLB PREFETCHES SAME FILL-ORIGIN LEVEL: 0 DIFFERENT FILL-ORIGIN LEVEL: 0
DTLB AVERAGE MISS LATENCY: 35.1182 cycles
DTLB RQ	ACCESS:   45397034	FORWARD:          0	MERGED:   17859299	TO_CACHE:   27537735

STLB TOTAL     ACCESS:    8596795  HIT:    8467411  MISS:     129384  HIT %:     98.495  MISS %:    1.50503   MPKI: 1.29384
STLB LOAD TRANSLATION ACCESS:     301373  HIT:     172025  MISS:     129348  HIT %:    57.0804  MISS %:    42.9196   MPKI: 1.29348
STLB TRANSLATION FROM L1D PREFETCHER ACCESS:    8295422  HIT:    8295386  MISS:         36  HIT %:    99.9996  MISS %: 0.000433974   MPKI: 0.00036
STLB PREFETCH  REQUESTED:          0  ISSUED:          0  USEFUL:         19  USELESS:         17
STLB USEFUL LOAD PREFETCHES:         19 PREFETCH ISSUED TO LOWER LEVEL:          0  ACCURACY: inf
STLB TIMELY PREFETCHES:         19 LATE PREFETCHES: 0 DROPPED PREFETCHES: 0
STLB PREFETCHES SAME FILL-ORIGIN LEVEL: 0 DIFFERENT FILL-ORIGIN LEVEL: 0
STLB AVERAGE MISS LATENCY: 60.7829 cycles
STLB RQ	ACCESS:   28594658	FORWARD:          0	MERGED:   19997863	TO_CACHE:    8596795

STLB Hit, L1D data hit: 0
STLB Hit, L2C data hit: 0
STLB Hit, LLC data hit: 0
STLB Hit, LLC data miss: 0
STLB STLB hints to L2: 0
L1D TOTAL     ACCESS:   70577391  HIT:   61804178  MISS:    8773213  HIT %:    87.5694  MISS %:    12.4306   MPKI: 87.7321
L1D LOAD      ACCESS:   21021125  HIT:   18654734  MISS:    2366391  HIT %:    88.7428  MISS %:    11.2572   MPKI: 23.6639
L1D RFO       ACCESS:   23406410  HIT:   23181813  MISS:     224597  HIT %:    99.0404  MISS %:   0.959553   MPKI: 2.24597
L1D PREFETCH  ACCESS:   26149856  HIT:   19967631  MISS:    6182225  HIT %:    76.3585  MISS %:    23.6415   MPKI: 61.8222
L1D PREFETCH  REQUESTED:   58441428  ISSUED:   56602719  USEFUL:    2486523  USELESS:    3695317
L1D USEFUL LOAD PREFETCHES:    2486523 PREFETCH ISSUED TO LOWER LEVEL:    7147935  ACCURACY: 34.7866
L1D TIMELY PREFETCHES:    2486523 LATE PREFETCHES: 964938 DROPPED PREFETCHES: 0
L1D PREFETCHES SAME FILL-ORIGIN LEVEL: 7147935 DIFFERENT FILL-ORIGIN LEVEL: 0
L1D AVERAGE MISS LATENCY: 1.48198e+07 cycles
L1D RQ	ACCESS:   33444622	FORWARD:          0	MERGED:   12173134	TO_CACHE:   21243992
L1D WQ	ACCESS:   24693640	FORWARD:      27496	MERGED:     540598	TO_CACHE:   24153042
L1D PQ	ACCESS:   28309434	FORWARD:          0	MERGED:      16149	TO_CACHE:   28293285

L1D UNIQUE REGIONS ACCESSED: 0
L1D REGIONS CONFLICTS: 0
L1D Cross Page Prefetch Requests: 0
L1D Same Page Prefetch Requests: 29048125
L1D ROI Sum of L1D PQ occupancy: 687996215
L1D PREFETCHES PUSHED FROM L2C: 0
L1I TOTAL     ACCESS:   22214262  HIT:   22214262  MISS:          0  HIT %:        100  MISS %:          0   MPKI: 0
L1I LOAD      ACCESS:   22214262  HIT:   22214262  MISS:          0  HIT %:        100  MISS %:          0   MPKI: 0
L1I PREFETCH  REQUESTED:          0  ISSUED:          0  USEFUL:          0  USELESS:          0
L1I USEFUL LOAD PREFETCHES:          0 PREFETCH ISSUED TO LOWER LEVEL:          0  ACCURACY: -nan
L1I TIMELY PREFETCHES:          0 LATE PREFETCHES: 0 DROPPED PREFETCHES: 0
L1I PREFETCHES SAME FILL-ORIGIN LEVEL: 0 DIFFERENT FILL-ORIGIN LEVEL: 0
L1I AVERAGE MISS LATENCY: -nan cycles
L1I RQ	ACCESS:   30115807	FORWARD:          0	MERGED:    7901546	TO_CACHE:   22214261

BTB TOTAL     ACCESS:   11269115  HIT:   11269081  MISS:         34  HIT %:    99.9997  MISS %: 0.00030171   MPKI: 0.00034
BTB BRANCH_DIRECT_JUMP	ACCESS:    1149944  HIT:    1149938  MISS:          6
BTB BRANCH_INDIRECT	ACCESS:          0  HIT:          0  MISS:          0
BTB BRANCH_CONDITIONAL	ACCESS:   10118907  HIT:   10118883  MISS:         24
BTB BRANCH_DIRECT_CALL	ACCESS:        132  HIT:        130  MISS:          2
BTB BRANCH_INDIRECT_CALL	ACCESS:          0  HIT:          0  MISS:          0
BTB BRANCH_RETURN	ACCESS:        132  HIT:        130  MISS:          2
BTB BRANCH_OTHER ACCESS:          0  HIT:          0  MISS:          0

L2C TOTAL     ACCESS:    9479209  HIT:    1643149  MISS:    7836060  HIT %:    17.3342  MISS %:    82.6658   MPKI: 78.3606
L2C LOAD      ACCESS:    1401066  HIT:     150272  MISS:    1250794  HIT %:    10.7255  MISS %:    89.2745   MPKI: 12.5079
L2C DATA LOAD MPKI: 12.5079
L2C INSTRUCTION LOAD MPKI: 0
L2C RFO       ACCESS:     223822  HIT:      12522  MISS:     211300  HIT %:    5.59462  MISS %:    94.4054   MPKI: 2.113
L2C PREFETCH  ACCESS:    7147855  HIT:     796625  MISS:    6351230  HIT %:     11.145  MISS %:     88.855   MPKI: 63.5123
L2C DATA PREFETCH MPKI: 63.5123
L2C INSTRUCTION PREFETCH MPKI: 0
L2C WRITEBACK ACCESS:     576915  HIT:     572924  MISS:       3991  HIT %:    99.3082  MISS %:   0.691783   MPKI: 0.03991
L2C LOAD TRANSLATION ACCESS:     129515  HIT:     110804  MISS:      18711  HIT %:     85.553  MISS %:     14.447   MPKI: 0.18711
L2C TRANSLATION FROM L1D PREFETCHER ACCESS:         36  HIT:          2  MISS:         34  HIT %:    5.55556  MISS %:    94.4444   MPKI: 0.00034
L2C PREFETCH  REQUESTED:          0  ISSUED:          0  USEFUL:      31357  USELESS:    6315141
L2C USEFUL LOAD PREFETCHES:      31357 PREFETCH ISSUED TO LOWER LEVEL:    6351230  ACCURACY: 0.493715
L2C TIMELY PREFETCHES:      31357 LATE PREFETCHES: 0 DROPPED PREFETCHES: 0
L2C PREFETCHES SAME FILL-ORIGIN LEVEL: 0 DIFFERENT FILL-ORIGIN LEVEL: 0
L2C AVERAGE MISS LATENCY: 142.822 cycles
L2C RQ	ACCESS:    1754827	FORWARD:          0	MERGED:          0	TO_CACHE:    1754438
L2C WQ	ACCESS:     576915	FORWARD:        469	MERGED:          0	TO_CACHE:     576915
L2C PQ	ACCESS:    7147935	FORWARD:          0	MERGED:          0	TO_CACHE:    7147855

L2C Instructions Evicting Data 0
L2C Translations Evicting Data 18723
L2C Data Evicting Data 7794608
L2C Instructions Evicting Instructions 0
L2C Translations Evicting Instructions 0
L2C Data Evicting Instructions 0
L2C Instructions Evicting Translations 0
L2C Translations Evicting Translations 22
L2C Data Evicting Translations 18716
L2C Dense regions hint from L2: 0
PSCL5 TOTAL     ACCESS:     129384  HIT:     129384  MISS:          0  HIT %:        100  MISS %:          0   MPKI: 0
PSCL5 LOAD TRANSLATION ACCESS:     129348  HIT:     129348  MISS:          0  HIT %:        100  MISS %:          0   MPKI: 0
PSCL5 TRANSLATION FROM L1D PREFETCHER ACCESS:         36  HIT:         36  MISS:          0  HIT %:        100  MISS %:          0   MPKI: 0
PSCL5 PREFETCH  REQUESTED:          0  ISSUED:          0  USEFUL:          0  USELESS:          0
PSCL5 USEFUL LOAD PREFETCHES:          0 PREFETCH ISSUED TO LOWER LEVEL:          0  ACCURACY: -nan
PSCL5 TIMELY PREFETCHES:          0 LATE PREFETCHES: 0 DROPPED PREFETCHES: 0
PSCL5 PREFETCHES SAME FILL-ORIGIN LEVEL: 0 DIFFERENT FILL-ORIGIN LEVEL: 0

PSCL4 TOTAL     ACCESS:     129384  HIT:     129384  MISS:          0  HIT %:        100  MISS %:          0   MPKI: 0
PSCL4 LOAD TRANSLATION ACCESS:     129348  HIT:     129348  MISS:          0  HIT %:        100  MISS %:          0   MPKI: 0
PSCL4 TRANSLATION FROM L1D PREFETCHER ACCESS:         36  HIT:         36  MISS:          0  HIT %:        100  MISS %:          0   MPKI: 0
PSCL4 PREFETCH  REQUESTED:          0  ISSUED:          0  USEFUL:          0  USELESS:          0
PSCL4 USEFUL LOAD PREFETCHES:          0 PREFETCH ISSUED TO LOWER LEVEL:          0  ACCURACY: -nan
PSCL4 TIMELY PREFETCHES:          0 LATE PREFETCHES: 0 DROPPED PREFETCHES: 0
PSCL4 PREFETCHES SAME FILL-ORIGIN LEVEL: 0 DIFFERENT FILL-ORIGIN LEVEL: 0

PSCL3 TOTAL     ACCESS:     128781  HIT:     128773  MISS:          8  HIT %:    99.9938  MISS %:  0.0062121   MPKI: 8e-05
PSCL3 LOAD TRANSLATION ACCESS:     128745  HIT:     128737  MISS:          8  HIT %:    99.9938  MISS %: 0.00621383   MPKI: 8e-05
PSCL3 TRANSLATION FROM L1D PREFETCHER ACCESS:         36  HIT:         36  MISS:          0  HIT %:        100  MISS %:          0   MPKI: 0
PSCL3 PREFETCH  REQUESTED:          0  ISSUED:          0  USEFUL:          0  USELESS:          0
PSCL3 USEFUL LOAD PREFETCHES:          0 PREFETCH ISSUED TO LOWER LEVEL:          0  ACCURACY: -nan
PSCL3 TIMELY PREFETCHES:          0 LATE PREFETCHES: 0 DROPPED PREFETCHES: 0
PSCL3 PREFETCHES SAME FILL-ORIGIN LEVEL: 0 DIFFERENT FILL-ORIGIN LEVEL: 0

PSCL2 TOTAL     ACCESS:     129384  HIT:     129171  MISS:        213  HIT %:    99.8354  MISS %:   0.164626   MPKI: 0.00213
PSCL2 LOAD TRANSLATION ACCESS:     129348  HIT:     129135  MISS:        213  HIT %:    99.8353  MISS %:   0.164672   MPKI: 0.00213
PSCL2 TRANSLATION FROM L1D PREFETCHER ACCESS:         36  HIT:         36  MISS:          0  HIT %:        100  MISS %:          0   MPKI: 0
PSCL2 PREFETCH  REQUESTED:          0  ISSUED:          0  USEFUL:          0  USELESS:          0
PSCL2 USEFUL LOAD PREFETCHES:          0 PREFETCH ISSUED TO LOWER LEVEL:          0  ACCURACY: -nan
PSCL2 TIMELY PREFETCHES:          0 LATE PREFETCHES: 0 DROPPED PREFETCHES: 0
PSCL2 PREFETCHES SAME FILL-ORIGIN LEVEL: 0 DIFFERENT FILL-ORIGIN LEVEL: 0

LLC TOTAL     ACCESS:    8271574  HIT:    1624527  MISS:    6647047  HIT %:    19.6399  MISS %:    80.3601   MPKI: 66.4705
LLC LOAD      ACCESS:    1250794  HIT:     375771  MISS:     875023  HIT %:    30.0426  MISS %:    69.9574   MPKI: 8.75023
LLC RFO       ACCESS:     211300  HIT:        199  MISS:     211101  HIT %:  0.0941789  MISS %:    99.9058   MPKI: 2.11101
LLC PREFETCH  ACCESS:    6351230  HIT:    1223360  MISS:    5127870  HIT %:    19.2618  MISS %:    80.7382   MPKI: 51.2787
LLC WRITEBACK ACCESS:     439505  HIT:      20403  MISS:     419102  HIT %:    4.64227  MISS %:    95.3577   MPKI: 4.19102
LLC LOAD TRANSLATION ACCESS:      18711  HIT:       4794  MISS:      13917  HIT %:    25.6213  MISS %:    74.3787   MPKI: 0.13917
LLC TRANSLATION FROM L1D PREFETCHER ACCESS:         34  HIT:          0  MISS:         34  HIT %:          0  MISS %:        100   MPKI: 0.00034
LLC PREFETCH  REQUESTED:          0  ISSUED:          0  USEFUL:       7487  USELESS:    5110598
LLC USEFUL LOAD PREFETCHES:       7487 PREFETCH ISSUED TO LOWER LEVEL:    5127870  ACCURACY: 0.146006
LLC TIMELY PREFETCHES:       7487 LATE PREFETCHES: 0 DROPPED PREFETCHES: 0
LLC PREFETCHES SAME FILL-ORIGIN LEVEL: 0 DIFFERENT FILL-ORIGIN LEVEL: 0
LLC AVERAGE MISS LATENCY: 132.877 cycles
LLC RQ	ACCESS:    1480838	FORWARD:          0	MERGED:          0	TO_CACHE:    1480838
LLC WQ	ACCESS:     439505	FORWARD:          0	MERGED:          0	TO_CACHE:     439505
LLC PQ	ACCESS:    6351230	FORWARD:          0	MERGED:          0	TO_CACHE:    6351230

LLC Dense regions hint to LLC: 0

RAW hits: 1300028
Loads Generated: 34744649
Loads sent to L1D: 33444622
Stores Generated: 24693636
Stores sent to L1D: 24693640
Major fault: 0 Minor fault: 29216
Allocated PAGES: 29216

stream: 
stream:times selected: 13422540
stream:pref_filled: 6195360
stream:pref_useful: 2631974
stream:pref_late: 971686
stream:misses: 253710
stream:misses_by_poll: 0

CS: 
CS:times selected: 811385
CS:pref_filled: 28664
CS:pref_useful: 27574
CS:pref_late: 1495
CS:misses: 12508
CS:misses_by_poll: 11

CPLX: 
CPLX:times selected: 12561914
CPLX:pref_filled: 491837
CPLX:pref_useful: 89306
CPLX:pref_late: 9754
CPLX:misses: 2224382
CPLX:misses_by_poll: 3354

NL_L1: 
NL:times selected: 137131
NL:pref_filled: 5018
NL:pref_useful: 2777
NL:pref_late: 414
NL:misses: 59382
NL:misses_by_poll: 3

total selections: 26932970
total_filled: 6182225
total_useful: 2486523
total_late: 1003985
total_polluted: 3368
total_misses_after_warmup: 2576725
conflicts: 92354
Degree Incremented Times: 76976
Degree Decremented Times: 78573

L1 IP Table Write Accesses: 18196013
L1 IP Table Read Accesses: 18103659
L1 RST Write Accesses: 13215135
L1 RST Read Accesses: 26430270
L1 CSPT Write Accesses: 13215135
L1 CSPT Read Accesses: 25649938
L1 RR Filter Tag Write Accesses: 30148143
L1 RR Filter Tag Read Accesses: 2189383465
L1 IP Table Tag Write Accesses: 18512664
L1 IP Table Tag Read Accesses: 18512664
L1 RST Tag Write Accesses: 0
L1 RST Tag Read Accesses: 114727452
L1 RR Filter Write Accesses: 0
L1 RR Filter Read Accesses: 81676930
test: 5335946

DRAM Statistics
 CHANNEL 0
 RQ ROW_BUFFER_HIT:    4180732  ROW_BUFFER_MISS:    2047203
 DBUS_CONGESTED:       3909
 WQ ROW_BUFFER_HIT:      76790  ROW_BUFFER_MISS:     359956  FULL:          0

 AVG_CONGESTED_CYCLE: 5
 All warmup complete: 2
Channel 0 Bank busy for read cycles: 0
Channel 0 Bank busy for write cycles: 0
Channel 0
Rank 0
0banks busy for read cycles: 61487029
0banks busy for write cycles: 59701
1banks busy for read cycles: 36829775
1banks busy for write cycles: 8339924
2banks busy for read cycles: 18744651
2banks busy for write cycles: 4020209
3banks busy for read cycles: 14255275
3banks busy for write cycles: 2571376
4banks busy for read cycles: 13800022
4banks busy for write cycles: 1843918
5banks busy for read cycles: 15577322
5banks busy for write cycles: 1451632
6banks busy for read cycles: 16299239
6banks busy for write cycles: 1257570
7banks busy for read cycles: 13973477
7banks busy for write cycles: 1464136
8banks busy for read cycles: 8906764
8banks busy for write cycles: 7190924

CPU 0 Branch Prediction Accuracy: 98.9588% MPKI: 1.19245 Average ROB Occupancy at Mispredict: 207.287
Branch types
NOT_BRANCH: 88547001 88.547%
BRANCH_DIRECT_JUMP: 1149944 1.14994%
BRANCH_INDIRECT: 0 0%
BRANCH_CONDITIONAL: 10302635 10.3026%
BRANCH_DIRECT_CALL: 132 0.000132%
BRANCH_INDIRECT_CALL: 0 0%
BRANCH_RETURN: 132 0.000132%
BRANCH_OTHER: 0 0%

DRAM PAGES: 1048576
Allocated PAGES: 29216
