
*** ChampSim Multicore Out-of-Order Simulator ***

Warmup Instructions: 50000000
Simulation Instructions: 100000000
Number of CPUs: 1
LLC sets: 2048
LLC ways: 16
Off-chip DRAM Size: 4096 MB Channels: 1 Width: 64-bit Data Rate: 6400 MT/s
CPU 0 runs ../SPEC2017//605.mcf_s-1554B.champsimtrace.xz
.xz
NUM_OF_IPS_IN_CRITICAL_IP_TRAINING: 64
NUM_OF_CRITICAL_IP_TRAINING_TABLE_WAYS: 2
NUM_OF_CRITICAL_IP_TRAINING_TABLE_SETS: 32
WOBBLY_CRITICAL_IP_CACHE_SETS: 32
WOBBLY_CRITICAL_IP_CACHE_WAYS: 4
BTB has LRU replacement policy
ITLB has LRU replacement policy
DTLB has LRU replacement policy
STLB has LRU replacement policy
L1I has LRU replacement policy
IP Table Entries: 64
L1D has LRU replacement policy
Initialize SRRIP state for L2C
Initialize DRRIP state for LLC
Heartbeat CPU 0 instructions: 10000001 cycles: 3566474 heartbeat IPC: 2.80389 cumulative IPC: 2.80389 (Simulation time: 0 hr 4 min 50 sec) 
Heartbeat CPU 0 instructions: 20000000 cycles: 7134764 heartbeat IPC: 2.80246 cumulative IPC: 2.80318 (Simulation time: 0 hr 8 min 47 sec) 
Heartbeat CPU 0 instructions: 30000002 cycles: 10712924 heartbeat IPC: 2.79473 cumulative IPC: 2.80036 (Simulation time: 0 hr 12 min 12 sec) 
Heartbeat CPU 0 instructions: 40000001 cycles: 14278989 heartbeat IPC: 2.80421 cumulative IPC: 2.80132 (Simulation time: 0 hr 15 min 14 sec) 
Heartbeat CPU 0 instructions: 50000001 cycles: 17847877 heartbeat IPC: 2.80199 cumulative IPC: 2.80145 (Simulation time: 0 hr 17 min 51 sec) 

Warmup complete CPU 0 instructions: 50000001 cycles: 17847877 (Simulation time: 0 hr 17 min 51 sec) 

% increase in all ip prefetch 527.193
% increase in all ip prefetch 26.6521
% increase in all ip prefetch -4.36431
Heartbeat CPU 0 instructions: 60000002 cycles: 44736393 heartbeat IPC: 0.371906 cumulative IPC: 0.371906 (Simulation time: 0 hr 23 min 3 sec) 
Heartbeat CPU 0 instructions: 70000002 cycles: 72712276 heartbeat IPC: 0.357451 cumulative IPC: 0.364535 (Simulation time: 0 hr 28 min 18 sec) 
Heartbeat CPU 0 instructions: 80000001 cycles: 101582297 heartbeat IPC: 0.34638 cumulative IPC: 0.358276 (Simulation time: 0 hr 33 min 12 sec) 
Heartbeat CPU 0 instructions: 90000002 cycles: 130330475 heartbeat IPC: 0.347848 cumulative IPC: 0.355611 (Simulation time: 0 hr 37 min 51 sec) 
Heartbeat CPU 0 instructions: 100000002 cycles: 158899697 heartbeat IPC: 0.350027 cumulative IPC: 0.35448 (Simulation time: 0 hr 40 min 53 sec) 
Heartbeat CPU 0 instructions: 110000000 cycles: 187914160 heartbeat IPC: 0.344656 cumulative IPC: 0.352804 (Simulation time: 0 hr 43 min 10 sec) 
Heartbeat CPU 0 instructions: 120000000 cycles: 215545033 heartbeat IPC: 0.361914 cumulative IPC: 0.354077 (Simulation time: 0 hr 45 min 7 sec) 
Heartbeat CPU 0 instructions: 130000001 cycles: 244469983 heartbeat IPC: 0.345722 cumulative IPC: 0.353011 (Simulation time: 0 hr 46 min 31 sec) 
Heartbeat CPU 0 instructions: 140000000 cycles: 273667444 heartbeat IPC: 0.342496 cumulative IPC: 0.35181 (Simulation time: 0 hr 47 min 19 sec) 
Heartbeat CPU 0 instructions: 150000001 cycles: 302575197 heartbeat IPC: 0.345928 cumulative IPC: 0.351213 (Simulation time: 0 hr 48 min 7 sec) 
Finished CPU 0 instructions: 100000000 cycles: 284727320 cumulative IPC: 0.351213 (Simulation time: 0 hr 48 min 7 sec) 

ChampSim completed all CPUs

Region of Interest Statistics

CPU 0 cumulative IPC: 0.351213 instructions: 100000000 cycles: 284727320

CPU 0 Average Load ROB stall cycles: 7.47012e+07
CPU 0 Fraction of times ROB stalled by Loads: 47.4917
CPU 0 Percentage of Load stall cycles in Total stall cycles: 3.83736e+08
Issued all: 178817897
Issued LT all: 172647387
rob_not_full_when_issued_lt_all: 29407281
Issued LT one: 150790751
rob_not_full_when_issued_lt_one: 20456111
 Total stall cycles: 255623596
 Total load stall cycles: 980919736596324
Unique Load IPs: 75
CPU 0 NUM of IPS identified critical: 14
CPU 0 Num of Load IPs stalling ROB: 73
Threshold modification factor: -2
Max PIST entries: 36
Min PIST entries: 0
Avg PIST entries: 20.8333
Trouble in retire width: 0.990214
MaC = Marked as critical.
lt_50_percent_before_Mac: 13
gt_90_percent_before_Mac: 1
gt_75_percent_before_Mac: 0
gt_50_percent_before_Mac: 0
stall_proportion_bin_same_before_after: 0
stall_proportion_bin_lower_before_after: 0
stall_proportion_bin_upper_before_after: 0
average_stall_proportion_before: 0.0269911
average_stall_proportion_after: 0.029272
Critical IP stalls, total frequency: 5794563
Non-critical IP stalls, total frequency: 441683
Total Freq all stalling IPs: 6236246
Critical_IP_Detector_Accuracy_70: 0.285714
Critical_IP_Detector_Accuracy_80: 0.357143
Critical_IP_Detector_Accuracy_90: 0.428571
Critical_IP_Detector_Coverage_70: 1
Critical_IP_Detector_Coverage_80: 1
Critical_IP_Detector_Coverage_90: 0.857143
stat_90_percent_critical_ip_stalls_freq: 5621606
stat_90_percent_non_critical_ip_stalls_freq: 614640
AVERAGE_ROB_Occupancy_90_Percent_Critical_IP_Stalls: 247.082
AVERAGE_ROB_Occupancy_90_Percent_Non_Critical_IP_Stalls: 97.2088
Critical_IP_ROB_Stalls_Bucket_0: 1143636
Non-critical_IP_ROB_Stalls_Bucket_0: 258778
Critical_IP_ROB_Stalls_Bucket_1: 618068
Non-critical_IP_ROB_Stalls_Bucket_1: 35851
Critical_IP_ROB_Stalls_Bucket_2: 204156
Non-critical_IP_ROB_Stalls_Bucket_2: 6049
Critical_IP_ROB_Stalls_Bucket_3: 112916
Non-critical_IP_ROB_Stalls_Bucket_3: 3678
Critical_IP_ROB_Stalls_Bucket_4: 69018
Non-critical_IP_ROB_Stalls_Bucket_4: 3030
Critical_IP_ROB_Stalls_Bucket_5: 100786
Non-critical_IP_ROB_Stalls_Bucket_5: 4761
Critical_IP_ROB_Stalls_Bucket_6: 3545983
Non-critical_IP_ROB_Stalls_Bucket_6: 129536
0 => IPs accounting for >50 percent of stalls, 1 => 55, 2 => 60, 3 => 65 and so on till 90.
percent50: 62.1236 num IPs:  3
percent55: 62.1236 num IPs: 3
percent60: 62.1236 num IPs: 3
percent65: 73.8276 num IPs: 4
percent70: 73.8276 num IPs: 4
percent75: 82.4137 num IPs: 5
percent80: 82.4137 num IPs: 5
percent85: 88.1259 num IPs: 6
percent90: 90.1441 num IPs: 7
Critical_ROB_Stalls_Percent_0_Bucket_0: 607327
Non-critical_ROB_Stalls_Percent_0_Bucket_0: 795087
Critical_ROB_Stalls_Percent_0_Bucket_1: 435517
Non-critical_ROB_Stalls_Percent_0_Bucket_1: 218402
Critical_ROB_Stalls_Percent_0_Bucket_2: 149568
Non-critical_ROB_Stalls_Percent_0_Bucket_2: 60637
Critical_ROB_Stalls_Percent_0_Bucket_3: 83061
Non-critical_ROB_Stalls_Percent_0_Bucket_3: 33533
Critical_ROB_Stalls_Percent_0_Bucket_4: 50485
Non-critical_ROB_Stalls_Percent_0_Bucket_4: 21563
Critical_ROB_Stalls_Percent_0_Bucket_5: 68032
Non-critical_ROB_Stalls_Percent_0_Bucket_5: 37515
Critical_ROB_Stalls_Percent_0_Bucket_6: 2480188
Non-critical_ROB_Stalls_Percent_0_Bucket_6: 1195331
Critical_ROB_Stalls_Percent_1_Bucket_0: 607327
Non-critical_ROB_Stalls_Percent_1_Bucket_0: 795087
Critical_ROB_Stalls_Percent_1_Bucket_1: 435517
Non-critical_ROB_Stalls_Percent_1_Bucket_1: 218402
Critical_ROB_Stalls_Percent_1_Bucket_2: 149568
Non-critical_ROB_Stalls_Percent_1_Bucket_2: 60637
Critical_ROB_Stalls_Percent_1_Bucket_3: 83061
Non-critical_ROB_Stalls_Percent_1_Bucket_3: 33533
Critical_ROB_Stalls_Percent_1_Bucket_4: 50485
Non-critical_ROB_Stalls_Percent_1_Bucket_4: 21563
Critical_ROB_Stalls_Percent_1_Bucket_5: 68032
Non-critical_ROB_Stalls_Percent_1_Bucket_5: 37515
Critical_ROB_Stalls_Percent_1_Bucket_6: 2480188
Non-critical_ROB_Stalls_Percent_1_Bucket_6: 1195331
Critical_ROB_Stalls_Percent_2_Bucket_0: 607327
Non-critical_ROB_Stalls_Percent_2_Bucket_0: 795087
Critical_ROB_Stalls_Percent_2_Bucket_1: 435517
Non-critical_ROB_Stalls_Percent_2_Bucket_1: 218402
Critical_ROB_Stalls_Percent_2_Bucket_2: 149568
Non-critical_ROB_Stalls_Percent_2_Bucket_2: 60637
Critical_ROB_Stalls_Percent_2_Bucket_3: 83061
Non-critical_ROB_Stalls_Percent_2_Bucket_3: 33533
Critical_ROB_Stalls_Percent_2_Bucket_4: 50485
Non-critical_ROB_Stalls_Percent_2_Bucket_4: 21563
Critical_ROB_Stalls_Percent_2_Bucket_5: 68032
Non-critical_ROB_Stalls_Percent_2_Bucket_5: 37515
Critical_ROB_Stalls_Percent_2_Bucket_6: 2480188
Non-critical_ROB_Stalls_Percent_2_Bucket_6: 1195331
Critical_ROB_Stalls_Percent_3_Bucket_0: 689977
Non-critical_ROB_Stalls_Percent_3_Bucket_0: 712437
Critical_ROB_Stalls_Percent_3_Bucket_1: 467664
Non-critical_ROB_Stalls_Percent_3_Bucket_1: 186255
Critical_ROB_Stalls_Percent_3_Bucket_2: 174570
Non-critical_ROB_Stalls_Percent_3_Bucket_2: 35635
Critical_ROB_Stalls_Percent_3_Bucket_3: 94616
Non-critical_ROB_Stalls_Percent_3_Bucket_3: 21978
Critical_ROB_Stalls_Percent_3_Bucket_4: 58769
Non-critical_ROB_Stalls_Percent_3_Bucket_4: 13279
Critical_ROB_Stalls_Percent_3_Bucket_5: 86950
Non-critical_ROB_Stalls_Percent_3_Bucket_5: 18597
Critical_ROB_Stalls_Percent_3_Bucket_6: 3031527
Non-critical_ROB_Stalls_Percent_3_Bucket_6: 643992
Critical_ROB_Stalls_Percent_4_Bucket_0: 689977
Non-critical_ROB_Stalls_Percent_4_Bucket_0: 712437
Critical_ROB_Stalls_Percent_4_Bucket_1: 467664
Non-critical_ROB_Stalls_Percent_4_Bucket_1: 186255
Critical_ROB_Stalls_Percent_4_Bucket_2: 174570
Non-critical_ROB_Stalls_Percent_4_Bucket_2: 35635
Critical_ROB_Stalls_Percent_4_Bucket_3: 94616
Non-critical_ROB_Stalls_Percent_4_Bucket_3: 21978
Critical_ROB_Stalls_Percent_4_Bucket_4: 58769
Non-critical_ROB_Stalls_Percent_4_Bucket_4: 13279
Critical_ROB_Stalls_Percent_4_Bucket_5: 86950
Non-critical_ROB_Stalls_Percent_4_Bucket_5: 18597
Critical_ROB_Stalls_Percent_4_Bucket_6: 3031527
Non-critical_ROB_Stalls_Percent_4_Bucket_6: 643992
Critical_ROB_Stalls_Percent_5_Bucket_0: 754620
Non-critical_ROB_Stalls_Percent_5_Bucket_0: 647794
Critical_ROB_Stalls_Percent_5_Bucket_1: 489870
Non-critical_ROB_Stalls_Percent_5_Bucket_1: 164049
Critical_ROB_Stalls_Percent_5_Bucket_2: 190407
Non-critical_ROB_Stalls_Percent_5_Bucket_2: 19798
Critical_ROB_Stalls_Percent_5_Bucket_3: 105412
Non-critical_ROB_Stalls_Percent_5_Bucket_3: 11182
Critical_ROB_Stalls_Percent_5_Bucket_4: 64661
Non-critical_ROB_Stalls_Percent_5_Bucket_4: 7387
Critical_ROB_Stalls_Percent_5_Bucket_5: 95242
Non-critical_ROB_Stalls_Percent_5_Bucket_5: 10305
Critical_ROB_Stalls_Percent_5_Bucket_6: 3439311
Non-critical_ROB_Stalls_Percent_5_Bucket_6: 236208
Critical_ROB_Stalls_Percent_6_Bucket_0: 754620
Non-critical_ROB_Stalls_Percent_6_Bucket_0: 647794
Critical_ROB_Stalls_Percent_6_Bucket_1: 489870
Non-critical_ROB_Stalls_Percent_6_Bucket_1: 164049
Critical_ROB_Stalls_Percent_6_Bucket_2: 190407
Non-critical_ROB_Stalls_Percent_6_Bucket_2: 19798
Critical_ROB_Stalls_Percent_6_Bucket_3: 105412
Non-critical_ROB_Stalls_Percent_6_Bucket_3: 11182
Critical_ROB_Stalls_Percent_6_Bucket_4: 64661
Non-critical_ROB_Stalls_Percent_6_Bucket_4: 7387
Critical_ROB_Stalls_Percent_6_Bucket_5: 95242
Non-critical_ROB_Stalls_Percent_6_Bucket_5: 10305
Critical_ROB_Stalls_Percent_6_Bucket_6: 3439311
Non-critical_ROB_Stalls_Percent_6_Bucket_6: 236208
Critical_ROB_Stalls_Percent_7_Bucket_0: 945047
Non-critical_ROB_Stalls_Percent_7_Bucket_0: 457367
Critical_ROB_Stalls_Percent_7_Bucket_1: 519812
Non-critical_ROB_Stalls_Percent_7_Bucket_1: 134107
Critical_ROB_Stalls_Percent_7_Bucket_2: 194946
Non-critical_ROB_Stalls_Percent_7_Bucket_2: 15259
Critical_ROB_Stalls_Percent_7_Bucket_3: 108336
Non-critical_ROB_Stalls_Percent_7_Bucket_3: 8258
Critical_ROB_Stalls_Percent_7_Bucket_4: 67280
Non-critical_ROB_Stalls_Percent_7_Bucket_4: 4768
Critical_ROB_Stalls_Percent_7_Bucket_5: 99143
Non-critical_ROB_Stalls_Percent_7_Bucket_5: 6404
Critical_ROB_Stalls_Percent_7_Bucket_6: 3561181
Non-critical_ROB_Stalls_Percent_7_Bucket_6: 114338
Critical_ROB_Stalls_Percent_8_Bucket_0: 974956
Non-critical_ROB_Stalls_Percent_8_Bucket_0: 427458
Critical_ROB_Stalls_Percent_8_Bucket_1: 614171
Non-critical_ROB_Stalls_Percent_8_Bucket_1: 39748
Critical_ROB_Stalls_Percent_8_Bucket_2: 195773
Non-critical_ROB_Stalls_Percent_8_Bucket_2: 14432
Critical_ROB_Stalls_Percent_8_Bucket_3: 108689
Non-critical_ROB_Stalls_Percent_8_Bucket_3: 7905
Critical_ROB_Stalls_Percent_8_Bucket_4: 67486
Non-critical_ROB_Stalls_Percent_8_Bucket_4: 4562
Critical_ROB_Stalls_Percent_8_Bucket_5: 99220
Non-critical_ROB_Stalls_Percent_8_Bucket_5: 6327
Critical_ROB_Stalls_Percent_8_Bucket_6: 3561311
Non-critical_ROB_Stalls_Percent_8_Bucket_6: 114208
Average ROB occupancy Load Stall Begin: 224.547
Average ROB occupancy Load Stall End: 232.311
Min ROB occupancy Load Stall Begin: 1
Max ROB occupancy Load Stall Begin: 352
Min ROB occupancy Load Stall End: 1
Max ROB occupancy Load Stall End: 352
Average ROB occupancy Critical Load Stall Begin: 232.678
Average ROB occupancy Critical Load Stall End: 240.582
Min ROB occupancy Critical Load Stall Begin: 2
Max ROB occupancy Critical Load Stall Begin: 352
Min ROB occupancy Critical Load Stall End: 2
Max ROB occupancy Critical Load Stall End: 352
 ROB Load Stall Begin Bucket Count 0: 1619875
 ROB Load Stall End Bucket Count 0: 1402414
 ROB Critical Load Stall Begin Bucket Count 0: 1329371
 ROB Critical Load Stall End Bucket Count 0: 1135285
 ROB Load Stall Begin Bucket Count 1: 511383
 ROB Load Stall End Bucket Count 1: 653919
 ROB Critical Load Stall Begin Bucket Count 1: 494431
 ROB Critical Load Stall End Bucket Count 1: 614809
 ROB Load Stall Begin Bucket Count 2: 178442
 ROB Load Stall End Bucket Count 2: 210205
 ROB Critical Load Stall Begin Bucket Count 2: 172037
 ROB Critical Load Stall End Bucket Count 2: 203545
 ROB Load Stall Begin Bucket Count 3: 101864
 ROB Load Stall End Bucket Count 3: 116594
 ROB Critical Load Stall Begin Bucket Count 3: 98077
 ROB Critical Load Stall End Bucket Count 3: 112614
 ROB Load Stall Begin Bucket Count 4: 63968
 ROB Load Stall End Bucket Count 4: 72048
 ROB Critical Load Stall Begin Bucket Count 4: 60992
 ROB Critical Load Stall End Bucket Count 4: 68861
 ROB Load Stall Begin Bucket Count 5: 220693
 ROB Load Stall End Bucket Count 5: 105547
 ROB Critical Load Stall Begin Bucket Count 5: 212952
 ROB Critical Load Stall End Bucket Count 5: 100690
 ROB Load Stall Begin Bucket Count 6: 3540021
 ROB Load Stall End Bucket Count 6: 3675519
 ROB Critical Load Stall Begin Bucket Count 6: 3413569
 ROB Critical Load Stall End Bucket Count 6: 3545625
PIST Tag Read Accesses: 52074
PIST Read Accesses: 26037
PIST Tag Write Accesses: 52074
PIST Write Accesses: 26037
Criticality detector called times: 98724
Max global_stall_cycles_count: 230068
Threshold Modified: 2 times, factor: -2
Sturdy critical IP cache stats: 
 Unused entries: 0
CIC Tag Read Accesses: 0
CIC Read Accesses: 0
CIC Tag Write Accesses: 0
CIC Write Accesses: 0
Wobbly critical IP cache stats: 
 Unused entries: 114
CIC Tag Read Accesses: 257306173
CIC Read Accesses: 0
CIC Tag Write Accesses: 424252
CIC Write Accesses: 0
ITLB TOTAL     ACCESS:   20399816  HIT:   20399816  MISS:          0  HIT %:        100  MISS %:          0   MPKI: 0
ITLB LOAD TRANSLATION ACCESS:   20399816  HIT:   20399816  MISS:          0  HIT %:        100  MISS %:          0   MPKI: 0
ITLB PREFETCH  REQUESTED:          0  ISSUED:          0  USEFUL:          0  USELESS:          0
ITLB USEFUL LOAD PREFETCHES:          0 PREFETCH ISSUED TO LOWER LEVEL:          0  ACCURACY: -nan
ITLB TIMELY PREFETCHES:          0 LATE PREFETCHES: 0 DROPPED PREFETCHES: 0
ITLB PREFETCHES SAME FILL-ORIGIN LEVEL: 0 DIFFERENT FILL-ORIGIN LEVEL: 0
ITLB AVERAGE MISS LATENCY: -nan cycles
ITLB RQ	ACCESS:   24910307	FORWARD:          0	MERGED:    4510490	TO_CACHE:   20399817

DTLB TOTAL     ACCESS:   31310561  HIT:   30915332  MISS:     395229  HIT %:    98.7377  MISS %:    1.26229   MPKI: 3.95229
DTLB LOAD TRANSLATION ACCESS:   31310561  HIT:   30915332  MISS:     395229  HIT %:    98.7377  MISS %:    1.26229   MPKI: 3.95229
DTLB PREFETCH  REQUESTED:          0  ISSUED:          0  USEFUL:          0  USELESS:          0
DTLB USEFUL LOAD PREFETCHES:          0 PREFETCH ISSUED TO LOWER LEVEL:          0  ACCURACY: -nan
DTLB TIMELY PREFETCHES:          0 LATE PREFETCHES: 0 DROPPED PREFETCHES: 0
DTLB PREFETCHES SAME FILL-ORIGIN LEVEL: 0 DIFFERENT FILL-ORIGIN LEVEL: 0
DTLB AVERAGE MISS LATENCY: 12.6581 cycles
DTLB RQ	ACCESS:   38219085	FORWARD:          0	MERGED:    6897378	TO_CACHE:   31321707

STLB TOTAL     ACCESS:   12693035  HIT:   12684980  MISS:       8055  HIT %:    99.9365  MISS %:    0.06346   MPKI: 0.08055
STLB LOAD TRANSLATION ACCESS:     395229  HIT:     387177  MISS:       8052  HIT %:    97.9627  MISS %:     2.0373   MPKI: 0.08052
STLB TRANSLATION FROM L1D PREFETCHER ACCESS:   12297806  HIT:   12297803  MISS:          3  HIT %:        100  MISS %: 2.43946e-05   MPKI: 3e-05
STLB PREFETCH  REQUESTED:          0  ISSUED:          0  USEFUL:          3  USELESS:          0
STLB USEFUL LOAD PREFETCHES:          3 PREFETCH ISSUED TO LOWER LEVEL:          0  ACCURACY: inf
STLB TIMELY PREFETCHES:          3 LATE PREFETCHES: 0 DROPPED PREFETCHES: 0
STLB PREFETCHES SAME FILL-ORIGIN LEVEL: 0 DIFFERENT FILL-ORIGIN LEVEL: 0
STLB AVERAGE MISS LATENCY: 178.754 cycles
STLB RQ	ACCESS:   22114844	FORWARD:          0	MERGED:    9421809	TO_CACHE:   12693035

STLB Hit, L1D data hit: 0
STLB Hit, L2C data hit: 0
STLB Hit, LLC data hit: 0
STLB Hit, LLC data miss: 0
STLB STLB hints to L2: 0
L1D TOTAL     ACCESS:   54198688  HIT:   31214437  MISS:   22984251  HIT %:    57.5926  MISS %:    42.4074   MPKI: 229.843
L1D LOAD      ACCESS:   31788681  HIT:   23535761  MISS:    8252920  HIT %:    74.0382  MISS %:    25.9618   MPKI: 82.5292
L1D RFO       ACCESS:    4742383  HIT:    4475872  MISS:     266511  HIT %:    94.3802  MISS %:    5.61977   MPKI: 2.66511
L1D PREFETCH  ACCESS:   17667624  HIT:    3202804  MISS:   14464820  HIT %:    18.1281  MISS %:    81.8719   MPKI: 144.648
L1D PREFETCH  REQUESTED:   43505878  ISSUED:   43439250  USEFUL:    6883440  USELESS:    7581132
L1D USEFUL LOAD PREFETCHES:    6883440 PREFETCH ISSUED TO LOWER LEVEL:   17496877  ACCURACY: 39.341
L1D TIMELY PREFETCHES:    6883440 LATE PREFETCHES: 3031665 DROPPED PREFETCHES: 0
L1D PREFETCHES SAME FILL-ORIGIN LEVEL: 17496877 DIFFERENT FILL-ORIGIN LEVEL: 0
L1D AVERAGE MISS LATENCY: 2.13409e+07 cycles
L1D RQ	ACCESS:   41296911	FORWARD:          0	MERGED:    8609683	TO_CACHE:   32633250
L1D WQ	ACCESS:    7122776	FORWARD:      53980	MERGED:    1536941	TO_CACHE:    5585835
L1D PQ	ACCESS:   21719635	FORWARD:          0	MERGED:         18	TO_CACHE:   21719615

L1D UNIQUE REGIONS ACCESSED: 0
L1D REGIONS CONFLICTS: 0
L1D Cross Page Prefetch Requests: 0
L1D Same Page Prefetch Requests: 21763704
L1D ROI Sum of L1D PQ occupancy: 476411379
L1D PREFETCHES PUSHED FROM L2C: 0
L1I TOTAL     ACCESS:   24910305  HIT:   24910305  MISS:          0  HIT %:        100  MISS %:          0   MPKI: 0
L1I LOAD      ACCESS:   24910305  HIT:   24910305  MISS:          0  HIT %:        100  MISS %:          0   MPKI: 0
L1I PREFETCH  REQUESTED:          0  ISSUED:          0  USEFUL:          0  USELESS:          0
L1I USEFUL LOAD PREFETCHES:          0 PREFETCH ISSUED TO LOWER LEVEL:          0  ACCURACY: -nan
L1I TIMELY PREFETCHES:          0 LATE PREFETCHES: 0 DROPPED PREFETCHES: 0
L1I PREFETCHES SAME FILL-ORIGIN LEVEL: 0 DIFFERENT FILL-ORIGIN LEVEL: 0
L1I AVERAGE MISS LATENCY: -nan cycles
L1I RQ	ACCESS:   34073619	FORWARD:          0	MERGED:    9163312	TO_CACHE:   24910307

BTB TOTAL     ACCESS:   17751898  HIT:   17751866  MISS:         32  HIT %:    99.9998  MISS %: 0.000180262   MPKI: 0.00032
BTB BRANCH_DIRECT_JUMP	ACCESS:    4133385  HIT:    4133379  MISS:          6
BTB BRANCH_INDIRECT	ACCESS:          0  HIT:          0  MISS:          0
BTB BRANCH_CONDITIONAL	ACCESS:   13616937  HIT:   13616915  MISS:         22
BTB BRANCH_DIRECT_CALL	ACCESS:        788  HIT:        786  MISS:          2
BTB BRANCH_INDIRECT_CALL	ACCESS:          0  HIT:          0  MISS:          0
BTB BRANCH_RETURN	ACCESS:        788  HIT:        786  MISS:          2
BTB BRANCH_OTHER ACCESS:          0  HIT:          0  MISS:          0

L2C TOTAL     ACCESS:   23335315  HIT:     362157  MISS:   22973158  HIT %:    1.55197  MISS %:     98.448   MPKI: 229.732
L2C LOAD      ACCESS:    5221254  HIT:       3222  MISS:    5218032  HIT %:  0.0617093  MISS %:    99.9383   MPKI: 52.1803
L2C DATA LOAD MPKI: 52.1803
L2C INSTRUCTION LOAD MPKI: 0
L2C RFO       ACCESS:     266132  HIT:        690  MISS:     265442  HIT %:    0.25927  MISS %:    99.7407   MPKI: 2.65442
L2C PREFETCH  ACCESS:   17496861  HIT:      10077  MISS:   17486784  HIT %:  0.0575932  MISS %:    99.9424   MPKI: 174.868
L2C DATA PREFETCH MPKI: 174.868
L2C INSTRUCTION PREFETCH MPKI: 0
L2C WRITEBACK ACCESS:     343004  HIT:     342077  MISS:        927  HIT %:    99.7297  MISS %:   0.270259   MPKI: 0.00927
L2C LOAD TRANSLATION ACCESS:       8061  HIT:       6091  MISS:       1970  HIT %:    75.5613  MISS %:    24.4387   MPKI: 0.0197
L2C TRANSLATION FROM L1D PREFETCHER ACCESS:          3  HIT:          0  MISS:          3  HIT %:          0  MISS %:        100   MPKI: 3e-05
L2C PREFETCH  REQUESTED:          0  ISSUED:          0  USEFUL:       1605  USELESS:   17478954
L2C USEFUL LOAD PREFETCHES:       1605 PREFETCH ISSUED TO LOWER LEVEL:   17486797  ACCURACY: 0.00917835
L2C TIMELY PREFETCHES:       1605 LATE PREFETCHES: 0 DROPPED PREFETCHES: 0
L2C PREFETCHES SAME FILL-ORIGIN LEVEL: 0 DIFFERENT FILL-ORIGIN LEVEL: 0
L2C AVERAGE MISS LATENCY: 94.1449 cycles
L2C RQ	ACCESS:    5495452	FORWARD:          0	MERGED:          0	TO_CACHE:    5495452
L2C WQ	ACCESS:     343004	FORWARD:          3	MERGED:          0	TO_CACHE:     343004
L2C PQ	ACCESS:   17496877	FORWARD:          0	MERGED:          0	TO_CACHE:   17496874

L2C Instructions Evicting Data 0
L2C Translations Evicting Data 1973
L2C Data Evicting Data 22968278
L2C Instructions Evicting Instructions 0
L2C Translations Evicting Instructions 0
L2C Data Evicting Instructions 0
L2C Instructions Evicting Translations 0
L2C Translations Evicting Translations 0
L2C Data Evicting Translations 1980
L2C Dense regions hint from L2: 0
PSCL5 TOTAL     ACCESS:       8055  HIT:       8055  MISS:          0  HIT %:        100  MISS %:          0   MPKI: 0
PSCL5 LOAD TRANSLATION ACCESS:       8052  HIT:       8052  MISS:          0  HIT %:        100  MISS %:          0   MPKI: 0
PSCL5 TRANSLATION FROM L1D PREFETCHER ACCESS:          3  HIT:          3  MISS:          0  HIT %:        100  MISS %:          0   MPKI: 0
PSCL5 PREFETCH  REQUESTED:          0  ISSUED:          0  USEFUL:          0  USELESS:          0
PSCL5 USEFUL LOAD PREFETCHES:          0 PREFETCH ISSUED TO LOWER LEVEL:          0  ACCURACY: -nan
PSCL5 TIMELY PREFETCHES:          0 LATE PREFETCHES: 0 DROPPED PREFETCHES: 0
PSCL5 PREFETCHES SAME FILL-ORIGIN LEVEL: 0 DIFFERENT FILL-ORIGIN LEVEL: 0

PSCL4 TOTAL     ACCESS:       8055  HIT:       8055  MISS:          0  HIT %:        100  MISS %:          0   MPKI: 0
PSCL4 LOAD TRANSLATION ACCESS:       8052  HIT:       8052  MISS:          0  HIT %:        100  MISS %:          0   MPKI: 0
PSCL4 TRANSLATION FROM L1D PREFETCHER ACCESS:          3  HIT:          3  MISS:          0  HIT %:        100  MISS %:          0   MPKI: 0
PSCL4 PREFETCH  REQUESTED:          0  ISSUED:          0  USEFUL:          0  USELESS:          0
PSCL4 USEFUL LOAD PREFETCHES:          0 PREFETCH ISSUED TO LOWER LEVEL:          0  ACCURACY: -nan
PSCL4 TIMELY PREFETCHES:          0 LATE PREFETCHES: 0 DROPPED PREFETCHES: 0
PSCL4 PREFETCHES SAME FILL-ORIGIN LEVEL: 0 DIFFERENT FILL-ORIGIN LEVEL: 0

PSCL3 TOTAL     ACCESS:       8055  HIT:       8055  MISS:          0  HIT %:        100  MISS %:          0   MPKI: 0
PSCL3 LOAD TRANSLATION ACCESS:       8052  HIT:       8052  MISS:          0  HIT %:        100  MISS %:          0   MPKI: 0
PSCL3 TRANSLATION FROM L1D PREFETCHER ACCESS:          3  HIT:          3  MISS:          0  HIT %:        100  MISS %:          0   MPKI: 0
PSCL3 PREFETCH  REQUESTED:          0  ISSUED:          0  USEFUL:          0  USELESS:          0
PSCL3 USEFUL LOAD PREFETCHES:          0 PREFETCH ISSUED TO LOWER LEVEL:          0  ACCURACY: -nan
PSCL3 TIMELY PREFETCHES:          0 LATE PREFETCHES: 0 DROPPED PREFETCHES: 0
PSCL3 PREFETCHES SAME FILL-ORIGIN LEVEL: 0 DIFFERENT FILL-ORIGIN LEVEL: 0

PSCL2 TOTAL     ACCESS:       8055  HIT:       8030  MISS:         25  HIT %:    99.6896  MISS %:   0.310366   MPKI: 0.00025
PSCL2 LOAD TRANSLATION ACCESS:       8052  HIT:       8027  MISS:         25  HIT %:    99.6895  MISS %:   0.310482   MPKI: 0.00025
PSCL2 TRANSLATION FROM L1D PREFETCHER ACCESS:          3  HIT:          3  MISS:          0  HIT %:        100  MISS %:          0   MPKI: 0
PSCL2 PREFETCH  REQUESTED:          0  ISSUED:          0  USEFUL:          0  USELESS:          0
PSCL2 USEFUL LOAD PREFETCHES:          0 PREFETCH ISSUED TO LOWER LEVEL:          0  ACCURACY: -nan
PSCL2 TIMELY PREFETCHES:          0 LATE PREFETCHES: 0 DROPPED PREFETCHES: 0
PSCL2 PREFETCHES SAME FILL-ORIGIN LEVEL: 0 DIFFERENT FILL-ORIGIN LEVEL: 0

LLC TOTAL     ACCESS:   23315759  HIT:   11790271  MISS:   11525488  HIT %:    50.5678  MISS %:    49.4322   MPKI: 115.255
LLC LOAD      ACCESS:    5218032  HIT:    3493238  MISS:    1724794  HIT %:    66.9455  MISS %:    33.0545   MPKI: 17.2479
LLC RFO       ACCESS:     265442  HIT:       1175  MISS:     264267  HIT %:   0.442658  MISS %:    99.5573   MPKI: 2.64267
LLC PREFETCH  ACCESS:   17486785  HIT:    8286254  MISS:    9200531  HIT %:    47.3858  MISS %:    52.6142   MPKI: 92.0053
LLC WRITEBACK ACCESS:     343527  HIT:       9600  MISS:     333927  HIT %:    2.79454  MISS %:    97.2055   MPKI: 3.33927
LLC LOAD TRANSLATION ACCESS:       1970  HIT:          4  MISS:       1966  HIT %:   0.203046  MISS %:     99.797   MPKI: 0.01966
LLC TRANSLATION FROM L1D PREFETCHER ACCESS:          3  HIT:          0  MISS:          3  HIT %:          0  MISS %:        100   MPKI: 3e-05
LLC PREFETCH  REQUESTED:          0  ISSUED:          0  USEFUL:       6555  USELESS:    9184977
LLC USEFUL LOAD PREFETCHES:       6555 PREFETCH ISSUED TO LOWER LEVEL:    9200536  ACCURACY: 0.0712458
LLC TIMELY PREFETCHES:       6555 LATE PREFETCHES: 0 DROPPED PREFETCHES: 0
LLC PREFETCHES SAME FILL-ORIGIN LEVEL: 0 DIFFERENT FILL-ORIGIN LEVEL: 0
LLC AVERAGE MISS LATENCY: 127.711 cycles
LLC RQ	ACCESS:    5485448	FORWARD:          0	MERGED:          0	TO_CACHE:    5485448
LLC WQ	ACCESS:     343527	FORWARD:          0	MERGED:          0	TO_CACHE:     343527
LLC PQ	ACCESS:   17486797	FORWARD:          0	MERGED:          0	TO_CACHE:   17486797

LLC Dense regions hint to LLC: 0

RAW hits: 4124450
Loads Generated: 45421359
Loads sent to L1D: 41296911
Stores Generated: 7122777
Stores sent to L1D: 7122776
Major fault: 0 Minor fault: 13274
Allocated PAGES: 13274

stream: 
stream:times selected: 20654160
stream:pref_filled: 5624877
stream:pref_useful: 355549
stream:pref_late: 426456
stream:misses: 655372
stream:misses_by_poll: 0

CS: 
CS:times selected: 2571979
CS:pref_filled: 1780314
CS:pref_useful: 1747038
CS:pref_late: 131302
CS:misses: 210594
CS:misses_by_poll: 5135

CPLX: 
CPLX:times selected: 18081035
CPLX:pref_filled: 7088782
CPLX:pref_useful: 4791633
CPLX:pref_late: 2356987
CPLX:misses: 8252931
CPLX:misses_by_poll: 88080

NL_L1: 
NL:times selected: 666
NL:pref_filled: 370
NL:pref_useful: 150
NL:pref_late: 2
NL:misses: 563
NL:misses_by_poll: 0

total selections: 41307840
total_filled: 14464820
total_useful: 6883440
total_late: 3033307
total_polluted: 93215
total_misses_after_warmup: 9086987
conflicts: 43509
Degree Incremented Times: 122605
Degree Decremented Times: 123141

L1 IP Table Write Accesses: 31667019
L1 IP Table Read Accesses: 31623510
L1 RST Write Accesses: 20611891
L1 RST Read Accesses: 41223782
L1 CSPT Write Accesses: 20611891
L1 CSPT Read Accesses: 71266871
L1 RR Filter Tag Write Accesses: 21786263
L1 RR Filter Tag Read Accesses: 1332998357
L1 IP Table Tag Write Accesses: 31886616
L1 IP Table Tag Read Accesses: 31886616
L1 RST Tag Write Accesses: 0
L1 RST Tag Read Accesses: 185402653
L1 RR Filter Write Accesses: 0
L1 RR Filter Read Accesses: 53189125
test: 1125299

DRAM Statistics
 CHANNEL 0
 RQ ROW_BUFFER_HIT:    7933944  ROW_BUFFER_MISS:    3257582
 DBUS_CONGESTED:      18576
 WQ ROW_BUFFER_HIT:     117922  ROW_BUFFER_MISS:     223624  FULL:          0

 AVG_CONGESTED_CYCLE: 4
 All warmup complete: 2
Channel 0 Bank busy for read cycles: 0
Channel 0 Bank busy for write cycles: 0
Channel 0
Rank 0
0banks busy for read cycles: 11495712
0banks busy for write cycles: 7323
1banks busy for read cycles: 39599042
1banks busy for write cycles: 4853603
2banks busy for read cycles: 41562914
2banks busy for write cycles: 2882072
3banks busy for read cycles: 42281097
3banks busy for write cycles: 2002574
4banks busy for read cycles: 40910462
4banks busy for write cycles: 1504913
5banks busy for read cycles: 35315730
5banks busy for write cycles: 1258013
6banks busy for read cycles: 25734970
6banks busy for write cycles: 1335129
7banks busy for read cycles: 14834599
7banks busy for write cycles: 2483224
8banks busy for read cycles: 4782758
8banks busy for write cycles: 11883186

CPU 0 Branch Prediction Accuracy: 98.5222% MPKI: 2.69335 Average ROB Occupancy at Mispredict: 69.2541
Branch types
NOT_BRANCH: 81775194 81.7752%
BRANCH_DIRECT_JUMP: 4133385 4.13338%
BRANCH_INDIRECT: 0 0%
BRANCH_CONDITIONAL: 14089840 14.0898%
BRANCH_DIRECT_CALL: 788 0.000788%
BRANCH_INDIRECT_CALL: 0 0%
BRANCH_RETURN: 788 0.000788%
BRANCH_OTHER: 0 0%

DRAM PAGES: 1048576
Allocated PAGES: 13274
