Initialize SIGNATURE TABLE
ST_SET: 1
ST_WAY: 16
ST_TAG_BIT: 16
ST_TAG_MASK: ffff

Initialize PATTERN TABLE
PT_SET: 16
PT_WAY: 4
SIG_DELTA_BIT: 7
C_SIG_BIT: 4
C_DELTA_BIT: 4

Initialize PREFETCH FILTER
FILTER_SET: 1024

Initialize PERCEPTRON
PERC_ENTRIES: 4096
PERC_FEATURES: 9

*** ChampSim Multicore Out-of-Order Simulator ***

Warmup Instructions: 50000000
Simulation Instructions: 100000000
Number of CPUs: 1
LLC sets: 2048
LLC ways: 16
Off-chip DRAM Size: 4096 MB Channels: 1 Width: 64-bit Data Rate: 6400 MT/s
CPU 0 runs ../SPEC2017//605.mcf_s-484B.champsimtrace.xz
.xz
BTB has LRU replacement policy
ITLB has LRU replacement policy
DTLB has LRU replacement policy
STLB has LRU replacement policy
L1I has LRU replacement policy
L1D has LRU replacement policy
Initialize SRRIP state for L2C
Initialize DRRIP state for LLC
Heartbeat CPU 0 instructions: 10000001 cycles: 3226532 heartbeat IPC: 3.0993 cumulative IPC: 3.0993 (Simulation time: 0 hr 7 min 28 sec) 
Heartbeat CPU 0 instructions: 20000000 cycles: 6491142 heartbeat IPC: 3.06315 cumulative IPC: 3.08112 (Simulation time: 0 hr 14 min 5 sec) 
Heartbeat CPU 0 instructions: 30000001 cycles: 9702255 heartbeat IPC: 3.11419 cumulative IPC: 3.09206 (Simulation time: 0 hr 20 min 15 sec) 
Heartbeat CPU 0 instructions: 40000000 cycles: 12915498 heartbeat IPC: 3.11212 cumulative IPC: 3.09705 (Simulation time: 0 hr 25 min 51 sec) 
Heartbeat CPU 0 instructions: 50000000 cycles: 16153657 heartbeat IPC: 3.08817 cumulative IPC: 3.09527 (Simulation time: 0 hr 30 min 43 sec) 

Warmup complete CPU 0 instructions: 50000004 cycles: 16153658 (Simulation time: 0 hr 30 min 43 sec) 

Heartbeat CPU 0 instructions: 60000003 cycles: 36714211 heartbeat IPC: 0.486368 cumulative IPC: 0.486368 (Simulation time: 0 hr 37 min 54 sec) 
Heartbeat CPU 0 instructions: 70000002 cycles: 61445116 heartbeat IPC: 0.404352 cumulative IPC: 0.441584 (Simulation time: 0 hr 45 min 52 sec) 
Heartbeat CPU 0 instructions: 80000000 cycles: 86574512 heartbeat IPC: 0.39794 cumulative IPC: 0.42601 (Simulation time: 0 hr 52 min 24 sec) 
Heartbeat CPU 0 instructions: 90000000 cycles: 108983632 heartbeat IPC: 0.446247 cumulative IPC: 0.430895 (Simulation time: 0 hr 57 min 50 sec) 
Heartbeat CPU 0 instructions: 100000000 cycles: 129180607 heartbeat IPC: 0.495124 cumulative IPC: 0.442372 (Simulation time: 1 hr 2 min 40 sec) 
Heartbeat CPU 0 instructions: 110000000 cycles: 149670307 heartbeat IPC: 0.48805 cumulative IPC: 0.449382 (Simulation time: 1 hr 13 min 30 sec) 
Heartbeat CPU 0 instructions: 120000001 cycles: 167969267 heartbeat IPC: 0.546479 cumulative IPC: 0.461086 (Simulation time: 1 hr 24 min 9 sec) 
Heartbeat CPU 0 instructions: 130000000 cycles: 186886501 heartbeat IPC: 0.528618 cumulative IPC: 0.468568 (Simulation time: 1 hr 32 min 59 sec) 
Heartbeat CPU 0 instructions: 140000001 cycles: 207242081 heartbeat IPC: 0.491266 cumulative IPC: 0.470986 (Simulation time: 1 hr 41 min 17 sec) 
Heartbeat CPU 0 instructions: 150000002 cycles: 225911940 heartbeat IPC: 0.535623 cumulative IPC: 0.476739 (Simulation time: 1 hr 47 min 52 sec) 
Finished CPU 0 instructions: 100000000 cycles: 209758283 cumulative IPC: 0.476739 (Simulation time: 1 hr 47 min 52 sec) 

ChampSim completed all CPUs

Region of Interest Statistics

CPU 0 cumulative IPC: 0.476739 instructions: 100000000 cycles: 209758283

CPU 0 Average Load ROB stall cycles: 4.13379e+07
CPU 0 Fraction of times ROB stalled by Loads: 32.8676
CPU 0 Percentage of Load stall cycles in Total stall cycles: 5.55416e+08
Issued all: 119406928
Issued LT all: 110650035
rob_not_full_when_issued_lt_all: 28360896
Issued LT one: 91733460
rob_not_full_when_issued_lt_one: 23382525
FVP critical_dynamic_instances_0: 27884032
FVP unique_critical_ips_0: 46
 Total stall cycles: 186709980
 Total load stall cycles: 1037017908287245
Unique Load IPs: 96
CPU 0 NUM of IPS identified critical: 0
CPU 0 Num of Load IPs stalling ROB: 0
Threshold modification factor: 0
Trouble in retire width: -nan
MaC = Marked as critical.
lt_50_percent_before_Mac: 0
gt_90_percent_before_Mac: 0
gt_75_percent_before_Mac: 0
gt_50_percent_before_Mac: 0
stall_proportion_bin_same_before_after: 0
stall_proportion_bin_lower_before_after: 0
stall_proportion_bin_upper_before_after: 0
average_stall_proportion_before: -nan
average_stall_proportion_after: -nan
Critical IP stalls, total frequency: 0
Non-critical IP stalls, total frequency: 0
Total Freq all stalling IPs: 0
Critical_IP_Detector_Accuracy_70: 0.0217391
Critical_IP_Detector_Accuracy_80: 0.0217391
Critical_IP_Detector_Accuracy_90: 0.0217391
Critical_IP_Detector_Coverage_70: 1
Critical_IP_Detector_Coverage_80: 1
Critical_IP_Detector_Coverage_90: 1
stat_90_percent_critical_ip_stalls_freq: 2264651
stat_90_percent_non_critical_ip_stalls_freq: 18446744073707286965
AVERAGE_ROB_Occupancy_90_Percent_Critical_IP_Stalls: 280.317
AVERAGE_ROB_Occupancy_90_Percent_Non_Critical_IP_Stalls: 8.43591e-11
Critical_IP_ROB_Stalls_Bucket_0: 0
Non-critical_IP_ROB_Stalls_Bucket_0: 583451
Critical_IP_ROB_Stalls_Bucket_1: 0
Non-critical_IP_ROB_Stalls_Bucket_1: 325091
Critical_IP_ROB_Stalls_Bucket_2: 0
Non-critical_IP_ROB_Stalls_Bucket_2: 482854
Critical_IP_ROB_Stalls_Bucket_3: 0
Non-critical_IP_ROB_Stalls_Bucket_3: 523436
Critical_IP_ROB_Stalls_Bucket_4: 0
Non-critical_IP_ROB_Stalls_Bucket_4: 811920
Critical_IP_ROB_Stalls_Bucket_5: 0
Non-critical_IP_ROB_Stalls_Bucket_5: 1275619
Critical_IP_ROB_Stalls_Bucket_6: 0
Non-critical_IP_ROB_Stalls_Bucket_6: 4242932
0 => IPs accounting for >50 percent of stalls, 1 => 55, 2 => 60, 3 => 65 and so on till 90.
percent50: inf num IPs:  1
percent55: inf num IPs: 1
percent60: inf num IPs: 1
percent65: inf num IPs: 1
percent70: inf num IPs: 1
percent75: inf num IPs: 1
percent80: inf num IPs: 1
percent85: inf num IPs: 1
percent90: inf num IPs: 1
Critical_ROB_Stalls_Percent_0_Bucket_0: 101474
Non-critical_ROB_Stalls_Percent_0_Bucket_0: 481977
Critical_ROB_Stalls_Percent_0_Bucket_1: 58155
Non-critical_ROB_Stalls_Percent_0_Bucket_1: 266936
Critical_ROB_Stalls_Percent_0_Bucket_2: 107879
Non-critical_ROB_Stalls_Percent_0_Bucket_2: 374975
Critical_ROB_Stalls_Percent_0_Bucket_3: 106275
Non-critical_ROB_Stalls_Percent_0_Bucket_3: 417161
Critical_ROB_Stalls_Percent_0_Bucket_4: 235151
Non-critical_ROB_Stalls_Percent_0_Bucket_4: 576769
Critical_ROB_Stalls_Percent_0_Bucket_5: 441468
Non-critical_ROB_Stalls_Percent_0_Bucket_5: 834151
Critical_ROB_Stalls_Percent_0_Bucket_6: 1214249
Non-critical_ROB_Stalls_Percent_0_Bucket_6: 3028683
Critical_ROB_Stalls_Percent_1_Bucket_0: 101474
Non-critical_ROB_Stalls_Percent_1_Bucket_0: 481977
Critical_ROB_Stalls_Percent_1_Bucket_1: 58155
Non-critical_ROB_Stalls_Percent_1_Bucket_1: 266936
Critical_ROB_Stalls_Percent_1_Bucket_2: 107879
Non-critical_ROB_Stalls_Percent_1_Bucket_2: 374975
Critical_ROB_Stalls_Percent_1_Bucket_3: 106275
Non-critical_ROB_Stalls_Percent_1_Bucket_3: 417161
Critical_ROB_Stalls_Percent_1_Bucket_4: 235151
Non-critical_ROB_Stalls_Percent_1_Bucket_4: 576769
Critical_ROB_Stalls_Percent_1_Bucket_5: 441468
Non-critical_ROB_Stalls_Percent_1_Bucket_5: 834151
Critical_ROB_Stalls_Percent_1_Bucket_6: 1214249
Non-critical_ROB_Stalls_Percent_1_Bucket_6: 3028683
Critical_ROB_Stalls_Percent_2_Bucket_0: 101474
Non-critical_ROB_Stalls_Percent_2_Bucket_0: 481977
Critical_ROB_Stalls_Percent_2_Bucket_1: 58155
Non-critical_ROB_Stalls_Percent_2_Bucket_1: 266936
Critical_ROB_Stalls_Percent_2_Bucket_2: 107879
Non-critical_ROB_Stalls_Percent_2_Bucket_2: 374975
Critical_ROB_Stalls_Percent_2_Bucket_3: 106275
Non-critical_ROB_Stalls_Percent_2_Bucket_3: 417161
Critical_ROB_Stalls_Percent_2_Bucket_4: 235151
Non-critical_ROB_Stalls_Percent_2_Bucket_4: 576769
Critical_ROB_Stalls_Percent_2_Bucket_5: 441468
Non-critical_ROB_Stalls_Percent_2_Bucket_5: 834151
Critical_ROB_Stalls_Percent_2_Bucket_6: 1214249
Non-critical_ROB_Stalls_Percent_2_Bucket_6: 3028683
Critical_ROB_Stalls_Percent_3_Bucket_0: 101474
Non-critical_ROB_Stalls_Percent_3_Bucket_0: 481977
Critical_ROB_Stalls_Percent_3_Bucket_1: 58155
Non-critical_ROB_Stalls_Percent_3_Bucket_1: 266936
Critical_ROB_Stalls_Percent_3_Bucket_2: 107879
Non-critical_ROB_Stalls_Percent_3_Bucket_2: 374975
Critical_ROB_Stalls_Percent_3_Bucket_3: 106275
Non-critical_ROB_Stalls_Percent_3_Bucket_3: 417161
Critical_ROB_Stalls_Percent_3_Bucket_4: 235151
Non-critical_ROB_Stalls_Percent_3_Bucket_4: 576769
Critical_ROB_Stalls_Percent_3_Bucket_5: 441468
Non-critical_ROB_Stalls_Percent_3_Bucket_5: 834151
Critical_ROB_Stalls_Percent_3_Bucket_6: 1214249
Non-critical_ROB_Stalls_Percent_3_Bucket_6: 3028683
Critical_ROB_Stalls_Percent_4_Bucket_0: 101474
Non-critical_ROB_Stalls_Percent_4_Bucket_0: 481977
Critical_ROB_Stalls_Percent_4_Bucket_1: 58155
Non-critical_ROB_Stalls_Percent_4_Bucket_1: 266936
Critical_ROB_Stalls_Percent_4_Bucket_2: 107879
Non-critical_ROB_Stalls_Percent_4_Bucket_2: 374975
Critical_ROB_Stalls_Percent_4_Bucket_3: 106275
Non-critical_ROB_Stalls_Percent_4_Bucket_3: 417161
Critical_ROB_Stalls_Percent_4_Bucket_4: 235151
Non-critical_ROB_Stalls_Percent_4_Bucket_4: 576769
Critical_ROB_Stalls_Percent_4_Bucket_5: 441468
Non-critical_ROB_Stalls_Percent_4_Bucket_5: 834151
Critical_ROB_Stalls_Percent_4_Bucket_6: 1214249
Non-critical_ROB_Stalls_Percent_4_Bucket_6: 3028683
Critical_ROB_Stalls_Percent_5_Bucket_0: 101474
Non-critical_ROB_Stalls_Percent_5_Bucket_0: 481977
Critical_ROB_Stalls_Percent_5_Bucket_1: 58155
Non-critical_ROB_Stalls_Percent_5_Bucket_1: 266936
Critical_ROB_Stalls_Percent_5_Bucket_2: 107879
Non-critical_ROB_Stalls_Percent_5_Bucket_2: 374975
Critical_ROB_Stalls_Percent_5_Bucket_3: 106275
Non-critical_ROB_Stalls_Percent_5_Bucket_3: 417161
Critical_ROB_Stalls_Percent_5_Bucket_4: 235151
Non-critical_ROB_Stalls_Percent_5_Bucket_4: 576769
Critical_ROB_Stalls_Percent_5_Bucket_5: 441468
Non-critical_ROB_Stalls_Percent_5_Bucket_5: 834151
Critical_ROB_Stalls_Percent_5_Bucket_6: 1214249
Non-critical_ROB_Stalls_Percent_5_Bucket_6: 3028683
Critical_ROB_Stalls_Percent_6_Bucket_0: 101474
Non-critical_ROB_Stalls_Percent_6_Bucket_0: 481977
Critical_ROB_Stalls_Percent_6_Bucket_1: 58155
Non-critical_ROB_Stalls_Percent_6_Bucket_1: 266936
Critical_ROB_Stalls_Percent_6_Bucket_2: 107879
Non-critical_ROB_Stalls_Percent_6_Bucket_2: 374975
Critical_ROB_Stalls_Percent_6_Bucket_3: 106275
Non-critical_ROB_Stalls_Percent_6_Bucket_3: 417161
Critical_ROB_Stalls_Percent_6_Bucket_4: 235151
Non-critical_ROB_Stalls_Percent_6_Bucket_4: 576769
Critical_ROB_Stalls_Percent_6_Bucket_5: 441468
Non-critical_ROB_Stalls_Percent_6_Bucket_5: 834151
Critical_ROB_Stalls_Percent_6_Bucket_6: 1214249
Non-critical_ROB_Stalls_Percent_6_Bucket_6: 3028683
Critical_ROB_Stalls_Percent_7_Bucket_0: 101474
Non-critical_ROB_Stalls_Percent_7_Bucket_0: 481977
Critical_ROB_Stalls_Percent_7_Bucket_1: 58155
Non-critical_ROB_Stalls_Percent_7_Bucket_1: 266936
Critical_ROB_Stalls_Percent_7_Bucket_2: 107879
Non-critical_ROB_Stalls_Percent_7_Bucket_2: 374975
Critical_ROB_Stalls_Percent_7_Bucket_3: 106275
Non-critical_ROB_Stalls_Percent_7_Bucket_3: 417161
Critical_ROB_Stalls_Percent_7_Bucket_4: 235151
Non-critical_ROB_Stalls_Percent_7_Bucket_4: 576769
Critical_ROB_Stalls_Percent_7_Bucket_5: 441468
Non-critical_ROB_Stalls_Percent_7_Bucket_5: 834151
Critical_ROB_Stalls_Percent_7_Bucket_6: 1214249
Non-critical_ROB_Stalls_Percent_7_Bucket_6: 3028683
Critical_ROB_Stalls_Percent_8_Bucket_0: 101474
Non-critical_ROB_Stalls_Percent_8_Bucket_0: 481977
Critical_ROB_Stalls_Percent_8_Bucket_1: 58155
Non-critical_ROB_Stalls_Percent_8_Bucket_1: 266936
Critical_ROB_Stalls_Percent_8_Bucket_2: 107879
Non-critical_ROB_Stalls_Percent_8_Bucket_2: 374975
Critical_ROB_Stalls_Percent_8_Bucket_3: 106275
Non-critical_ROB_Stalls_Percent_8_Bucket_3: 417161
Critical_ROB_Stalls_Percent_8_Bucket_4: 235151
Non-critical_ROB_Stalls_Percent_8_Bucket_4: 576769
Critical_ROB_Stalls_Percent_8_Bucket_5: 441468
Non-critical_ROB_Stalls_Percent_8_Bucket_5: 834151
Critical_ROB_Stalls_Percent_8_Bucket_6: 1214249
Non-critical_ROB_Stalls_Percent_8_Bucket_6: 3028683
Average ROB occupancy Load Stall Begin: 260.247
Average ROB occupancy Load Stall End: 265.724
Min ROB occupancy Load Stall Begin: 1
Max ROB occupancy Load Stall Begin: 352
Min ROB occupancy Load Stall End: 1
Max ROB occupancy Load Stall End: 352
Average ROB occupancy Critical Load Stall Begin: -nan
Average ROB occupancy Critical Load Stall End: -nan
Min ROB occupancy Critical Load Stall Begin: 400
Max ROB occupancy Critical Load Stall Begin: 0
Min ROB occupancy Critical Load Stall End: 400
Max ROB occupancy Critical Load Stall End: 0
 ROB Load Stall Begin Bucket Count 0: 651281
 ROB Load Stall End Bucket Count 0: 583451
 ROB Critical Load Stall Begin Bucket Count 0: 0
 ROB Critical Load Stall End Bucket Count 0: 0
 ROB Load Stall Begin Bucket Count 1: 344780
 ROB Load Stall End Bucket Count 1: 325091
 ROB Critical Load Stall Begin Bucket Count 1: 0
 ROB Critical Load Stall End Bucket Count 1: 0
 ROB Load Stall Begin Bucket Count 2: 477008
 ROB Load Stall End Bucket Count 2: 482854
 ROB Critical Load Stall Begin Bucket Count 2: 0
 ROB Critical Load Stall End Bucket Count 2: 0
 ROB Load Stall Begin Bucket Count 3: 527437
 ROB Load Stall End Bucket Count 3: 523436
 ROB Critical Load Stall Begin Bucket Count 3: 0
 ROB Critical Load Stall End Bucket Count 3: 0
 ROB Load Stall Begin Bucket Count 4: 901525
 ROB Load Stall End Bucket Count 4: 811920
 ROB Critical Load Stall Begin Bucket Count 4: 0
 ROB Critical Load Stall End Bucket Count 4: 0
 ROB Load Stall Begin Bucket Count 5: 1240370
 ROB Load Stall End Bucket Count 5: 1275619
 ROB Critical Load Stall Begin Bucket Count 5: 0
 ROB Critical Load Stall End Bucket Count 5: 0
 ROB Load Stall Begin Bucket Count 6: 4102902
 ROB Load Stall End Bucket Count 6: 4242932
 ROB Critical Load Stall Begin Bucket Count 6: 0
 ROB Critical Load Stall End Bucket Count 6: 0
PIST Tag Read Accesses: 0
PIST Read Accesses: 0
PIST Tag Write Accesses: 0
PIST Write Accesses: 0
Criticality detector called times: 0
Max global_stall_cycles_count: 0
Threshold Modified: 0 times, factor: 0
ITLB TOTAL     ACCESS:   16276426  HIT:   16276426  MISS:          0  HIT %:        100  MISS %:          0   MPKI: 0
ITLB LOAD TRANSLATION ACCESS:   16276426  HIT:   16276426  MISS:          0  HIT %:        100  MISS %:          0   MPKI: 0
ITLB PREFETCH  REQUESTED:          0  ISSUED:          0  USEFUL:          0  USELESS:          0
ITLB USEFUL LOAD PREFETCHES:          0 PREFETCH ISSUED TO LOWER LEVEL:          0  ACCURACY: -nan
ITLB TIMELY PREFETCHES:          0 LATE PREFETCHES: 0 DROPPED PREFETCHES: 0
ITLB PREFETCHES SAME FILL-ORIGIN LEVEL: 0 DIFFERENT FILL-ORIGIN LEVEL: 0
ITLB AVERAGE MISS LATENCY: -nan cycles
ITLB RQ	ACCESS:   21344158	FORWARD:          0	MERGED:    5067732	TO_CACHE:   16276426

DTLB TOTAL     ACCESS:   26385729  HIT:   26179741  MISS:     205988  HIT %:    99.2193  MISS %:    0.78068   MPKI: 2.05988
DTLB LOAD TRANSLATION ACCESS:   26385729  HIT:   26179741  MISS:     205988  HIT %:    99.2193  MISS %:    0.78068   MPKI: 2.05988
DTLB PREFETCH  REQUESTED:          0  ISSUED:          0  USEFUL:          0  USELESS:          0
DTLB USEFUL LOAD PREFETCHES:          0 PREFETCH ISSUED TO LOWER LEVEL:          0  ACCURACY: -nan
DTLB TIMELY PREFETCHES:          0 LATE PREFETCHES: 0 DROPPED PREFETCHES: 0
DTLB PREFETCHES SAME FILL-ORIGIN LEVEL: 0 DIFFERENT FILL-ORIGIN LEVEL: 0
DTLB AVERAGE MISS LATENCY: 36.9384 cycles
DTLB RQ	ACCESS:   46704768	FORWARD:          0	MERGED:   20293778	TO_CACHE:   26410990

STLB TOTAL     ACCESS:     205988  HIT:     136257  MISS:      69731  HIT %:     66.148  MISS %:     33.852   MPKI: 0.69731
STLB LOAD TRANSLATION ACCESS:     205988  HIT:     136257  MISS:      69731  HIT %:     66.148  MISS %:     33.852   MPKI: 0.69731
STLB PREFETCH  REQUESTED:          0  ISSUED:          0  USEFUL:          0  USELESS:          0
STLB USEFUL LOAD PREFETCHES:          0 PREFETCH ISSUED TO LOWER LEVEL:          0  ACCURACY: -nan
STLB TIMELY PREFETCHES:          0 LATE PREFETCHES: 0 DROPPED PREFETCHES: 0
STLB PREFETCHES SAME FILL-ORIGIN LEVEL: 0 DIFFERENT FILL-ORIGIN LEVEL: 0
STLB AVERAGE MISS LATENCY: 82.4036 cycles
STLB RQ	ACCESS:     205988	FORWARD:          0	MERGED:          0	TO_CACHE:     205988

STLB Hit, L1D data hit: 0
STLB Hit, L2C data hit: 0
STLB Hit, LLC data hit: 0
STLB Hit, LLC data miss: 0
STLB STLB hints to L2: 0
L1D TOTAL     ACCESS:   45850182  HIT:   43277949  MISS:    2572233  HIT %:    94.3899  MISS %:    5.61008   MPKI: 25.7223
L1D LOAD      ACCESS:   17998559  HIT:   15658855  MISS:    2339704  HIT %:    87.0006  MISS %:    12.9994   MPKI: 23.397
L1D RFO       ACCESS:   27851623  HIT:   27619094  MISS:     232529  HIT %:    99.1651  MISS %:   0.834885   MPKI: 2.32529
L1D PREFETCH  REQUESTED:          0  ISSUED:          0  USEFUL:          0  USELESS:          0
L1D USEFUL LOAD PREFETCHES:          0 PREFETCH ISSUED TO LOWER LEVEL:          0  ACCURACY: -nan
L1D TIMELY PREFETCHES:          0 LATE PREFETCHES: 0 DROPPED PREFETCHES: 0
L1D PREFETCHES SAME FILL-ORIGIN LEVEL: 0 DIFFERENT FILL-ORIGIN LEVEL: 0
L1D AVERAGE MISS LATENCY: 85.7192 cycles
L1D RQ	ACCESS:   31246504	FORWARD:          0	MERGED:   13122617	TO_CACHE:   18096856
L1D WQ	ACCESS:   28891366	FORWARD:      27031	MERGED:     283454	TO_CACHE:   28607912

L1D UNIQUE REGIONS ACCESSED: 0
L1D REGIONS CONFLICTS: 0
L1D Cross Page Prefetch Requests: 0
L1D Same Page Prefetch Requests: 0
L1D ROI Sum of L1D PQ occupancy: 0
L1D PREFETCHES PUSHED FROM L2C: 0
L1I TOTAL     ACCESS:   21344158  HIT:   21344158  MISS:          0  HIT %:        100  MISS %:          0   MPKI: 0
L1I LOAD      ACCESS:   21344158  HIT:   21344158  MISS:          0  HIT %:        100  MISS %:          0   MPKI: 0
L1I PREFETCH  REQUESTED:          0  ISSUED:          0  USEFUL:          0  USELESS:          0
L1I USEFUL LOAD PREFETCHES:          0 PREFETCH ISSUED TO LOWER LEVEL:          0  ACCURACY: -nan
L1I TIMELY PREFETCHES:          0 LATE PREFETCHES: 0 DROPPED PREFETCHES: 0
L1I PREFETCHES SAME FILL-ORIGIN LEVEL: 0 DIFFERENT FILL-ORIGIN LEVEL: 0
L1I AVERAGE MISS LATENCY: -nan cycles
L1I RQ	ACCESS:   29407711	FORWARD:          0	MERGED:    8063553	TO_CACHE:   21344158

BTB TOTAL     ACCESS:    9650941  HIT:    9650907  MISS:         34  HIT %:    99.9996  MISS %: 0.000352297   MPKI: 0.00034
BTB BRANCH_DIRECT_JUMP	ACCESS:     463202  HIT:     463196  MISS:          6
BTB BRANCH_INDIRECT	ACCESS:          0  HIT:          0  MISS:          0
BTB BRANCH_CONDITIONAL	ACCESS:    9187651  HIT:    9187627  MISS:         24
BTB BRANCH_DIRECT_CALL	ACCESS:         44  HIT:         42  MISS:          2
BTB BRANCH_INDIRECT_CALL	ACCESS:          0  HIT:          0  MISS:          0
BTB BRANCH_RETURN	ACCESS:         44  HIT:         42  MISS:          2
BTB BRANCH_OTHER ACCESS:          0  HIT:          0  MISS:          0

L2C TOTAL     ACCESS:    6069993  HIT:    2421970  MISS:    3648023  HIT %:    39.9007  MISS %:    60.0993   MPKI: 36.4802
L2C LOAD      ACCESS:    2339699  HIT:    1395136  MISS:     944563  HIT %:    59.6289  MISS %:    40.3711   MPKI: 9.44563
L2C DATA LOAD MPKI: 9.44563
L2C INSTRUCTION LOAD MPKI: 0
L2C RFO       ACCESS:     232524  HIT:      20944  MISS:     211580  HIT %:    9.00724  MISS %:    90.9928   MPKI: 2.1158
L2C PREFETCH  ACCESS:    2810692  HIT:     340482  MISS:    2470210  HIT %:    12.1138  MISS %:    87.8862   MPKI: 24.7021
L2C DATA PREFETCH MPKI: 24.7021
L2C INSTRUCTION PREFETCH MPKI: 0
L2C WRITEBACK ACCESS:     617203  HIT:     605924  MISS:      11279  HIT %:    98.1726  MISS %:    1.82744   MPKI: 0.11279
L2C LOAD TRANSLATION ACCESS:      69875  HIT:      59484  MISS:      10391  HIT %:    85.1292  MISS %:    14.8708   MPKI: 0.10391
L2C PREFETCH  REQUESTED:    3463394  ISSUED:    3463308  USEFUL:    1370317  USELESS:    1098836
L2C USEFUL LOAD PREFETCHES:    1370317 PREFETCH ISSUED TO LOWER LEVEL:    3001258  ACCURACY: 45.6581
L2C TIMELY PREFETCHES:    1370317 LATE PREFETCHES: 498984 DROPPED PREFETCHES: 0
L2C PREFETCHES SAME FILL-ORIGIN LEVEL: 2969194 DIFFERENT FILL-ORIGIN LEVEL: 32064
L2C AVERAGE MISS LATENCY: 170.446 cycles
L2C RQ	ACCESS:    2642108	FORWARD:          0	MERGED:          0	TO_CACHE:    2642098
L2C WQ	ACCESS:     617203	FORWARD:         21	MERGED:          0	TO_CACHE:     617203
L2C PQ	ACCESS:    3463308	FORWARD:          0	MERGED:       1945	TO_CACHE:    3461352

L2C Instructions Evicting Data 0
L2C Translations Evicting Data 10362
L2C Data Evicting Data 3616051
L2C Instructions Evicting Instructions 0
L2C Translations Evicting Instructions 0
L2C Data Evicting Instructions 0
L2C Instructions Evicting Translations 0
L2C Translations Evicting Translations 29
L2C Data Evicting Translations 10302
L2C Dense regions hint from L2: 0
PSCL5 TOTAL     ACCESS:      69731  HIT:      69731  MISS:          0  HIT %:        100  MISS %:          0   MPKI: 0
PSCL5 LOAD TRANSLATION ACCESS:      69731  HIT:      69731  MISS:          0  HIT %:        100  MISS %:          0   MPKI: 0
PSCL5 PREFETCH  REQUESTED:          0  ISSUED:          0  USEFUL:          0  USELESS:          0
PSCL5 USEFUL LOAD PREFETCHES:          0 PREFETCH ISSUED TO LOWER LEVEL:          0  ACCURACY: -nan
PSCL5 TIMELY PREFETCHES:          0 LATE PREFETCHES: 0 DROPPED PREFETCHES: 0
PSCL5 PREFETCHES SAME FILL-ORIGIN LEVEL: 0 DIFFERENT FILL-ORIGIN LEVEL: 0

PSCL4 TOTAL     ACCESS:      69731  HIT:      69731  MISS:          0  HIT %:        100  MISS %:          0   MPKI: 0
PSCL4 LOAD TRANSLATION ACCESS:      69731  HIT:      69731  MISS:          0  HIT %:        100  MISS %:          0   MPKI: 0
PSCL4 PREFETCH  REQUESTED:          0  ISSUED:          0  USEFUL:          0  USELESS:          0
PSCL4 USEFUL LOAD PREFETCHES:          0 PREFETCH ISSUED TO LOWER LEVEL:          0  ACCURACY: -nan
PSCL4 TIMELY PREFETCHES:          0 LATE PREFETCHES: 0 DROPPED PREFETCHES: 0
PSCL4 PREFETCHES SAME FILL-ORIGIN LEVEL: 0 DIFFERENT FILL-ORIGIN LEVEL: 0

PSCL3 TOTAL     ACCESS:      69731  HIT:      69731  MISS:          0  HIT %:        100  MISS %:          0   MPKI: 0
PSCL3 LOAD TRANSLATION ACCESS:      69731  HIT:      69731  MISS:          0  HIT %:        100  MISS %:          0   MPKI: 0
PSCL3 PREFETCH  REQUESTED:          0  ISSUED:          0  USEFUL:          0  USELESS:          0
PSCL3 USEFUL LOAD PREFETCHES:          0 PREFETCH ISSUED TO LOWER LEVEL:          0  ACCURACY: -nan
PSCL3 TIMELY PREFETCHES:          0 LATE PREFETCHES: 0 DROPPED PREFETCHES: 0
PSCL3 PREFETCHES SAME FILL-ORIGIN LEVEL: 0 DIFFERENT FILL-ORIGIN LEVEL: 0

PSCL2 TOTAL     ACCESS:      69731  HIT:      69536  MISS:        195  HIT %:    99.7204  MISS %:   0.279646   MPKI: 0.00195
PSCL2 LOAD TRANSLATION ACCESS:      69731  HIT:      69536  MISS:        195  HIT %:    99.7204  MISS %:   0.279646   MPKI: 0.00195
PSCL2 PREFETCH  REQUESTED:          0  ISSUED:          0  USEFUL:          0  USELESS:          0
PSCL2 USEFUL LOAD PREFETCHES:          0 PREFETCH ISSUED TO LOWER LEVEL:          0  ACCURACY: -nan
PSCL2 TIMELY PREFETCHES:          0 LATE PREFETCHES: 0 DROPPED PREFETCHES: 0
PSCL2 PREFETCHES SAME FILL-ORIGIN LEVEL: 0 DIFFERENT FILL-ORIGIN LEVEL: 0

LLC TOTAL     ACCESS:    4250985  HIT:     298325  MISS:    3952660  HIT %:    7.01779  MISS %:    92.9822   MPKI: 39.5266
LLC LOAD      ACCESS:     450757  HIT:      39072  MISS:     411685  HIT %:    8.66809  MISS %:    91.3319   MPKI: 4.11685
LLC RFO       ACCESS:     206402  HIT:        431  MISS:     205971  HIT %:   0.208816  MISS %:    99.7912   MPKI: 2.05971
LLC PREFETCH  ACCESS:    2998941  HIT:     223166  MISS:    2775775  HIT %:    7.44149  MISS %:    92.5585   MPKI: 27.7578
LLC WRITEBACK ACCESS:     584494  HIT:      34936  MISS:     549558  HIT %:    5.97714  MISS %:    94.0229   MPKI: 5.49558
LLC LOAD TRANSLATION ACCESS:      10391  HIT:        720  MISS:       9671  HIT %:    6.92907  MISS %:    93.0709   MPKI: 0.09671
LLC PREFETCH  REQUESTED:          0  ISSUED:          0  USEFUL:       7926  USELESS:    2758293
LLC USEFUL LOAD PREFETCHES:       7926 PREFETCH ISSUED TO LOWER LEVEL:    2776212  ACCURACY: 0.285497
LLC TIMELY PREFETCHES:       7926 LATE PREFETCHES: 437 DROPPED PREFETCHES: 0
LLC PREFETCHES SAME FILL-ORIGIN LEVEL: 25724 DIFFERENT FILL-ORIGIN LEVEL: 0
LLC AVERAGE MISS LATENCY: 138.527 cycles
LLC RQ	ACCESS:     667550	FORWARD:          0	MERGED:          0	TO_CACHE:     667550
LLC WQ	ACCESS:     584494	FORWARD:          0	MERGED:          0	TO_CACHE:     584494
LLC PQ	ACCESS:    3001258	FORWARD:          0	MERGED:         31	TO_CACHE:    3001227

LLC Dense regions hint to LLC: 0

RAW hits: 638625
Loads Generated: 31885130
Loads sent to L1D: 31246504
Stores Generated: 28891363
Stores sent to L1D: 28891366
Major fault: 0 Minor fault: 38413
Allocated PAGES: 38413
------------------
Depth Distribution
------------------
depth 0: 78809
depth 1: 487397
depth 2: 1386882
depth 3: 412906
depth 4: 52335
depth 5: 20
depth 6: 0
depth 7: 0
depth 8: 0
depth 9: 0
depth 10: 0
depth 11: 0
depth 12: 0
depth 13: 0
depth 14: 0
depth 15: 0
depth 16: 0
depth 17: 0
depth 18: 0
depth 19: 0
depth 20: 0
depth 21: 0
depth 22: 0
depth 23: 0
depth 24: 0
depth 25: 0
depth 26: 0
depth 27: 0
depth 28: 0
depth 29: 0
Total: 2418349
------------------
ST read accesses: 2227864
ST write accesses: 109350
PT read accesses: 42314059
PT write accesses: 3268618
FILTER read accesses: 14567691
FILTER write accesses: 12698252
GHR read accesses: 2985736
GHR write accesses: 382156
PERC read accesses: 267865110
PERC write accesses: 37171957
GHR counter read accesses: 4674428
GHR counter write accesses: 8386108
GHR ip read accesses: 17670171
GHR ip write accesses: 9348856
ST tag read accesses: 60771758
ST tag write accesses: 7786907

DRAM Statistics
 CHANNEL 0
 RQ ROW_BUFFER_HIT:    1740039  ROW_BUFFER_MISS:    1663062
 DBUS_CONGESTED:       2501
 WQ ROW_BUFFER_HIT:      64892  ROW_BUFFER_MISS:     517921  FULL:          0

 AVG_CONGESTED_CYCLE: 5
 All warmup complete: 2
Channel 0 Bank busy for read cycles: 0
Channel 0 Bank busy for write cycles: 0
Channel 0
Rank 0
0banks busy for read cycles: 64443765
0banks busy for write cycles: 104640
1banks busy for read cycles: 29810695
1banks busy for write cycles: 11646514
2banks busy for read cycles: 19317745
2banks busy for write cycles: 7320676
3banks busy for read cycles: 16494075
3banks busy for write cycles: 5183502
4banks busy for read cycles: 13834508
4banks busy for write cycles: 3758827
5banks busy for read cycles: 10206964
5banks busy for write cycles: 2668039
6banks busy for read cycles: 7368524
6banks busy for write cycles: 1919448
7banks busy for read cycles: 5543520
7banks busy for write cycles: 1571013
8banks busy for read cycles: 3781052
8banks busy for write cycles: 4784777

CPU 0 Branch Prediction Accuracy: 99.1519% MPKI: 0.83374 Average ROB Occupancy at Mispredict: 250.353
Branch types
NOT_BRANCH: 90169469 90.1695%
BRANCH_DIRECT_JUMP: 463202 0.463202%
BRANCH_INDIRECT: 0 0%
BRANCH_CONDITIONAL: 9367125 9.36712%
BRANCH_DIRECT_CALL: 44 4.4e-05%
BRANCH_INDIRECT_CALL: 0 0%
BRANCH_RETURN: 44 4.4e-05%
BRANCH_OTHER: 0 0%

DRAM PAGES: 1048576
Allocated PAGES: 38413
