Initialize SIGNATURE TABLE
ST_SET: 1
ST_WAY: 256
ST_TAG_BIT: 16
ST_TAG_MASK: ffff

Initialize PATTERN TABLE
PT_SET: 512
PT_WAY: 4
SIG_DELTA_BIT: 7
C_SIG_BIT: 4
C_DELTA_BIT: 4

Initialize PREFETCH FILTER
FILTER_SET: 1024

*** ChampSim Multicore Out-of-Order Simulator ***

Warmup Instructions: 50000000
Simulation Instructions: 100000000
Number of CPUs: 1
LLC sets: 2048
LLC ways: 16
Off-chip DRAM Size: 4096 MB Channels: 1 Width: 64-bit Data Rate: 6400 MT/s
CPU 0 runs ../SPEC2017//605.mcf_s-782B.champsimtrace.xz
.xz
NUM_OF_IPS_IN_CRITICAL_IP_TRAINING: 64
NUM_OF_CRITICAL_IP_TRAINING_TABLE_WAYS: 2
NUM_OF_CRITICAL_IP_TRAINING_TABLE_SETS: 32
WOBBLY_CRITICAL_IP_CACHE_SETS: 32
WOBBLY_CRITICAL_IP_CACHE_WAYS: 4
BTB has LRU replacement policy
ITLB has LRU replacement policy
DTLB has LRU replacement policy
STLB has LRU replacement policy
L1I has LRU replacement policy
L1D has LRU replacement policy
Initialize SRRIP state for L2C
Initialize DRRIP state for LLC
Heartbeat CPU 0 instructions: 10000001 cycles: 3765009 heartbeat IPC: 2.65604 cumulative IPC: 2.65604 (Simulation time: 0 hr 7 min 39 sec) 
Heartbeat CPU 0 instructions: 20000000 cycles: 7502232 heartbeat IPC: 2.67578 cumulative IPC: 2.66587 (Simulation time: 0 hr 13 min 56 sec) 
Heartbeat CPU 0 instructions: 30000000 cycles: 11294885 heartbeat IPC: 2.63668 cumulative IPC: 2.65607 (Simulation time: 0 hr 19 min 36 sec) 
Heartbeat CPU 0 instructions: 40000003 cycles: 15062143 heartbeat IPC: 2.65445 cumulative IPC: 2.65566 (Simulation time: 0 hr 24 min 53 sec) 
Heartbeat CPU 0 instructions: 50000000 cycles: 18865111 heartbeat IPC: 2.62952 cumulative IPC: 2.6504 (Simulation time: 0 hr 29 min 38 sec) 

Warmup complete CPU 0 instructions: 50000001 cycles: 18865112 (Simulation time: 0 hr 29 min 38 sec) 

Heartbeat CPU 0 instructions: 60000000 cycles: 75746936 heartbeat IPC: 0.175803 cumulative IPC: 0.175803 (Simulation time: 0 hr 36 min 51 sec) 
Heartbeat CPU 0 instructions: 70000001 cycles: 131300536 heartbeat IPC: 0.180006 cumulative IPC: 0.17788 (Simulation time: 0 hr 42 min 51 sec) 
Heartbeat CPU 0 instructions: 80000002 cycles: 187046729 heartbeat IPC: 0.179384 cumulative IPC: 0.178379 (Simulation time: 0 hr 48 min 19 sec) 
Heartbeat CPU 0 instructions: 90000000 cycles: 246291334 heartbeat IPC: 0.168792 cumulative IPC: 0.175881 (Simulation time: 0 hr 55 min 48 sec) 
Heartbeat CPU 0 instructions: 100000001 cycles: 308006723 heartbeat IPC: 0.162034 cumulative IPC: 0.172926 (Simulation time: 1 hr 6 min 22 sec) 
Heartbeat CPU 0 instructions: 110000000 cycles: 371324543 heartbeat IPC: 0.157933 cumulative IPC: 0.170232 (Simulation time: 1 hr 15 min 5 sec) 
Heartbeat CPU 0 instructions: 120000000 cycles: 431178019 heartbeat IPC: 0.167075 cumulative IPC: 0.169774 (Simulation time: 1 hr 22 min 49 sec) 
Heartbeat CPU 0 instructions: 130000000 cycles: 488431491 heartbeat IPC: 0.174662 cumulative IPC: 0.17037 (Simulation time: 1 hr 29 min 55 sec) 
Heartbeat CPU 0 instructions: 140000001 cycles: 544145259 heartbeat IPC: 0.179489 cumulative IPC: 0.171337 (Simulation time: 1 hr 35 min 41 sec) 
Heartbeat CPU 0 instructions: 150000000 cycles: 601144152 heartbeat IPC: 0.175442 cumulative IPC: 0.171739 (Simulation time: 1 hr 40 min 51 sec) 
Finished CPU 0 instructions: 100000003 cycles: 582279099 cumulative IPC: 0.171739 (Simulation time: 1 hr 40 min 51 sec) 

ChampSim completed all CPUs

Region of Interest Statistics

CPU 0 cumulative IPC: 0.171739 instructions: 100000003 cycles: 582279099

CPU 0 Average Load ROB stall cycles: 1.07929e+08
CPU 0 Fraction of times ROB stalled by Loads: 34.8526
CPU 0 Percentage of Load stall cycles in Total stall cycles: 4.525e+08
Issued all: 87156524
Issued LT all: 72612075
rob_not_full_when_issued_lt_all: 44045075
Issued LT one: 67894663
rob_not_full_when_issued_lt_one: 41882071
 Total stall cycles: 544089913
 Total load stall cycles: 2462005356139955
CPU 0 NUM of IPS identified critical: 0
CPU 0 Num of Load IPs stalling ROB: 262
Threshold modification factor: 0
Max PIST entries: 64
Min PIST entries: 0
Avg PIST entries: 37.8867
Trouble in retire width: 0.990059
MaC = Marked as critical.
lt_50_percent_before_Mac: 0
gt_90_percent_before_Mac: 0
gt_75_percent_before_Mac: 0
gt_50_percent_before_Mac: 0
stall_proportion_bin_same_before_after: 0
stall_proportion_bin_lower_before_after: 0
stall_proportion_bin_upper_before_after: 0
average_stall_proportion_before: -nan
average_stall_proportion_after: -nan
Critical IP stalls, total frequency: 0
Non-critical IP stalls, total frequency: 7950325
Total Freq all stalling IPs: 7950325
stat_90_percent_critical_ip_stalls_freq: 7160840
stat_90_percent_non_critical_ip_stalls_freq: 789485
Critical_IP_ROB_Stalls_Bucket_0: 0
Non-critical_IP_ROB_Stalls_Bucket_0: 4005615
Critical_IP_ROB_Stalls_Bucket_1: 0
Non-critical_IP_ROB_Stalls_Bucket_1: 1182602
Critical_IP_ROB_Stalls_Bucket_2: 0
Non-critical_IP_ROB_Stalls_Bucket_2: 684662
Critical_IP_ROB_Stalls_Bucket_3: 0
Non-critical_IP_ROB_Stalls_Bucket_3: 458452
Critical_IP_ROB_Stalls_Bucket_4: 0
Non-critical_IP_ROB_Stalls_Bucket_4: 408623
Critical_IP_ROB_Stalls_Bucket_5: 0
Non-critical_IP_ROB_Stalls_Bucket_5: 303574
Critical_IP_ROB_Stalls_Bucket_6: 0
Non-critical_IP_ROB_Stalls_Bucket_6: 906797
0 => IPs accounting for >50 percent of stalls, 1 => 55, 2 => 60, 3 => 65 and so on till 90.
percent50: 56.3382 num IPs:  2
percent55: 56.3382 num IPs: 2
percent60: 69.6532 num IPs: 3
percent65: 69.6532 num IPs: 3
percent70: 74.399 num IPs: 4
percent75: 77.7834 num IPs: 5
percent80: 80.3585 num IPs: 6
percent85: 85.1111 num IPs: 9
percent90: 90.0698 num IPs: 15
Critical_ROB_Stalls_Percent_0_Bucket_0: 2100296
Non-critical_ROB_Stalls_Percent_0_Bucket_0: 1905319
Critical_ROB_Stalls_Percent_0_Bucket_1: 841178
Non-critical_ROB_Stalls_Percent_0_Bucket_1: 341424
Critical_ROB_Stalls_Percent_0_Bucket_2: 437065
Non-critical_ROB_Stalls_Percent_0_Bucket_2: 247597
Critical_ROB_Stalls_Percent_0_Bucket_3: 250342
Non-critical_ROB_Stalls_Percent_0_Bucket_3: 208110
Critical_ROB_Stalls_Percent_0_Bucket_4: 260527
Non-critical_ROB_Stalls_Percent_0_Bucket_4: 148096
Critical_ROB_Stalls_Percent_0_Bucket_5: 177510
Non-critical_ROB_Stalls_Percent_0_Bucket_5: 126064
Critical_ROB_Stalls_Percent_0_Bucket_6: 412148
Non-critical_ROB_Stalls_Percent_0_Bucket_6: 494649
Critical_ROB_Stalls_Percent_1_Bucket_0: 2100296
Non-critical_ROB_Stalls_Percent_1_Bucket_0: 1905319
Critical_ROB_Stalls_Percent_1_Bucket_1: 841178
Non-critical_ROB_Stalls_Percent_1_Bucket_1: 341424
Critical_ROB_Stalls_Percent_1_Bucket_2: 437065
Non-critical_ROB_Stalls_Percent_1_Bucket_2: 247597
Critical_ROB_Stalls_Percent_1_Bucket_3: 250342
Non-critical_ROB_Stalls_Percent_1_Bucket_3: 208110
Critical_ROB_Stalls_Percent_1_Bucket_4: 260527
Non-critical_ROB_Stalls_Percent_1_Bucket_4: 148096
Critical_ROB_Stalls_Percent_1_Bucket_5: 177510
Non-critical_ROB_Stalls_Percent_1_Bucket_5: 126064
Critical_ROB_Stalls_Percent_1_Bucket_6: 412148
Non-critical_ROB_Stalls_Percent_1_Bucket_6: 494649
Critical_ROB_Stalls_Percent_2_Bucket_0: 2984183
Non-critical_ROB_Stalls_Percent_2_Bucket_0: 1021432
Critical_ROB_Stalls_Percent_2_Bucket_1: 878709
Non-critical_ROB_Stalls_Percent_2_Bucket_1: 303893
Critical_ROB_Stalls_Percent_2_Bucket_2: 477591
Non-critical_ROB_Stalls_Percent_2_Bucket_2: 207071
Critical_ROB_Stalls_Percent_2_Bucket_3: 273496
Non-critical_ROB_Stalls_Percent_2_Bucket_3: 184956
Critical_ROB_Stalls_Percent_2_Bucket_4: 278518
Non-critical_ROB_Stalls_Percent_2_Bucket_4: 130105
Critical_ROB_Stalls_Percent_2_Bucket_5: 197759
Non-critical_ROB_Stalls_Percent_2_Bucket_5: 105815
Critical_ROB_Stalls_Percent_2_Bucket_6: 447403
Non-critical_ROB_Stalls_Percent_2_Bucket_6: 459394
Critical_ROB_Stalls_Percent_3_Bucket_0: 2984183
Non-critical_ROB_Stalls_Percent_3_Bucket_0: 1021432
Critical_ROB_Stalls_Percent_3_Bucket_1: 878709
Non-critical_ROB_Stalls_Percent_3_Bucket_1: 303893
Critical_ROB_Stalls_Percent_3_Bucket_2: 477591
Non-critical_ROB_Stalls_Percent_3_Bucket_2: 207071
Critical_ROB_Stalls_Percent_3_Bucket_3: 273496
Non-critical_ROB_Stalls_Percent_3_Bucket_3: 184956
Critical_ROB_Stalls_Percent_3_Bucket_4: 278518
Non-critical_ROB_Stalls_Percent_3_Bucket_4: 130105
Critical_ROB_Stalls_Percent_3_Bucket_5: 197759
Non-critical_ROB_Stalls_Percent_3_Bucket_5: 105815
Critical_ROB_Stalls_Percent_3_Bucket_6: 447403
Non-critical_ROB_Stalls_Percent_3_Bucket_6: 459394
Critical_ROB_Stalls_Percent_4_Bucket_0: 3123198
Non-critical_ROB_Stalls_Percent_4_Bucket_0: 882417
Critical_ROB_Stalls_Percent_4_Bucket_1: 909774
Non-critical_ROB_Stalls_Percent_4_Bucket_1: 272828
Critical_ROB_Stalls_Percent_4_Bucket_2: 523131
Non-critical_ROB_Stalls_Percent_4_Bucket_2: 161531
Critical_ROB_Stalls_Percent_4_Bucket_3: 308364
Non-critical_ROB_Stalls_Percent_4_Bucket_3: 150088
Critical_ROB_Stalls_Percent_4_Bucket_4: 303990
Non-critical_ROB_Stalls_Percent_4_Bucket_4: 104633
Critical_ROB_Stalls_Percent_4_Bucket_5: 220015
Non-critical_ROB_Stalls_Percent_4_Bucket_5: 83559
Critical_ROB_Stalls_Percent_4_Bucket_6: 526487
Non-critical_ROB_Stalls_Percent_4_Bucket_6: 380310
Critical_ROB_Stalls_Percent_5_Bucket_0: 3235838
Non-critical_ROB_Stalls_Percent_5_Bucket_0: 769777
Critical_ROB_Stalls_Percent_5_Bucket_1: 941458
Non-critical_ROB_Stalls_Percent_5_Bucket_1: 241144
Critical_ROB_Stalls_Percent_5_Bucket_2: 543417
Non-critical_ROB_Stalls_Percent_5_Bucket_2: 141245
Critical_ROB_Stalls_Percent_5_Bucket_3: 327529
Non-critical_ROB_Stalls_Percent_5_Bucket_3: 130923
Critical_ROB_Stalls_Percent_5_Bucket_4: 323494
Non-critical_ROB_Stalls_Percent_5_Bucket_4: 85129
Critical_ROB_Stalls_Percent_5_Bucket_5: 231676
Non-critical_ROB_Stalls_Percent_5_Bucket_5: 71898
Critical_ROB_Stalls_Percent_5_Bucket_6: 580618
Non-critical_ROB_Stalls_Percent_5_Bucket_6: 326179
Critical_ROB_Stalls_Percent_6_Bucket_0: 3337365
Non-critical_ROB_Stalls_Percent_6_Bucket_0: 668250
Critical_ROB_Stalls_Percent_6_Bucket_1: 961365
Non-critical_ROB_Stalls_Percent_6_Bucket_1: 221237
Critical_ROB_Stalls_Percent_6_Bucket_2: 565290
Non-critical_ROB_Stalls_Percent_6_Bucket_2: 119372
Critical_ROB_Stalls_Percent_6_Bucket_3: 336481
Non-critical_ROB_Stalls_Percent_6_Bucket_3: 121971
Critical_ROB_Stalls_Percent_6_Bucket_4: 331587
Non-critical_ROB_Stalls_Percent_6_Bucket_4: 77036
Critical_ROB_Stalls_Percent_6_Bucket_5: 237102
Non-critical_ROB_Stalls_Percent_6_Bucket_5: 66472
Critical_ROB_Stalls_Percent_6_Bucket_6: 619568
Non-critical_ROB_Stalls_Percent_6_Bucket_6: 287229
Critical_ROB_Stalls_Percent_7_Bucket_0: 3485941
Non-critical_ROB_Stalls_Percent_7_Bucket_0: 519674
Critical_ROB_Stalls_Percent_7_Bucket_1: 1017674
Non-critical_ROB_Stalls_Percent_7_Bucket_1: 164928
Critical_ROB_Stalls_Percent_7_Bucket_2: 598106
Non-critical_ROB_Stalls_Percent_7_Bucket_2: 86556
Critical_ROB_Stalls_Percent_7_Bucket_3: 382544
Non-critical_ROB_Stalls_Percent_7_Bucket_3: 75908
Critical_ROB_Stalls_Percent_7_Bucket_4: 356358
Non-critical_ROB_Stalls_Percent_7_Bucket_4: 52265
Critical_ROB_Stalls_Percent_7_Bucket_5: 258701
Non-critical_ROB_Stalls_Percent_7_Bucket_5: 44873
Critical_ROB_Stalls_Percent_7_Bucket_6: 667283
Non-critical_ROB_Stalls_Percent_7_Bucket_6: 239514
Critical_ROB_Stalls_Percent_8_Bucket_0: 3669597
Non-critical_ROB_Stalls_Percent_8_Bucket_0: 336018
Critical_ROB_Stalls_Percent_8_Bucket_1: 1070286
Non-critical_ROB_Stalls_Percent_8_Bucket_1: 112316
Critical_ROB_Stalls_Percent_8_Bucket_2: 628530
Non-critical_ROB_Stalls_Percent_8_Bucket_2: 56132
Critical_ROB_Stalls_Percent_8_Bucket_3: 412825
Non-critical_ROB_Stalls_Percent_8_Bucket_3: 45627
Critical_ROB_Stalls_Percent_8_Bucket_4: 373814
Non-critical_ROB_Stalls_Percent_8_Bucket_4: 34809
Critical_ROB_Stalls_Percent_8_Bucket_5: 273230
Non-critical_ROB_Stalls_Percent_8_Bucket_5: 30344
Critical_ROB_Stalls_Percent_8_Bucket_6: 732558
Non-critical_ROB_Stalls_Percent_8_Bucket_6: 174239
Average ROB occupancy Load Stall Begin: 94.1455
Average ROB occupancy Load Stall End: 103.208
Min ROB occupancy Load Stall Begin: 1
Max ROB occupancy Load Stall Begin: 352
Min ROB occupancy Load Stall End: 1
Max ROB occupancy Load Stall End: 352
Average ROB occupancy Critical Load Stall Begin: -nan
Average ROB occupancy Critical Load Stall End: -nan
Min ROB occupancy Critical Load Stall Begin: 400
Max ROB occupancy Critical Load Stall Begin: 0
Min ROB occupancy Critical Load Stall End: 400
Max ROB occupancy Critical Load Stall End: 0
 ROB Load Stall Begin Bucket Count 0: 4358330
 ROB Load Stall End Bucket Count 0: 4005615
 ROB Critical Load Stall Begin Bucket Count 0: 0
 ROB Critical Load Stall End Bucket Count 0: 0
 ROB Load Stall Begin Bucket Count 1: 1067708
 ROB Load Stall End Bucket Count 1: 1182602
 ROB Critical Load Stall Begin Bucket Count 1: 0
 ROB Critical Load Stall End Bucket Count 1: 0
 ROB Load Stall Begin Bucket Count 2: 598262
 ROB Load Stall End Bucket Count 2: 684662
 ROB Critical Load Stall Begin Bucket Count 2: 0
 ROB Critical Load Stall End Bucket Count 2: 0
 ROB Load Stall Begin Bucket Count 3: 437681
 ROB Load Stall End Bucket Count 3: 458452
 ROB Critical Load Stall Begin Bucket Count 3: 0
 ROB Critical Load Stall End Bucket Count 3: 0
 ROB Load Stall Begin Bucket Count 4: 369978
 ROB Load Stall End Bucket Count 4: 408623
 ROB Critical Load Stall Begin Bucket Count 4: 0
 ROB Critical Load Stall End Bucket Count 4: 0
 ROB Load Stall Begin Bucket Count 5: 321059
 ROB Load Stall End Bucket Count 5: 303574
 ROB Critical Load Stall Begin Bucket Count 5: 0
 ROB Critical Load Stall End Bucket Count 5: 0
 ROB Load Stall Begin Bucket Count 6: 797307
 ROB Load Stall End Bucket Count 6: 906797
 ROB Critical Load Stall Begin Bucket Count 6: 0
 ROB Critical Load Stall End Bucket Count 6: 0
PIST Tag Read Accesses: 485432
PIST Read Accesses: 242716
PIST Tag Write Accesses: 485432
PIST Write Accesses: 242716
Criticality detector called times: 522204
Max global_stall_cycles_count: 1187766
Threshold Modified: 0 times, factor: 0
Sturdy critical IP cache stats: 
 Unused entries: 0
CIC Tag Read Accesses: 0
CIC Read Accesses: 0
CIC Tag Write Accesses: 0
CIC Write Accesses: 0
Wobbly critical IP cache stats: 
 Unused entries: 95
CIC Tag Read Accesses: 294808628
CIC Read Accesses: 0
CIC Tag Write Accesses: 676585
CIC Write Accesses: 0
ITLB TOTAL     ACCESS:   16361881  HIT:   16361881  MISS:          0  HIT %:        100  MISS %:          0   MPKI: 0
ITLB LOAD TRANSLATION ACCESS:   16361881  HIT:   16361881  MISS:          0  HIT %:        100  MISS %:          0   MPKI: 0
ITLB PREFETCH  REQUESTED:          0  ISSUED:          0  USEFUL:          0  USELESS:          0
ITLB USEFUL LOAD PREFETCHES:          0 PREFETCH ISSUED TO LOWER LEVEL:          0  ACCURACY: -nan
ITLB TIMELY PREFETCHES:          0 LATE PREFETCHES: 0 DROPPED PREFETCHES: 0
ITLB PREFETCHES SAME FILL-ORIGIN LEVEL: 0 DIFFERENT FILL-ORIGIN LEVEL: 0
ITLB AVERAGE MISS LATENCY: -nan cycles
ITLB RQ	ACCESS:   16580816	FORWARD:          0	MERGED:     218936	TO_CACHE:   16361880

DTLB TOTAL     ACCESS:   21156407  HIT:   12635883  MISS:    8520524  HIT %:     59.726  MISS %:     40.274   MPKI: 85.2052
DTLB LOAD TRANSLATION ACCESS:   21156407  HIT:   12635883  MISS:    8520524  HIT %:     59.726  MISS %:     40.274   MPKI: 85.2052
DTLB PREFETCH  REQUESTED:          0  ISSUED:          0  USEFUL:          0  USELESS:          0
DTLB USEFUL LOAD PREFETCHES:          0 PREFETCH ISSUED TO LOWER LEVEL:          0  ACCURACY: -nan
DTLB TIMELY PREFETCHES:          0 LATE PREFETCHES: 0 DROPPED PREFETCHES: 0
DTLB PREFETCHES SAME FILL-ORIGIN LEVEL: 0 DIFFERENT FILL-ORIGIN LEVEL: 0
DTLB AVERAGE MISS LATENCY: 10.9695 cycles
DTLB RQ	ACCESS:   23459838	FORWARD:          0	MERGED:    2170993	TO_CACHE:   21288845

STLB TOTAL     ACCESS:    8520523  HIT:    8407296  MISS:     113227  HIT %:    98.6711  MISS %:    1.32887   MPKI: 1.13227
STLB LOAD TRANSLATION ACCESS:    8520523  HIT:    8407296  MISS:     113227  HIT %:    98.6711  MISS %:    1.32887   MPKI: 1.13227
STLB PREFETCH  REQUESTED:          0  ISSUED:          0  USEFUL:          0  USELESS:          0
STLB USEFUL LOAD PREFETCHES:          0 PREFETCH ISSUED TO LOWER LEVEL:          0  ACCURACY: -nan
STLB TIMELY PREFETCHES:          0 LATE PREFETCHES: 0 DROPPED PREFETCHES: 0
STLB PREFETCHES SAME FILL-ORIGIN LEVEL: 0 DIFFERENT FILL-ORIGIN LEVEL: 0
STLB AVERAGE MISS LATENCY: 136.085 cycles
STLB RQ	ACCESS:    8520523	FORWARD:          0	MERGED:          0	TO_CACHE:    8520523

STLB Hit, L1D data hit: 0
STLB Hit, L2C data hit: 0
STLB Hit, LLC data hit: 0
STLB Hit, LLC data miss: 0
STLB STLB hints to L2: 0
L1D TOTAL     ACCESS:   22746015  HIT:    7809754  MISS:   14936261  HIT %:    34.3346  MISS %:    65.6654   MPKI: 149.363
L1D LOAD      ACCESS:   20694750  HIT:    5797368  MISS:   14897382  HIT %:    28.0137  MISS %:    71.9863   MPKI: 148.974
L1D RFO       ACCESS:    2051265  HIT:    2012386  MISS:      38879  HIT %:    98.1046  MISS %:    1.89537   MPKI: 0.38879
L1D PREFETCH  REQUESTED:          0  ISSUED:          0  USEFUL:          0  USELESS:          0
L1D USEFUL LOAD PREFETCHES:          0 PREFETCH ISSUED TO LOWER LEVEL:          0  ACCURACY: -nan
L1D TIMELY PREFETCHES:          0 LATE PREFETCHES: 0 DROPPED PREFETCHES: 0
L1D PREFETCHES SAME FILL-ORIGIN LEVEL: 0 DIFFERENT FILL-ORIGIN LEVEL: 0
L1D AVERAGE MISS LATENCY: 85.2054 cycles
L1D RQ	ACCESS:   35637456	FORWARD:          0	MERGED:   13953037	TO_CACHE:   21345912
L1D WQ	ACCESS:    2185912	FORWARD:     338507	MERGED:      71986	TO_CACHE:    2113926

L1D UNIQUE REGIONS ACCESSED: 0
L1D REGIONS CONFLICTS: 0
L1D Cross Page Prefetch Requests: 0
L1D Same Page Prefetch Requests: 0
L1D ROI Sum of L1D PQ occupancy: 0
L1D PREFETCHES PUSHED FROM L2C: 0
L1I TOTAL     ACCESS:   16580817  HIT:   16580817  MISS:          0  HIT %:        100  MISS %:          0   MPKI: 0
L1I LOAD      ACCESS:   16580817  HIT:   16580817  MISS:          0  HIT %:        100  MISS %:          0   MPKI: 0
L1I PREFETCH  REQUESTED:          0  ISSUED:          0  USEFUL:          0  USELESS:          0
L1I USEFUL LOAD PREFETCHES:          0 PREFETCH ISSUED TO LOWER LEVEL:          0  ACCURACY: -nan
L1I TIMELY PREFETCHES:          0 LATE PREFETCHES: 0 DROPPED PREFETCHES: 0
L1I PREFETCHES SAME FILL-ORIGIN LEVEL: 0 DIFFERENT FILL-ORIGIN LEVEL: 0
L1I AVERAGE MISS LATENCY: -nan cycles
L1I RQ	ACCESS:   22166692	FORWARD:          0	MERGED:    5585876	TO_CACHE:   16580816

BTB TOTAL     ACCESS:   29634397  HIT:   29518849  MISS:     115548  HIT %:    99.6101  MISS %:   0.389912   MPKI: 1.15548
BTB BRANCH_DIRECT_JUMP	ACCESS:    3793757  HIT:    3793720  MISS:         37
BTB BRANCH_INDIRECT	ACCESS:          0  HIT:          0  MISS:          0
BTB BRANCH_CONDITIONAL	ACCESS:   24997970  HIT:   24997888  MISS:         82
BTB BRANCH_DIRECT_CALL	ACCESS:     389591  HIT:     389573  MISS:         18
BTB BRANCH_INDIRECT_CALL	ACCESS:      31744  HIT:      31736  MISS:          8
BTB BRANCH_RETURN	ACCESS:     421335  HIT:     305932  MISS:     115403
BTB BRANCH_OTHER ACCESS:          0  HIT:          0  MISS:          0

L2C TOTAL     ACCESS:   16233567  HIT:    4340376  MISS:   11893191  HIT %:     26.737  MISS %:     73.263   MPKI: 118.932
L2C LOAD      ACCESS:   14897375  HIT:    3601388  MISS:   11295987  HIT %:    24.1746  MISS %:    75.8254   MPKI: 112.96
L2C DATA LOAD MPKI: 112.96
L2C INSTRUCTION LOAD MPKI: 0
L2C RFO       ACCESS:      38879  HIT:      29067  MISS:       9812  HIT %:    74.7627  MISS %:    25.2373   MPKI: 0.09812
L2C PREFETCH  ACCESS:     877723  HIT:     329089  MISS:     548634  HIT %:    37.4935  MISS %:    62.5065   MPKI: 5.48634
L2C DATA PREFETCH MPKI: 5.48634
L2C INSTRUCTION PREFETCH MPKI: 0
L2C WRITEBACK ACCESS:     305314  HIT:     302207  MISS:       3107  HIT %:    98.9824  MISS %:    1.01764   MPKI: 0.03107
L2C LOAD TRANSLATION ACCESS:     114276  HIT:      78625  MISS:      35651  HIT %:    68.8027  MISS %:    31.1973   MPKI: 0.35651
L2C PREFETCH  REQUESTED:   23571658  ISSUED:   23570469  USEFUL:     446040  USELESS:     102541
L2C USEFUL LOAD PREFETCHES:     446040 PREFETCH ISSUED TO LOWER LEVEL:   15634394  ACCURACY: 2.85294
L2C TIMELY PREFETCHES:     446040 LATE PREFETCHES: 763577 DROPPED PREFETCHES: 0
L2C PREFETCHES SAME FILL-ORIGIN LEVEL: 1312211 DIFFERENT FILL-ORIGIN LEVEL: 14322183
L2C AVERAGE MISS LATENCY: 92.2537 cycles
L2C RQ	ACCESS:   15050537	FORWARD:          0	MERGED:          0	TO_CACHE:   15050531
L2C WQ	ACCESS:     305314	FORWARD:          6	MERGED:          0	TO_CACHE:     305314
L2C PQ	ACCESS:   23570469	FORWARD:          0	MERGED:    5900833	TO_CACHE:   17669636

L2C Instructions Evicting Data 0
L2C Translations Evicting Data 35578
L2C Data Evicting Data 11818837
L2C Instructions Evicting Instructions 0
L2C Translations Evicting Instructions 0
L2C Data Evicting Instructions 0
L2C Instructions Evicting Translations 0
L2C Translations Evicting Translations 73
L2C Data Evicting Translations 35596
L2C Dense regions hint from L2: 0
PSCL5 TOTAL     ACCESS:     113227  HIT:     113227  MISS:          0  HIT %:        100  MISS %:          0   MPKI: 0
PSCL5 LOAD TRANSLATION ACCESS:     113227  HIT:     113227  MISS:          0  HIT %:        100  MISS %:          0   MPKI: 0
PSCL5 PREFETCH  REQUESTED:          0  ISSUED:          0  USEFUL:          0  USELESS:          0
PSCL5 USEFUL LOAD PREFETCHES:          0 PREFETCH ISSUED TO LOWER LEVEL:          0  ACCURACY: -nan
PSCL5 TIMELY PREFETCHES:          0 LATE PREFETCHES: 0 DROPPED PREFETCHES: 0
PSCL5 PREFETCHES SAME FILL-ORIGIN LEVEL: 0 DIFFERENT FILL-ORIGIN LEVEL: 0

PSCL4 TOTAL     ACCESS:     113227  HIT:     113227  MISS:          0  HIT %:        100  MISS %:          0   MPKI: 0
PSCL4 LOAD TRANSLATION ACCESS:     113227  HIT:     113227  MISS:          0  HIT %:        100  MISS %:          0   MPKI: 0
PSCL4 PREFETCH  REQUESTED:          0  ISSUED:          0  USEFUL:          0  USELESS:          0
PSCL4 USEFUL LOAD PREFETCHES:          0 PREFETCH ISSUED TO LOWER LEVEL:          0  ACCURACY: -nan
PSCL4 TIMELY PREFETCHES:          0 LATE PREFETCHES: 0 DROPPED PREFETCHES: 0
PSCL4 PREFETCHES SAME FILL-ORIGIN LEVEL: 0 DIFFERENT FILL-ORIGIN LEVEL: 0

PSCL3 TOTAL     ACCESS:     113227  HIT:     113227  MISS:          0  HIT %:        100  MISS %:          0   MPKI: 0
PSCL3 LOAD TRANSLATION ACCESS:     113227  HIT:     113227  MISS:          0  HIT %:        100  MISS %:          0   MPKI: 0
PSCL3 PREFETCH  REQUESTED:          0  ISSUED:          0  USEFUL:          0  USELESS:          0
PSCL3 USEFUL LOAD PREFETCHES:          0 PREFETCH ISSUED TO LOWER LEVEL:          0  ACCURACY: -nan
PSCL3 TIMELY PREFETCHES:          0 LATE PREFETCHES: 0 DROPPED PREFETCHES: 0
PSCL3 PREFETCHES SAME FILL-ORIGIN LEVEL: 0 DIFFERENT FILL-ORIGIN LEVEL: 0

PSCL2 TOTAL     ACCESS:     113227  HIT:     111865  MISS:       1362  HIT %:    98.7971  MISS %:    1.20289   MPKI: 0.01362
PSCL2 LOAD TRANSLATION ACCESS:     113227  HIT:     111865  MISS:       1362  HIT %:    98.7971  MISS %:    1.20289   MPKI: 0.01362
PSCL2 PREFETCH  REQUESTED:          0  ISSUED:          0  USEFUL:          0  USELESS:          0
PSCL2 USEFUL LOAD PREFETCHES:          0 PREFETCH ISSUED TO LOWER LEVEL:          0  ACCURACY: -nan
PSCL2 TIMELY PREFETCHES:          0 LATE PREFETCHES: 0 DROPPED PREFETCHES: 0
PSCL2 PREFETCHES SAME FILL-ORIGIN LEVEL: 0 DIFFERENT FILL-ORIGIN LEVEL: 0

LLC TOTAL     ACCESS:   20916775  HIT:   12119140  MISS:    8797635  HIT %:    57.9398  MISS %:    42.0602   MPKI: 87.9763
LLC LOAD      ACCESS:   10532406  HIT:    6393623  MISS:    4138783  HIT %:    60.7043  MISS %:    39.2957   MPKI: 41.3878
LLC RFO       ACCESS:       9812  HIT:       5130  MISS:       4682  HIT %:    52.2829  MISS %:    47.7171   MPKI: 0.04682
LLC PREFETCH  ACCESS:   10189600  HIT:    5593808  MISS:    4595792  HIT %:    54.8972  MISS %:    45.1028   MPKI: 45.9579
LLC WRITEBACK ACCESS:     149306  HIT:     112803  MISS:      36503  HIT %:    75.5516  MISS %:    24.4484   MPKI: 0.36503
LLC LOAD TRANSLATION ACCESS:      35651  HIT:      13776  MISS:      21875  HIT %:    38.6413  MISS %:    61.3587   MPKI: 0.21875
LLC PREFETCH  REQUESTED:          0  ISSUED:          0  USEFUL:    2567607  USELESS:    2020879
LLC USEFUL LOAD PREFETCHES:    2567607 PREFETCH ISSUED TO LOWER LEVEL:    5556803  ACCURACY: 46.2066
LLC TIMELY PREFETCHES:    2567607 LATE PREFETCHES: 961010 DROPPED PREFETCHES: 0
LLC PREFETCHES SAME FILL-ORIGIN LEVEL: 5377886 DIFFERENT FILL-ORIGIN LEVEL: 0
LLC AVERAGE MISS LATENCY: 152.716 cycles
LLC RQ	ACCESS:   10577874	FORWARD:          0	MERGED:          0	TO_CACHE:   10577870
LLC WQ	ACCESS:     149306	FORWARD:          6	MERGED:          0	TO_CACHE:     149306
LLC PQ	ACCESS:   15634394	FORWARD:          0	MERGED:    1138621	TO_CACHE:   14495771

LLC Dense regions hint to LLC: 0

RAW hits: 288561
Loads Generated: 35926018
Loads sent to L1D: 35637456
Stores Generated: 2185912
Stores sent to L1D: 2185912
Major fault: 0 Minor fault: 128515
Allocated PAGES: 128515
 All Calls: 22405858
 Critical Calls: 14577489
------------------
Depth Distribution
------------------
depth 0: 0
depth 1: 6444891
depth 2: 5539185
depth 3: 4907359
depth 4: 3555654
depth 5: 2149976
depth 6: 823364
depth 7: 129816
depth 8: 19755
depth 9: 438
depth 10: 31
depth 11: 0
depth 12: 0
depth 13: 0
depth 14: 0
depth 15: 0
depth 16: 0
depth 17: 0
depth 18: 0
depth 19: 0
depth 20: 0
depth 21: 0
depth 22: 0
depth 23: 0
depth 24: 0
depth 25: 0
depth 26: 0
depth 27: 0
depth 28: 0
depth 29: 0
Total: 23570469
-----------------------------
-----------------------------
	Captured at Filter
-----------------------------
depth 0: 0
depth 1: 74408
depth 2: 13942
depth 3: 12201
depth 4: 8731
depth 5: 5205
depth 6: 1986
depth 7: 316
depth 8: 54
depth 9: 0
depth 10: 0
depth 11: 0
depth 12: 0
depth 13: 0
depth 14: 0
depth 15: 0
depth 16: 0
depth 17: 0
depth 18: 0
depth 19: 0
depth 20: 0
depth 21: 0
depth 22: 0
depth 23: 0
depth 24: 0
depth 25: 0
depth 26: 0
depth 27: 0
depth 28: 0
depth 29: 0
-----------------------------
-----------------------------
		Lost at Page
-----------------------------
depth 0: 0
depth 1: 154368
depth 2: 174826
depth 3: 234445
depth 4: 234637
depth 5: 181616
depth 6: 84188
depth 7: 16794
depth 8: 2930
depth 9: 56
depth 10: 5
depth 11: 0
depth 12: 0
depth 13: 0
depth 14: 0
depth 15: 0
depth 16: 0
depth 17: 0
depth 18: 0
depth 19: 0
depth 20: 0
depth 21: 0
depth 22: 0
depth 23: 0
depth 24: 0
depth 25: 0
depth 26: 0
depth 27: 0
depth 28: 0
depth 29: 0
-----------------------------
-----------------------------
	Lost due to PQ Size
-----------------------------
1189
-----------------------------
ST read accesses: 8502271
ST write accesses: 6075218
PT read accesses: 201162707
PT write accesses: 10466579
FILTER read accesses: 50158487
FILTER write accesses: 15922997
GHR read accesses: 54725567
GHR write accesses: 1083865
GHR counter read accesses: 186071542
GHR counter write accesses: 18560523
ST tag read accesses: 8715027887
ST tag write accesses: 1878748387

DRAM Statistics
 CHANNEL 0
 RQ ROW_BUFFER_HIT:    2956447  ROW_BUFFER_MISS:    5804626
 DBUS_CONGESTED:       1721
 WQ ROW_BUFFER_HIT:      34935  ROW_BUFFER_MISS:     104062  FULL:          0

 AVG_CONGESTED_CYCLE: 4
 All warmup complete: 2
Channel 0 Bank busy for read cycles: 0
Channel 0 Bank busy for write cycles: 0
Channel 0
Rank 0
0banks busy for read cycles: 178634866
0banks busy for write cycles: 66412
1banks busy for read cycles: 137020518
1banks busy for write cycles: 13492604
2banks busy for read cycles: 84357342
2banks busy for write cycles: 3094948
3banks busy for read cycles: 57039094
3banks busy for write cycles: 1266350
4banks busy for read cycles: 41617522
4banks busy for write cycles: 703674
5banks busy for read cycles: 28928040
5banks busy for write cycles: 471977
6banks busy for read cycles: 18046435
6banks busy for write cycles: 349924
7banks busy for read cycles: 9930448
7banks busy for write cycles: 316616
8banks busy for read cycles: 6600302
8banks busy for write cycles: 342028

CPU 0 Branch Prediction Accuracy: 97.0234% MPKI: 8.99605 Average ROB Occupancy at Mispredict: 57.812
Branch types
NOT_BRANCH: 69777207 69.7772%
BRANCH_DIRECT_JUMP: 3793757 3.79376%
BRANCH_INDIRECT: 0 0%
BRANCH_CONDITIONAL: 25586017 25.586%
BRANCH_DIRECT_CALL: 389591 0.389591%
BRANCH_INDIRECT_CALL: 31744 0.031744%
BRANCH_RETURN: 421335 0.421335%
BRANCH_OTHER: 0 0%

DRAM PAGES: 1048576
Allocated PAGES: 128515
