
*** ChampSim Multicore Out-of-Order Simulator ***

Warmup Instructions: 50000000
Simulation Instructions: 100000000
Number of CPUs: 1
LLC sets: 2048
LLC ways: 16
Off-chip DRAM Size: 4096 MB Channels: 1 Width: 64-bit Data Rate: 6400 MT/s
CPU 0 runs ../SPEC2017//605.mcf_s-472B.champsimtrace.xz
.xz
NUM_OF_IPS_IN_CRITICAL_IP_TRAINING: 64
NUM_OF_CRITICAL_IP_TRAINING_TABLE_WAYS: 2
NUM_OF_CRITICAL_IP_TRAINING_TABLE_SETS: 32
WOBBLY_CRITICAL_IP_CACHE_SETS: 32
WOBBLY_CRITICAL_IP_CACHE_WAYS: 4
BTB has LRU replacement policy
ITLB has LRU replacement policy
DTLB has LRU replacement policy
STLB has LRU replacement policy
L1I has LRU replacement policy
IP Table Entries: 64
L1D has LRU replacement policy
Initialize SRRIP state for L2C
Initialize DRRIP state for LLC
Heartbeat CPU 0 instructions: 10000001 cycles: 3193759 heartbeat IPC: 3.13111 cumulative IPC: 3.13111 (Simulation time: 0 hr 9 min 50 sec) 
Heartbeat CPU 0 instructions: 20000003 cycles: 6534143 heartbeat IPC: 2.99367 cumulative IPC: 3.06085 (Simulation time: 0 hr 20 min 3 sec) 
Heartbeat CPU 0 instructions: 30000001 cycles: 9946958 heartbeat IPC: 2.93013 cumulative IPC: 3.016 (Simulation time: 0 hr 30 min 37 sec) 
Heartbeat CPU 0 instructions: 40000003 cycles: 13165190 heartbeat IPC: 3.1073 cumulative IPC: 3.03832 (Simulation time: 0 hr 38 min 57 sec) 
Heartbeat CPU 0 instructions: 50000001 cycles: 16409370 heartbeat IPC: 3.08244 cumulative IPC: 3.04704 (Simulation time: 0 hr 46 min 46 sec) 

Warmup complete CPU 0 instructions: 50000001 cycles: 16409370 (Simulation time: 0 hr 46 min 46 sec) 

% increase in all ip prefetch 419.982
% increase in all ip prefetch -39.7501
Heartbeat CPU 0 instructions: 60000001 cycles: 41842811 heartbeat IPC: 0.393183 cumulative IPC: 0.393183 (Simulation time: 0 hr 55 min 27 sec) 
Heartbeat CPU 0 instructions: 70000002 cycles: 66417846 heartbeat IPC: 0.406917 cumulative IPC: 0.399932 (Simulation time: 1 hr 2 min 6 sec) 
Heartbeat CPU 0 instructions: 80000002 cycles: 95963734 heartbeat IPC: 0.338457 cumulative IPC: 0.377101 (Simulation time: 1 hr 8 min 27 sec) 
Heartbeat CPU 0 instructions: 90000000 cycles: 120197639 heartbeat IPC: 0.412645 cumulative IPC: 0.3854 (Simulation time: 1 hr 13 min 48 sec) 
Heartbeat CPU 0 instructions: 100000002 cycles: 147931417 heartbeat IPC: 0.360571 cumulative IPC: 0.380164 (Simulation time: 1 hr 18 min 28 sec) 
Heartbeat CPU 0 instructions: 110000000 cycles: 172382497 heartbeat IPC: 0.40898 cumulative IPC: 0.384682 (Simulation time: 1 hr 21 min 2 sec) 
Heartbeat CPU 0 instructions: 120000002 cycles: 199215844 heartbeat IPC: 0.372671 cumulative IPC: 0.382919 (Simulation time: 1 hr 23 min 26 sec) 
Heartbeat CPU 0 instructions: 130000002 cycles: 226712810 heartbeat IPC: 0.363676 cumulative IPC: 0.380403 (Simulation time: 1 hr 25 min 35 sec) 
Heartbeat CPU 0 instructions: 140000003 cycles: 254983948 heartbeat IPC: 0.353718 cumulative IPC: 0.377241 (Simulation time: 1 hr 27 min 13 sec) 
Heartbeat CPU 0 instructions: 150000002 cycles: 282536092 heartbeat IPC: 0.362948 cumulative IPC: 0.375761 (Simulation time: 1 hr 28 min 10 sec) 
Finished CPU 0 instructions: 100000001 cycles: 266126722 cumulative IPC: 0.375761 (Simulation time: 1 hr 28 min 10 sec) 

ChampSim completed all CPUs

Region of Interest Statistics

CPU 0 cumulative IPC: 0.375761 instructions: 100000001 cycles: 266126722

CPU 0 Average Load ROB stall cycles: 5.00983e+07
CPU 0 Fraction of times ROB stalled by Loads: 34.1764
CPU 0 Percentage of Load stall cycles in Total stall cycles: 4.74121e+08
Issued all: 153867864
Issued LT all: 145950795
rob_not_full_when_issued_lt_all: 27972887
Issued LT one: 125687081
rob_not_full_when_issued_lt_one: 22387351
 Total stall cycles: 241996552
 Total load stall cycles: 1147356073314764
CPU 0 NUM of IPS identified critical: 0
CPU 0 Num of Load IPs stalling ROB: 88
Threshold modification factor: -1
Max PIST entries: 40
Min PIST entries: 0
Avg PIST entries: 15.6133
Trouble in retire width: 0.996061
MaC = Marked as critical.
lt_50_percent_before_Mac: 0
gt_90_percent_before_Mac: 0
gt_75_percent_before_Mac: 0
gt_50_percent_before_Mac: 0
stall_proportion_bin_same_before_after: 0
stall_proportion_bin_lower_before_after: 0
stall_proportion_bin_upper_before_after: 0
average_stall_proportion_before: -nan
average_stall_proportion_after: -nan
Critical IP stalls, total frequency: 0
Non-critical IP stalls, total frequency: 7827113
Total Freq all stalling IPs: 7827113
stat_90_percent_critical_ip_stalls_freq: 7102437
stat_90_percent_non_critical_ip_stalls_freq: 724676
Critical_IP_ROB_Stalls_Bucket_0: 0
Non-critical_IP_ROB_Stalls_Bucket_0: 813448
Critical_IP_ROB_Stalls_Bucket_1: 0
Non-critical_IP_ROB_Stalls_Bucket_1: 320843
Critical_IP_ROB_Stalls_Bucket_2: 0
Non-critical_IP_ROB_Stalls_Bucket_2: 421441
Critical_IP_ROB_Stalls_Bucket_3: 0
Non-critical_IP_ROB_Stalls_Bucket_3: 641191
Critical_IP_ROB_Stalls_Bucket_4: 0
Non-critical_IP_ROB_Stalls_Bucket_4: 512265
Critical_IP_ROB_Stalls_Bucket_5: 0
Non-critical_IP_ROB_Stalls_Bucket_5: 666900
Critical_IP_ROB_Stalls_Bucket_6: 0
Non-critical_IP_ROB_Stalls_Bucket_6: 4451025
0 => IPs accounting for >50 percent of stalls, 1 => 55, 2 => 60, 3 => 65 and so on till 90.
percent50: 58.7245 num IPs:  3
percent55: 58.7245 num IPs: 3
percent60: 67.2953 num IPs: 4
percent65: 67.2953 num IPs: 4
percent70: 74.7174 num IPs: 5
percent75: 78.4465 num IPs: 6
percent80: 82.1687 num IPs: 7
percent85: 85.2669 num IPs: 8
percent90: 90.7415 num IPs: 10
Critical_ROB_Stalls_Percent_0_Bucket_0: 229232
Non-critical_ROB_Stalls_Percent_0_Bucket_0: 584216
Critical_ROB_Stalls_Percent_0_Bucket_1: 125415
Non-critical_ROB_Stalls_Percent_0_Bucket_1: 195428
Critical_ROB_Stalls_Percent_0_Bucket_2: 249481
Non-critical_ROB_Stalls_Percent_0_Bucket_2: 171960
Critical_ROB_Stalls_Percent_0_Bucket_3: 467218
Non-critical_ROB_Stalls_Percent_0_Bucket_3: 173973
Critical_ROB_Stalls_Percent_0_Bucket_4: 394530
Non-critical_ROB_Stalls_Percent_0_Bucket_4: 117735
Critical_ROB_Stalls_Percent_0_Bucket_5: 491729
Non-critical_ROB_Stalls_Percent_0_Bucket_5: 175171
Critical_ROB_Stalls_Percent_0_Bucket_6: 2638825
Non-critical_ROB_Stalls_Percent_0_Bucket_6: 1812200
Critical_ROB_Stalls_Percent_1_Bucket_0: 229232
Non-critical_ROB_Stalls_Percent_1_Bucket_0: 584216
Critical_ROB_Stalls_Percent_1_Bucket_1: 125415
Non-critical_ROB_Stalls_Percent_1_Bucket_1: 195428
Critical_ROB_Stalls_Percent_1_Bucket_2: 249481
Non-critical_ROB_Stalls_Percent_1_Bucket_2: 171960
Critical_ROB_Stalls_Percent_1_Bucket_3: 467218
Non-critical_ROB_Stalls_Percent_1_Bucket_3: 173973
Critical_ROB_Stalls_Percent_1_Bucket_4: 394530
Non-critical_ROB_Stalls_Percent_1_Bucket_4: 117735
Critical_ROB_Stalls_Percent_1_Bucket_5: 491729
Non-critical_ROB_Stalls_Percent_1_Bucket_5: 175171
Critical_ROB_Stalls_Percent_1_Bucket_6: 2638825
Non-critical_ROB_Stalls_Percent_1_Bucket_6: 1812200
Critical_ROB_Stalls_Percent_2_Bucket_0: 287041
Non-critical_ROB_Stalls_Percent_2_Bucket_0: 526407
Critical_ROB_Stalls_Percent_2_Bucket_1: 158592
Non-critical_ROB_Stalls_Percent_2_Bucket_1: 162251
Critical_ROB_Stalls_Percent_2_Bucket_2: 281888
Non-critical_ROB_Stalls_Percent_2_Bucket_2: 139553
Critical_ROB_Stalls_Percent_2_Bucket_3: 496228
Non-critical_ROB_Stalls_Percent_2_Bucket_3: 144963
Critical_ROB_Stalls_Percent_2_Bucket_4: 412180
Non-critical_ROB_Stalls_Percent_2_Bucket_4: 100085
Critical_ROB_Stalls_Percent_2_Bucket_5: 519215
Non-critical_ROB_Stalls_Percent_2_Bucket_5: 147685
Critical_ROB_Stalls_Percent_2_Bucket_6: 3112139
Non-critical_ROB_Stalls_Percent_2_Bucket_6: 1338886
Critical_ROB_Stalls_Percent_3_Bucket_0: 287041
Non-critical_ROB_Stalls_Percent_3_Bucket_0: 526407
Critical_ROB_Stalls_Percent_3_Bucket_1: 158592
Non-critical_ROB_Stalls_Percent_3_Bucket_1: 162251
Critical_ROB_Stalls_Percent_3_Bucket_2: 281888
Non-critical_ROB_Stalls_Percent_3_Bucket_2: 139553
Critical_ROB_Stalls_Percent_3_Bucket_3: 496228
Non-critical_ROB_Stalls_Percent_3_Bucket_3: 144963
Critical_ROB_Stalls_Percent_3_Bucket_4: 412180
Non-critical_ROB_Stalls_Percent_3_Bucket_4: 100085
Critical_ROB_Stalls_Percent_3_Bucket_5: 519215
Non-critical_ROB_Stalls_Percent_3_Bucket_5: 147685
Critical_ROB_Stalls_Percent_3_Bucket_6: 3112139
Non-critical_ROB_Stalls_Percent_3_Bucket_6: 1338886
Critical_ROB_Stalls_Percent_4_Bucket_0: 303036
Non-critical_ROB_Stalls_Percent_4_Bucket_0: 510412
Critical_ROB_Stalls_Percent_4_Bucket_1: 201841
Non-critical_ROB_Stalls_Percent_4_Bucket_1: 119002
Critical_ROB_Stalls_Percent_4_Bucket_2: 332469
Non-critical_ROB_Stalls_Percent_4_Bucket_2: 88972
Critical_ROB_Stalls_Percent_4_Bucket_3: 540257
Non-critical_ROB_Stalls_Percent_4_Bucket_3: 100934
Critical_ROB_Stalls_Percent_4_Bucket_4: 446334
Non-critical_ROB_Stalls_Percent_4_Bucket_4: 65931
Critical_ROB_Stalls_Percent_4_Bucket_5: 559561
Non-critical_ROB_Stalls_Percent_4_Bucket_5: 107339
Critical_ROB_Stalls_Percent_4_Bucket_6: 3464718
Non-critical_ROB_Stalls_Percent_4_Bucket_6: 986307
Critical_ROB_Stalls_Percent_5_Bucket_0: 334439
Non-critical_ROB_Stalls_Percent_5_Bucket_0: 479009
Critical_ROB_Stalls_Percent_5_Bucket_1: 212389
Non-critical_ROB_Stalls_Percent_5_Bucket_1: 108454
Critical_ROB_Stalls_Percent_5_Bucket_2: 344130
Non-critical_ROB_Stalls_Percent_5_Bucket_2: 77311
Critical_ROB_Stalls_Percent_5_Bucket_3: 551744
Non-critical_ROB_Stalls_Percent_5_Bucket_3: 89447
Critical_ROB_Stalls_Percent_5_Bucket_4: 454873
Non-critical_ROB_Stalls_Percent_5_Bucket_4: 57392
Critical_ROB_Stalls_Percent_5_Bucket_5: 568710
Non-critical_ROB_Stalls_Percent_5_Bucket_5: 98190
Critical_ROB_Stalls_Percent_5_Bucket_6: 3673812
Non-critical_ROB_Stalls_Percent_5_Bucket_6: 777213
Critical_ROB_Stalls_Percent_6_Bucket_0: 375523
Non-critical_ROB_Stalls_Percent_6_Bucket_0: 437925
Critical_ROB_Stalls_Percent_6_Bucket_1: 234892
Non-critical_ROB_Stalls_Percent_6_Bucket_1: 85951
Critical_ROB_Stalls_Percent_6_Bucket_2: 372610
Non-critical_ROB_Stalls_Percent_6_Bucket_2: 48831
Critical_ROB_Stalls_Percent_6_Bucket_3: 565242
Non-critical_ROB_Stalls_Percent_6_Bucket_3: 75949
Critical_ROB_Stalls_Percent_6_Bucket_4: 462117
Non-critical_ROB_Stalls_Percent_6_Bucket_4: 50148
Critical_ROB_Stalls_Percent_6_Bucket_5: 588034
Non-critical_ROB_Stalls_Percent_6_Bucket_5: 78866
Critical_ROB_Stalls_Percent_6_Bucket_6: 3833019
Non-critical_ROB_Stalls_Percent_6_Bucket_6: 618006
Critical_ROB_Stalls_Percent_7_Bucket_0: 401867
Non-critical_ROB_Stalls_Percent_7_Bucket_0: 411581
Critical_ROB_Stalls_Percent_7_Bucket_1: 245523
Non-critical_ROB_Stalls_Percent_7_Bucket_1: 75320
Critical_ROB_Stalls_Percent_7_Bucket_2: 384023
Non-critical_ROB_Stalls_Percent_7_Bucket_2: 37418
Critical_ROB_Stalls_Percent_7_Bucket_3: 573553
Non-critical_ROB_Stalls_Percent_7_Bucket_3: 67638
Critical_ROB_Stalls_Percent_7_Bucket_4: 469185
Non-critical_ROB_Stalls_Percent_7_Bucket_4: 43080
Critical_ROB_Stalls_Percent_7_Bucket_5: 598477
Non-critical_ROB_Stalls_Percent_7_Bucket_5: 68423
Critical_ROB_Stalls_Percent_7_Bucket_6: 4001311
Non-critical_ROB_Stalls_Percent_7_Bucket_6: 449714
Critical_ROB_Stalls_Percent_8_Bucket_0: 477656
Non-critical_ROB_Stalls_Percent_8_Bucket_0: 335792
Critical_ROB_Stalls_Percent_8_Bucket_1: 296096
Non-critical_ROB_Stalls_Percent_8_Bucket_1: 24747
Critical_ROB_Stalls_Percent_8_Bucket_2: 406222
Non-critical_ROB_Stalls_Percent_8_Bucket_2: 15219
Critical_ROB_Stalls_Percent_8_Bucket_3: 600451
Non-critical_ROB_Stalls_Percent_8_Bucket_3: 40740
Critical_ROB_Stalls_Percent_8_Bucket_4: 488739
Non-critical_ROB_Stalls_Percent_8_Bucket_4: 23526
Critical_ROB_Stalls_Percent_8_Bucket_5: 635772
Non-critical_ROB_Stalls_Percent_8_Bucket_5: 31128
Critical_ROB_Stalls_Percent_8_Bucket_6: 4197501
Non-critical_ROB_Stalls_Percent_8_Bucket_6: 253524
Average ROB occupancy Load Stall Begin: 255.634
Average ROB occupancy Load Stall End: 261.659
Min ROB occupancy Load Stall Begin: 1
Max ROB occupancy Load Stall Begin: 352
Min ROB occupancy Load Stall End: 1
Max ROB occupancy Load Stall End: 352
Average ROB occupancy Critical Load Stall Begin: -nan
Average ROB occupancy Critical Load Stall End: -nan
Min ROB occupancy Critical Load Stall Begin: 400
Max ROB occupancy Critical Load Stall Begin: 0
Min ROB occupancy Critical Load Stall End: 400
Max ROB occupancy Critical Load Stall End: 0
 ROB Load Stall Begin Bucket Count 0: 901424
 ROB Load Stall End Bucket Count 0: 813448
 ROB Critical Load Stall Begin Bucket Count 0: 0
 ROB Critical Load Stall End Bucket Count 0: 0
 ROB Load Stall Begin Bucket Count 1: 313641
 ROB Load Stall End Bucket Count 1: 320843
 ROB Critical Load Stall Begin Bucket Count 1: 0
 ROB Critical Load Stall End Bucket Count 1: 0
 ROB Load Stall Begin Bucket Count 2: 462137
 ROB Load Stall End Bucket Count 2: 421441
 ROB Critical Load Stall Begin Bucket Count 2: 0
 ROB Critical Load Stall End Bucket Count 2: 0
 ROB Load Stall Begin Bucket Count 3: 642580
 ROB Load Stall End Bucket Count 3: 641191
 ROB Critical Load Stall Begin Bucket Count 3: 0
 ROB Critical Load Stall End Bucket Count 3: 0
 ROB Load Stall Begin Bucket Count 4: 476151
 ROB Load Stall End Bucket Count 4: 512265
 ROB Critical Load Stall Begin Bucket Count 4: 0
 ROB Critical Load Stall End Bucket Count 4: 0
 ROB Load Stall Begin Bucket Count 5: 725989
 ROB Load Stall End Bucket Count 5: 666900
 ROB Critical Load Stall Begin Bucket Count 5: 0
 ROB Critical Load Stall End Bucket Count 5: 0
 ROB Load Stall Begin Bucket Count 6: 4305191
 ROB Load Stall End Bucket Count 6: 4451025
 ROB Critical Load Stall Begin Bucket Count 6: 0
 ROB Critical Load Stall End Bucket Count 6: 0
PIST Tag Read Accesses: 38622
PIST Read Accesses: 19311
PIST Tag Write Accesses: 38622
PIST Write Accesses: 19311
Criticality detector called times: 121133
Max global_stall_cycles_count: 442703
Threshold Modified: 1 times, factor: -1
Sturdy critical IP cache stats: 
 Unused entries: 0
CIC Tag Read Accesses: 0
CIC Read Accesses: 0
CIC Tag Write Accesses: 0
CIC Write Accesses: 0
Wobbly critical IP cache stats: 
 Unused entries: 100
CIC Tag Read Accesses: 307436483
CIC Read Accesses: 0
CIC Tag Write Accesses: 1578821
CIC Write Accesses: 0
ITLB TOTAL     ACCESS:   17308878  HIT:   17308878  MISS:          0  HIT %:        100  MISS %:          0   MPKI: 0
ITLB LOAD TRANSLATION ACCESS:   17308878  HIT:   17308878  MISS:          0  HIT %:        100  MISS %:          0   MPKI: 0
ITLB PREFETCH  REQUESTED:          0  ISSUED:          0  USEFUL:          0  USELESS:          0
ITLB USEFUL LOAD PREFETCHES:          0 PREFETCH ISSUED TO LOWER LEVEL:          0  ACCURACY: -nan
ITLB TIMELY PREFETCHES:          0 LATE PREFETCHES: 0 DROPPED PREFETCHES: 0
ITLB PREFETCHES SAME FILL-ORIGIN LEVEL: 0 DIFFERENT FILL-ORIGIN LEVEL: 0
ITLB AVERAGE MISS LATENCY: -nan cycles
ITLB RQ	ACCESS:   22315786	FORWARD:          0	MERGED:    5006908	TO_CACHE:   17308878

DTLB TOTAL     ACCESS:   27617645  HIT:   27315861  MISS:     301784  HIT %:    98.9073  MISS %:    1.09272   MPKI: 3.01784
DTLB LOAD TRANSLATION ACCESS:   27617645  HIT:   27315861  MISS:     301784  HIT %:    98.9073  MISS %:    1.09272   MPKI: 3.01784
DTLB PREFETCH  REQUESTED:          0  ISSUED:          0  USEFUL:          0  USELESS:          0
DTLB USEFUL LOAD PREFETCHES:          0 PREFETCH ISSUED TO LOWER LEVEL:          0  ACCURACY: -nan
DTLB TIMELY PREFETCHES:          0 LATE PREFETCHES: 0 DROPPED PREFETCHES: 0
DTLB PREFETCHES SAME FILL-ORIGIN LEVEL: 0 DIFFERENT FILL-ORIGIN LEVEL: 0
DTLB AVERAGE MISS LATENCY: 34.701 cycles
DTLB RQ	ACCESS:   45415408	FORWARD:          0	MERGED:   17720217	TO_CACHE:   27695191

STLB TOTAL     ACCESS:    8576392  HIT:    8447022  MISS:     129370  HIT %:    98.4916  MISS %:    1.50844   MPKI: 1.2937
STLB LOAD TRANSLATION ACCESS:     301784  HIT:     172450  MISS:     129334  HIT %:    57.1435  MISS %:    42.8565   MPKI: 1.29334
STLB TRANSLATION FROM L1D PREFETCHER ACCESS:    8274608  HIT:    8274572  MISS:         36  HIT %:    99.9996  MISS %: 0.000435066   MPKI: 0.00036
STLB PREFETCH  REQUESTED:          0  ISSUED:          0  USEFUL:         19  USELESS:         17
STLB USEFUL LOAD PREFETCHES:         19 PREFETCH ISSUED TO LOWER LEVEL:          0  ACCURACY: inf
STLB TIMELY PREFETCHES:         19 LATE PREFETCHES: 0 DROPPED PREFETCHES: 0
STLB PREFETCHES SAME FILL-ORIGIN LEVEL: 0 DIFFERENT FILL-ORIGIN LEVEL: 0
STLB AVERAGE MISS LATENCY: 59.9041 cycles
STLB RQ	ACCESS:   13089103	FORWARD:          0	MERGED:    4512711	TO_CACHE:    8576392

STLB Hit, L1D data hit: 0
STLB Hit, L2C data hit: 0
STLB Hit, LLC data hit: 0
STLB Hit, LLC data miss: 0
STLB STLB hints to L2: 0
L1D TOTAL     ACCESS:   55830060  HIT:   48452394  MISS:    7377666  HIT %:    86.7855  MISS %:    13.2145   MPKI: 73.7767
L1D LOAD      ACCESS:   20832787  HIT:   17274965  MISS:    3557822  HIT %:     82.922  MISS %:     17.078   MPKI: 35.5782
L1D RFO       ACCESS:   23405141  HIT:   23181335  MISS:     223806  HIT %:    99.0438  MISS %:   0.956226   MPKI: 2.23806
L1D PREFETCH  ACCESS:   11592132  HIT:    7996094  MISS:    3596038  HIT %:    68.9786  MISS %:    31.0214   MPKI: 35.9604
L1D PREFETCH  REQUESTED:   25575963  ISSUED:   25574641  USEFUL:    1252164  USELESS:    2343785
L1D USEFUL LOAD PREFETCHES:    1252164 PREFETCH ISSUED TO LOWER LEVEL:    4455004  ACCURACY: 28.1069
L1D TIMELY PREFETCHES:    1252164 LATE PREFETCHES: 856689 DROPPED PREFETCHES: 0
L1D PREFETCHES SAME FILL-ORIGIN LEVEL: 4455004 DIFFERENT FILL-ORIGIN LEVEL: 0
L1D AVERAGE MISS LATENCY: 1.77643e+07 cycles
L1D RQ	ACCESS:   33444070	FORWARD:          0	MERGED:   12115156	TO_CACHE:   21302045
L1D WQ	ACCESS:   24693640	FORWARD:      26872	MERGED:     580277	TO_CACHE:   24113363
L1D PQ	ACCESS:   12787322	FORWARD:          0	MERGED:          0	TO_CACHE:   12787319

L1D UNIQUE REGIONS ACCESSED: 0
L1D REGIONS CONFLICTS: 0
L1D Cross Page Prefetch Requests: 0
L1D Same Page Prefetch Requests: 19729758
L1D ROI Sum of L1D PQ occupancy: 175204455
L1D PREFETCHES PUSHED FROM L2C: 0
L1I TOTAL     ACCESS:   22315783  HIT:   22315783  MISS:          0  HIT %:        100  MISS %:          0   MPKI: 0
L1I LOAD      ACCESS:   22315783  HIT:   22315783  MISS:          0  HIT %:        100  MISS %:          0   MPKI: 0
L1I PREFETCH  REQUESTED:          0  ISSUED:          0  USEFUL:          0  USELESS:          0
L1I USEFUL LOAD PREFETCHES:          0 PREFETCH ISSUED TO LOWER LEVEL:          0  ACCURACY: -nan
L1I TIMELY PREFETCHES:          0 LATE PREFETCHES: 0 DROPPED PREFETCHES: 0
L1I PREFETCHES SAME FILL-ORIGIN LEVEL: 0 DIFFERENT FILL-ORIGIN LEVEL: 0
L1I AVERAGE MISS LATENCY: -nan cycles
L1I RQ	ACCESS:   30601425	FORWARD:          0	MERGED:    8285639	TO_CACHE:   22315786

BTB TOTAL     ACCESS:   11269127  HIT:   11269093  MISS:         34  HIT %:    99.9997  MISS %: 0.000301709   MPKI: 0.00034
BTB BRANCH_DIRECT_JUMP	ACCESS:    1149944  HIT:    1149938  MISS:          6
BTB BRANCH_INDIRECT	ACCESS:          0  HIT:          0  MISS:          0
BTB BRANCH_CONDITIONAL	ACCESS:   10118919  HIT:   10118895  MISS:         24
BTB BRANCH_DIRECT_CALL	ACCESS:        132  HIT:        130  MISS:          2
BTB BRANCH_INDIRECT_CALL	ACCESS:          0  HIT:          0  MISS:          0
BTB BRANCH_RETURN	ACCESS:        132  HIT:        130  MISS:          2
BTB BRANCH_OTHER ACCESS:          0  HIT:          0  MISS:          0

L2C TOTAL     ACCESS:    9465323  HIT:    2496528  MISS:    6968795  HIT %:    26.3755  MISS %:    73.6245   MPKI: 69.6879
L2C LOAD      ACCESS:    2701042  HIT:     174567  MISS:    2526475  HIT %:    6.46295  MISS %:     93.537   MPKI: 25.2647
L2C DATA LOAD MPKI: 25.2647
L2C INSTRUCTION LOAD MPKI: 0
L2C RFO       ACCESS:     221524  HIT:      11524  MISS:     210000  HIT %:    5.20215  MISS %:    94.7979   MPKI: 2.1
L2C PREFETCH  ACCESS:    5870131  HIT:    1661218  MISS:    4208913  HIT %:    28.2995  MISS %:    71.7005   MPKI: 42.0891
L2C DATA PREFETCH MPKI: 42.0891
L2C INSTRUCTION PREFETCH MPKI: 0
L2C WRITEBACK ACCESS:     543087  HIT:     538453  MISS:       4634  HIT %:    99.1467  MISS %:    0.85327   MPKI: 0.04634
L2C LOAD TRANSLATION ACCESS:     129503  HIT:     110764  MISS:      18739  HIT %:    85.5301  MISS %:    14.4699   MPKI: 0.18739
L2C TRANSLATION FROM L1D PREFETCHER ACCESS:         36  HIT:          2  MISS:         34  HIT %:    5.55556  MISS %:    94.4444   MPKI: 0.00034
L2C PREFETCH  REQUESTED:    1829999  ISSUED:    1829999  USEFUL:      87180  USELESS:    4124827
L2C USEFUL LOAD PREFETCHES:      87180 PREFETCH ISSUED TO LOWER LEVEL:    4224099  ACCURACY: 2.06387
L2C TIMELY PREFETCHES:      87180 LATE PREFETCHES: 15188 DROPPED PREFETCHES: 0
L2C PREFETCHES SAME FILL-ORIGIN LEVEL: 746796 DIFFERENT FILL-ORIGIN LEVEL: 0
L2C AVERAGE MISS LATENCY: 141.002 cycles
L2C RQ	ACCESS:    3052198	FORWARD:          0	MERGED:          0	TO_CACHE:    3052105
L2C WQ	ACCESS:     543087	FORWARD:        117	MERGED:          0	TO_CACHE:     543087
L2C PQ	ACCESS:    6285003	FORWARD:          0	MERGED:      46704	TO_CACHE:    6238275

L2C Instructions Evicting Data 0
L2C Translations Evicting Data 18742
L2C Data Evicting Data 6926698
L2C Instructions Evicting Instructions 0
L2C Translations Evicting Instructions 0
L2C Data Evicting Instructions 0
L2C Instructions Evicting Translations 0
L2C Translations Evicting Translations 31
L2C Data Evicting Translations 18690
L2C Dense regions hint from L2: 0
PSCL5 TOTAL     ACCESS:     129370  HIT:     129370  MISS:          0  HIT %:        100  MISS %:          0   MPKI: 0
PSCL5 LOAD TRANSLATION ACCESS:     129334  HIT:     129334  MISS:          0  HIT %:        100  MISS %:          0   MPKI: 0
PSCL5 TRANSLATION FROM L1D PREFETCHER ACCESS:         36  HIT:         36  MISS:          0  HIT %:        100  MISS %:          0   MPKI: 0
PSCL5 PREFETCH  REQUESTED:          0  ISSUED:          0  USEFUL:          0  USELESS:          0
PSCL5 USEFUL LOAD PREFETCHES:          0 PREFETCH ISSUED TO LOWER LEVEL:          0  ACCURACY: -nan
PSCL5 TIMELY PREFETCHES:          0 LATE PREFETCHES: 0 DROPPED PREFETCHES: 0
PSCL5 PREFETCHES SAME FILL-ORIGIN LEVEL: 0 DIFFERENT FILL-ORIGIN LEVEL: 0

PSCL4 TOTAL     ACCESS:     129370  HIT:     129370  MISS:          0  HIT %:        100  MISS %:          0   MPKI: 0
PSCL4 LOAD TRANSLATION ACCESS:     129334  HIT:     129334  MISS:          0  HIT %:        100  MISS %:          0   MPKI: 0
PSCL4 TRANSLATION FROM L1D PREFETCHER ACCESS:         36  HIT:         36  MISS:          0  HIT %:        100  MISS %:          0   MPKI: 0
PSCL4 PREFETCH  REQUESTED:          0  ISSUED:          0  USEFUL:          0  USELESS:          0
PSCL4 USEFUL LOAD PREFETCHES:          0 PREFETCH ISSUED TO LOWER LEVEL:          0  ACCURACY: -nan
PSCL4 TIMELY PREFETCHES:          0 LATE PREFETCHES: 0 DROPPED PREFETCHES: 0
PSCL4 PREFETCHES SAME FILL-ORIGIN LEVEL: 0 DIFFERENT FILL-ORIGIN LEVEL: 0

PSCL3 TOTAL     ACCESS:     128575  HIT:     128565  MISS:         10  HIT %:    99.9922  MISS %: 0.00777756   MPKI: 0.0001
PSCL3 LOAD TRANSLATION ACCESS:     128539  HIT:     128529  MISS:         10  HIT %:    99.9922  MISS %: 0.00777974   MPKI: 0.0001
PSCL3 TRANSLATION FROM L1D PREFETCHER ACCESS:         36  HIT:         36  MISS:          0  HIT %:        100  MISS %:          0   MPKI: 0
PSCL3 PREFETCH  REQUESTED:          0  ISSUED:          0  USEFUL:          0  USELESS:          0
PSCL3 USEFUL LOAD PREFETCHES:          0 PREFETCH ISSUED TO LOWER LEVEL:          0  ACCURACY: -nan
PSCL3 TIMELY PREFETCHES:          0 LATE PREFETCHES: 0 DROPPED PREFETCHES: 0
PSCL3 PREFETCHES SAME FILL-ORIGIN LEVEL: 0 DIFFERENT FILL-ORIGIN LEVEL: 0

PSCL2 TOTAL     ACCESS:     129370  HIT:     129157  MISS:        213  HIT %:    99.8354  MISS %:   0.164644   MPKI: 0.00213
PSCL2 LOAD TRANSLATION ACCESS:     129334  HIT:     129121  MISS:        213  HIT %:    99.8353  MISS %:    0.16469   MPKI: 0.00213
PSCL2 TRANSLATION FROM L1D PREFETCHER ACCESS:         36  HIT:         36  MISS:          0  HIT %:        100  MISS %:          0   MPKI: 0
PSCL2 PREFETCH  REQUESTED:          0  ISSUED:          0  USEFUL:          0  USELESS:          0
PSCL2 USEFUL LOAD PREFETCHES:          0 PREFETCH ISSUED TO LOWER LEVEL:          0  ACCURACY: -nan
PSCL2 TIMELY PREFETCHES:          0 LATE PREFETCHES: 0 DROPPED PREFETCHES: 0
PSCL2 PREFETCHES SAME FILL-ORIGIN LEVEL: 0 DIFFERENT FILL-ORIGIN LEVEL: 0

LLC TOTAL     ACCESS:    7403988  HIT:    1627953  MISS:    5776035  HIT %:    21.9875  MISS %:    78.0125   MPKI: 57.7603
LLC LOAD      ACCESS:    2511498  HIT:     682409  MISS:    1829089  HIT %:    27.1714  MISS %:    72.8286   MPKI: 18.2909
LLC RFO       ACCESS:     209789  HIT:        218  MISS:     209571  HIT %:   0.103914  MISS %:    99.8961   MPKI: 2.09571
LLC PREFETCH  ACCESS:    4224101  HIT:     919025  MISS:    3305076  HIT %:    21.7567  MISS %:    78.2433   MPKI: 33.0508
LLC WRITEBACK ACCESS:     439827  HIT:      22112  MISS:     417715  HIT %:    5.02743  MISS %:    94.9726   MPKI: 4.17715
LLC LOAD TRANSLATION ACCESS:      18739  HIT:       4189  MISS:      14550  HIT %:    22.3544  MISS %:    77.6456   MPKI: 0.1455
LLC TRANSLATION FROM L1D PREFETCHER ACCESS:         34  HIT:          0  MISS:         34  HIT %:          0  MISS %:        100   MPKI: 0.00034
LLC PREFETCH  REQUESTED:          0  ISSUED:          0  USEFUL:       7453  USELESS:    3300107
LLC USEFUL LOAD PREFETCHES:       7453 PREFETCH ISSUED TO LOWER LEVEL:    3305075  ACCURACY: 0.225502
LLC TIMELY PREFETCHES:       7453 LATE PREFETCHES: 0 DROPPED PREFETCHES: 0
LLC PREFETCHES SAME FILL-ORIGIN LEVEL: 0 DIFFERENT FILL-ORIGIN LEVEL: 0
LLC AVERAGE MISS LATENCY: 134.09 cycles
LLC RQ	ACCESS:    2740060	FORWARD:          0	MERGED:          0	TO_CACHE:    2740060
LLC WQ	ACCESS:     439827	FORWARD:          0	MERGED:          0	TO_CACHE:     439827
LLC PQ	ACCESS:    4224099	FORWARD:          0	MERGED:          0	TO_CACHE:    4224099

LLC Dense regions hint to LLC: 0

RAW hits: 1300587
Loads Generated: 34744656
Loads sent to L1D: 33444070
Stores Generated: 24693636
Stores sent to L1D: 24693640
Major fault: 0 Minor fault: 29216
Allocated PAGES: 29216

stream: 
stream:times selected: 19728631
stream:pref_filled: 3241275
stream:pref_useful: 457373
stream:pref_late: 377256
stream:misses: 434353
stream:misses_by_poll: 0

CS: 
CS:times selected: 1171164
CS:pref_filled: 963646
CS:pref_useful: 958829
CS:pref_late: 7338
CS:misses: 12452
CS:misses_by_poll: 726

CPLX: 
CPLX:times selected: 18476945
CPLX:pref_filled: 1698047
CPLX:pref_useful: 866919
CPLX:pref_late: 1069375
CPLX:misses: 4506334
CPLX:misses_by_poll: 3839

NL_L1: 
NL:times selected: 213436
NL:pref_filled: 40977
NL:pref_useful: 19357
NL:pref_late: 4612
NL:misses: 106286
NL:misses_by_poll: 34

total selections: 39590176
total_filled: 3596038
total_useful: 1252164
total_late: 1490840
total_polluted: 4599
total_misses_after_warmup: 4027083
conflicts: 280194
Degree Incremented Times: 125893
Degree Decremented Times: 198339

L1 IP Table Write Accesses: 20431200
L1 IP Table Read Accesses: 20151006
L1 RST Write Accesses: 13087824
L1 RST Read Accesses: 26175648
L1 CSPT Write Accesses: 13087824
L1 CSPT Read Accesses: 25328905
L1 RR Filter Tag Write Accesses: 12788644
L1 RR Filter Tag Read Accesses: 611123278
L1 IP Table Tag Write Accesses: 21302048
L1 IP Table Tag Read Accesses: 21302048
L1 RST Tag Write Accesses: 0
L1 RST Tag Read Accesses: 123628342
L1 RR Filter Write Accesses: 0
L1 RR Filter Read Accesses: 20817112
test: 8035555
L2 IP Table Read Accesses: 13857815
L2 IP Table Write Accesses: 11415228
L2 IP Table Tag Read Accesses: 7050227
L2 IP Table Tag Write Accesses: 7050227

DRAM Statistics
 CHANNEL 0
 RQ ROW_BUFFER_HIT:    3212457  ROW_BUFFER_MISS:    2145857
 DBUS_CONGESTED:       8335
 WQ ROW_BUFFER_HIT:     111319  ROW_BUFFER_MISS:     324039  FULL:          0

 AVG_CONGESTED_CYCLE: 5
 All warmup complete: 2
Channel 0 Bank busy for read cycles: 0
Channel 0 Bank busy for write cycles: 0
Channel 0
Rank 0
0banks busy for read cycles: 70907344
0banks busy for write cycles: 65332
1banks busy for read cycles: 52356467
1banks busy for write cycles: 10487075
2banks busy for read cycles: 31316698
2banks busy for write cycles: 5050535
3banks busy for read cycles: 21165715
3banks busy for write cycles: 3132608
4banks busy for read cycles: 16219702
4banks busy for write cycles: 2192406
5banks busy for read cycles: 13463035
5banks busy for write cycles: 1742161
6banks busy for read cycles: 11177747
6banks busy for write cycles: 1627473
7banks busy for read cycles: 8716772
7banks busy for write cycles: 2253525
8banks busy for read cycles: 5523745
8banks busy for write cycles: 8728383

CPU 0 Branch Prediction Accuracy: 98.9588% MPKI: 1.19245 Average ROB Occupancy at Mispredict: 216.36
Branch types
NOT_BRANCH: 88547129 88.5471%
BRANCH_DIRECT_JUMP: 1149944 1.14994%
BRANCH_INDIRECT: 0 0%
BRANCH_CONDITIONAL: 10302647 10.3026%
BRANCH_DIRECT_CALL: 132 0.000132%
BRANCH_INDIRECT_CALL: 0 0%
BRANCH_RETURN: 132 0.000132%
BRANCH_OTHER: 0 0%

DRAM PAGES: 1048576
Allocated PAGES: 29216
