Initialize SIGNATURE TABLE
ST_SET: 1
ST_WAY: 16
ST_TAG_BIT: 16
ST_TAG_MASK: ffff

Initialize PATTERN TABLE
PT_SET: 16
PT_WAY: 4
SIG_DELTA_BIT: 7
C_SIG_BIT: 4
C_DELTA_BIT: 4

Initialize PREFETCH FILTER
FILTER_SET: 1024

Initialize PERCEPTRON
PERC_ENTRIES: 4096
PERC_FEATURES: 9

*** ChampSim Multicore Out-of-Order Simulator ***

Warmup Instructions: 50000000
Simulation Instructions: 100000000
Number of CPUs: 1
LLC sets: 2048
LLC ways: 16
Off-chip DRAM Size: 4096 MB Channels: 1 Width: 64-bit Data Rate: 6400 MT/s
CPU 0 runs ../SPEC2017//605.mcf_s-665B.champsimtrace.xz
.xz
BTB has LRU replacement policy
ITLB has LRU replacement policy
DTLB has LRU replacement policy
STLB has LRU replacement policy
L1I has LRU replacement policy
L1D has LRU replacement policy
Initialize SRRIP state for L2C
Initialize DRRIP state for LLC
Heartbeat CPU 0 instructions: 10000000 cycles: 3303230 heartbeat IPC: 3.02734 cumulative IPC: 3.02734 (Simulation time: 0 hr 8 min 31 sec) 
Heartbeat CPU 0 instructions: 20000000 cycles: 6607073 heartbeat IPC: 3.02678 cumulative IPC: 3.02706 (Simulation time: 0 hr 15 min 56 sec) 
Heartbeat CPU 0 instructions: 30000002 cycles: 9905348 heartbeat IPC: 3.03189 cumulative IPC: 3.02867 (Simulation time: 0 hr 22 min 22 sec) 
Heartbeat CPU 0 instructions: 40000003 cycles: 13204493 heartbeat IPC: 3.03109 cumulative IPC: 3.02927 (Simulation time: 0 hr 28 min 23 sec) 
Heartbeat CPU 0 instructions: 50000002 cycles: 16499758 heartbeat IPC: 3.03466 cumulative IPC: 3.03035 (Simulation time: 0 hr 33 min 46 sec) 

Warmup complete CPU 0 instructions: 50000002 cycles: 16499758 (Simulation time: 0 hr 33 min 46 sec) 

Heartbeat CPU 0 instructions: 60000003 cycles: 54299000 heartbeat IPC: 0.264556 cumulative IPC: 0.264556 (Simulation time: 0 hr 39 min 25 sec) 
Heartbeat CPU 0 instructions: 70000003 cycles: 91702910 heartbeat IPC: 0.267352 cumulative IPC: 0.265946 (Simulation time: 0 hr 45 min 3 sec) 
Heartbeat CPU 0 instructions: 80000001 cycles: 129129723 heartbeat IPC: 0.267188 cumulative IPC: 0.266359 (Simulation time: 0 hr 50 min 11 sec) 
Heartbeat CPU 0 instructions: 90000002 cycles: 164374648 heartbeat IPC: 0.283729 cumulative IPC: 0.270499 (Simulation time: 0 hr 54 min 32 sec) 
Heartbeat CPU 0 instructions: 100000000 cycles: 198687996 heartbeat IPC: 0.291432 cumulative IPC: 0.274441 (Simulation time: 0 hr 59 min 6 sec) 
Heartbeat CPU 0 instructions: 110000000 cycles: 232969671 heartbeat IPC: 0.291701 cumulative IPC: 0.277175 (Simulation time: 1 hr 3 min 42 sec) 
Heartbeat CPU 0 instructions: 120000000 cycles: 267023334 heartbeat IPC: 0.293654 cumulative IPC: 0.279415 (Simulation time: 1 hr 7 min 34 sec) 
Heartbeat CPU 0 instructions: 130000000 cycles: 301131027 heartbeat IPC: 0.293189 cumulative IPC: 0.281065 (Simulation time: 1 hr 17 min 15 sec) 
Heartbeat CPU 0 instructions: 140000002 cycles: 335980330 heartbeat IPC: 0.28695 cumulative IPC: 0.281707 (Simulation time: 1 hr 27 min 16 sec) 
Heartbeat CPU 0 instructions: 150000000 cycles: 370608776 heartbeat IPC: 0.28878 cumulative IPC: 0.282399 (Simulation time: 1 hr 36 min 35 sec) 
Finished CPU 0 instructions: 100000000 cycles: 354109020 cumulative IPC: 0.282399 (Simulation time: 1 hr 36 min 35 sec) 

ChampSim completed all CPUs

Region of Interest Statistics

CPU 0 cumulative IPC: 0.282399 instructions: 100000000 cycles: 354109020

CPU 0 Average Load ROB stall cycles: 8.96954e+07
CPU 0 Fraction of times ROB stalled by Loads: 45.3133
CPU 0 Percentage of Load stall cycles in Total stall cycles: 8.95316e+08
Issued all: 55610159
Issued LT all: 44061620
rob_not_full_when_issued_lt_all: 41800365
Issued LT one: 31963608
rob_not_full_when_issued_lt_one: 29986080
 Total stall cycles: 302263971
 Total load stall cycles: 2706218199582107
Unique Load IPs: 264
CPU 0 NUM of IPS identified critical: 16
CPU 0 Num of Load IPs stalling ROB: 0
Threshold modification factor: 0
Trouble in retire width: -nan
MaC = Marked as critical.
lt_50_percent_before_Mac: 9
gt_90_percent_before_Mac: 0
gt_75_percent_before_Mac: 3
gt_50_percent_before_Mac: 4
stall_proportion_bin_same_before_after: 0
stall_proportion_bin_lower_before_after: 0
stall_proportion_bin_upper_before_after: 0
average_stall_proportion_before: 0.0354113
average_stall_proportion_after: 0.0375123
Critical_IP_Detector_Accuracy_70: 0
Critical_IP_Detector_Accuracy_80: 0
Critical_IP_Detector_Accuracy_90: 0
Critical_IP_Detector_Coverage_70: 0
Critical_IP_Detector_Coverage_80: 0
Critical_IP_Detector_Coverage_90: 0
stat_90_percent_critical_ip_stalls_freq: 2570087
stat_90_percent_non_critical_ip_stalls_freq: 18446744073706981529
AVERAGE_ROB_Occupancy_90_Percent_Critical_IP_Stalls: 29.604
AVERAGE_ROB_Occupancy_90_Percent_Non_Critical_IP_Stalls: 1.67715e-11
Critical_IP_ROB_Stalls_Bucket_0: 2720856
Non-critical_IP_ROB_Stalls_Bucket_0: 9240536
Critical_IP_ROB_Stalls_Bucket_1: 304129
Non-critical_IP_ROB_Stalls_Bucket_1: 843379
Critical_IP_ROB_Stalls_Bucket_2: 89420
Non-critical_IP_ROB_Stalls_Bucket_2: 199043
Critical_IP_ROB_Stalls_Bucket_3: 31670
Non-critical_IP_ROB_Stalls_Bucket_3: 67295
Critical_IP_ROB_Stalls_Bucket_4: 18489
Non-critical_IP_ROB_Stalls_Bucket_4: 34681
Critical_IP_ROB_Stalls_Bucket_5: 7953
Non-critical_IP_ROB_Stalls_Bucket_5: 21630
Critical_IP_ROB_Stalls_Bucket_6: 11481
Non-critical_IP_ROB_Stalls_Bucket_6: 80998
0 => IPs accounting for >50 percent of stalls, 1 => 55, 2 => 60, 3 => 65 and so on till 90.
percent50: inf num IPs:  1
percent55: inf num IPs: 1
percent60: inf num IPs: 1
percent65: inf num IPs: 1
percent70: inf num IPs: 1
percent75: inf num IPs: 1
percent80: inf num IPs: 1
percent85: inf num IPs: 1
percent90: inf num IPs: 1
Critical_ROB_Stalls_Percent_0_Bucket_0: 2189153
Non-critical_ROB_Stalls_Percent_0_Bucket_0: 9772239
Critical_ROB_Stalls_Percent_0_Bucket_1: 236373
Non-critical_ROB_Stalls_Percent_0_Bucket_1: 911135
Critical_ROB_Stalls_Percent_0_Bucket_2: 75238
Non-critical_ROB_Stalls_Percent_0_Bucket_2: 213225
Critical_ROB_Stalls_Percent_0_Bucket_3: 22069
Non-critical_ROB_Stalls_Percent_0_Bucket_3: 76896
Critical_ROB_Stalls_Percent_0_Bucket_4: 14551
Non-critical_ROB_Stalls_Percent_0_Bucket_4: 38619
Critical_ROB_Stalls_Percent_0_Bucket_5: 7942
Non-critical_ROB_Stalls_Percent_0_Bucket_5: 21641
Critical_ROB_Stalls_Percent_0_Bucket_6: 24761
Non-critical_ROB_Stalls_Percent_0_Bucket_6: 67718
Critical_ROB_Stalls_Percent_1_Bucket_0: 2189153
Non-critical_ROB_Stalls_Percent_1_Bucket_0: 9772239
Critical_ROB_Stalls_Percent_1_Bucket_1: 236373
Non-critical_ROB_Stalls_Percent_1_Bucket_1: 911135
Critical_ROB_Stalls_Percent_1_Bucket_2: 75238
Non-critical_ROB_Stalls_Percent_1_Bucket_2: 213225
Critical_ROB_Stalls_Percent_1_Bucket_3: 22069
Non-critical_ROB_Stalls_Percent_1_Bucket_3: 76896
Critical_ROB_Stalls_Percent_1_Bucket_4: 14551
Non-critical_ROB_Stalls_Percent_1_Bucket_4: 38619
Critical_ROB_Stalls_Percent_1_Bucket_5: 7942
Non-critical_ROB_Stalls_Percent_1_Bucket_5: 21641
Critical_ROB_Stalls_Percent_1_Bucket_6: 24761
Non-critical_ROB_Stalls_Percent_1_Bucket_6: 67718
Critical_ROB_Stalls_Percent_2_Bucket_0: 2189153
Non-critical_ROB_Stalls_Percent_2_Bucket_0: 9772239
Critical_ROB_Stalls_Percent_2_Bucket_1: 236373
Non-critical_ROB_Stalls_Percent_2_Bucket_1: 911135
Critical_ROB_Stalls_Percent_2_Bucket_2: 75238
Non-critical_ROB_Stalls_Percent_2_Bucket_2: 213225
Critical_ROB_Stalls_Percent_2_Bucket_3: 22069
Non-critical_ROB_Stalls_Percent_2_Bucket_3: 76896
Critical_ROB_Stalls_Percent_2_Bucket_4: 14551
Non-critical_ROB_Stalls_Percent_2_Bucket_4: 38619
Critical_ROB_Stalls_Percent_2_Bucket_5: 7942
Non-critical_ROB_Stalls_Percent_2_Bucket_5: 21641
Critical_ROB_Stalls_Percent_2_Bucket_6: 24761
Non-critical_ROB_Stalls_Percent_2_Bucket_6: 67718
Critical_ROB_Stalls_Percent_3_Bucket_0: 2189153
Non-critical_ROB_Stalls_Percent_3_Bucket_0: 9772239
Critical_ROB_Stalls_Percent_3_Bucket_1: 236373
Non-critical_ROB_Stalls_Percent_3_Bucket_1: 911135
Critical_ROB_Stalls_Percent_3_Bucket_2: 75238
Non-critical_ROB_Stalls_Percent_3_Bucket_2: 213225
Critical_ROB_Stalls_Percent_3_Bucket_3: 22069
Non-critical_ROB_Stalls_Percent_3_Bucket_3: 76896
Critical_ROB_Stalls_Percent_3_Bucket_4: 14551
Non-critical_ROB_Stalls_Percent_3_Bucket_4: 38619
Critical_ROB_Stalls_Percent_3_Bucket_5: 7942
Non-critical_ROB_Stalls_Percent_3_Bucket_5: 21641
Critical_ROB_Stalls_Percent_3_Bucket_6: 24761
Non-critical_ROB_Stalls_Percent_3_Bucket_6: 67718
Critical_ROB_Stalls_Percent_4_Bucket_0: 2189153
Non-critical_ROB_Stalls_Percent_4_Bucket_0: 9772239
Critical_ROB_Stalls_Percent_4_Bucket_1: 236373
Non-critical_ROB_Stalls_Percent_4_Bucket_1: 911135
Critical_ROB_Stalls_Percent_4_Bucket_2: 75238
Non-critical_ROB_Stalls_Percent_4_Bucket_2: 213225
Critical_ROB_Stalls_Percent_4_Bucket_3: 22069
Non-critical_ROB_Stalls_Percent_4_Bucket_3: 76896
Critical_ROB_Stalls_Percent_4_Bucket_4: 14551
Non-critical_ROB_Stalls_Percent_4_Bucket_4: 38619
Critical_ROB_Stalls_Percent_4_Bucket_5: 7942
Non-critical_ROB_Stalls_Percent_4_Bucket_5: 21641
Critical_ROB_Stalls_Percent_4_Bucket_6: 24761
Non-critical_ROB_Stalls_Percent_4_Bucket_6: 67718
Critical_ROB_Stalls_Percent_5_Bucket_0: 2189153
Non-critical_ROB_Stalls_Percent_5_Bucket_0: 9772239
Critical_ROB_Stalls_Percent_5_Bucket_1: 236373
Non-critical_ROB_Stalls_Percent_5_Bucket_1: 911135
Critical_ROB_Stalls_Percent_5_Bucket_2: 75238
Non-critical_ROB_Stalls_Percent_5_Bucket_2: 213225
Critical_ROB_Stalls_Percent_5_Bucket_3: 22069
Non-critical_ROB_Stalls_Percent_5_Bucket_3: 76896
Critical_ROB_Stalls_Percent_5_Bucket_4: 14551
Non-critical_ROB_Stalls_Percent_5_Bucket_4: 38619
Critical_ROB_Stalls_Percent_5_Bucket_5: 7942
Non-critical_ROB_Stalls_Percent_5_Bucket_5: 21641
Critical_ROB_Stalls_Percent_5_Bucket_6: 24761
Non-critical_ROB_Stalls_Percent_5_Bucket_6: 67718
Critical_ROB_Stalls_Percent_6_Bucket_0: 2189153
Non-critical_ROB_Stalls_Percent_6_Bucket_0: 9772239
Critical_ROB_Stalls_Percent_6_Bucket_1: 236373
Non-critical_ROB_Stalls_Percent_6_Bucket_1: 911135
Critical_ROB_Stalls_Percent_6_Bucket_2: 75238
Non-critical_ROB_Stalls_Percent_6_Bucket_2: 213225
Critical_ROB_Stalls_Percent_6_Bucket_3: 22069
Non-critical_ROB_Stalls_Percent_6_Bucket_3: 76896
Critical_ROB_Stalls_Percent_6_Bucket_4: 14551
Non-critical_ROB_Stalls_Percent_6_Bucket_4: 38619
Critical_ROB_Stalls_Percent_6_Bucket_5: 7942
Non-critical_ROB_Stalls_Percent_6_Bucket_5: 21641
Critical_ROB_Stalls_Percent_6_Bucket_6: 24761
Non-critical_ROB_Stalls_Percent_6_Bucket_6: 67718
Critical_ROB_Stalls_Percent_7_Bucket_0: 2189153
Non-critical_ROB_Stalls_Percent_7_Bucket_0: 9772239
Critical_ROB_Stalls_Percent_7_Bucket_1: 236373
Non-critical_ROB_Stalls_Percent_7_Bucket_1: 911135
Critical_ROB_Stalls_Percent_7_Bucket_2: 75238
Non-critical_ROB_Stalls_Percent_7_Bucket_2: 213225
Critical_ROB_Stalls_Percent_7_Bucket_3: 22069
Non-critical_ROB_Stalls_Percent_7_Bucket_3: 76896
Critical_ROB_Stalls_Percent_7_Bucket_4: 14551
Non-critical_ROB_Stalls_Percent_7_Bucket_4: 38619
Critical_ROB_Stalls_Percent_7_Bucket_5: 7942
Non-critical_ROB_Stalls_Percent_7_Bucket_5: 21641
Critical_ROB_Stalls_Percent_7_Bucket_6: 24761
Non-critical_ROB_Stalls_Percent_7_Bucket_6: 67718
Critical_ROB_Stalls_Percent_8_Bucket_0: 2189153
Non-critical_ROB_Stalls_Percent_8_Bucket_0: 9772239
Critical_ROB_Stalls_Percent_8_Bucket_1: 236373
Non-critical_ROB_Stalls_Percent_8_Bucket_1: 911135
Critical_ROB_Stalls_Percent_8_Bucket_2: 75238
Non-critical_ROB_Stalls_Percent_8_Bucket_2: 213225
Critical_ROB_Stalls_Percent_8_Bucket_3: 22069
Non-critical_ROB_Stalls_Percent_8_Bucket_3: 76896
Critical_ROB_Stalls_Percent_8_Bucket_4: 14551
Non-critical_ROB_Stalls_Percent_8_Bucket_4: 38619
Critical_ROB_Stalls_Percent_8_Bucket_5: 7942
Non-critical_ROB_Stalls_Percent_8_Bucket_5: 21641
Critical_ROB_Stalls_Percent_8_Bucket_6: 24761
Non-critical_ROB_Stalls_Percent_8_Bucket_6: 67718
Average ROB occupancy Load Stall Begin: 24.2249
Average ROB occupancy Load Stall End: 28.1946
Min ROB occupancy Load Stall Begin: 1
Max ROB occupancy Load Stall Begin: 352
Min ROB occupancy Load Stall End: 1
Max ROB occupancy Load Stall End: 352
Average ROB occupancy Critical Load Stall Begin: 24.687
Average ROB occupancy Critical Load Stall End: 28.8541
Min ROB occupancy Critical Load Stall Begin: 2
Max ROB occupancy Critical Load Stall Begin: 352
Min ROB occupancy Critical Load Stall End: 2
Max ROB occupancy Critical Load Stall End: 352
 ROB Load Stall Begin Bucket Count 0: 12254343
 ROB Load Stall End Bucket Count 0: 11961392
 ROB Critical Load Stall Begin Bucket Count 0: 1519044
 ROB Critical Load Stall End Bucket Count 0: 1450547
 ROB Load Stall Begin Bucket Count 1: 935110
 ROB Load Stall End Bucket Count 1: 1147508
 ROB Critical Load Stall Begin Bucket Count 1: 133265
 ROB Critical Load Stall End Bucket Count 1: 177343
 ROB Load Stall Begin Bucket Count 2: 239558
 ROB Load Stall End Bucket Count 2: 288463
 ROB Critical Load Stall Begin Bucket Count 2: 39289
 ROB Critical Load Stall End Bucket Count 2: 56525
 ROB Load Stall Begin Bucket Count 3: 81528
 ROB Load Stall End Bucket Count 3: 98965
 ROB Critical Load Stall Begin Bucket Count 3: 14166
 ROB Critical Load Stall End Bucket Count 3: 15694
 ROB Load Stall Begin Bucket Count 4: 46149
 ROB Load Stall End Bucket Count 4: 53170
 ROB Critical Load Stall Begin Bucket Count 4: 6899
 ROB Critical Load Stall End Bucket Count 4: 10653
 ROB Load Stall Begin Bucket Count 5: 27273
 ROB Load Stall End Bucket Count 5: 29583
 ROB Critical Load Stall Begin Bucket Count 5: 3304
 ROB Critical Load Stall End Bucket Count 5: 3923
 ROB Load Stall Begin Bucket Count 6: 87599
 ROB Load Stall End Bucket Count 6: 92479
 ROB Critical Load Stall Begin Bucket Count 6: 3697
 ROB Critical Load Stall End Bucket Count 6: 4980
PIST Tag Read Accesses: 0
PIST Read Accesses: 0
PIST Tag Write Accesses: 0
PIST Write Accesses: 0
Criticality detector called times: 0
Max global_stall_cycles_count: 0
Threshold Modified: 0 times, factor: 0
Sturdy critical IP cache stats: 
 Unused entries: 0
CIC Tag Read Accesses: 0
CIC Read Accesses: 0
CIC Tag Write Accesses: 0
CIC Write Accesses: 0
Wobbly critical IP cache stats: 
 Unused entries: 5
CIC Tag Read Accesses: 422881090
CIC Read Accesses: 0
CIC Tag Write Accesses: 8046904
CIC Write Accesses: 0
ITLB TOTAL     ACCESS:   18144251  HIT:   18144251  MISS:          0  HIT %:        100  MISS %:          0   MPKI: 0
ITLB LOAD TRANSLATION ACCESS:   18144251  HIT:   18144251  MISS:          0  HIT %:        100  MISS %:          0   MPKI: 0
ITLB PREFETCH  REQUESTED:          0  ISSUED:          0  USEFUL:          0  USELESS:          0
ITLB USEFUL LOAD PREFETCHES:          0 PREFETCH ISSUED TO LOWER LEVEL:          0  ACCURACY: -nan
ITLB TIMELY PREFETCHES:          0 LATE PREFETCHES: 0 DROPPED PREFETCHES: 0
ITLB PREFETCHES SAME FILL-ORIGIN LEVEL: 0 DIFFERENT FILL-ORIGIN LEVEL: 0
ITLB AVERAGE MISS LATENCY: -nan cycles
ITLB RQ	ACCESS:   18994163	FORWARD:          0	MERGED:     849913	TO_CACHE:   18144250

DTLB TOTAL     ACCESS:   31064391  HIT:   29489735  MISS:    1574656  HIT %:     94.931  MISS %:    5.06901   MPKI: 15.7466
DTLB LOAD TRANSLATION ACCESS:   31064391  HIT:   29489735  MISS:    1574656  HIT %:     94.931  MISS %:    5.06901   MPKI: 15.7466
DTLB PREFETCH  REQUESTED:          0  ISSUED:          0  USEFUL:          0  USELESS:          0
DTLB USEFUL LOAD PREFETCHES:          0 PREFETCH ISSUED TO LOWER LEVEL:          0  ACCURACY: -nan
DTLB TIMELY PREFETCHES:          0 LATE PREFETCHES: 0 DROPPED PREFETCHES: 0
DTLB PREFETCHES SAME FILL-ORIGIN LEVEL: 0 DIFFERENT FILL-ORIGIN LEVEL: 0
DTLB AVERAGE MISS LATENCY: 10.5939 cycles
DTLB RQ	ACCESS:   37831664	FORWARD:          0	MERGED:    6578475	TO_CACHE:   31253189

STLB TOTAL     ACCESS:    1574656  HIT:    1551446  MISS:      23210  HIT %:     98.526  MISS %:    1.47397   MPKI: 0.2321
STLB LOAD TRANSLATION ACCESS:    1574656  HIT:    1551446  MISS:      23210  HIT %:     98.526  MISS %:    1.47397   MPKI: 0.2321
STLB PREFETCH  REQUESTED:          0  ISSUED:          0  USEFUL:          0  USELESS:          0
STLB USEFUL LOAD PREFETCHES:          0 PREFETCH ISSUED TO LOWER LEVEL:          0  ACCURACY: -nan
STLB TIMELY PREFETCHES:          0 LATE PREFETCHES: 0 DROPPED PREFETCHES: 0
STLB PREFETCHES SAME FILL-ORIGIN LEVEL: 0 DIFFERENT FILL-ORIGIN LEVEL: 0
STLB AVERAGE MISS LATENCY: 101.078 cycles
STLB RQ	ACCESS:    1574656	FORWARD:          0	MERGED:          0	TO_CACHE:    1574656

STLB Hit, L1D data hit: 0
STLB Hit, L2C data hit: 0
STLB Hit, LLC data hit: 0
STLB Hit, LLC data miss: 0
STLB STLB hints to L2: 0
L1D TOTAL     ACCESS:   37147293  HIT:   33560298  MISS:    3586995  HIT %:    90.3439  MISS %:    9.65614   MPKI: 35.87
L1D LOAD      ACCESS:   26059849  HIT:   22849417  MISS:    3210432  HIT %:    87.6805  MISS %:    12.3195   MPKI: 32.1043
L1D RFO       ACCESS:   11087444  HIT:   10710881  MISS:     376563  HIT %:    96.6037  MISS %:     3.3963   MPKI: 3.76563
L1D PREFETCH  REQUESTED:          0  ISSUED:          0  USEFUL:          0  USELESS:          0
L1D USEFUL LOAD PREFETCHES:          0 PREFETCH ISSUED TO LOWER LEVEL:          0  ACCURACY: -nan
L1D TIMELY PREFETCHES:          0 LATE PREFETCHES: 0 DROPPED PREFETCHES: 0
L1D PREFETCHES SAME FILL-ORIGIN LEVEL: 0 DIFFERENT FILL-ORIGIN LEVEL: 0
L1D AVERAGE MISS LATENCY: 52.2805 cycles
L1D RQ	ACCESS:   33577752	FORWARD:          0	MERGED:    6329007	TO_CACHE:   26119018
L1D WQ	ACCESS:   11754634	FORWARD:    1129727	MERGED:      41988	TO_CACHE:   11712646

L1D UNIQUE REGIONS ACCESSED: 0
L1D REGIONS CONFLICTS: 0
L1D Cross Page Prefetch Requests: 0
L1D Same Page Prefetch Requests: 0
L1D ROI Sum of L1D PQ occupancy: 0
L1D PREFETCHES PUSHED FROM L2C: 0
L1I TOTAL     ACCESS:   18994164  HIT:   18994162  MISS:          2  HIT %:        100  MISS %: 1.05296e-05   MPKI: 2e-05
L1I LOAD      ACCESS:   18994164  HIT:   18994162  MISS:          2  HIT %:        100  MISS %: 1.05296e-05   MPKI: 2e-05
L1I PREFETCH  REQUESTED:          0  ISSUED:          0  USEFUL:          0  USELESS:          0
L1I USEFUL LOAD PREFETCHES:          0 PREFETCH ISSUED TO LOWER LEVEL:          0  ACCURACY: -nan
L1I TIMELY PREFETCHES:          0 LATE PREFETCHES: 0 DROPPED PREFETCHES: 0
L1I PREFETCHES SAME FILL-ORIGIN LEVEL: 0 DIFFERENT FILL-ORIGIN LEVEL: 0
L1I AVERAGE MISS LATENCY: 214 cycles
L1I RQ	ACCESS:   30756786	FORWARD:          0	MERGED:   11762623	TO_CACHE:   18994163

BTB TOTAL     ACCESS:   23681315  HIT:   22481474  MISS:    1199841  HIT %:    94.9334  MISS %:    5.06661   MPKI: 11.9984
BTB BRANCH_DIRECT_JUMP	ACCESS:    2599450  HIT:    2599413  MISS:         37
BTB BRANCH_INDIRECT	ACCESS:          0  HIT:          0  MISS:          0
BTB BRANCH_CONDITIONAL	ACCESS:   15578423  HIT:   15578344  MISS:         79
BTB BRANCH_DIRECT_CALL	ACCESS:    2602035  HIT:    2602017  MISS:         18
BTB BRANCH_INDIRECT_CALL	ACCESS:     149686  HIT:     149678  MISS:          8
BTB BRANCH_RETURN	ACCESS:    2751721  HIT:    1552022  MISS:    1199699
BTB BRANCH_OTHER ACCESS:          0  HIT:          0  MISS:          0

L2C TOTAL     ACCESS:    4823402  HIT:    2606025  MISS:    2217377  HIT %:    54.0288  MISS %:    45.9712   MPKI: 22.1738
L2C LOAD      ACCESS:    3210420  HIT:    1630342  MISS:    1580078  HIT %:    50.7828  MISS %:    49.2172   MPKI: 15.8008
L2C DATA LOAD MPKI: 15.8008
L2C INSTRUCTION LOAD MPKI: 2e-05
L2C RFO       ACCESS:     376560  HIT:     310634  MISS:      65926  HIT %:    82.4926  MISS %:    17.5074   MPKI: 0.65926
L2C PREFETCH  ACCESS:     693009  HIT:     133683  MISS:     559326  HIT %:    19.2902  MISS %:    80.7098   MPKI: 5.59326
L2C DATA PREFETCH MPKI: 5.59326
L2C INSTRUCTION PREFETCH MPKI: 0
L2C WRITEBACK ACCESS:     519986  HIT:     517876  MISS:       2110  HIT %:    99.5942  MISS %:    0.40578   MPKI: 0.0211
L2C LOAD TRANSLATION ACCESS:      23427  HIT:      13490  MISS:       9937  HIT %:    57.5831  MISS %:    42.4169   MPKI: 0.09937
L2C PREFETCH  REQUESTED:     865254  ISSUED:     865252  USEFUL:     461441  USELESS:      98349
L2C USEFUL LOAD PREFETCHES:     461441 PREFETCH ISSUED TO LOWER LEVEL:     709107  ACCURACY: 65.0735
L2C TIMELY PREFETCHES:     461441 LATE PREFETCHES: 28708 DROPPED PREFETCHES: 0
L2C PREFETCHES SAME FILL-ORIGIN LEVEL: 588034 DIFFERENT FILL-ORIGIN LEVEL: 121073
L2C AVERAGE MISS LATENCY: 95.279 cycles
L2C RQ	ACCESS:    3610424	FORWARD:          0	MERGED:          0	TO_CACHE:    3610407
L2C WQ	ACCESS:     519986	FORWARD:         17	MERGED:          0	TO_CACHE:     519986
L2C PQ	ACCESS:     865252	FORWARD:          0	MERGED:       4964	TO_CACHE:     860288

L2C Instructions Evicting Data 2
L2C Translations Evicting Data 9881
L2C Data Evicting Data 2195452
L2C Instructions Evicting Instructions 0
L2C Translations Evicting Instructions 0
L2C Data Evicting Instructions 2
L2C Instructions Evicting Translations 0
L2C Translations Evicting Translations 56
L2C Data Evicting Translations 9874
L2C Dense regions hint from L2: 0
PSCL5 TOTAL     ACCESS:      23210  HIT:      23210  MISS:          0  HIT %:        100  MISS %:          0   MPKI: 0
PSCL5 LOAD TRANSLATION ACCESS:      23210  HIT:      23210  MISS:          0  HIT %:        100  MISS %:          0   MPKI: 0
PSCL5 PREFETCH  REQUESTED:          0  ISSUED:          0  USEFUL:          0  USELESS:          0
PSCL5 USEFUL LOAD PREFETCHES:          0 PREFETCH ISSUED TO LOWER LEVEL:          0  ACCURACY: -nan
PSCL5 TIMELY PREFETCHES:          0 LATE PREFETCHES: 0 DROPPED PREFETCHES: 0
PSCL5 PREFETCHES SAME FILL-ORIGIN LEVEL: 0 DIFFERENT FILL-ORIGIN LEVEL: 0

PSCL4 TOTAL     ACCESS:      23210  HIT:      23210  MISS:          0  HIT %:        100  MISS %:          0   MPKI: 0
PSCL4 LOAD TRANSLATION ACCESS:      23210  HIT:      23210  MISS:          0  HIT %:        100  MISS %:          0   MPKI: 0
PSCL4 PREFETCH  REQUESTED:          0  ISSUED:          0  USEFUL:          0  USELESS:          0
PSCL4 USEFUL LOAD PREFETCHES:          0 PREFETCH ISSUED TO LOWER LEVEL:          0  ACCURACY: -nan
PSCL4 TIMELY PREFETCHES:          0 LATE PREFETCHES: 0 DROPPED PREFETCHES: 0
PSCL4 PREFETCHES SAME FILL-ORIGIN LEVEL: 0 DIFFERENT FILL-ORIGIN LEVEL: 0

PSCL3 TOTAL     ACCESS:      23210  HIT:      23210  MISS:          0  HIT %:        100  MISS %:          0   MPKI: 0
PSCL3 LOAD TRANSLATION ACCESS:      23210  HIT:      23210  MISS:          0  HIT %:        100  MISS %:          0   MPKI: 0
PSCL3 PREFETCH  REQUESTED:          0  ISSUED:          0  USEFUL:          0  USELESS:          0
PSCL3 USEFUL LOAD PREFETCHES:          0 PREFETCH ISSUED TO LOWER LEVEL:          0  ACCURACY: -nan
PSCL3 TIMELY PREFETCHES:          0 LATE PREFETCHES: 0 DROPPED PREFETCHES: 0
PSCL3 PREFETCHES SAME FILL-ORIGIN LEVEL: 0 DIFFERENT FILL-ORIGIN LEVEL: 0

PSCL2 TOTAL     ACCESS:      23210  HIT:      22878  MISS:        332  HIT %:    98.5696  MISS %:    1.43042   MPKI: 0.00332
PSCL2 LOAD TRANSLATION ACCESS:      23210  HIT:      22878  MISS:        332  HIT %:    98.5696  MISS %:    1.43042   MPKI: 0.00332
PSCL2 PREFETCH  REQUESTED:          0  ISSUED:          0  USEFUL:          0  USELESS:          0
PSCL2 USEFUL LOAD PREFETCHES:          0 PREFETCH ISSUED TO LOWER LEVEL:          0  ACCURACY: -nan
PSCL2 TIMELY PREFETCHES:          0 LATE PREFETCHES: 0 DROPPED PREFETCHES: 0
PSCL2 PREFETCHES SAME FILL-ORIGIN LEVEL: 0 DIFFERENT FILL-ORIGIN LEVEL: 0

LLC TOTAL     ACCESS:    2458831  HIT:    1320649  MISS:    1138182  HIT %:    53.7104  MISS %:    46.2896   MPKI: 11.3818
LLC LOAD      ACCESS:    1551369  HIT:     996392  MISS:     554977  HIT %:    64.2266  MISS %:    35.7734   MPKI: 5.54977
LLC RFO       ACCESS:      65921  HIT:      64269  MISS:       1652  HIT %:     97.494  MISS %:    2.50603   MPKI: 0.01652
LLC PREFETCH  ACCESS:     709031  HIT:     138310  MISS:     570721  HIT %:    19.5069  MISS %:    80.4931   MPKI: 5.70721
LLC WRITEBACK ACCESS:     122573  HIT:     114438  MISS:       8135  HIT %:    93.3631  MISS %:    6.63686   MPKI: 0.08135
LLC LOAD TRANSLATION ACCESS:       9937  HIT:       7240  MISS:       2697  HIT %:     72.859  MISS %:     27.141   MPKI: 0.02697
LLC PREFETCH  REQUESTED:          0  ISSUED:          0  USEFUL:      28063  USELESS:     540275
LLC USEFUL LOAD PREFETCHES:      28063 PREFETCH ISSUED TO LOWER LEVEL:     570722  ACCURACY: 4.91711
LLC TIMELY PREFETCHES:      28063 LATE PREFETCHES: 1 DROPPED PREFETCHES: 0
LLC PREFETCHES SAME FILL-ORIGIN LEVEL: 59720 DIFFERENT FILL-ORIGIN LEVEL: 0
LLC AVERAGE MISS LATENCY: 138.717 cycles
LLC RQ	ACCESS:    1627233	FORWARD:          0	MERGED:          0	TO_CACHE:    1627227
LLC WQ	ACCESS:     122573	FORWARD:          7	MERGED:          0	TO_CACHE:     122573
LLC PQ	ACCESS:     709107	FORWARD:          0	MERGED:         27	TO_CACHE:     709079

LLC Dense regions hint to LLC: 0

RAW hits: 1544497
Loads Generated: 35122249
Loads sent to L1D: 33577752
Stores Generated: 11754604
Stores sent to L1D: 11754634
Major fault: 0 Minor fault: 20569
Allocated PAGES: 20569
------------------
Depth Distribution
------------------
depth 0: 1352282
depth 1: 482503
depth 2: 381126
depth 3: 42914
depth 4: 27431
depth 5: 52320
depth 6: 61306
depth 7: 122918
depth 8: 138476
depth 9: 90086
depth 10: 6209
depth 11: 8980
depth 12: 373
depth 13: 4
depth 14: 0
depth 15: 0
depth 16: 0
depth 17: 0
depth 18: 0
depth 19: 0
depth 20: 0
depth 21: 0
depth 22: 0
depth 23: 0
depth 24: 0
depth 25: 0
depth 26: 0
depth 27: 0
depth 28: 0
depth 29: 0
Total: 2766928
------------------
ST read accesses: 633763
ST write accesses: 991531
PT read accesses: 27875876
PT write accesses: 878456
FILTER read accesses: 10358286
FILTER write accesses: 6906057
GHR read accesses: 9617982
GHR write accesses: 298000
PERC read accesses: 205948467
PERC write accesses: 7551708
GHR counter read accesses: 3250588
GHR counter write accesses: 2975553
GHR ip read accesses: 11193105
GHR ip write accesses: 6501176
ST tag read accesses: 71560384
ST tag write accesses: 17752675

DRAM Statistics
 CHANNEL 0
 RQ ROW_BUFFER_HIT:     469289  ROW_BUFFER_MISS:     660756
 DBUS_CONGESTED:        266
 WQ ROW_BUFFER_HIT:       4370  ROW_BUFFER_MISS:      18400  FULL:          0

 AVG_CONGESTED_CYCLE: 4
 All warmup complete: 2
Channel 0 Bank busy for read cycles: 0
Channel 0 Bank busy for write cycles: 0
Channel 0
Rank 0
0banks busy for read cycles: 287337857
0banks busy for write cycles: 18242
1banks busy for read cycles: 31759615
1banks busy for write cycles: 3374786
2banks busy for read cycles: 15647757
2banks busy for write cycles: 450809
3banks busy for read cycles: 8024739
3banks busy for write cycles: 95942
4banks busy for read cycles: 3901118
4banks busy for write cycles: 32115
5banks busy for read cycles: 1845431
5banks busy for write cycles: 10215
6banks busy for read cycles: 868672
6banks busy for write cycles: 5996
7banks busy for read cycles: 418661
7banks busy for write cycles: 3513
8banks busy for read cycles: 309586
8banks busy for write cycles: 3967

CPU 0 Branch Prediction Accuracy: 93.0034% MPKI: 17.3454 Average ROB Occupancy at Mispredict: 19.6742
Branch types
NOT_BRANCH: 75208488 75.2085%
BRANCH_DIRECT_JUMP: 2599450 2.59945%
BRANCH_INDIRECT: 0 0%
BRANCH_CONDITIONAL: 16688242 16.6882%
BRANCH_DIRECT_CALL: 2602035 2.60203%
BRANCH_INDIRECT_CALL: 149686 0.149686%
BRANCH_RETURN: 2751721 2.75172%
BRANCH_OTHER: 0 0%

DRAM PAGES: 1048576
Allocated PAGES: 20569
