
*** ChampSim Multicore Out-of-Order Simulator ***

Warmup Instructions: 50000000
Simulation Instructions: 100000000
Number of CPUs: 1
LLC sets: 2048
LLC ways: 16
Off-chip DRAM Size: 4096 MB Channels: 1 Width: 64-bit Data Rate: 6400 MT/s
CPU 0 runs ../SPEC2017//605.mcf_s-782B.champsimtrace.xz
.xz
NUM_OF_IPS_IN_CRITICAL_IP_TRAINING: 64
NUM_OF_CRITICAL_IP_TRAINING_TABLE_WAYS: 2
NUM_OF_CRITICAL_IP_TRAINING_TABLE_SETS: 32
WOBBLY_CRITICAL_IP_CACHE_SETS: 32
WOBBLY_CRITICAL_IP_CACHE_WAYS: 4
BTB has LRU replacement policy
ITLB has LRU replacement policy
DTLB has LRU replacement policy
STLB has LRU replacement policy
L1I has LRU replacement policy
L1D has LRU replacement policy
Bingo PHT WAYS: 16 and PHT_SIZE: 16384
Initialize SRRIP state for L2C
Initialize DRRIP state for LLC
Heartbeat CPU 0 instructions: 10000001 cycles: 3721495 heartbeat IPC: 2.68709 cumulative IPC: 2.68709 (Simulation time: 0 hr 10 min 28 sec) 
Heartbeat CPU 0 instructions: 20000000 cycles: 7422322 heartbeat IPC: 2.7021 cumulative IPC: 2.69457 (Simulation time: 0 hr 19 min 13 sec) 
Heartbeat CPU 0 instructions: 30000000 cycles: 11171143 heartbeat IPC: 2.66751 cumulative IPC: 2.68549 (Simulation time: 0 hr 27 min 21 sec) 
Heartbeat CPU 0 instructions: 40000003 cycles: 14894316 heartbeat IPC: 2.68588 cumulative IPC: 2.68559 (Simulation time: 0 hr 34 min 40 sec) 
Heartbeat CPU 0 instructions: 50000000 cycles: 18650536 heartbeat IPC: 2.66225 cumulative IPC: 2.68089 (Simulation time: 0 hr 41 min 2 sec) 

Warmup complete CPU 0 instructions: 50000001 cycles: 18650537 (Simulation time: 0 hr 41 min 2 sec) 

% increase in all ip prefetch 865.884
% increase in all ip prefetch 3.98517
Heartbeat CPU 0 instructions: 60000000 cycles: 64305695 heartbeat IPC: 0.219033 cumulative IPC: 0.219033 (Simulation time: 0 hr 47 min 12 sec) 
Heartbeat CPU 0 instructions: 70000002 cycles: 109556400 heartbeat IPC: 0.220991 cumulative IPC: 0.220008 (Simulation time: 0 hr 52 min 6 sec) 
Heartbeat CPU 0 instructions: 80000002 cycles: 154815341 heartbeat IPC: 0.220951 cumulative IPC: 0.220321 (Simulation time: 0 hr 55 min 3 sec) 
Heartbeat CPU 0 instructions: 90000000 cycles: 202663408 heartbeat IPC: 0.208995 cumulative IPC: 0.217376 (Simulation time: 0 hr 57 min 8 sec) 
Heartbeat CPU 0 instructions: 100000001 cycles: 253310570 heartbeat IPC: 0.197444 cumulative IPC: 0.213074 (Simulation time: 0 hr 58 min 55 sec) 
Heartbeat CPU 0 instructions: 110000000 cycles: 307288718 heartbeat IPC: 0.18526 cumulative IPC: 0.207873 (Simulation time: 1 hr 0 min 2 sec) 
Heartbeat CPU 0 instructions: 120000000 cycles: 358591960 heartbeat IPC: 0.194919 cumulative IPC: 0.205918 (Simulation time: 1 hr 0 min 49 sec) 
Heartbeat CPU 0 instructions: 130000003 cycles: 406117550 heartbeat IPC: 0.210413 cumulative IPC: 0.206469 (Simulation time: 1 hr 1 min 37 sec) 
Heartbeat CPU 0 instructions: 140000001 cycles: 451931983 heartbeat IPC: 0.218272 cumulative IPC: 0.207717 (Simulation time: 1 hr 2 min 21 sec) 
Heartbeat CPU 0 instructions: 150000000 cycles: 498421639 heartbeat IPC: 0.215102 cumulative IPC: 0.208433 (Simulation time: 1 hr 3 min 5 sec) 
Finished CPU 0 instructions: 100000003 cycles: 479771131 cumulative IPC: 0.208433 (Simulation time: 1 hr 3 min 5 sec) 

ChampSim completed all CPUs

Region of Interest Statistics

CPU 0 cumulative IPC: 0.208433 instructions: 100000003 cycles: 479771131

CPU 0 Average Load ROB stall cycles: 2.35684e+07
CPU 0 Fraction of times ROB stalled by Loads: 9.27519
CPU 0 Percentage of Load stall cycles in Total stall cycles: 1.22305e+08
 Total stall cycles: 373557278
 Total load stall cycles: 456877730624549
CPU 0 NUM of IPS identified critical: 0

Threshold modification factor: -1
Max PIST entries: 48
Min PIST entries: 0
Avg PIST entries: 25.7467
Average ROB occupancy Load Stall Begin: 86.1277
Average ROB occupancy Load Stall End: 94.5424
Min ROB occupancy Load Stall Begin: 1
Max ROB occupancy Load Stall Begin: 351
Min ROB occupancy Load Stall End: 1
Max ROB occupancy Load Stall End: 352
Average ROB occupancy Critical Load Stall Begin: -nan
Average ROB occupancy Critical Load Stall End: -nan
Min ROB occupancy Critical Load Stall Begin: 400
Max ROB occupancy Critical Load Stall Begin: 0
Min ROB occupancy Critical Load Stall End: 400
Max ROB occupancy Critical Load Stall End: 0
 ROB Load Stall Begin Bucket Count 0: 924672
 ROB Load Stall End Bucket Count 0: 909517
 ROB Critical Load Stall Begin Bucket Count 0: 0
 ROB Critical Load Stall End Bucket Count 0: 0
 ROB Load Stall Begin Bucket Count 1: 391836
 ROB Load Stall End Bucket Count 1: 290444
 ROB Critical Load Stall Begin Bucket Count 1: 0
 ROB Critical Load Stall End Bucket Count 1: 0
 ROB Load Stall Begin Bucket Count 2: 115114
 ROB Load Stall End Bucket Count 2: 192236
 ROB Critical Load Stall Begin Bucket Count 2: 0
 ROB Critical Load Stall End Bucket Count 2: 0
 ROB Load Stall Begin Bucket Count 3: 99826
 ROB Load Stall End Bucket Count 3: 107095
 ROB Critical Load Stall Begin Bucket Count 3: 0
 ROB Critical Load Stall End Bucket Count 3: 0
 ROB Load Stall Begin Bucket Count 4: 69676
 ROB Load Stall End Bucket Count 4: 83333
 ROB Critical Load Stall Begin Bucket Count 4: 0
 ROB Critical Load Stall End Bucket Count 4: 0
 ROB Load Stall Begin Bucket Count 5: 74226
 ROB Load Stall End Bucket Count 5: 61389
 ROB Critical Load Stall Begin Bucket Count 5: 0
 ROB Critical Load Stall End Bucket Count 5: 0
 ROB Load Stall Begin Bucket Count 6: 122663
 ROB Load Stall End Bucket Count 6: 153999
 ROB Critical Load Stall Begin Bucket Count 6: 0
 ROB Critical Load Stall End Bucket Count 6: 0
PIST Tag Read Accesses: 104512
PIST Read Accesses: 52256
PIST Tag Write Accesses: 104512
PIST Write Accesses: 52256
Criticality detector called times: 103598
Max global_stall_cycles_count: 355750
Threshold Modified: 1 times, factor: -1
Sturdy critical IP cache stats: 
 Unused entries: 0
CIC Tag Read Accesses: 0
CIC Read Accesses: 0
CIC Tag Write Accesses: 0
CIC Write Accesses: 0
Wobbly critical IP cache stats: 
 Unused entries: 106
CIC Tag Read Accesses: 173447402
CIC Read Accesses: 0
CIC Tag Write Accesses: 240266
CIC Write Accesses: 0
ITLB TOTAL     ACCESS:   16294567  HIT:   16294567  MISS:          0  HIT %:        100  MISS %:          0   MPKI: 0
ITLB LOAD TRANSLATION ACCESS:   16294567  HIT:   16294567  MISS:          0  HIT %:        100  MISS %:          0   MPKI: 0
ITLB PREFETCHES SAME FILL-ORIGIN LEVEL: 0 DIFFERENT FILL-ORIGIN LEVEL: 0
ITLB AVERAGE MISS LATENCY: -nan cycles
ITLB RQ	ACCESS:   16513818	FORWARD:          0	MERGED:     219252	TO_CACHE:   16294566

DTLB TOTAL     ACCESS:   21151198  HIT:   12632120  MISS:    8519078  HIT %:     59.723  MISS %:     40.277   MPKI: 85.1908
DTLB LOAD TRANSLATION ACCESS:   21151198  HIT:   12632120  MISS:    8519078  HIT %:     59.723  MISS %:     40.277   MPKI: 85.1908
DTLB PREFETCHES SAME FILL-ORIGIN LEVEL: 0 DIFFERENT FILL-ORIGIN LEVEL: 0
DTLB AVERAGE MISS LATENCY: 11.2051 cycles
DTLB RQ	ACCESS:   23454835	FORWARD:          0	MERGED:    2153260	TO_CACHE:   21301575

STLB TOTAL     ACCESS:    8519077  HIT:    8405853  MISS:     113224  HIT %:    98.6709  MISS %:    1.32906   MPKI: 1.13224
STLB LOAD TRANSLATION ACCESS:    8519077  HIT:    8405853  MISS:     113224  HIT %:    98.6709  MISS %:    1.32906   MPKI: 1.13224
STLB PREFETCHES SAME FILL-ORIGIN LEVEL: 0 DIFFERENT FILL-ORIGIN LEVEL: 0
STLB AVERAGE MISS LATENCY: 142.213 cycles
STLB RQ	ACCESS:    8519077	FORWARD:          0	MERGED:          0	TO_CACHE:    8519077

STLB Hit, L1D data hit: 0
STLB Hit, L2C data hit: 0
STLB Hit, LLC data hit: 0
STLB Hit, LLC data miss: 0
STLB STLB hints to L2: 0
L1D TOTAL     ACCESS:   23120442  HIT:    8184324  MISS:   14936118  HIT %:    35.3986  MISS %:    64.6014   MPKI: 149.361
L1D LOAD      ACCESS:   21094765  HIT:    6197528  MISS:   14897237  HIT %:    29.3795  MISS %:    70.6205   MPKI: 148.972
L1D RFO       ACCESS:    2025677  HIT:    1986796  MISS:      38881  HIT %:    98.0806  MISS %:    1.91941   MPKI: 0.38881
L1D PREFETCHES SAME FILL-ORIGIN LEVEL: 0 DIFFERENT FILL-ORIGIN LEVEL: 0
L1D AVERAGE MISS LATENCY: 57.2662 cycles
L1D RQ	ACCESS:   35641823	FORWARD:          0	MERGED:   13958713	TO_CACHE:   21340618
L1D WQ	ACCESS:    2185912	FORWARD:     342492	MERGED:      71695	TO_CACHE:    2114217

L1D UNIQUE REGIONS ACCESSED: 0
L1D REGIONS CONFLICTS: 0
L1D Cross Page Prefetch Requests: 0
L1D Same Page Prefetch Requests: 0
L1D ROI Sum of L1D PQ occupancy: 0
L1D PREFETCHES PUSHED FROM L2C: 0
L1I TOTAL     ACCESS:   16513819  HIT:   16513819  MISS:          0  HIT %:        100  MISS %:          0   MPKI: 0
L1I LOAD      ACCESS:   16513819  HIT:   16513819  MISS:          0  HIT %:        100  MISS %:          0   MPKI: 0
L1I PREFETCHES SAME FILL-ORIGIN LEVEL: 0 DIFFERENT FILL-ORIGIN LEVEL: 0
L1I AVERAGE MISS LATENCY: -nan cycles
L1I RQ	ACCESS:   22056373	FORWARD:          0	MERGED:    5542555	TO_CACHE:   16513818

BTB TOTAL     ACCESS:   29634397  HIT:   29518849  MISS:     115548  HIT %:    99.6101  MISS %:   0.389912   MPKI: 1.15548
BTB BRANCH_DIRECT_JUMP	ACCESS:    3793757  HIT:    3793720  MISS:         37
BTB BRANCH_INDIRECT	ACCESS:          0  HIT:          0  MISS:          0
BTB BRANCH_CONDITIONAL	ACCESS:   24997970  HIT:   24997888  MISS:         82
BTB BRANCH_DIRECT_CALL	ACCESS:     389591  HIT:     389573  MISS:         18
BTB BRANCH_INDIRECT_CALL	ACCESS:      31744  HIT:      31736  MISS:          8
BTB BRANCH_RETURN	ACCESS:     421335  HIT:     305932  MISS:     115403
BTB BRANCH_OTHER ACCESS:          0  HIT:          0  MISS:          0

L2C TOTAL     ACCESS:   28443963  HIT:    8896992  MISS:   19546971  HIT %:     31.279  MISS %:     68.721   MPKI: 195.47
L2C LOAD      ACCESS:   14897232  HIT:    6703243  MISS:    8193989  HIT %:    44.9966  MISS %:    55.0034   MPKI: 81.9399
L2C DATA LOAD MPKI: 81.9399
L2C INSTRUCTION LOAD MPKI: 0
L2C RFO       ACCESS:      38881  HIT:      10520  MISS:      28361  HIT %:    27.0569  MISS %:    72.9431   MPKI: 0.28361
L2C PREFETCH  ACCESS:   13088266  HIT:    1808267  MISS:   11279999  HIT %:    13.8159  MISS %:    86.1841   MPKI: 112.8
L2C DATA PREFETCH MPKI: 112.8
L2C INSTRUCTION PREFETCH MPKI: 0
L2C WRITEBACK ACCESS:     305311  HIT:     299012  MISS:       6299  HIT %:    97.9369  MISS %:    2.06314   MPKI: 0.06299
L2C LOAD TRANSLATION ACCESS:     114273  HIT:      75950  MISS:      38323  HIT %:    66.4636  MISS %:    33.5364   MPKI: 0.38323
L2C PREFETCH  REQUESTED:   13814082  ISSUED:   13814082  USEFUL:    5226396  USELESS:    6052994
L2C USEFUL LOAD PREFETCHES:    5226396 PREFETCH ISSUED TO LOWER LEVEL:   11703234  ACCURACY: 44.6577
L2C TIMELY PREFETCHES:    5226396 LATE PREFETCHES: 423236 DROPPED PREFETCHES: 0
L2C PREFETCHES SAME FILL-ORIGIN LEVEL: 11703234 DIFFERENT FILL-ORIGIN LEVEL: 0
L2C AVERAGE MISS LATENCY: 113.815 cycles
L2C RQ	ACCESS:   15050390	FORWARD:          0	MERGED:          0	TO_CACHE:   15050385
L2C WQ	ACCESS:     305311	FORWARD:          5	MERGED:          0	TO_CACHE:     305311
L2C PQ	ACCESS:   13814082	FORWARD:          0	MERGED:          1	TO_CACHE:   13814081

L2C Instructions Evicting Data0
L2C Translations Evicting Data38256
L2C Data Evicting Data19464099
L2C Instructions Evicting Instructions0
L2C Translations Evicting Instructions0
L2C Data Evicting Instructions0
L2C Instructions Evicting Translations0
L2C Translations Evicting Translations67
L2C Data Evicting Translations38250
L2C Dense regions hint from L2: 0
PSCL5 TOTAL     ACCESS:     113224  HIT:     113224  MISS:          0  HIT %:        100  MISS %:          0   MPKI: 0
PSCL5 LOAD TRANSLATION ACCESS:     113224  HIT:     113224  MISS:          0  HIT %:        100  MISS %:          0   MPKI: 0
PSCL5 PREFETCHES SAME FILL-ORIGIN LEVEL: 0 DIFFERENT FILL-ORIGIN LEVEL: 0

PSCL4 TOTAL     ACCESS:     113224  HIT:     113224  MISS:          0  HIT %:        100  MISS %:          0   MPKI: 0
PSCL4 LOAD TRANSLATION ACCESS:     113224  HIT:     113224  MISS:          0  HIT %:        100  MISS %:          0   MPKI: 0
PSCL4 PREFETCHES SAME FILL-ORIGIN LEVEL: 0 DIFFERENT FILL-ORIGIN LEVEL: 0

PSCL3 TOTAL     ACCESS:     113224  HIT:     113224  MISS:          0  HIT %:        100  MISS %:          0   MPKI: 0
PSCL3 LOAD TRANSLATION ACCESS:     113224  HIT:     113224  MISS:          0  HIT %:        100  MISS %:          0   MPKI: 0
PSCL3 PREFETCHES SAME FILL-ORIGIN LEVEL: 0 DIFFERENT FILL-ORIGIN LEVEL: 0

PSCL2 TOTAL     ACCESS:     113224  HIT:     111862  MISS:       1362  HIT %:    98.7971  MISS %:    1.20293   MPKI: 0.01362
PSCL2 LOAD TRANSLATION ACCESS:     113224  HIT:     111862  MISS:       1362  HIT %:    98.7971  MISS %:    1.20293   MPKI: 0.01362
PSCL2 PREFETCHES SAME FILL-ORIGIN LEVEL: 0 DIFFERENT FILL-ORIGIN LEVEL: 0

LLC TOTAL     ACCESS:   19786594  HIT:   11061088  MISS:    8725506  HIT %:    55.9019  MISS %:    44.0981   MPKI: 87.2551
LLC LOAD      ACCESS:    7770751  HIT:    6031292  MISS:    1739459  HIT %:    77.6153  MISS %:    22.3847   MPKI: 17.3946
LLC RFO       ACCESS:      28361  HIT:      25533  MISS:       2828  HIT %:    90.0286  MISS %:    9.97144   MPKI: 0.02828
LLC PREFETCH  ACCESS:   11703233  HIT:    4777849  MISS:    6925384  HIT %:     40.825  MISS %:     59.175   MPKI: 69.2538
LLC WRITEBACK ACCESS:     245926  HIT:     212471  MISS:      33455  HIT %:    86.3963  MISS %:    13.6037   MPKI: 0.33455
LLC LOAD TRANSLATION ACCESS:      38323  HIT:      13943  MISS:      24380  HIT %:    36.3829  MISS %:    63.6171   MPKI: 0.2438
LLC PREFETCHES SAME FILL-ORIGIN LEVEL: 0 DIFFERENT FILL-ORIGIN LEVEL: 0
LLC AVERAGE MISS LATENCY: 190.034 cycles
LLC RQ	ACCESS:    7837436	FORWARD:          0	MERGED:          0	TO_CACHE:    7837434
LLC WQ	ACCESS:     245926	FORWARD:          4	MERGED:          0	TO_CACHE:     245926
LLC PQ	ACCESS:   11703234	FORWARD:          0	MERGED:          0	TO_CACHE:   11703232

LLC Dense regions hint to LLC: 0

RAW hits: 284190
Loads Generated: 35926018
Loads sent to L1D: 35641823
Stores Generated: 2185912
Stores sent to L1D: 2185912
Major fault: 0 Minor fault: 128515
Allocated PAGES: 128515
[Bingo] PHT Access: 8316527
[Bingo] PHT Hit PC+Addr: 955766
[Bingo] PHT Hit PC+Offs: 7346545
[Bingo] PHT Miss: 14216
[Bingo] Prefetch PC+Addr: 0
[Bingo] Prefetch PC+Offs: 0
[Bingo] Useful PC+Addr: 0
[Bingo] Useful PC+Offs: 0
[Bingo] Useless PC+Addr: 0
[Bingo] Useless PC+Offs: 0
[Bingo] L1 Prefetch per Region: 0
[Bingo] L2 Prefetch per Region: 2.69739
[Bingo] L3 Prefetch per Region: 0
[Bingo] No Prefetch per Region: 29.3026
[Bingo] Number of Voters Mean: 15.9038
[Bingo] Number of Voters SD: 11.2664
PHT read accesses: 125604083
PHT write accesses: 770059
AT read accesses: 7117314
AT write accesses: 7350142
FT read accesses: 2644111
FT write accesses: 8316527
PS read accesses: 17338230
PS write accesses: 8302311
PHT tag read accesses: 145690800
PHT tag write accesses: 1725825
AT tag read accesses: 583674162
AT tag write accesses: 7887383
FT tag read accesses: 728252398
FT tag write accesses: 10189938
PS tag read accesses: 529983436
PS tag write accesses: 25524977

DRAM Statistics
 CHANNEL 0
 RQ ROW_BUFFER_HIT:    4308015  ROW_BUFFER_MISS:    4384003
 DBUS_CONGESTED:        389
 WQ ROW_BUFFER_HIT:      15939  ROW_BUFFER_MISS:      67770  FULL:          0

 AVG_CONGESTED_CYCLE: 4
 All warmup complete: 2
Channel 0 Bank busy for read cycles: 0
Channel 0 Bank busy for write cycles: 0
Channel 0
Rank 0
0banks busy for read cycles: 174429331
0banks busy for write cycles: 45923
1banks busy for read cycles: 111977177
1banks busy for write cycles: 8736295
2banks busy for read cycles: 62200785
2banks busy for write cycles: 1517041
3banks busy for read cycles: 34865279
3banks busy for write cycles: 521809
4banks busy for read cycles: 19946368
4banks busy for write cycles: 281729
5banks busy for read cycles: 11846572
5banks busy for write cycles: 198502
6banks busy for read cycles: 8589902
6banks busy for write cycles: 149836
7banks busy for read cycles: 11762644
7banks busy for write cycles: 143614
8banks busy for read cycles: 32406821
8banks busy for write cycles: 151504

CPU 0 Branch Prediction Accuracy: 97.0234% MPKI: 8.99605 Average ROB Occupancy at Mispredict: 52.7945
Branch types
NOT_BRANCH: 69777207 69.7772%
BRANCH_DIRECT_JUMP: 3793757 3.79376%
BRANCH_INDIRECT: 0 0%
BRANCH_CONDITIONAL: 25586017 25.586%
BRANCH_DIRECT_CALL: 389591 0.389591%
BRANCH_INDIRECT_CALL: 31744 0.031744%
BRANCH_RETURN: 421335 0.421335%
BRANCH_OTHER: 0 0%

DRAM PAGES: 1048576
Allocated PAGES: 128515
