
*** ChampSim Multicore Out-of-Order Simulator ***

Warmup Instructions: 50000000
Simulation Instructions: 100000000
Number of CPUs: 1
LLC sets: 2048
LLC ways: 16
Off-chip DRAM Size: 4096 MB Channels: 1 Width: 64-bit Data Rate: 6400 MT/s
CPU 0 runs ../SPEC2017//605.mcf_s-1536B.champsimtrace.xz
.xz
BTB has LRU replacement policy
ITLB has LRU replacement policy
DTLB has LRU replacement policy
STLB has LRU replacement policy
L1I has LRU replacement policy
IP Table Entries: 64
L1D has LRU replacement policy
Initialize SRRIP state for L2C
Initialize DRRIP state for LLC
Heartbeat CPU 0 instructions: 10000003 cycles: 2855223 heartbeat IPC: 3.50235 cumulative IPC: 3.50235 (Simulation time: 0 hr 6 min 0 sec) 
Heartbeat CPU 0 instructions: 20000003 cycles: 5707608 heartbeat IPC: 3.50584 cumulative IPC: 3.5041 (Simulation time: 0 hr 11 min 29 sec) 
Heartbeat CPU 0 instructions: 30000001 cycles: 8577562 heartbeat IPC: 3.48438 cumulative IPC: 3.4975 (Simulation time: 0 hr 17 min 5 sec) 
Heartbeat CPU 0 instructions: 40000002 cycles: 11439068 heartbeat IPC: 3.49466 cumulative IPC: 3.49679 (Simulation time: 0 hr 22 min 29 sec) 
Heartbeat CPU 0 instructions: 50000003 cycles: 14302110 heartbeat IPC: 3.49279 cumulative IPC: 3.49599 (Simulation time: 0 hr 27 min 31 sec) 

Warmup complete CPU 0 instructions: 50000003 cycles: 14302110 (Simulation time: 0 hr 27 min 31 sec) 

Heartbeat CPU 0 instructions: 60000003 cycles: 51425320 heartbeat IPC: 0.269373 cumulative IPC: 0.269373 (Simulation time: 0 hr 36 min 4 sec) 
Heartbeat CPU 0 instructions: 70000000 cycles: 88348072 heartbeat IPC: 0.270836 cumulative IPC: 0.270102 (Simulation time: 0 hr 44 min 12 sec) 
Heartbeat CPU 0 instructions: 80000003 cycles: 125135130 heartbeat IPC: 0.271835 cumulative IPC: 0.270677 (Simulation time: 0 hr 52 min 24 sec) 
Heartbeat CPU 0 instructions: 90000000 cycles: 163734652 heartbeat IPC: 0.25907 cumulative IPC: 0.267679 (Simulation time: 0 hr 59 min 31 sec) 
Heartbeat CPU 0 instructions: 100000002 cycles: 203154402 heartbeat IPC: 0.25368 cumulative IPC: 0.264757 (Simulation time: 1 hr 5 min 55 sec) 
Heartbeat CPU 0 instructions: 110000000 cycles: 242252329 heartbeat IPC: 0.255768 cumulative IPC: 0.263215 (Simulation time: 1 hr 11 min 11 sec) 
Heartbeat CPU 0 instructions: 120000000 cycles: 282022292 heartbeat IPC: 0.251446 cumulative IPC: 0.261467 (Simulation time: 1 hr 18 min 26 sec) 
Heartbeat CPU 0 instructions: 130000003 cycles: 321444559 heartbeat IPC: 0.253664 cumulative IPC: 0.260465 (Simulation time: 1 hr 29 min 53 sec) 
Heartbeat CPU 0 instructions: 140000000 cycles: 361271832 heartbeat IPC: 0.251084 cumulative IPC: 0.259389 (Simulation time: 1 hr 40 min 44 sec) 
Heartbeat CPU 0 instructions: 150000001 cycles: 400926415 heartbeat IPC: 0.252178 cumulative IPC: 0.258649 (Simulation time: 1 hr 50 min 18 sec) 
Finished CPU 0 instructions: 100000002 cycles: 386624306 cumulative IPC: 0.258649 (Simulation time: 1 hr 50 min 18 sec) 

ChampSim completed all CPUs

Region of Interest Statistics

CPU 0 cumulative IPC: 0.258649 instructions: 100000002 cycles: 386624306

CPU 0 Average Load ROB stall cycles: 8.60169e+07
CPU 0 Fraction of times ROB stalled by Loads: 41.7377
CPU 0 Percentage of Load stall cycles in Total stall cycles: 2.7545e+08
Issued all: 368570450
Issued LT all: 364324040
rob_not_full_when_issued_lt_all: 12205124
Issued LT one: 341260309
rob_not_full_when_issued_lt_one: 10334492
 Total stall cycles: 360226344
 Total load stall cycles: 992242663965757
Unique Load IPs: 15
CPU 0 NUM of IPS identified critical: 8
CPU 0 Num of Load IPs stalling ROB: 0
Threshold modification factor: 0
Trouble in retire width: -nan
MaC = Marked as critical.
lt_50_percent_before_Mac: 7
gt_90_percent_before_Mac: 0
gt_75_percent_before_Mac: 0
gt_50_percent_before_Mac: 1
stall_proportion_bin_same_before_after: 0
stall_proportion_bin_lower_before_after: 0
stall_proportion_bin_upper_before_after: 0
average_stall_proportion_before: 0.0212486
average_stall_proportion_after: 0.020651
Critical_IP_Detector_Accuracy_70: 0.125
Critical_IP_Detector_Accuracy_80: 0.125
Critical_IP_Detector_Accuracy_90: 0.125
Critical_IP_Detector_Coverage_70: 1
Critical_IP_Detector_Coverage_80: 1
Critical_IP_Detector_Coverage_90: 1
stat_90_percent_critical_ip_stalls_freq: 1802350
stat_90_percent_non_critical_ip_stalls_freq: 18446744073707749266
AVERAGE_ROB_Occupancy_90_Percent_Critical_IP_Stalls: 349.666
AVERAGE_ROB_Occupancy_90_Percent_Non_Critical_IP_Stalls: 5.7001e-11
Critical_IP_ROB_Stalls_Bucket_0: 3122
Non-critical_IP_ROB_Stalls_Bucket_0: 3202
Critical_IP_ROB_Stalls_Bucket_1: 2960
Non-critical_IP_ROB_Stalls_Bucket_1: 1260
Critical_IP_ROB_Stalls_Bucket_2: 3018
Non-critical_IP_ROB_Stalls_Bucket_2: 1244
Critical_IP_ROB_Stalls_Bucket_3: 2992
Non-critical_IP_ROB_Stalls_Bucket_3: 1200
Critical_IP_ROB_Stalls_Bucket_4: 2892
Non-critical_IP_ROB_Stalls_Bucket_4: 1112
Critical_IP_ROB_Stalls_Bucket_5: 3768
Non-critical_IP_ROB_Stalls_Bucket_5: 5353
Critical_IP_ROB_Stalls_Bucket_6: 3531972
Non-critical_IP_ROB_Stalls_Bucket_6: 1250534
0 => IPs accounting for >50 percent of stalls, 1 => 55, 2 => 60, 3 => 65 and so on till 90.
percent50: inf num IPs:  1
percent55: inf num IPs: 1
percent60: inf num IPs: 1
percent65: inf num IPs: 1
percent70: inf num IPs: 1
percent75: inf num IPs: 1
percent80: inf num IPs: 1
percent85: inf num IPs: 1
percent90: inf num IPs: 1
Critical_ROB_Stalls_Percent_0_Bucket_0: 1538
Non-critical_ROB_Stalls_Percent_0_Bucket_0: 4786
Critical_ROB_Stalls_Percent_0_Bucket_1: 1488
Non-critical_ROB_Stalls_Percent_0_Bucket_1: 2732
Critical_ROB_Stalls_Percent_0_Bucket_2: 1512
Non-critical_ROB_Stalls_Percent_0_Bucket_2: 2750
Critical_ROB_Stalls_Percent_0_Bucket_3: 1475
Non-critical_ROB_Stalls_Percent_0_Bucket_3: 2717
Critical_ROB_Stalls_Percent_0_Bucket_4: 1466
Non-critical_ROB_Stalls_Percent_0_Bucket_4: 2538
Critical_ROB_Stalls_Percent_0_Bucket_5: 2259
Non-critical_ROB_Stalls_Percent_0_Bucket_5: 6862
Critical_ROB_Stalls_Percent_0_Bucket_6: 1792612
Non-critical_ROB_Stalls_Percent_0_Bucket_6: 2989894
Critical_ROB_Stalls_Percent_1_Bucket_0: 1538
Non-critical_ROB_Stalls_Percent_1_Bucket_0: 4786
Critical_ROB_Stalls_Percent_1_Bucket_1: 1488
Non-critical_ROB_Stalls_Percent_1_Bucket_1: 2732
Critical_ROB_Stalls_Percent_1_Bucket_2: 1512
Non-critical_ROB_Stalls_Percent_1_Bucket_2: 2750
Critical_ROB_Stalls_Percent_1_Bucket_3: 1475
Non-critical_ROB_Stalls_Percent_1_Bucket_3: 2717
Critical_ROB_Stalls_Percent_1_Bucket_4: 1466
Non-critical_ROB_Stalls_Percent_1_Bucket_4: 2538
Critical_ROB_Stalls_Percent_1_Bucket_5: 2259
Non-critical_ROB_Stalls_Percent_1_Bucket_5: 6862
Critical_ROB_Stalls_Percent_1_Bucket_6: 1792612
Non-critical_ROB_Stalls_Percent_1_Bucket_6: 2989894
Critical_ROB_Stalls_Percent_2_Bucket_0: 1538
Non-critical_ROB_Stalls_Percent_2_Bucket_0: 4786
Critical_ROB_Stalls_Percent_2_Bucket_1: 1488
Non-critical_ROB_Stalls_Percent_2_Bucket_1: 2732
Critical_ROB_Stalls_Percent_2_Bucket_2: 1512
Non-critical_ROB_Stalls_Percent_2_Bucket_2: 2750
Critical_ROB_Stalls_Percent_2_Bucket_3: 1475
Non-critical_ROB_Stalls_Percent_2_Bucket_3: 2717
Critical_ROB_Stalls_Percent_2_Bucket_4: 1466
Non-critical_ROB_Stalls_Percent_2_Bucket_4: 2538
Critical_ROB_Stalls_Percent_2_Bucket_5: 2259
Non-critical_ROB_Stalls_Percent_2_Bucket_5: 6862
Critical_ROB_Stalls_Percent_2_Bucket_6: 1792612
Non-critical_ROB_Stalls_Percent_2_Bucket_6: 2989894
Critical_ROB_Stalls_Percent_3_Bucket_0: 1538
Non-critical_ROB_Stalls_Percent_3_Bucket_0: 4786
Critical_ROB_Stalls_Percent_3_Bucket_1: 1488
Non-critical_ROB_Stalls_Percent_3_Bucket_1: 2732
Critical_ROB_Stalls_Percent_3_Bucket_2: 1512
Non-critical_ROB_Stalls_Percent_3_Bucket_2: 2750
Critical_ROB_Stalls_Percent_3_Bucket_3: 1475
Non-critical_ROB_Stalls_Percent_3_Bucket_3: 2717
Critical_ROB_Stalls_Percent_3_Bucket_4: 1466
Non-critical_ROB_Stalls_Percent_3_Bucket_4: 2538
Critical_ROB_Stalls_Percent_3_Bucket_5: 2259
Non-critical_ROB_Stalls_Percent_3_Bucket_5: 6862
Critical_ROB_Stalls_Percent_3_Bucket_6: 1792612
Non-critical_ROB_Stalls_Percent_3_Bucket_6: 2989894
Critical_ROB_Stalls_Percent_4_Bucket_0: 1538
Non-critical_ROB_Stalls_Percent_4_Bucket_0: 4786
Critical_ROB_Stalls_Percent_4_Bucket_1: 1488
Non-critical_ROB_Stalls_Percent_4_Bucket_1: 2732
Critical_ROB_Stalls_Percent_4_Bucket_2: 1512
Non-critical_ROB_Stalls_Percent_4_Bucket_2: 2750
Critical_ROB_Stalls_Percent_4_Bucket_3: 1475
Non-critical_ROB_Stalls_Percent_4_Bucket_3: 2717
Critical_ROB_Stalls_Percent_4_Bucket_4: 1466
Non-critical_ROB_Stalls_Percent_4_Bucket_4: 2538
Critical_ROB_Stalls_Percent_4_Bucket_5: 2259
Non-critical_ROB_Stalls_Percent_4_Bucket_5: 6862
Critical_ROB_Stalls_Percent_4_Bucket_6: 1792612
Non-critical_ROB_Stalls_Percent_4_Bucket_6: 2989894
Critical_ROB_Stalls_Percent_5_Bucket_0: 1538
Non-critical_ROB_Stalls_Percent_5_Bucket_0: 4786
Critical_ROB_Stalls_Percent_5_Bucket_1: 1488
Non-critical_ROB_Stalls_Percent_5_Bucket_1: 2732
Critical_ROB_Stalls_Percent_5_Bucket_2: 1512
Non-critical_ROB_Stalls_Percent_5_Bucket_2: 2750
Critical_ROB_Stalls_Percent_5_Bucket_3: 1475
Non-critical_ROB_Stalls_Percent_5_Bucket_3: 2717
Critical_ROB_Stalls_Percent_5_Bucket_4: 1466
Non-critical_ROB_Stalls_Percent_5_Bucket_4: 2538
Critical_ROB_Stalls_Percent_5_Bucket_5: 2259
Non-critical_ROB_Stalls_Percent_5_Bucket_5: 6862
Critical_ROB_Stalls_Percent_5_Bucket_6: 1792612
Non-critical_ROB_Stalls_Percent_5_Bucket_6: 2989894
Critical_ROB_Stalls_Percent_6_Bucket_0: 1538
Non-critical_ROB_Stalls_Percent_6_Bucket_0: 4786
Critical_ROB_Stalls_Percent_6_Bucket_1: 1488
Non-critical_ROB_Stalls_Percent_6_Bucket_1: 2732
Critical_ROB_Stalls_Percent_6_Bucket_2: 1512
Non-critical_ROB_Stalls_Percent_6_Bucket_2: 2750
Critical_ROB_Stalls_Percent_6_Bucket_3: 1475
Non-critical_ROB_Stalls_Percent_6_Bucket_3: 2717
Critical_ROB_Stalls_Percent_6_Bucket_4: 1466
Non-critical_ROB_Stalls_Percent_6_Bucket_4: 2538
Critical_ROB_Stalls_Percent_6_Bucket_5: 2259
Non-critical_ROB_Stalls_Percent_6_Bucket_5: 6862
Critical_ROB_Stalls_Percent_6_Bucket_6: 1792612
Non-critical_ROB_Stalls_Percent_6_Bucket_6: 2989894
Critical_ROB_Stalls_Percent_7_Bucket_0: 1538
Non-critical_ROB_Stalls_Percent_7_Bucket_0: 4786
Critical_ROB_Stalls_Percent_7_Bucket_1: 1488
Non-critical_ROB_Stalls_Percent_7_Bucket_1: 2732
Critical_ROB_Stalls_Percent_7_Bucket_2: 1512
Non-critical_ROB_Stalls_Percent_7_Bucket_2: 2750
Critical_ROB_Stalls_Percent_7_Bucket_3: 1475
Non-critical_ROB_Stalls_Percent_7_Bucket_3: 2717
Critical_ROB_Stalls_Percent_7_Bucket_4: 1466
Non-critical_ROB_Stalls_Percent_7_Bucket_4: 2538
Critical_ROB_Stalls_Percent_7_Bucket_5: 2259
Non-critical_ROB_Stalls_Percent_7_Bucket_5: 6862
Critical_ROB_Stalls_Percent_7_Bucket_6: 1792612
Non-critical_ROB_Stalls_Percent_7_Bucket_6: 2989894
Critical_ROB_Stalls_Percent_8_Bucket_0: 1538
Non-critical_ROB_Stalls_Percent_8_Bucket_0: 4786
Critical_ROB_Stalls_Percent_8_Bucket_1: 1488
Non-critical_ROB_Stalls_Percent_8_Bucket_1: 2732
Critical_ROB_Stalls_Percent_8_Bucket_2: 1512
Non-critical_ROB_Stalls_Percent_8_Bucket_2: 2750
Critical_ROB_Stalls_Percent_8_Bucket_3: 1475
Non-critical_ROB_Stalls_Percent_8_Bucket_3: 2717
Critical_ROB_Stalls_Percent_8_Bucket_4: 1466
Non-critical_ROB_Stalls_Percent_8_Bucket_4: 2538
Critical_ROB_Stalls_Percent_8_Bucket_5: 2259
Non-critical_ROB_Stalls_Percent_8_Bucket_5: 6862
Critical_ROB_Stalls_Percent_8_Bucket_6: 1792612
Non-critical_ROB_Stalls_Percent_8_Bucket_6: 2989894
Average ROB occupancy Load Stall Begin: 344.685
Average ROB occupancy Load Stall End: 349.29
Min ROB occupancy Load Stall Begin: 2
Max ROB occupancy Load Stall Begin: 352
Min ROB occupancy Load Stall End: 2
Max ROB occupancy Load Stall End: 352
Average ROB occupancy Critical Load Stall Begin: 347.9
Average ROB occupancy Critical Load Stall End: 350.042
Min ROB occupancy Critical Load Stall Begin: 4
Max ROB occupancy Critical Load Stall Begin: 352
Min ROB occupancy Critical Load Stall End: 4
Max ROB occupancy Critical Load Stall End: 352
 ROB Load Stall Begin Bucket Count 0: 8259
 ROB Load Stall End Bucket Count 0: 6324
 ROB Critical Load Stall Begin Bucket Count 0: 1504
 ROB Critical Load Stall End Bucket Count 0: 1498
 ROB Load Stall Begin Bucket Count 1: 4165
 ROB Load Stall End Bucket Count 1: 4220
 ROB Critical Load Stall Begin Bucket Count 1: 1481
 ROB Critical Load Stall End Bucket Count 1: 1484
 ROB Load Stall Begin Bucket Count 2: 4235
 ROB Load Stall End Bucket Count 2: 4262
 ROB Critical Load Stall Begin Bucket Count 2: 1556
 ROB Critical Load Stall End Bucket Count 2: 1557
 ROB Load Stall Begin Bucket Count 3: 4163
 ROB Load Stall End Bucket Count 3: 4192
 ROB Critical Load Stall Begin Bucket Count 3: 1560
 ROB Critical Load Stall End Bucket Count 3: 1556
 ROB Load Stall Begin Bucket Count 4: 4001
 ROB Load Stall End Bucket Count 4: 4004
 ROB Critical Load Stall Begin Bucket Count 4: 1455
 ROB Critical Load Stall End Bucket Count 4: 1456
 ROB Load Stall Begin Bucket Count 5: 75725
 ROB Load Stall End Bucket Count 5: 9121
 ROB Critical Load Stall Begin Bucket Count 5: 2295
 ROB Critical Load Stall End Bucket Count 5: 1912
 ROB Load Stall Begin Bucket Count 6: 4714081
 ROB Load Stall End Bucket Count 6: 4782506
 ROB Critical Load Stall Begin Bucket Count 6: 1770544
 ROB Critical Load Stall End Bucket Count 6: 1770933
PIST Tag Read Accesses: 0
PIST Read Accesses: 0
PIST Tag Write Accesses: 0
PIST Write Accesses: 0
Criticality detector called times: 0
Max global_stall_cycles_count: 0
Threshold Modified: 0 times, factor: 0
Sturdy critical IP cache stats: 
 Unused entries: 0
CIC Tag Read Accesses: 0
CIC Read Accesses: 0
CIC Tag Write Accesses: 0
CIC Write Accesses: 0
Wobbly critical IP cache stats: 
 Unused entries: 22
CIC Tag Read Accesses: 267827542
CIC Read Accesses: 0
CIC Tag Write Accesses: 20343804
CIC Write Accesses: 0
ITLB TOTAL     ACCESS:   18034667  HIT:   18034667  MISS:          0  HIT %:        100  MISS %:          0   MPKI: 0
ITLB LOAD TRANSLATION ACCESS:   18034667  HIT:   18034667  MISS:          0  HIT %:        100  MISS %:          0   MPKI: 0
ITLB PREFETCH  REQUESTED:          0  ISSUED:          0  USEFUL:          0  USELESS:          0
ITLB USEFUL LOAD PREFETCHES:          0 PREFETCH ISSUED TO LOWER LEVEL:          0  ACCURACY: -nan
ITLB TIMELY PREFETCHES:          0 LATE PREFETCHES: 0 DROPPED PREFETCHES: 0
ITLB PREFETCHES SAME FILL-ORIGIN LEVEL: 0 DIFFERENT FILL-ORIGIN LEVEL: 0
ITLB AVERAGE MISS LATENCY: -nan cycles
ITLB RQ	ACCESS:   19379558	FORWARD:          0	MERGED:    1344890	TO_CACHE:   18034668

DTLB TOTAL     ACCESS:   15015089  HIT:   12569889  MISS:    2445200  HIT %:     83.715  MISS %:     16.285   MPKI: 24.452
DTLB LOAD TRANSLATION ACCESS:   15015089  HIT:   12569889  MISS:    2445200  HIT %:     83.715  MISS %:     16.285   MPKI: 24.452
DTLB PREFETCH  REQUESTED:          0  ISSUED:          0  USEFUL:          0  USELESS:          0
DTLB USEFUL LOAD PREFETCHES:          0 PREFETCH ISSUED TO LOWER LEVEL:          0  ACCURACY: -nan
DTLB TIMELY PREFETCHES:          0 LATE PREFETCHES: 0 DROPPED PREFETCHES: 0
DTLB PREFETCHES SAME FILL-ORIGIN LEVEL: 0 DIFFERENT FILL-ORIGIN LEVEL: 0
DTLB AVERAGE MISS LATENCY: 71.3842 cycles
DTLB RQ	ACCESS:   17397307	FORWARD:          0	MERGED:    2360610	TO_CACHE:   15036697

STLB TOTAL     ACCESS:    3911108  HIT:    1671858  MISS:    2239250  HIT %:    42.7464  MISS %:    57.2536   MPKI: 22.3925
STLB LOAD TRANSLATION ACCESS:    2445200  HIT:     206085  MISS:    2239115  HIT %:    8.42814  MISS %:    91.5719   MPKI: 22.3911
STLB TRANSLATION FROM L1D PREFETCHER ACCESS:    1465908  HIT:    1465773  MISS:        135  HIT %:    99.9908  MISS %: 0.00920931   MPKI: 0.00135
STLB PREFETCH  REQUESTED:          0  ISSUED:          0  USEFUL:         96  USELESS:         38
STLB USEFUL LOAD PREFETCHES:         96 PREFETCH ISSUED TO LOWER LEVEL:          0  ACCURACY: inf
STLB TIMELY PREFETCHES:         96 LATE PREFETCHES: 0 DROPPED PREFETCHES: 0
STLB PREFETCHES SAME FILL-ORIGIN LEVEL: 0 DIFFERENT FILL-ORIGIN LEVEL: 0
STLB AVERAGE MISS LATENCY: 68.0173 cycles
STLB RQ	ACCESS:    4128869	FORWARD:          0	MERGED:     217751	TO_CACHE:    3911118

STLB Hit, L1D data hit: 0
STLB Hit, L2C data hit: 0
STLB Hit, LLC data hit: 0
STLB Hit, LLC data miss: 0
STLB STLB hints to L2: 0
L1D TOTAL     ACCESS:   18813012  HIT:   11929160  MISS:    6883852  HIT %:    63.4091  MISS %:    36.5909   MPKI: 68.8385
L1D LOAD      ACCESS:   12875257  HIT:    7692475  MISS:    5182782  HIT %:    59.7462  MISS %:    40.2538   MPKI: 51.8278
L1D RFO       ACCESS:    4434260  HIT:    4178732  MISS:     255528  HIT %:    94.2374  MISS %:    5.76258   MPKI: 2.55528
L1D PREFETCH  ACCESS:    1503495  HIT:      57953  MISS:    1445542  HIT %:    3.85455  MISS %:    96.1454   MPKI: 14.4554
L1D PREFETCH  REQUESTED:    3367332  ISSUED:    3367332  USEFUL:      84993  USELESS:    1360570
L1D USEFUL LOAD PREFETCHES:      84993 PREFETCH ISSUED TO LOWER LEVEL:    1458638  ACCURACY: 5.82687
L1D TIMELY PREFETCHES:      84993 LATE PREFETCHES: 12571 DROPPED PREFETCHES: 0
L1D PREFETCHES SAME FILL-ORIGIN LEVEL: 1458638 DIFFERENT FILL-ORIGIN LEVEL: 0
L1D AVERAGE MISS LATENCY: 629431 cycles
L1D RQ	ACCESS:   24610740	FORWARD:          0	MERGED:   11425489	TO_CACHE:   12963045
L1D WQ	ACCESS:    4434265	FORWARD:     222206	MERGED:          3	TO_CACHE:    4434262
L1D PQ	ACCESS:    1683666	FORWARD:          0	MERGED:          0	TO_CACHE:    1683666

L1D UNIQUE REGIONS ACCESSED: 0
L1D REGIONS CONFLICTS: 0
L1D Cross Page Prefetch Requests: 0
L1D Same Page Prefetch Requests: 3903805
L1D ROI Sum of L1D PQ occupancy: 21908003
L1D PREFETCHES PUSHED FROM L2C: 0
L1I TOTAL     ACCESS:   19379557  HIT:   19379557  MISS:          0  HIT %:        100  MISS %:          0   MPKI: 0
L1I LOAD      ACCESS:   19379557  HIT:   19379557  MISS:          0  HIT %:        100  MISS %:          0   MPKI: 0
L1I PREFETCH  REQUESTED:          0  ISSUED:          0  USEFUL:          0  USELESS:          0
L1I USEFUL LOAD PREFETCHES:          0 PREFETCH ISSUED TO LOWER LEVEL:          0  ACCURACY: -nan
L1I TIMELY PREFETCHES:          0 LATE PREFETCHES: 0 DROPPED PREFETCHES: 0
L1I PREFETCHES SAME FILL-ORIGIN LEVEL: 0 DIFFERENT FILL-ORIGIN LEVEL: 0
L1I AVERAGE MISS LATENCY: -nan cycles
L1I RQ	ACCESS:   29117677	FORWARD:          0	MERGED:    9738119	TO_CACHE:   19379558

BTB TOTAL     ACCESS:   13288682  HIT:   13288674  MISS:          8  HIT %:    99.9999  MISS %: 6.02016e-05   MPKI: 8e-05
BTB BRANCH_DIRECT_JUMP	ACCESS:    2274658  HIT:    2274656  MISS:          2
BTB BRANCH_INDIRECT	ACCESS:          0  HIT:          0  MISS:          0
BTB BRANCH_CONDITIONAL	ACCESS:    6579762  HIT:    6579758  MISS:          4
BTB BRANCH_DIRECT_CALL	ACCESS:    2217131  HIT:    2217130  MISS:          1
BTB BRANCH_INDIRECT_CALL	ACCESS:          0  HIT:          0  MISS:          0
BTB BRANCH_RETURN	ACCESS:    2217131  HIT:    2217130  MISS:          1
BTB BRANCH_OTHER ACCESS:          0  HIT:          0  MISS:          0

L2C TOTAL     ACCESS:   11645909  HIT:    5854550  MISS:    5791359  HIT %:    50.2713  MISS %:    49.7287   MPKI: 57.9136
L2C LOAD      ACCESS:    5170211  HIT:    2063955  MISS:    3106256  HIT %:    39.9201  MISS %:    60.0799   MPKI: 31.0626
L2C DATA LOAD MPKI: 31.0626
L2C INSTRUCTION LOAD MPKI: 0
L2C RFO       ACCESS:     255003  HIT:      18929  MISS:     236074  HIT %:    7.42305  MISS %:     92.577   MPKI: 2.36074
L2C PREFETCH  ACCESS:    1458638  HIT:     880236  MISS:     578402  HIT %:    60.3464  MISS %:    39.6536   MPKI: 5.78402
L2C DATA PREFETCH MPKI: 5.78402
L2C INSTRUCTION PREFETCH MPKI: 0
L2C WRITEBACK ACCESS:    2217123  HIT:    2184843  MISS:      32280  HIT %:    98.5441  MISS %:    1.45594   MPKI: 0.3228
L2C LOAD TRANSLATION ACCESS:    2544664  HIT:     706396  MISS:    1838268  HIT %:    27.7599  MISS %:    72.2401   MPKI: 18.3827
L2C TRANSLATION FROM L1D PREFETCHER ACCESS:        270  HIT:        191  MISS:         79  HIT %:    70.7407  MISS %:    29.2593   MPKI: 0.00079
L2C PREFETCH  REQUESTED:          0  ISSUED:          0  USEFUL:       6170  USELESS:     572562
L2C USEFUL LOAD PREFETCHES:       6170 PREFETCH ISSUED TO LOWER LEVEL:     578402  ACCURACY: 1.06673
L2C TIMELY PREFETCHES:       6170 LATE PREFETCHES: 0 DROPPED PREFETCHES: 0
L2C PREFETCHES SAME FILL-ORIGIN LEVEL: 0 DIFFERENT FILL-ORIGIN LEVEL: 0
L2C AVERAGE MISS LATENCY: 110.724 cycles
L2C RQ	ACCESS:    7970148	FORWARD:          0	MERGED:          0	TO_CACHE:    7970148
L2C WQ	ACCESS:    2217123	FORWARD:          0	MERGED:          0	TO_CACHE:    2217123
L2C PQ	ACCESS:    1458638	FORWARD:          0	MERGED:          0	TO_CACHE:    1458638

L2C Instructions Evicting Data 0
L2C Translations Evicting Data 1031482
L2C Data Evicting Data 2893857
L2C Instructions Evicting Instructions 0
L2C Translations Evicting Instructions 0
L2C Data Evicting Instructions 0
L2C Instructions Evicting Translations 0
L2C Translations Evicting Translations 806865
L2C Data Evicting Translations 1026875
L2C Dense regions hint from L2: 0
PSCL5 TOTAL     ACCESS:    2239251  HIT:    2239251  MISS:          0  HIT %:        100  MISS %:          0   MPKI: 0
PSCL5 LOAD TRANSLATION ACCESS:    2239116  HIT:    2239116  MISS:          0  HIT %:        100  MISS %:          0   MPKI: 0
PSCL5 TRANSLATION FROM L1D PREFETCHER ACCESS:        135  HIT:        135  MISS:          0  HIT %:        100  MISS %:          0   MPKI: 0
PSCL5 PREFETCH  REQUESTED:          0  ISSUED:          0  USEFUL:          0  USELESS:          0
PSCL5 USEFUL LOAD PREFETCHES:          0 PREFETCH ISSUED TO LOWER LEVEL:          0  ACCURACY: -nan
PSCL5 TIMELY PREFETCHES:          0 LATE PREFETCHES: 0 DROPPED PREFETCHES: 0
PSCL5 PREFETCHES SAME FILL-ORIGIN LEVEL: 0 DIFFERENT FILL-ORIGIN LEVEL: 0

PSCL4 TOTAL     ACCESS:    2239251  HIT:    2239251  MISS:          0  HIT %:        100  MISS %:          0   MPKI: 0
PSCL4 LOAD TRANSLATION ACCESS:    2239116  HIT:    2239116  MISS:          0  HIT %:        100  MISS %:          0   MPKI: 0
PSCL4 TRANSLATION FROM L1D PREFETCHER ACCESS:        135  HIT:        135  MISS:          0  HIT %:        100  MISS %:          0   MPKI: 0
PSCL4 PREFETCH  REQUESTED:          0  ISSUED:          0  USEFUL:          0  USELESS:          0
PSCL4 USEFUL LOAD PREFETCHES:          0 PREFETCH ISSUED TO LOWER LEVEL:          0  ACCURACY: -nan
PSCL4 TIMELY PREFETCHES:          0 LATE PREFETCHES: 0 DROPPED PREFETCHES: 0
PSCL4 PREFETCHES SAME FILL-ORIGIN LEVEL: 0 DIFFERENT FILL-ORIGIN LEVEL: 0

PSCL3 TOTAL     ACCESS:    2239251  HIT:    2239251  MISS:          0  HIT %:        100  MISS %:          0   MPKI: 0
PSCL3 LOAD TRANSLATION ACCESS:    2239116  HIT:    2239116  MISS:          0  HIT %:        100  MISS %:          0   MPKI: 0
PSCL3 TRANSLATION FROM L1D PREFETCHER ACCESS:        135  HIT:        135  MISS:          0  HIT %:        100  MISS %:          0   MPKI: 0
PSCL3 PREFETCH  REQUESTED:          0  ISSUED:          0  USEFUL:          0  USELESS:          0
PSCL3 USEFUL LOAD PREFETCHES:          0 PREFETCH ISSUED TO LOWER LEVEL:          0  ACCURACY: -nan
PSCL3 TIMELY PREFETCHES:          0 LATE PREFETCHES: 0 DROPPED PREFETCHES: 0
PSCL3 PREFETCHES SAME FILL-ORIGIN LEVEL: 0 DIFFERENT FILL-ORIGIN LEVEL: 0

PSCL2 TOTAL     ACCESS:    2239251  HIT:    1933568  MISS:     305683  HIT %:    86.3489  MISS %:    13.6511   MPKI: 3.05683
PSCL2 LOAD TRANSLATION ACCESS:    2239251  HIT:    1933568  MISS:     305683  HIT %:    86.3489  MISS %:    13.6511   MPKI: 3.05683
PSCL2 PREFETCH  REQUESTED:          0  ISSUED:          0  USEFUL:          0  USELESS:          0
PSCL2 USEFUL LOAD PREFETCHES:          0 PREFETCH ISSUED TO LOWER LEVEL:          0  ACCURACY: -nan
PSCL2 TIMELY PREFETCHES:          0 LATE PREFETCHES: 0 DROPPED PREFETCHES: 0
PSCL2 PREFETCHES SAME FILL-ORIGIN LEVEL: 0 DIFFERENT FILL-ORIGIN LEVEL: 0

LLC TOTAL     ACCESS:    7976535  HIT:    5223758  MISS:    2752777  HIT %:    65.4891  MISS %:    34.5109   MPKI: 27.5278
LLC LOAD      ACCESS:    3106256  HIT:     624775  MISS:    2481481  HIT %:    20.1134  MISS %:    79.8866   MPKI: 24.8148
LLC RFO       ACCESS:     236074  HIT:     232520  MISS:       3554  HIT %:    98.4945  MISS %:    1.50546   MPKI: 0.03554
LLC PREFETCH  ACCESS:     578401  HIT:     356108  MISS:     222293  HIT %:    61.5677  MISS %:    38.4323   MPKI: 2.22293
LLC WRITEBACK ACCESS:    2217457  HIT:    2183563  MISS:      33894  HIT %:    98.4715  MISS %:    1.52851   MPKI: 0.33894
LLC LOAD TRANSLATION ACCESS:    1838268  HIT:    1826715  MISS:      11553  HIT %:    99.3715  MISS %:   0.628472   MPKI: 0.11553
LLC TRANSLATION FROM L1D PREFETCHER ACCESS:         79  HIT:         77  MISS:          2  HIT %:    97.4684  MISS %:    2.53165   MPKI: 2e-05
LLC PREFETCH  REQUESTED:          0  ISSUED:          0  USEFUL:      55531  USELESS:     169739
LLC USEFUL LOAD PREFETCHES:      55531 PREFETCH ISSUED TO LOWER LEVEL:     222293  ACCURACY: 24.981
LLC TIMELY PREFETCHES:      55531 LATE PREFETCHES: 0 DROPPED PREFETCHES: 0
LLC PREFETCHES SAME FILL-ORIGIN LEVEL: 0 DIFFERENT FILL-ORIGIN LEVEL: 0
LLC AVERAGE MISS LATENCY: 169.862 cycles
LLC RQ	ACCESS:    5180677	FORWARD:          0	MERGED:          0	TO_CACHE:    5180677
LLC WQ	ACCESS:    2217458	FORWARD:          1	MERGED:          0	TO_CACHE:    2217458
LLC PQ	ACCESS:     578402	FORWARD:          0	MERGED:          0	TO_CACHE:     578401

LLC Dense regions hint to LLC: 0

RAW hits: 1993314
Loads Generated: 26604056
Loads sent to L1D: 24610740
Stores Generated: 4434263
Stores sent to L1D: 4434265
Major fault: 0 Minor fault: 62133
Allocated PAGES: 62133

stream: 
stream:times selected: 3362742
stream:pref_filled: 2536519
stream:pref_useful: 100263
stream:pref_late: 15266
stream:misses: 470673
stream:misses_by_poll: 0

CS: 
CS:times selected: 416423
CS:pref_filled: 336870
CS:pref_useful: 821
CS:pref_late: 149
CS:misses: 34089
CS:misses_by_poll: 41

CPLX: 
CPLX:times selected: 3349616
CPLX:pref_filled: 332714
CPLX:pref_useful: 28530
CPLX:pref_late: 1818
CPLX:misses: 2224799
CPLX:misses_by_poll: 310

NL_L1: 
NL:times selected: 35317
NL:pref_filled: 23452
NL:pref_useful: 82
NL:pref_late: 6
NL:misses: 29462
NL:misses_by_poll: 0

total selections: 7164098
total_filled: 1445542
total_useful: 84993
total_late: 19546
total_polluted: 351
total_misses_after_warmup: 1330553
conflicts: 32771
Degree Incremented Times: 0
Degree Decremented Times: 196173

L1 IP Table Write Accesses: 7458385
L1 IP Table Read Accesses: 7425614
L1 RST Write Accesses: 1510754
L1 RST Read Accesses: 3021508
L1 CSPT Write Accesses: 1510754
L1 CSPT Read Accesses: 3020521
L1 RR Filter Tag Write Accesses: 1683666
L1 RR Filter Tag Read Accesses: 55143132
L1 IP Table Tag Write Accesses: 7521216
L1 IP Table Tag Read Accesses: 7521216
L1 RST Tag Write Accesses: 0
L1 RST Tag Read Accesses: 13638925
L1 RR Filter Write Accesses: 0
L1 RR Filter Read Accesses: 1735541
test: 1735365
L2 IP Table Read Accesses: 5464306
L2 IP Table Write Accesses: 4189783
L2 IP Table Tag Read Accesses: 2732153
L2 IP Table Tag Write Accesses: 2732153

DRAM Statistics
 CHANNEL 0
 RQ ROW_BUFFER_HIT:      14031  ROW_BUFFER_MISS:    2704850
 DBUS_CONGESTED:         40
 WQ ROW_BUFFER_HIT:     660494  ROW_BUFFER_MISS:    1552595  FULL:          0

 AVG_CONGESTED_CYCLE: 4
 All warmup complete: 2
Channel 0 Bank busy for read cycles: 0
Channel 0 Bank busy for write cycles: 0
Channel 0
Rank 0
0banks busy for read cycles: 16158021
0banks busy for write cycles: 293869
1banks busy for read cycles: 111503474
1banks busy for write cycles: 25225136
2banks busy for read cycles: 66173135
2banks busy for write cycles: 28070719
3banks busy for read cycles: 39144628
3banks busy for write cycles: 34377701
4banks busy for read cycles: 10508783
4banks busy for write cycles: 26309392
5banks busy for read cycles: 582176
5banks busy for write cycles: 13378226
6banks busy for read cycles: 35831
6banks busy for write cycles: 6982966
7banks busy for read cycles: 1439
7banks busy for write cycles: 4085829
8banks busy for read cycles: 0
8banks busy for write cycles: 3792982

CPU 0 Branch Prediction Accuracy: 99.9869% MPKI: 0.02047 Average ROB Occupancy at Mispredict: 311.333
Branch types
NOT_BRANCH: 84422558 84.4226%
BRANCH_DIRECT_JUMP: 2274658 2.27466%
BRANCH_INDIRECT: 0 0%
BRANCH_CONDITIONAL: 8868524 8.86852%
BRANCH_DIRECT_CALL: 2217131 2.21713%
BRANCH_INDIRECT_CALL: 0 0%
BRANCH_RETURN: 2217131 2.21713%
BRANCH_OTHER: 0 0%

DRAM PAGES: 1048576
Allocated PAGES: 62133
