
*** ChampSim Multicore Out-of-Order Simulator ***

Warmup Instructions: 50000000
Simulation Instructions: 100000000
Number of CPUs: 1
LLC sets: 2048
LLC ways: 16
Off-chip DRAM Size: 4096 MB Channels: 1 Width: 64-bit Data Rate: 6400 MT/s
CPU 0 runs ../SPEC2017//605.mcf_s-1554B.champsimtrace.xz
.xz
NUM_OF_IPS_IN_CRITICAL_IP_TRAINING: 64
NUM_OF_CRITICAL_IP_TRAINING_TABLE_WAYS: 2
NUM_OF_CRITICAL_IP_TRAINING_TABLE_SETS: 32
WOBBLY_CRITICAL_IP_CACHE_SETS: 32
WOBBLY_CRITICAL_IP_CACHE_WAYS: 4
BTB has LRU replacement policy
ITLB has LRU replacement policy
DTLB has LRU replacement policy
STLB has LRU replacement policy
L1I has LRU replacement policy
IP Table Entries: 256
L1D has LRU replacement policy
Initialize SRRIP state for L2C
Initialize DRRIP state for LLC
Heartbeat CPU 0 instructions: 10000001 cycles: 3511591 heartbeat IPC: 2.84771 cumulative IPC: 2.84771 (Simulation time: 0 hr 4 min 48 sec) 
Heartbeat CPU 0 instructions: 20000000 cycles: 7047058 heartbeat IPC: 2.82848 cumulative IPC: 2.83806 (Simulation time: 0 hr 9 min 39 sec) 
Heartbeat CPU 0 instructions: 30000003 cycles: 10594771 heartbeat IPC: 2.81872 cumulative IPC: 2.83159 (Simulation time: 0 hr 14 min 33 sec) 
Heartbeat CPU 0 instructions: 40000000 cycles: 14127744 heartbeat IPC: 2.83048 cumulative IPC: 2.83131 (Simulation time: 0 hr 19 min 2 sec) 
Heartbeat CPU 0 instructions: 50000001 cycles: 17663964 heartbeat IPC: 2.82788 cumulative IPC: 2.83062 (Simulation time: 0 hr 23 min 26 sec) 

Warmup complete CPU 0 instructions: 50000001 cycles: 17663964 (Simulation time: 0 hr 23 min 26 sec) 

% increase in all ip prefetch 533.947
% increase in all ip prefetch 24.3769
% increase in all ip prefetch -5.65096
Heartbeat CPU 0 instructions: 60000002 cycles: 44388016 heartbeat IPC: 0.374195 cumulative IPC: 0.374195 (Simulation time: 0 hr 29 min 1 sec) 
Heartbeat CPU 0 instructions: 70000000 cycles: 71447390 heartbeat IPC: 0.369558 cumulative IPC: 0.371862 (Simulation time: 0 hr 34 min 31 sec) 
Heartbeat CPU 0 instructions: 80000001 cycles: 98808832 heartbeat IPC: 0.365478 cumulative IPC: 0.369709 (Simulation time: 0 hr 43 min 34 sec) 
Heartbeat CPU 0 instructions: 90000003 cycles: 125869774 heartbeat IPC: 0.369536 cumulative IPC: 0.369666 (Simulation time: 0 hr 53 min 22 sec) 
Heartbeat CPU 0 instructions: 100000000 cycles: 152561838 heartbeat IPC: 0.374643 cumulative IPC: 0.370651 (Simulation time: 1 hr 2 min 6 sec) 
Heartbeat CPU 0 instructions: 110000000 cycles: 179522963 heartbeat IPC: 0.370904 cumulative IPC: 0.370693 (Simulation time: 1 hr 10 min 23 sec) 
Heartbeat CPU 0 instructions: 120000000 cycles: 205053877 heartbeat IPC: 0.391682 cumulative IPC: 0.373553 (Simulation time: 1 hr 17 min 49 sec) 
Heartbeat CPU 0 instructions: 130000000 cycles: 231626463 heartbeat IPC: 0.376328 cumulative IPC: 0.373897 (Simulation time: 1 hr 24 min 44 sec) 
Heartbeat CPU 0 instructions: 140000000 cycles: 258307005 heartbeat IPC: 0.374805 cumulative IPC: 0.373998 (Simulation time: 1 hr 33 min 7 sec) 
Heartbeat CPU 0 instructions: 150000000 cycles: 284802751 heartbeat IPC: 0.377419 cumulative IPC: 0.374337 (Simulation time: 1 hr 44 min 55 sec) 
Finished CPU 0 instructions: 100000003 cycles: 267138788 cumulative IPC: 0.374337 (Simulation time: 1 hr 44 min 55 sec) 

ChampSim completed all CPUs

Region of Interest Statistics

CPU 0 cumulative IPC: 0.374337 instructions: 100000003 cycles: 267138788

CPU 0 Average Load ROB stall cycles: 7.62343e+07
CPU 0 Fraction of times ROB stalled by Loads: 50.4933
CPU 0 Percentage of Load stall cycles in Total stall cycles: 4.72287e+08
Issued all: 167702271
Issued LT all: 161907056
rob_not_full_when_issued_lt_all: 28176970
Issued LT one: 138858837
rob_not_full_when_issued_lt_one: 19567586
 Total stall cycles: 237517683
 Total load stall cycles: 1121764868073494
CPU 0 NUM of IPS identified critical: 0
CPU 0 Num of Load IPs stalling ROB: 73
Threshold modification factor: -2
Max PIST entries: 36
Min PIST entries: 0
Avg PIST entries: 20.9533
Trouble in retire width: 0.988125
MaC = Marked as critical.
lt_50_percent_before_Mac: 0
gt_90_percent_before_Mac: 0
gt_75_percent_before_Mac: 0
gt_50_percent_before_Mac: 0
stall_proportion_bin_same_before_after: 0
stall_proportion_bin_lower_before_after: 0
stall_proportion_bin_upper_before_after: 0
average_stall_proportion_before: -nan
average_stall_proportion_after: -nan
Critical IP stalls, total frequency: 0
Non-critical IP stalls, total frequency: 7429933
Total Freq all stalling IPs: 7429933
stat_90_percent_critical_ip_stalls_freq: 6804584
stat_90_percent_non_critical_ip_stalls_freq: 625349
Critical_IP_ROB_Stalls_Bucket_0: 0
Non-critical_IP_ROB_Stalls_Bucket_0: 1521828
Critical_IP_ROB_Stalls_Bucket_1: 0
Non-critical_IP_ROB_Stalls_Bucket_1: 762128
Critical_IP_ROB_Stalls_Bucket_2: 0
Non-critical_IP_ROB_Stalls_Bucket_2: 223247
Critical_IP_ROB_Stalls_Bucket_3: 0
Non-critical_IP_ROB_Stalls_Bucket_3: 134515
Critical_IP_ROB_Stalls_Bucket_4: 0
Non-critical_IP_ROB_Stalls_Bucket_4: 86458
Critical_IP_ROB_Stalls_Bucket_5: 0
Non-critical_IP_ROB_Stalls_Bucket_5: 112056
Critical_IP_ROB_Stalls_Bucket_6: 0
Non-critical_IP_ROB_Stalls_Bucket_6: 4589701
0 => IPs accounting for >50 percent of stalls, 1 => 55, 2 => 60, 3 => 65 and so on till 90.
percent50: 63.4236 num IPs:  3
percent55: 63.4236 num IPs: 3
percent60: 63.4236 num IPs: 3
percent65: 75.9556 num IPs: 4
percent70: 75.9556 num IPs: 4
percent75: 75.9556 num IPs: 4
percent80: 84.9683 num IPs: 5
percent85: 89.866 num IPs: 6
percent90: 91.5834 num IPs: 7
Critical_ROB_Stalls_Percent_0_Bucket_0: 701832
Non-critical_ROB_Stalls_Percent_0_Bucket_0: 819996
Critical_ROB_Stalls_Percent_0_Bucket_1: 536818
Non-critical_ROB_Stalls_Percent_0_Bucket_1: 225310
Critical_ROB_Stalls_Percent_0_Bucket_2: 159451
Non-critical_ROB_Stalls_Percent_0_Bucket_2: 63796
Critical_ROB_Stalls_Percent_0_Bucket_3: 99399
Non-critical_ROB_Stalls_Percent_0_Bucket_3: 35116
Critical_ROB_Stalls_Percent_0_Bucket_4: 63118
Non-critical_ROB_Stalls_Percent_0_Bucket_4: 23340
Critical_ROB_Stalls_Percent_0_Bucket_5: 71568
Non-critical_ROB_Stalls_Percent_0_Bucket_5: 40488
Critical_ROB_Stalls_Percent_0_Bucket_6: 3080142
Non-critical_ROB_Stalls_Percent_0_Bucket_6: 1509559
Critical_ROB_Stalls_Percent_1_Bucket_0: 701832
Non-critical_ROB_Stalls_Percent_1_Bucket_0: 819996
Critical_ROB_Stalls_Percent_1_Bucket_1: 536818
Non-critical_ROB_Stalls_Percent_1_Bucket_1: 225310
Critical_ROB_Stalls_Percent_1_Bucket_2: 159451
Non-critical_ROB_Stalls_Percent_1_Bucket_2: 63796
Critical_ROB_Stalls_Percent_1_Bucket_3: 99399
Non-critical_ROB_Stalls_Percent_1_Bucket_3: 35116
Critical_ROB_Stalls_Percent_1_Bucket_4: 63118
Non-critical_ROB_Stalls_Percent_1_Bucket_4: 23340
Critical_ROB_Stalls_Percent_1_Bucket_5: 71568
Non-critical_ROB_Stalls_Percent_1_Bucket_5: 40488
Critical_ROB_Stalls_Percent_1_Bucket_6: 3080142
Non-critical_ROB_Stalls_Percent_1_Bucket_6: 1509559
Critical_ROB_Stalls_Percent_2_Bucket_0: 701832
Non-critical_ROB_Stalls_Percent_2_Bucket_0: 819996
Critical_ROB_Stalls_Percent_2_Bucket_1: 536818
Non-critical_ROB_Stalls_Percent_2_Bucket_1: 225310
Critical_ROB_Stalls_Percent_2_Bucket_2: 159451
Non-critical_ROB_Stalls_Percent_2_Bucket_2: 63796
Critical_ROB_Stalls_Percent_2_Bucket_3: 99399
Non-critical_ROB_Stalls_Percent_2_Bucket_3: 35116
Critical_ROB_Stalls_Percent_2_Bucket_4: 63118
Non-critical_ROB_Stalls_Percent_2_Bucket_4: 23340
Critical_ROB_Stalls_Percent_2_Bucket_5: 71568
Non-critical_ROB_Stalls_Percent_2_Bucket_5: 40488
Critical_ROB_Stalls_Percent_2_Bucket_6: 3080142
Non-critical_ROB_Stalls_Percent_2_Bucket_6: 1509559
Critical_ROB_Stalls_Percent_3_Bucket_0: 793167
Non-critical_ROB_Stalls_Percent_3_Bucket_0: 728661
Critical_ROB_Stalls_Percent_3_Bucket_1: 576269
Non-critical_ROB_Stalls_Percent_3_Bucket_1: 185859
Critical_ROB_Stalls_Percent_3_Bucket_2: 186336
Non-critical_ROB_Stalls_Percent_3_Bucket_2: 36911
Critical_ROB_Stalls_Percent_3_Bucket_3: 112056
Non-critical_ROB_Stalls_Percent_3_Bucket_3: 22459
Critical_ROB_Stalls_Percent_3_Bucket_4: 72485
Non-critical_ROB_Stalls_Percent_3_Bucket_4: 13973
Critical_ROB_Stalls_Percent_3_Bucket_5: 91162
Non-critical_ROB_Stalls_Percent_3_Bucket_5: 20894
Critical_ROB_Stalls_Percent_3_Bucket_6: 3811972
Non-critical_ROB_Stalls_Percent_3_Bucket_6: 777729
Critical_ROB_Stalls_Percent_4_Bucket_0: 793167
Non-critical_ROB_Stalls_Percent_4_Bucket_0: 728661
Critical_ROB_Stalls_Percent_4_Bucket_1: 576269
Non-critical_ROB_Stalls_Percent_4_Bucket_1: 185859
Critical_ROB_Stalls_Percent_4_Bucket_2: 186336
Non-critical_ROB_Stalls_Percent_4_Bucket_2: 36911
Critical_ROB_Stalls_Percent_4_Bucket_3: 112056
Non-critical_ROB_Stalls_Percent_4_Bucket_3: 22459
Critical_ROB_Stalls_Percent_4_Bucket_4: 72485
Non-critical_ROB_Stalls_Percent_4_Bucket_4: 13973
Critical_ROB_Stalls_Percent_4_Bucket_5: 91162
Non-critical_ROB_Stalls_Percent_4_Bucket_5: 20894
Critical_ROB_Stalls_Percent_4_Bucket_6: 3811972
Non-critical_ROB_Stalls_Percent_4_Bucket_6: 777729
Critical_ROB_Stalls_Percent_5_Bucket_0: 793167
Non-critical_ROB_Stalls_Percent_5_Bucket_0: 728661
Critical_ROB_Stalls_Percent_5_Bucket_1: 576269
Non-critical_ROB_Stalls_Percent_5_Bucket_1: 185859
Critical_ROB_Stalls_Percent_5_Bucket_2: 186336
Non-critical_ROB_Stalls_Percent_5_Bucket_2: 36911
Critical_ROB_Stalls_Percent_5_Bucket_3: 112056
Non-critical_ROB_Stalls_Percent_5_Bucket_3: 22459
Critical_ROB_Stalls_Percent_5_Bucket_4: 72485
Non-critical_ROB_Stalls_Percent_5_Bucket_4: 13973
Critical_ROB_Stalls_Percent_5_Bucket_5: 91162
Non-critical_ROB_Stalls_Percent_5_Bucket_5: 20894
Critical_ROB_Stalls_Percent_5_Bucket_6: 3811972
Non-critical_ROB_Stalls_Percent_5_Bucket_6: 777729
Critical_ROB_Stalls_Percent_6_Bucket_0: 859451
Non-critical_ROB_Stalls_Percent_6_Bucket_0: 662377
Critical_ROB_Stalls_Percent_6_Bucket_1: 596903
Non-critical_ROB_Stalls_Percent_6_Bucket_1: 165225
Critical_ROB_Stalls_Percent_6_Bucket_2: 202935
Non-critical_ROB_Stalls_Percent_6_Bucket_2: 20312
Critical_ROB_Stalls_Percent_6_Bucket_3: 124342
Non-critical_ROB_Stalls_Percent_6_Bucket_3: 10173
Critical_ROB_Stalls_Percent_6_Bucket_4: 79197
Non-critical_ROB_Stalls_Percent_6_Bucket_4: 7261
Critical_ROB_Stalls_Percent_6_Bucket_5: 100880
Non-critical_ROB_Stalls_Percent_6_Bucket_5: 11176
Critical_ROB_Stalls_Percent_6_Bucket_6: 4349377
Non-critical_ROB_Stalls_Percent_6_Bucket_6: 240324
Critical_ROB_Stalls_Percent_7_Bucket_0: 1055202
Non-critical_ROB_Stalls_Percent_7_Bucket_0: 466626
Critical_ROB_Stalls_Percent_7_Bucket_1: 627453
Non-critical_ROB_Stalls_Percent_7_Bucket_1: 134675
Critical_ROB_Stalls_Percent_7_Bucket_2: 207898
Non-critical_ROB_Stalls_Percent_7_Bucket_2: 15349
Critical_ROB_Stalls_Percent_7_Bucket_3: 127193
Non-critical_ROB_Stalls_Percent_7_Bucket_3: 7322
Critical_ROB_Stalls_Percent_7_Bucket_4: 81879
Non-critical_ROB_Stalls_Percent_7_Bucket_4: 4579
Critical_ROB_Stalls_Percent_7_Bucket_5: 105240
Non-critical_ROB_Stalls_Percent_7_Bucket_5: 6816
Critical_ROB_Stalls_Percent_7_Bucket_6: 4472121
Non-critical_ROB_Stalls_Percent_7_Bucket_6: 117580
Critical_ROB_Stalls_Percent_8_Bucket_0: 1086368
Non-critical_ROB_Stalls_Percent_8_Bucket_0: 435460
Critical_ROB_Stalls_Percent_8_Bucket_1: 722059
Non-critical_ROB_Stalls_Percent_8_Bucket_1: 40069
Critical_ROB_Stalls_Percent_8_Bucket_2: 208794
Non-critical_ROB_Stalls_Percent_8_Bucket_2: 14453
Critical_ROB_Stalls_Percent_8_Bucket_3: 127612
Non-critical_ROB_Stalls_Percent_8_Bucket_3: 6903
Critical_ROB_Stalls_Percent_8_Bucket_4: 82099
Non-critical_ROB_Stalls_Percent_8_Bucket_4: 4359
Critical_ROB_Stalls_Percent_8_Bucket_5: 105356
Non-critical_ROB_Stalls_Percent_8_Bucket_5: 6700
Critical_ROB_Stalls_Percent_8_Bucket_6: 4472296
Non-critical_ROB_Stalls_Percent_8_Bucket_6: 117405
Average ROB occupancy Load Stall Begin: 234.581
Average ROB occupancy Load Stall End: 240.719
Min ROB occupancy Load Stall Begin: 1
Max ROB occupancy Load Stall Begin: 352
Min ROB occupancy Load Stall End: 1
Max ROB occupancy Load Stall End: 352
Average ROB occupancy Critical Load Stall Begin: -nan
Average ROB occupancy Critical Load Stall End: -nan
Min ROB occupancy Critical Load Stall Begin: 400
Max ROB occupancy Critical Load Stall Begin: 0
Min ROB occupancy Critical Load Stall End: 400
Max ROB occupancy Critical Load Stall End: 0
 ROB Load Stall Begin Bucket Count 0: 1741679
 ROB Load Stall End Bucket Count 0: 1521828
 ROB Critical Load Stall Begin Bucket Count 0: 0
 ROB Critical Load Stall End Bucket Count 0: 0
 ROB Load Stall Begin Bucket Count 1: 615599
 ROB Load Stall End Bucket Count 1: 762128
 ROB Critical Load Stall Begin Bucket Count 1: 0
 ROB Critical Load Stall End Bucket Count 1: 0
 ROB Load Stall Begin Bucket Count 2: 189339
 ROB Load Stall End Bucket Count 2: 223247
 ROB Critical Load Stall Begin Bucket Count 2: 0
 ROB Critical Load Stall End Bucket Count 2: 0
 ROB Load Stall Begin Bucket Count 3: 122061
 ROB Load Stall End Bucket Count 3: 134515
 ROB Critical Load Stall Begin Bucket Count 3: 0
 ROB Critical Load Stall End Bucket Count 3: 0
 ROB Load Stall Begin Bucket Count 4: 79033
 ROB Load Stall End Bucket Count 4: 86458
 ROB Critical Load Stall Begin Bucket Count 4: 0
 ROB Critical Load Stall End Bucket Count 4: 0
 ROB Load Stall Begin Bucket Count 5: 188387
 ROB Load Stall End Bucket Count 5: 112056
 ROB Critical Load Stall Begin Bucket Count 5: 0
 ROB Critical Load Stall End Bucket Count 5: 0
 ROB Load Stall Begin Bucket Count 6: 4493835
 ROB Load Stall End Bucket Count 6: 4589701
 ROB Critical Load Stall Begin Bucket Count 6: 0
 ROB Critical Load Stall End Bucket Count 6: 0
PIST Tag Read Accesses: 53506
PIST Read Accesses: 26753
PIST Tag Write Accesses: 53506
PIST Write Accesses: 26753
Criticality detector called times: 99442
Max global_stall_cycles_count: 226236
Threshold Modified: 2 times, factor: -2
Sturdy critical IP cache stats: 
 Unused entries: 0
CIC Tag Read Accesses: 0
CIC Read Accesses: 0
CIC Tag Write Accesses: 0
CIC Write Accesses: 0
Wobbly critical IP cache stats: 
 Unused entries: 115
CIC Tag Read Accesses: 263272882
CIC Read Accesses: 0
CIC Tag Write Accesses: 426535
CIC Write Accesses: 0
ITLB TOTAL     ACCESS:   20677510  HIT:   20677510  MISS:          0  HIT %:        100  MISS %:          0   MPKI: 0
ITLB LOAD TRANSLATION ACCESS:   20677510  HIT:   20677510  MISS:          0  HIT %:        100  MISS %:          0   MPKI: 0
ITLB PREFETCH  REQUESTED:          0  ISSUED:          0  USEFUL:          0  USELESS:          0
ITLB USEFUL LOAD PREFETCHES:          0 PREFETCH ISSUED TO LOWER LEVEL:          0  ACCURACY: -nan
ITLB TIMELY PREFETCHES:          0 LATE PREFETCHES: 0 DROPPED PREFETCHES: 0
ITLB PREFETCHES SAME FILL-ORIGIN LEVEL: 0 DIFFERENT FILL-ORIGIN LEVEL: 0
ITLB AVERAGE MISS LATENCY: -nan cycles
ITLB RQ	ACCESS:   25186324	FORWARD:          0	MERGED:    4508814	TO_CACHE:   20677510

DTLB TOTAL     ACCESS:   31372578  HIT:   30977350  MISS:     395228  HIT %:    98.7402  MISS %:    1.25979   MPKI: 3.95228
DTLB LOAD TRANSLATION ACCESS:   31372578  HIT:   30977350  MISS:     395228  HIT %:    98.7402  MISS %:    1.25979   MPKI: 3.95228
DTLB PREFETCH  REQUESTED:          0  ISSUED:          0  USEFUL:          0  USELESS:          0
DTLB USEFUL LOAD PREFETCHES:          0 PREFETCH ISSUED TO LOWER LEVEL:          0  ACCURACY: -nan
DTLB TIMELY PREFETCHES:          0 LATE PREFETCHES: 0 DROPPED PREFETCHES: 0
DTLB PREFETCHES SAME FILL-ORIGIN LEVEL: 0 DIFFERENT FILL-ORIGIN LEVEL: 0
DTLB AVERAGE MISS LATENCY: 12.7366 cycles
DTLB RQ	ACCESS:   38567544	FORWARD:          0	MERGED:    7181403	TO_CACHE:   31386141

STLB TOTAL     ACCESS:   12827606  HIT:   12819551  MISS:       8055  HIT %:    99.9372  MISS %:  0.0627943   MPKI: 0.08055
STLB LOAD TRANSLATION ACCESS:     395228  HIT:     387176  MISS:       8052  HIT %:    97.9627  MISS %:    2.03731   MPKI: 0.08052
STLB TRANSLATION FROM L1D PREFETCHER ACCESS:   12432378  HIT:   12432375  MISS:          3  HIT %:        100  MISS %: 2.41305e-05   MPKI: 3e-05
STLB PREFETCH  REQUESTED:          0  ISSUED:          0  USEFUL:          3  USELESS:          0
STLB USEFUL LOAD PREFETCHES:          3 PREFETCH ISSUED TO LOWER LEVEL:          0  ACCURACY: inf
STLB TIMELY PREFETCHES:          3 LATE PREFETCHES: 0 DROPPED PREFETCHES: 0
STLB PREFETCHES SAME FILL-ORIGIN LEVEL: 0 DIFFERENT FILL-ORIGIN LEVEL: 0
STLB AVERAGE MISS LATENCY: 182.804 cycles
STLB RQ	ACCESS:   43635551	FORWARD:          0	MERGED:   30807945	TO_CACHE:   12827606

STLB Hit, L1D data hit: 0
STLB Hit, L2C data hit: 0
STLB Hit, LLC data hit: 0
STLB Hit, LLC data miss: 0
STLB STLB hints to L2: 0
L1D TOTAL     ACCESS:   72856386  HIT:   48250863  MISS:   24605523  HIT %:    66.2274  MISS %:    33.7726   MPKI: 246.055
L1D LOAD      ACCESS:   32174094  HIT:   25904019  MISS:    6270075  HIT %:     80.512  MISS %:     19.488   MPKI: 62.7007
L1D RFO       ACCESS:    4925656  HIT:    4659846  MISS:     265810  HIT %:    94.6036  MISS %:    5.39644   MPKI: 2.6581
L1D PREFETCH  ACCESS:   35756636  HIT:   17686998  MISS:   18069638  HIT %:    49.4649  MISS %:    50.5351   MPKI: 180.696
L1D PREFETCH  REQUESTED:   93280624  ISSUED:   86545101  USEFUL:    8866968  USELESS:    9202664
L1D USEFUL LOAD PREFETCHES:    8866968 PREFETCH ISSUED TO LOWER LEVEL:   21850131  ACCURACY: 40.5808
L1D TIMELY PREFETCHES:    8866968 LATE PREFETCHES: 3780324 DROPPED PREFETCHES: 0
L1D PREFETCHES SAME FILL-ORIGIN LEVEL: 21850131 DIFFERENT FILL-ORIGIN LEVEL: 0
L1D AVERAGE MISS LATENCY: 2.36204e+07 cycles
L1D RQ	ACCESS:   41298273	FORWARD:          0	MERGED:    8472939	TO_CACHE:   32768890
L1D WQ	ACCESS:    7122776	FORWARD:      56447	MERGED:    1324122	TO_CACHE:    5798654
L1D PQ	ACCESS:   43304778	FORWARD:          0	MERGED:      64452	TO_CACHE:   43240323

L1D UNIQUE REGIONS ACCESSED: 0
L1D REGIONS CONFLICTS: 0
L1D Cross Page Prefetch Requests: 0
L1D Same Page Prefetch Requests: 57551556
L1D ROI Sum of L1D PQ occupancy: 1342578771
L1D PREFETCHES PUSHED FROM L2C: 0
L1I TOTAL     ACCESS:   25186323  HIT:   25186323  MISS:          0  HIT %:        100  MISS %:          0   MPKI: 0
L1I LOAD      ACCESS:   25186323  HIT:   25186323  MISS:          0  HIT %:        100  MISS %:          0   MPKI: 0
L1I PREFETCH  REQUESTED:          0  ISSUED:          0  USEFUL:          0  USELESS:          0
L1I USEFUL LOAD PREFETCHES:          0 PREFETCH ISSUED TO LOWER LEVEL:          0  ACCURACY: -nan
L1I TIMELY PREFETCHES:          0 LATE PREFETCHES: 0 DROPPED PREFETCHES: 0
L1I PREFETCHES SAME FILL-ORIGIN LEVEL: 0 DIFFERENT FILL-ORIGIN LEVEL: 0
L1I AVERAGE MISS LATENCY: -nan cycles
L1I RQ	ACCESS:   34374584	FORWARD:          0	MERGED:    9188260	TO_CACHE:   25186324

BTB TOTAL     ACCESS:   17751896  HIT:   17751864  MISS:         32  HIT %:    99.9998  MISS %: 0.000180262   MPKI: 0.00032
BTB BRANCH_DIRECT_JUMP	ACCESS:    4133385  HIT:    4133379  MISS:          6
BTB BRANCH_INDIRECT	ACCESS:          0  HIT:          0  MISS:          0
BTB BRANCH_CONDITIONAL	ACCESS:   13616935  HIT:   13616913  MISS:         22
BTB BRANCH_DIRECT_CALL	ACCESS:        788  HIT:        786  MISS:          2
BTB BRANCH_INDIRECT_CALL	ACCESS:          0  HIT:          0  MISS:          0
BTB BRANCH_RETURN	ACCESS:        788  HIT:        786  MISS:          2
BTB BRANCH_OTHER ACCESS:          0  HIT:          0  MISS:          0

L2C TOTAL     ACCESS:   24956778  HIT:     373469  MISS:   24583309  HIT %:    1.49646  MISS %:    98.5035   MPKI: 245.833
L2C LOAD      ACCESS:    2489751  HIT:       4060  MISS:    2485691  HIT %:   0.163069  MISS %:    99.8369   MPKI: 24.8569
L2C DATA LOAD MPKI: 24.8569
L2C INSTRUCTION LOAD MPKI: 0
L2C RFO       ACCESS:     265648  HIT:        926  MISS:     264722  HIT %:   0.348582  MISS %:    99.6514   MPKI: 2.64722
L2C PREFETCH  ACCESS:   21850112  HIT:      20196  MISS:   21829916  HIT %:  0.0924297  MISS %:    99.9076   MPKI: 218.299
L2C DATA PREFETCH MPKI: 218.299
L2C INSTRUCTION PREFETCH MPKI: 0
L2C WRITEBACK ACCESS:     343203  HIT:     342198  MISS:       1005  HIT %:    99.7072  MISS %:    0.29283   MPKI: 0.01005
L2C LOAD TRANSLATION ACCESS:       8061  HIT:       6089  MISS:       1972  HIT %:    75.5365  MISS %:    24.4635   MPKI: 0.01972
L2C TRANSLATION FROM L1D PREFETCHER ACCESS:          3  HIT:          0  MISS:          3  HIT %:          0  MISS %:        100   MPKI: 3e-05
L2C PREFETCH  REQUESTED:          0  ISSUED:          0  USEFUL:       2508  USELESS:   21826820
L2C USEFUL LOAD PREFETCHES:       2508 PREFETCH ISSUED TO LOWER LEVEL:   21829924  ACCURACY: 0.0114888
L2C TIMELY PREFETCHES:       2508 LATE PREFETCHES: 0 DROPPED PREFETCHES: 0
L2C PREFETCHES SAME FILL-ORIGIN LEVEL: 0 DIFFERENT FILL-ORIGIN LEVEL: 0
L2C AVERAGE MISS LATENCY: 101.612 cycles
L2C RQ	ACCESS:    2763467	FORWARD:          0	MERGED:          0	TO_CACHE:    2763463
L2C WQ	ACCESS:     343203	FORWARD:         12	MERGED:          0	TO_CACHE:     343203
L2C PQ	ACCESS:   21850131	FORWARD:          0	MERGED:          0	TO_CACHE:   21850123

L2C Instructions Evicting Data 0
L2C Translations Evicting Data 1975
L2C Data Evicting Data 24578349
L2C Instructions Evicting Instructions 0
L2C Translations Evicting Instructions 0
L2C Data Evicting Instructions 0
L2C Instructions Evicting Translations 0
L2C Translations Evicting Translations 0
L2C Data Evicting Translations 1980
L2C Dense regions hint from L2: 0
PSCL5 TOTAL     ACCESS:       8055  HIT:       8055  MISS:          0  HIT %:        100  MISS %:          0   MPKI: 0
PSCL5 LOAD TRANSLATION ACCESS:       8052  HIT:       8052  MISS:          0  HIT %:        100  MISS %:          0   MPKI: 0
PSCL5 TRANSLATION FROM L1D PREFETCHER ACCESS:          3  HIT:          3  MISS:          0  HIT %:        100  MISS %:          0   MPKI: 0
PSCL5 PREFETCH  REQUESTED:          0  ISSUED:          0  USEFUL:          0  USELESS:          0
PSCL5 USEFUL LOAD PREFETCHES:          0 PREFETCH ISSUED TO LOWER LEVEL:          0  ACCURACY: -nan
PSCL5 TIMELY PREFETCHES:          0 LATE PREFETCHES: 0 DROPPED PREFETCHES: 0
PSCL5 PREFETCHES SAME FILL-ORIGIN LEVEL: 0 DIFFERENT FILL-ORIGIN LEVEL: 0

PSCL4 TOTAL     ACCESS:       8055  HIT:       8055  MISS:          0  HIT %:        100  MISS %:          0   MPKI: 0
PSCL4 LOAD TRANSLATION ACCESS:       8052  HIT:       8052  MISS:          0  HIT %:        100  MISS %:          0   MPKI: 0
PSCL4 TRANSLATION FROM L1D PREFETCHER ACCESS:          3  HIT:          3  MISS:          0  HIT %:        100  MISS %:          0   MPKI: 0
PSCL4 PREFETCH  REQUESTED:          0  ISSUED:          0  USEFUL:          0  USELESS:          0
PSCL4 USEFUL LOAD PREFETCHES:          0 PREFETCH ISSUED TO LOWER LEVEL:          0  ACCURACY: -nan
PSCL4 TIMELY PREFETCHES:          0 LATE PREFETCHES: 0 DROPPED PREFETCHES: 0
PSCL4 PREFETCHES SAME FILL-ORIGIN LEVEL: 0 DIFFERENT FILL-ORIGIN LEVEL: 0

PSCL3 TOTAL     ACCESS:       8055  HIT:       8055  MISS:          0  HIT %:        100  MISS %:          0   MPKI: 0
PSCL3 LOAD TRANSLATION ACCESS:       8052  HIT:       8052  MISS:          0  HIT %:        100  MISS %:          0   MPKI: 0
PSCL3 TRANSLATION FROM L1D PREFETCHER ACCESS:          3  HIT:          3  MISS:          0  HIT %:        100  MISS %:          0   MPKI: 0
PSCL3 PREFETCH  REQUESTED:          0  ISSUED:          0  USEFUL:          0  USELESS:          0
PSCL3 USEFUL LOAD PREFETCHES:          0 PREFETCH ISSUED TO LOWER LEVEL:          0  ACCURACY: -nan
PSCL3 TIMELY PREFETCHES:          0 LATE PREFETCHES: 0 DROPPED PREFETCHES: 0
PSCL3 PREFETCHES SAME FILL-ORIGIN LEVEL: 0 DIFFERENT FILL-ORIGIN LEVEL: 0

PSCL2 TOTAL     ACCESS:       8055  HIT:       8030  MISS:         25  HIT %:    99.6896  MISS %:   0.310366   MPKI: 0.00025
PSCL2 LOAD TRANSLATION ACCESS:       8052  HIT:       8027  MISS:         25  HIT %:    99.6895  MISS %:   0.310482   MPKI: 0.00025
PSCL2 TRANSLATION FROM L1D PREFETCHER ACCESS:          3  HIT:          3  MISS:          0  HIT %:        100  MISS %:          0   MPKI: 0
PSCL2 PREFETCH  REQUESTED:          0  ISSUED:          0  USEFUL:          0  USELESS:          0
PSCL2 USEFUL LOAD PREFETCHES:          0 PREFETCH ISSUED TO LOWER LEVEL:          0  ACCURACY: -nan
PSCL2 TIMELY PREFETCHES:          0 LATE PREFETCHES: 0 DROPPED PREFETCHES: 0
PSCL2 PREFETCHES SAME FILL-ORIGIN LEVEL: 0 DIFFERENT FILL-ORIGIN LEVEL: 0

LLC TOTAL     ACCESS:   24925396  HIT:   11730245  MISS:   13195151  HIT %:    47.0614  MISS %:    52.9386   MPKI: 131.952
LLC LOAD      ACCESS:    2485691  HIT:    1186241  MISS:    1299450  HIT %:    47.7228  MISS %:    52.2772   MPKI: 12.9945
LLC RFO       ACCESS:     264722  HIT:       1164  MISS:     263558  HIT %:   0.439707  MISS %:    99.5603   MPKI: 2.63558
LLC PREFETCH  ACCESS:   21829917  HIT:   10532754  MISS:   11297163  HIT %:    48.2492  MISS %:    51.7508   MPKI: 112.972
LLC WRITEBACK ACCESS:     343091  HIT:      10084  MISS:     333007  HIT %:    2.93916  MISS %:    97.0608   MPKI: 3.33007
LLC LOAD TRANSLATION ACCESS:       1972  HIT:          2  MISS:       1970  HIT %:    0.10142  MISS %:    99.8986   MPKI: 0.0197
LLC TRANSLATION FROM L1D PREFETCHER ACCESS:          3  HIT:          0  MISS:          3  HIT %:          0  MISS %:        100   MPKI: 3e-05
LLC PREFETCH  REQUESTED:          0  ISSUED:          0  USEFUL:      19660  USELESS:   11283921
LLC USEFUL LOAD PREFETCHES:      19660 PREFETCH ISSUED TO LOWER LEVEL:   11297170  ACCURACY: 0.174026
LLC TIMELY PREFETCHES:      19660 LATE PREFETCHES: 0 DROPPED PREFETCHES: 0
LLC PREFETCHES SAME FILL-ORIGIN LEVEL: 0 DIFFERENT FILL-ORIGIN LEVEL: 0
LLC AVERAGE MISS LATENCY: 133.263 cycles
LLC RQ	ACCESS:    2752388	FORWARD:          0	MERGED:          0	TO_CACHE:    2752388
LLC WQ	ACCESS:     343091	FORWARD:          0	MERGED:          0	TO_CACHE:     343091
LLC PQ	ACCESS:   21829924	FORWARD:          0	MERGED:          0	TO_CACHE:   21829924

LLC Dense regions hint to LLC: 0

RAW hits: 4123061
Loads Generated: 45421337
Loads sent to L1D: 41298273
Stores Generated: 7122775
Stores sent to L1D: 7122776
Major fault: 0 Minor fault: 13274
Allocated PAGES: 13274

stream: 
stream:times selected: 30302589
stream:pref_filled: 24473062
stream:pref_useful: 11792292
stream:pref_late: 2944381
stream:misses: 672092
stream:misses_by_poll: 0

CS: 
CS:times selected: 3826223
CS:pref_filled: 180421
CS:pref_useful: 140019
CS:pref_late: 3336
CS:misses: 128568
CS:misses_by_poll: 611

CPLX: 
CPLX:times selected: 26474908
CPLX:pref_filled: 4340889
CPLX:pref_useful: 3319279
CPLX:pref_late: 998650
CPLX:misses: 7061868
CPLX:misses_by_poll: 34997

NL_L1: 
NL:times selected: 149958
NL:pref_filled: 1269
NL:pref_useful: 764
NL:pref_late: 2
NL:misses: 98139
NL:misses_by_poll: 0

total selections: 60753678
total_filled: 18069638
total_useful: 8866968
total_late: 4049121
total_polluted: 35608
total_misses_after_warmup: 6864874
conflicts: 47059
Degree Incremented Times: 416549
Degree Decremented Times: 0

L1 IP Table Write Accesses: 32537250
L1 IP Table Read Accesses: 32490191
L1 RST Write Accesses: 20663980
L1 RST Read Accesses: 41327960
L1 CSPT Write Accesses: 20663980
L1 CSPT Read Accesses: 71095314
L1 RR Filter Tag Write Accesses: 50040301
L1 RR Filter Tag Read Accesses: 3436187108
L1 IP Table Tag Write Accesses: 32768893
L1 IP Table Tag Read Accesses: 32768893
L1 RST Tag Write Accesses: 0
L1 RST Tag Read Accesses: 185830854
L1 RR Filter Write Accesses: 0
L1 RR Filter Read Accesses: 147292733
test: 1585610

DRAM Statistics
 CHANNEL 0
 RQ ROW_BUFFER_HIT:    9283885  ROW_BUFFER_MISS:    3578235
 DBUS_CONGESTED:      14198
 WQ ROW_BUFFER_HIT:      88828  ROW_BUFFER_MISS:     252196  FULL:          0

 AVG_CONGESTED_CYCLE: 5
 All warmup complete: 2
Channel 0 Bank busy for read cycles: 0
Channel 0 Bank busy for write cycles: 0
Channel 0
Rank 0
0banks busy for read cycles: 8186203
0banks busy for write cycles: 4524
1banks busy for read cycles: 28822322
1banks busy for write cycles: 2591158
2banks busy for read cycles: 29570971
2banks busy for write cycles: 1405428
3banks busy for read cycles: 30399679
3banks busy for write cycles: 1107463
4banks busy for read cycles: 33771179
4banks busy for write cycles: 999238
5banks busy for read cycles: 37848314
5banks busy for write cycles: 947265
6banks busy for read cycles: 36046957
6banks busy for write cycles: 1124148
7banks busy for read cycles: 26256992
7banks busy for write cycles: 2023222
8banks busy for read cycles: 12415816
8banks busy for write cycles: 13617910

CPU 0 Branch Prediction Accuracy: 98.5222% MPKI: 2.69335 Average ROB Occupancy at Mispredict: 67.2676
Branch types
NOT_BRANCH: 81775182 81.7752%
BRANCH_DIRECT_JUMP: 4133385 4.13338%
BRANCH_INDIRECT: 0 0%
BRANCH_CONDITIONAL: 14089838 14.0898%
BRANCH_DIRECT_CALL: 788 0.000788%
BRANCH_INDIRECT_CALL: 0 0%
BRANCH_RETURN: 788 0.000788%
BRANCH_OTHER: 0 0%

DRAM PAGES: 1048576
Allocated PAGES: 13274
