Initialize SIGNATURE TABLE
ST_SET: 1
ST_WAY: 256
ST_TAG_BIT: 16
ST_TAG_MASK: ffff

Initialize PATTERN TABLE
PT_SET: 512
PT_WAY: 4
SIG_DELTA_BIT: 7
C_SIG_BIT: 4
C_DELTA_BIT: 4

Initialize PREFETCH FILTER
FILTER_SET: 1024

*** ChampSim Multicore Out-of-Order Simulator ***

Warmup Instructions: 50000000
Simulation Instructions: 100000000
Number of CPUs: 1
LLC sets: 2048
LLC ways: 16
Off-chip DRAM Size: 4096 MB Channels: 1 Width: 64-bit Data Rate: 6400 MT/s
CPU 0 runs ../SPEC2017//605.mcf_s-484B.champsimtrace.xz
.xz
NUM_OF_IPS_IN_CRITICAL_IP_TRAINING: 64
NUM_OF_CRITICAL_IP_TRAINING_TABLE_WAYS: 2
NUM_OF_CRITICAL_IP_TRAINING_TABLE_SETS: 32
WOBBLY_CRITICAL_IP_CACHE_SETS: 32
WOBBLY_CRITICAL_IP_CACHE_WAYS: 4
BTB has LRU replacement policy
ITLB has LRU replacement policy
DTLB has LRU replacement policy
STLB has LRU replacement policy
L1I has LRU replacement policy
L1D has LRU replacement policy
Initialize SRRIP state for L2C
Initialize DRRIP state for LLC
Heartbeat CPU 0 instructions: 10000001 cycles: 3226985 heartbeat IPC: 3.09887 cumulative IPC: 3.09887 (Simulation time: 0 hr 6 min 15 sec) 
Heartbeat CPU 0 instructions: 20000000 cycles: 6492205 heartbeat IPC: 3.06258 cumulative IPC: 3.08062 (Simulation time: 0 hr 12 min 14 sec) 
Heartbeat CPU 0 instructions: 30000001 cycles: 9704214 heartbeat IPC: 3.11332 cumulative IPC: 3.09144 (Simulation time: 0 hr 17 min 4 sec) 
Heartbeat CPU 0 instructions: 40000000 cycles: 12918294 heartbeat IPC: 3.11131 cumulative IPC: 3.09638 (Simulation time: 0 hr 21 min 19 sec) 
Heartbeat CPU 0 instructions: 50000000 cycles: 16157335 heartbeat IPC: 3.08733 cumulative IPC: 3.09457 (Simulation time: 0 hr 25 min 21 sec) 

Warmup complete CPU 0 instructions: 50000004 cycles: 16157336 (Simulation time: 0 hr 25 min 21 sec) 

Heartbeat CPU 0 instructions: 60000003 cycles: 39305812 heartbeat IPC: 0.431994 cumulative IPC: 0.431994 (Simulation time: 0 hr 31 min 18 sec) 
Heartbeat CPU 0 instructions: 70000002 cycles: 67038258 heartbeat IPC: 0.360588 cumulative IPC: 0.393075 (Simulation time: 0 hr 37 min 19 sec) 
Heartbeat CPU 0 instructions: 80000000 cycles: 94829767 heartbeat IPC: 0.359822 cumulative IPC: 0.381328 (Simulation time: 0 hr 42 min 21 sec) 
Heartbeat CPU 0 instructions: 90000000 cycles: 119407755 heartbeat IPC: 0.406868 cumulative IPC: 0.387408 (Simulation time: 0 hr 46 min 51 sec) 
Heartbeat CPU 0 instructions: 100000000 cycles: 141408107 heartbeat IPC: 0.454538 cumulative IPC: 0.399199 (Simulation time: 0 hr 50 min 49 sec) 
Heartbeat CPU 0 instructions: 110000000 cycles: 163970833 heartbeat IPC: 0.443209 cumulative IPC: 0.405917 (Simulation time: 0 hr 58 min 28 sec) 
Heartbeat CPU 0 instructions: 120000001 cycles: 183866808 heartbeat IPC: 0.502614 cumulative IPC: 0.417388 (Simulation time: 1 hr 6 min 4 sec) 
Heartbeat CPU 0 instructions: 130000000 cycles: 204511487 heartbeat IPC: 0.484386 cumulative IPC: 0.424732 (Simulation time: 1 hr 12 min 36 sec) 
Heartbeat CPU 0 instructions: 140000001 cycles: 227033466 heartbeat IPC: 0.444011 cumulative IPC: 0.426791 (Simulation time: 1 hr 18 min 57 sec) 
Heartbeat CPU 0 instructions: 150000002 cycles: 247322031 heartbeat IPC: 0.492889 cumulative IPC: 0.432592 (Simulation time: 1 hr 24 min 28 sec) 
Finished CPU 0 instructions: 100000000 cycles: 231164696 cumulative IPC: 0.432592 (Simulation time: 1 hr 24 min 28 sec) 

ChampSim completed all CPUs

Region of Interest Statistics

CPU 0 cumulative IPC: 0.432592 instructions: 100000000 cycles: 231164696

CPU 0 Average Load ROB stall cycles: 4.5041e+07
CPU 0 Fraction of times ROB stalled by Loads: 32.7023
CPU 0 Percentage of Load stall cycles in Total stall cycles: 5.41613e+08
Issued all: 132635041
Issued LT all: 124136823
rob_not_full_when_issued_lt_all: 27696236
Issued LT one: 104609584
rob_not_full_when_issued_lt_one: 22820542
 Total stall cycles: 208121883
 Total load stall cycles: 1127215880324137
CPU 0 NUM of IPS identified critical: 0
CPU 0 Num of Load IPs stalling ROB: 76
Threshold modification factor: 0
Max PIST entries: 34
Min PIST entries: 0
Avg PIST entries: 10.7733
Trouble in retire width: 0.996867
MaC = Marked as critical.
lt_50_percent_before_Mac: 0
gt_90_percent_before_Mac: 0
gt_75_percent_before_Mac: 0
gt_50_percent_before_Mac: 0
stall_proportion_bin_same_before_after: 0
stall_proportion_bin_lower_before_after: 0
stall_proportion_bin_upper_before_after: 0
average_stall_proportion_before: -nan
average_stall_proportion_after: -nan
Critical IP stalls, total frequency: 0
Non-critical IP stalls, total frequency: 8184236
Total Freq all stalling IPs: 8184236
stat_90_percent_critical_ip_stalls_freq: 7419111
stat_90_percent_non_critical_ip_stalls_freq: 765125
Critical_IP_ROB_Stalls_Bucket_0: 0
Non-critical_IP_ROB_Stalls_Bucket_0: 573414
Critical_IP_ROB_Stalls_Bucket_1: 0
Non-critical_IP_ROB_Stalls_Bucket_1: 274320
Critical_IP_ROB_Stalls_Bucket_2: 0
Non-critical_IP_ROB_Stalls_Bucket_2: 414372
Critical_IP_ROB_Stalls_Bucket_3: 0
Non-critical_IP_ROB_Stalls_Bucket_3: 560120
Critical_IP_ROB_Stalls_Bucket_4: 0
Non-critical_IP_ROB_Stalls_Bucket_4: 522770
Critical_IP_ROB_Stalls_Bucket_5: 0
Non-critical_IP_ROB_Stalls_Bucket_5: 1023750
Critical_IP_ROB_Stalls_Bucket_6: 0
Non-critical_IP_ROB_Stalls_Bucket_6: 4815490
0 => IPs accounting for >50 percent of stalls, 1 => 55, 2 => 60, 3 => 65 and so on till 90.
percent50: 55.3596 num IPs:  2
percent55: 55.3596 num IPs: 2
percent60: 69.1618 num IPs: 3
percent65: 69.1618 num IPs: 3
percent70: 77.9911 num IPs: 4
percent75: 77.9911 num IPs: 4
percent80: 81.9939 num IPs: 5
percent85: 85.3149 num IPs: 6
percent90: 90.6512 num IPs: 9
Critical_ROB_Stalls_Percent_0_Bucket_0: 203303
Non-critical_ROB_Stalls_Percent_0_Bucket_0: 370111
Critical_ROB_Stalls_Percent_0_Bucket_1: 115962
Non-critical_ROB_Stalls_Percent_0_Bucket_1: 158358
Critical_ROB_Stalls_Percent_0_Bucket_2: 181860
Non-critical_ROB_Stalls_Percent_0_Bucket_2: 232512
Critical_ROB_Stalls_Percent_0_Bucket_3: 261466
Non-critical_ROB_Stalls_Percent_0_Bucket_3: 298654
Critical_ROB_Stalls_Percent_0_Bucket_4: 235491
Non-critical_ROB_Stalls_Percent_0_Bucket_4: 287279
Critical_ROB_Stalls_Percent_0_Bucket_5: 695065
Non-critical_ROB_Stalls_Percent_0_Bucket_5: 328685
Critical_ROB_Stalls_Percent_0_Bucket_6: 2837610
Non-critical_ROB_Stalls_Percent_0_Bucket_6: 1977880
Critical_ROB_Stalls_Percent_1_Bucket_0: 203303
Non-critical_ROB_Stalls_Percent_1_Bucket_0: 370111
Critical_ROB_Stalls_Percent_1_Bucket_1: 115962
Non-critical_ROB_Stalls_Percent_1_Bucket_1: 158358
Critical_ROB_Stalls_Percent_1_Bucket_2: 181860
Non-critical_ROB_Stalls_Percent_1_Bucket_2: 232512
Critical_ROB_Stalls_Percent_1_Bucket_3: 261466
Non-critical_ROB_Stalls_Percent_1_Bucket_3: 298654
Critical_ROB_Stalls_Percent_1_Bucket_4: 235491
Non-critical_ROB_Stalls_Percent_1_Bucket_4: 287279
Critical_ROB_Stalls_Percent_1_Bucket_5: 695065
Non-critical_ROB_Stalls_Percent_1_Bucket_5: 328685
Critical_ROB_Stalls_Percent_1_Bucket_6: 2837610
Non-critical_ROB_Stalls_Percent_1_Bucket_6: 1977880
Critical_ROB_Stalls_Percent_2_Bucket_0: 205527
Non-critical_ROB_Stalls_Percent_2_Bucket_0: 367887
Critical_ROB_Stalls_Percent_2_Bucket_1: 117525
Non-critical_ROB_Stalls_Percent_2_Bucket_1: 156795
Critical_ROB_Stalls_Percent_2_Bucket_2: 218466
Non-critical_ROB_Stalls_Percent_2_Bucket_2: 195906
Critical_ROB_Stalls_Percent_2_Bucket_3: 323068
Non-critical_ROB_Stalls_Percent_2_Bucket_3: 237052
Critical_ROB_Stalls_Percent_2_Bucket_4: 326233
Non-critical_ROB_Stalls_Percent_2_Bucket_4: 196537
Critical_ROB_Stalls_Percent_2_Bucket_5: 819140
Non-critical_ROB_Stalls_Percent_2_Bucket_5: 204610
Critical_ROB_Stalls_Percent_2_Bucket_6: 3650410
Non-critical_ROB_Stalls_Percent_2_Bucket_6: 1165080
Critical_ROB_Stalls_Percent_3_Bucket_0: 205527
Non-critical_ROB_Stalls_Percent_3_Bucket_0: 367887
Critical_ROB_Stalls_Percent_3_Bucket_1: 117525
Non-critical_ROB_Stalls_Percent_3_Bucket_1: 156795
Critical_ROB_Stalls_Percent_3_Bucket_2: 218466
Non-critical_ROB_Stalls_Percent_3_Bucket_2: 195906
Critical_ROB_Stalls_Percent_3_Bucket_3: 323068
Non-critical_ROB_Stalls_Percent_3_Bucket_3: 237052
Critical_ROB_Stalls_Percent_3_Bucket_4: 326233
Non-critical_ROB_Stalls_Percent_3_Bucket_4: 196537
Critical_ROB_Stalls_Percent_3_Bucket_5: 819140
Non-critical_ROB_Stalls_Percent_3_Bucket_5: 204610
Critical_ROB_Stalls_Percent_3_Bucket_6: 3650410
Non-critical_ROB_Stalls_Percent_3_Bucket_6: 1165080
Critical_ROB_Stalls_Percent_4_Bucket_0: 213254
Non-critical_ROB_Stalls_Percent_4_Bucket_0: 360160
Critical_ROB_Stalls_Percent_4_Bucket_1: 135224
Non-critical_ROB_Stalls_Percent_4_Bucket_1: 139096
Critical_ROB_Stalls_Percent_4_Bucket_2: 252339
Non-critical_ROB_Stalls_Percent_4_Bucket_2: 162033
Critical_ROB_Stalls_Percent_4_Bucket_3: 428047
Non-critical_ROB_Stalls_Percent_4_Bucket_3: 132073
Critical_ROB_Stalls_Percent_4_Bucket_4: 459992
Non-critical_ROB_Stalls_Percent_4_Bucket_4: 62778
Critical_ROB_Stalls_Percent_4_Bucket_5: 927351
Non-critical_ROB_Stalls_Percent_4_Bucket_5: 96399
Critical_ROB_Stalls_Percent_4_Bucket_6: 3966766
Non-critical_ROB_Stalls_Percent_4_Bucket_6: 848724
Critical_ROB_Stalls_Percent_5_Bucket_0: 213254
Non-critical_ROB_Stalls_Percent_5_Bucket_0: 360160
Critical_ROB_Stalls_Percent_5_Bucket_1: 135224
Non-critical_ROB_Stalls_Percent_5_Bucket_1: 139096
Critical_ROB_Stalls_Percent_5_Bucket_2: 252339
Non-critical_ROB_Stalls_Percent_5_Bucket_2: 162033
Critical_ROB_Stalls_Percent_5_Bucket_3: 428047
Non-critical_ROB_Stalls_Percent_5_Bucket_3: 132073
Critical_ROB_Stalls_Percent_5_Bucket_4: 459992
Non-critical_ROB_Stalls_Percent_5_Bucket_4: 62778
Critical_ROB_Stalls_Percent_5_Bucket_5: 927351
Non-critical_ROB_Stalls_Percent_5_Bucket_5: 96399
Critical_ROB_Stalls_Percent_5_Bucket_6: 3966766
Non-critical_ROB_Stalls_Percent_5_Bucket_6: 848724
Critical_ROB_Stalls_Percent_6_Bucket_0: 241543
Non-critical_ROB_Stalls_Percent_6_Bucket_0: 331871
Critical_ROB_Stalls_Percent_6_Bucket_1: 151545
Non-critical_ROB_Stalls_Percent_6_Bucket_1: 122775
Critical_ROB_Stalls_Percent_6_Bucket_2: 285580
Non-critical_ROB_Stalls_Percent_6_Bucket_2: 128792
Critical_ROB_Stalls_Percent_6_Bucket_3: 457872
Non-critical_ROB_Stalls_Percent_6_Bucket_3: 102248
Critical_ROB_Stalls_Percent_6_Bucket_4: 473267
Non-critical_ROB_Stalls_Percent_6_Bucket_4: 49503
Critical_ROB_Stalls_Percent_6_Bucket_5: 935352
Non-critical_ROB_Stalls_Percent_6_Bucket_5: 88398
Critical_ROB_Stalls_Percent_6_Bucket_6: 4165412
Non-critical_ROB_Stalls_Percent_6_Bucket_6: 650078
Critical_ROB_Stalls_Percent_7_Bucket_0: 293038
Non-critical_ROB_Stalls_Percent_7_Bucket_0: 280376
Critical_ROB_Stalls_Percent_7_Bucket_1: 172733
Non-critical_ROB_Stalls_Percent_7_Bucket_1: 101587
Critical_ROB_Stalls_Percent_7_Bucket_2: 300225
Non-critical_ROB_Stalls_Percent_7_Bucket_2: 114147
Critical_ROB_Stalls_Percent_7_Bucket_3: 474641
Non-critical_ROB_Stalls_Percent_7_Bucket_3: 85479
Critical_ROB_Stalls_Percent_7_Bucket_4: 481409
Non-critical_ROB_Stalls_Percent_7_Bucket_4: 41361
Critical_ROB_Stalls_Percent_7_Bucket_5: 951377
Non-critical_ROB_Stalls_Percent_7_Bucket_5: 72373
Critical_ROB_Stalls_Percent_7_Bucket_6: 4308948
Non-critical_ROB_Stalls_Percent_7_Bucket_6: 506542
Critical_ROB_Stalls_Percent_8_Bucket_0: 345073
Non-critical_ROB_Stalls_Percent_8_Bucket_0: 228341
Critical_ROB_Stalls_Percent_8_Bucket_1: 223480
Non-critical_ROB_Stalls_Percent_8_Bucket_1: 50840
Critical_ROB_Stalls_Percent_8_Bucket_2: 376269
Non-critical_ROB_Stalls_Percent_8_Bucket_2: 38103
Critical_ROB_Stalls_Percent_8_Bucket_3: 507444
Non-critical_ROB_Stalls_Percent_8_Bucket_3: 52676
Critical_ROB_Stalls_Percent_8_Bucket_4: 494193
Non-critical_ROB_Stalls_Percent_8_Bucket_4: 28577
Critical_ROB_Stalls_Percent_8_Bucket_5: 965054
Non-critical_ROB_Stalls_Percent_8_Bucket_5: 58696
Critical_ROB_Stalls_Percent_8_Bucket_6: 4507598
Non-critical_ROB_Stalls_Percent_8_Bucket_6: 307892
Average ROB occupancy Load Stall Begin: 268.2
Average ROB occupancy Load Stall End: 273.695
Min ROB occupancy Load Stall Begin: 1
Max ROB occupancy Load Stall Begin: 352
Min ROB occupancy Load Stall End: 1
Max ROB occupancy Load Stall End: 352
Average ROB occupancy Critical Load Stall Begin: -nan
Average ROB occupancy Critical Load Stall End: -nan
Min ROB occupancy Critical Load Stall Begin: 400
Max ROB occupancy Critical Load Stall Begin: 0
Min ROB occupancy Critical Load Stall End: 400
Max ROB occupancy Critical Load Stall End: 0
 ROB Load Stall Begin Bucket Count 0: 641816
 ROB Load Stall End Bucket Count 0: 573414
 ROB Critical Load Stall Begin Bucket Count 0: 0
 ROB Critical Load Stall End Bucket Count 0: 0
 ROB Load Stall Begin Bucket Count 1: 273518
 ROB Load Stall End Bucket Count 1: 274320
 ROB Critical Load Stall Begin Bucket Count 1: 0
 ROB Critical Load Stall End Bucket Count 1: 0
 ROB Load Stall Begin Bucket Count 2: 442770
 ROB Load Stall End Bucket Count 2: 414372
 ROB Critical Load Stall Begin Bucket Count 2: 0
 ROB Critical Load Stall End Bucket Count 2: 0
 ROB Load Stall Begin Bucket Count 3: 554733
 ROB Load Stall End Bucket Count 3: 560120
 ROB Critical Load Stall Begin Bucket Count 3: 0
 ROB Critical Load Stall End Bucket Count 3: 0
 ROB Load Stall Begin Bucket Count 4: 550752
 ROB Load Stall End Bucket Count 4: 522770
 ROB Critical Load Stall Begin Bucket Count 4: 0
 ROB Critical Load Stall End Bucket Count 4: 0
 ROB Load Stall Begin Bucket Count 5: 1109827
 ROB Load Stall End Bucket Count 5: 1023750
 ROB Critical Load Stall Begin Bucket Count 5: 0
 ROB Critical Load Stall End Bucket Count 5: 0
 ROB Load Stall Begin Bucket Count 6: 4610820
 ROB Load Stall End Bucket Count 6: 4815490
 ROB Critical Load Stall Begin Bucket Count 6: 0
 ROB Critical Load Stall End Bucket Count 6: 0
PIST Tag Read Accesses: 40890
PIST Read Accesses: 20445
PIST Tag Write Accesses: 40890
PIST Write Accesses: 20445
Criticality detector called times: 92048
Max global_stall_cycles_count: 485874
Threshold Modified: 0 times, factor: 0
Sturdy critical IP cache stats: 
 Unused entries: 0
CIC Tag Read Accesses: 0
CIC Read Accesses: 0
CIC Tag Write Accesses: 0
CIC Write Accesses: 0
Wobbly critical IP cache stats: 
 Unused entries: 101
CIC Tag Read Accesses: 436789549
CIC Read Accesses: 0
CIC Tag Write Accesses: 1530215
CIC Write Accesses: 0
ITLB TOTAL     ACCESS:   16345604  HIT:   16345604  MISS:          0  HIT %:        100  MISS %:          0   MPKI: 0
ITLB LOAD TRANSLATION ACCESS:   16345604  HIT:   16345604  MISS:          0  HIT %:        100  MISS %:          0   MPKI: 0
ITLB PREFETCH  REQUESTED:          0  ISSUED:          0  USEFUL:          0  USELESS:          0
ITLB USEFUL LOAD PREFETCHES:          0 PREFETCH ISSUED TO LOWER LEVEL:          0  ACCURACY: -nan
ITLB TIMELY PREFETCHES:          0 LATE PREFETCHES: 0 DROPPED PREFETCHES: 0
ITLB PREFETCHES SAME FILL-ORIGIN LEVEL: 0 DIFFERENT FILL-ORIGIN LEVEL: 0
ITLB AVERAGE MISS LATENCY: -nan cycles
ITLB RQ	ACCESS:   21377945	FORWARD:          0	MERGED:    5032341	TO_CACHE:   16345604

DTLB TOTAL     ACCESS:   26427502  HIT:   26221519  MISS:     205983  HIT %:    99.2206  MISS %:   0.779427   MPKI: 2.05983
DTLB LOAD TRANSLATION ACCESS:   26427502  HIT:   26221519  MISS:     205983  HIT %:    99.2206  MISS %:   0.779427   MPKI: 2.05983
DTLB PREFETCH  REQUESTED:          0  ISSUED:          0  USEFUL:          0  USELESS:          0
DTLB USEFUL LOAD PREFETCHES:          0 PREFETCH ISSUED TO LOWER LEVEL:          0  ACCURACY: -nan
DTLB TIMELY PREFETCHES:          0 LATE PREFETCHES: 0 DROPPED PREFETCHES: 0
DTLB PREFETCHES SAME FILL-ORIGIN LEVEL: 0 DIFFERENT FILL-ORIGIN LEVEL: 0
DTLB AVERAGE MISS LATENCY: 36.929 cycles
DTLB RQ	ACCESS:   46716528	FORWARD:          0	MERGED:   20264748	TO_CACHE:   26451780

STLB TOTAL     ACCESS:     205983  HIT:     136252  MISS:      69731  HIT %:    66.1472  MISS %:    33.8528   MPKI: 0.69731
STLB LOAD TRANSLATION ACCESS:     205983  HIT:     136252  MISS:      69731  HIT %:    66.1472  MISS %:    33.8528   MPKI: 0.69731
STLB PREFETCH  REQUESTED:          0  ISSUED:          0  USEFUL:          0  USELESS:          0
STLB USEFUL LOAD PREFETCHES:          0 PREFETCH ISSUED TO LOWER LEVEL:          0  ACCURACY: -nan
STLB TIMELY PREFETCHES:          0 LATE PREFETCHES: 0 DROPPED PREFETCHES: 0
STLB PREFETCHES SAME FILL-ORIGIN LEVEL: 0 DIFFERENT FILL-ORIGIN LEVEL: 0
STLB AVERAGE MISS LATENCY: 82.4018 cycles
STLB RQ	ACCESS:     205983	FORWARD:          0	MERGED:          0	TO_CACHE:     205983

STLB Hit, L1D data hit: 0
STLB Hit, L2C data hit: 0
STLB Hit, LLC data hit: 0
STLB Hit, LLC data miss: 0
STLB STLB hints to L2: 0
L1D TOTAL     ACCESS:   45801921  HIT:   43229677  MISS:    2572244  HIT %:     94.384  MISS %:    5.61602   MPKI: 25.7224
L1D LOAD      ACCESS:   17925824  HIT:   15586110  MISS:    2339714  HIT %:    86.9478  MISS %:    13.0522   MPKI: 23.3971
L1D RFO       ACCESS:   27876097  HIT:   27643567  MISS:     232530  HIT %:    99.1658  MISS %:   0.834156   MPKI: 2.3253
L1D PREFETCH  REQUESTED:          0  ISSUED:          0  USEFUL:          0  USELESS:          0
L1D USEFUL LOAD PREFETCHES:          0 PREFETCH ISSUED TO LOWER LEVEL:          0  ACCURACY: -nan
L1D TIMELY PREFETCHES:          0 LATE PREFETCHES: 0 DROPPED PREFETCHES: 0
L1D PREFETCHES SAME FILL-ORIGIN LEVEL: 0 DIFFERENT FILL-ORIGIN LEVEL: 0
L1D AVERAGE MISS LATENCY: 112.338 cycles
L1D RQ	ACCESS:   31245753	FORWARD:          0	MERGED:   13119134	TO_CACHE:   18099815
L1D WQ	ACCESS:   28891366	FORWARD:      26804	MERGED:     274653	TO_CACHE:   28616713

L1D UNIQUE REGIONS ACCESSED: 0
L1D REGIONS CONFLICTS: 0
L1D Cross Page Prefetch Requests: 0
L1D Same Page Prefetch Requests: 0
L1D ROI Sum of L1D PQ occupancy: 0
L1D PREFETCHES PUSHED FROM L2C: 0
L1I TOTAL     ACCESS:   21377945  HIT:   21377945  MISS:          0  HIT %:        100  MISS %:          0   MPKI: 0
L1I LOAD      ACCESS:   21377945  HIT:   21377945  MISS:          0  HIT %:        100  MISS %:          0   MPKI: 0
L1I PREFETCH  REQUESTED:          0  ISSUED:          0  USEFUL:          0  USELESS:          0
L1I USEFUL LOAD PREFETCHES:          0 PREFETCH ISSUED TO LOWER LEVEL:          0  ACCURACY: -nan
L1I TIMELY PREFETCHES:          0 LATE PREFETCHES: 0 DROPPED PREFETCHES: 0
L1I PREFETCHES SAME FILL-ORIGIN LEVEL: 0 DIFFERENT FILL-ORIGIN LEVEL: 0
L1I AVERAGE MISS LATENCY: -nan cycles
L1I RQ	ACCESS:   29633490	FORWARD:          0	MERGED:    8255545	TO_CACHE:   21377945

BTB TOTAL     ACCESS:    9650941  HIT:    9650907  MISS:         34  HIT %:    99.9996  MISS %: 0.000352297   MPKI: 0.00034
BTB BRANCH_DIRECT_JUMP	ACCESS:     463202  HIT:     463196  MISS:          6
BTB BRANCH_INDIRECT	ACCESS:          0  HIT:          0  MISS:          0
BTB BRANCH_CONDITIONAL	ACCESS:    9187651  HIT:    9187627  MISS:         24
BTB BRANCH_DIRECT_CALL	ACCESS:         44  HIT:         42  MISS:          2
BTB BRANCH_INDIRECT_CALL	ACCESS:          0  HIT:          0  MISS:          0
BTB BRANCH_RETURN	ACCESS:         44  HIT:         42  MISS:          2
BTB BRANCH_OTHER ACCESS:          0  HIT:          0  MISS:          0

L2C TOTAL     ACCESS:    3750790  HIT:    1198004  MISS:    2552786  HIT %:      31.94  MISS %:      68.06   MPKI: 25.5279
L2C LOAD      ACCESS:    2339710  HIT:     348648  MISS:    1991062  HIT %:    14.9013  MISS %:    85.0987   MPKI: 19.9106
L2C DATA LOAD MPKI: 19.9106
L2C INSTRUCTION LOAD MPKI: 0
L2C RFO       ACCESS:     232525  HIT:       1895  MISS:     230630  HIT %:   0.814966  MISS %:     99.185   MPKI: 2.3063
L2C PREFETCH  ACCESS:     491468  HIT:     181961  MISS:     309507  HIT %:     37.024  MISS %:     62.976   MPKI: 3.09507
L2C DATA PREFETCH MPKI: 3.09507
L2C INSTRUCTION PREFETCH MPKI: 0
L2C WRITEBACK ACCESS:     617212  HIT:     605770  MISS:      11442  HIT %:    98.1462  MISS %:    1.85382   MPKI: 0.11442
L2C LOAD TRANSLATION ACCESS:      69875  HIT:      59730  MISS:      10145  HIT %:    85.4812  MISS %:    14.5188   MPKI: 0.10145
L2C PREFETCH  REQUESTED:    5418967  ISSUED:    5417898  USEFUL:     303171  USELESS:       6324
L2C USEFUL LOAD PREFETCHES:     303171 PREFETCH ISSUED TO LOWER LEVEL:    4917484  ACCURACY: 6.16516
L2C TIMELY PREFETCHES:     303171 LATE PREFETCHES: 12382 DROPPED PREFETCHES: 0
L2C PREFETCHES SAME FILL-ORIGIN LEVEL: 321889 DIFFERENT FILL-ORIGIN LEVEL: 4595595
L2C AVERAGE MISS LATENCY: 103.849 cycles
L2C RQ	ACCESS:    2642119	FORWARD:          0	MERGED:          0	TO_CACHE:    2642110
L2C WQ	ACCESS:     617212	FORWARD:         14	MERGED:          0	TO_CACHE:     617212
L2C PQ	ACCESS:    5417898	FORWARD:          0	MERGED:     171164	TO_CACHE:    5246729

L2C Instructions Evicting Data 0
L2C Translations Evicting Data 10111
L2C Data Evicting Data 2521178
L2C Instructions Evicting Instructions 0
L2C Translations Evicting Instructions 0
L2C Data Evicting Instructions 0
L2C Instructions Evicting Translations 0
L2C Translations Evicting Translations 34
L2C Data Evicting Translations 10021
L2C Dense regions hint from L2: 0
PSCL5 TOTAL     ACCESS:      69731  HIT:      69731  MISS:          0  HIT %:        100  MISS %:          0   MPKI: 0
PSCL5 LOAD TRANSLATION ACCESS:      69731  HIT:      69731  MISS:          0  HIT %:        100  MISS %:          0   MPKI: 0
PSCL5 PREFETCH  REQUESTED:          0  ISSUED:          0  USEFUL:          0  USELESS:          0
PSCL5 USEFUL LOAD PREFETCHES:          0 PREFETCH ISSUED TO LOWER LEVEL:          0  ACCURACY: -nan
PSCL5 TIMELY PREFETCHES:          0 LATE PREFETCHES: 0 DROPPED PREFETCHES: 0
PSCL5 PREFETCHES SAME FILL-ORIGIN LEVEL: 0 DIFFERENT FILL-ORIGIN LEVEL: 0

PSCL4 TOTAL     ACCESS:      69731  HIT:      69731  MISS:          0  HIT %:        100  MISS %:          0   MPKI: 0
PSCL4 LOAD TRANSLATION ACCESS:      69731  HIT:      69731  MISS:          0  HIT %:        100  MISS %:          0   MPKI: 0
PSCL4 PREFETCH  REQUESTED:          0  ISSUED:          0  USEFUL:          0  USELESS:          0
PSCL4 USEFUL LOAD PREFETCHES:          0 PREFETCH ISSUED TO LOWER LEVEL:          0  ACCURACY: -nan
PSCL4 TIMELY PREFETCHES:          0 LATE PREFETCHES: 0 DROPPED PREFETCHES: 0
PSCL4 PREFETCHES SAME FILL-ORIGIN LEVEL: 0 DIFFERENT FILL-ORIGIN LEVEL: 0

PSCL3 TOTAL     ACCESS:      69731  HIT:      69731  MISS:          0  HIT %:        100  MISS %:          0   MPKI: 0
PSCL3 LOAD TRANSLATION ACCESS:      69731  HIT:      69731  MISS:          0  HIT %:        100  MISS %:          0   MPKI: 0
PSCL3 PREFETCH  REQUESTED:          0  ISSUED:          0  USEFUL:          0  USELESS:          0
PSCL3 USEFUL LOAD PREFETCHES:          0 PREFETCH ISSUED TO LOWER LEVEL:          0  ACCURACY: -nan
PSCL3 TIMELY PREFETCHES:          0 LATE PREFETCHES: 0 DROPPED PREFETCHES: 0
PSCL3 PREFETCHES SAME FILL-ORIGIN LEVEL: 0 DIFFERENT FILL-ORIGIN LEVEL: 0

PSCL2 TOTAL     ACCESS:      69731  HIT:      69536  MISS:        195  HIT %:    99.7204  MISS %:   0.279646   MPKI: 0.00195
PSCL2 LOAD TRANSLATION ACCESS:      69731  HIT:      69536  MISS:        195  HIT %:    99.7204  MISS %:   0.279646   MPKI: 0.00195
PSCL2 PREFETCH  REQUESTED:          0  ISSUED:          0  USEFUL:          0  USELESS:          0
PSCL2 USEFUL LOAD PREFETCHES:          0 PREFETCH ISSUED TO LOWER LEVEL:          0  ACCURACY: -nan
PSCL2 TIMELY PREFETCHES:          0 LATE PREFETCHES: 0 DROPPED PREFETCHES: 0
PSCL2 PREFETCHES SAME FILL-ORIGIN LEVEL: 0 DIFFERENT FILL-ORIGIN LEVEL: 0

LLC TOTAL     ACCESS:    6876850  HIT:    3633357  MISS:    3243493  HIT %:    52.8346  MISS %:    47.1654   MPKI: 32.4349
LLC LOAD      ACCESS:    1978701  HIT:     880201  MISS:    1098500  HIT %:    44.4838  MISS %:    55.5162   MPKI: 10.985
LLC RFO       ACCESS:     230609  HIT:      15263  MISS:     215346  HIT %:    6.61856  MISS %:    93.3814   MPKI: 2.15346
LLC PREFETCH  ACCESS:    4075336  HIT:    2549127  MISS:    1526209  HIT %:    62.5501  MISS %:    37.4499   MPKI: 15.2621
LLC WRITEBACK ACCESS:     582059  HIT:     188708  MISS:     393351  HIT %:    32.4208  MISS %:    67.5792   MPKI: 3.93351
LLC LOAD TRANSLATION ACCESS:      10145  HIT:         58  MISS:      10087  HIT %:    0.57171  MISS %:    99.4283   MPKI: 0.10087
LLC PREFETCH  REQUESTED:          0  ISSUED:          0  USEFUL:     879541  USELESS:     638114
LLC USEFUL LOAD PREFETCHES:     879541 PREFETCH ISSUED TO LOWER LEVEL:    1909545  ACCURACY: 46.0602
LLC TIMELY PREFETCHES:     879541 LATE PREFETCHES: 383336 DROPPED PREFETCHES: 0
LLC PREFETCHES SAME FILL-ORIGIN LEVEL: 1882943 DIFFERENT FILL-ORIGIN LEVEL: 0
LLC AVERAGE MISS LATENCY: 132.634 cycles
LLC RQ	ACCESS:    2219455	FORWARD:          0	MERGED:          0	TO_CACHE:    2219455
LLC WQ	ACCESS:     582059	FORWARD:          0	MERGED:          0	TO_CACHE:     582059
LLC PQ	ACCESS:    4917484	FORWARD:          0	MERGED:      45517	TO_CACHE:    4871967

LLC Dense regions hint to LLC: 0

RAW hits: 639376
Loads Generated: 31885130
Loads sent to L1D: 31245753
Stores Generated: 28891363
Stores sent to L1D: 28891366
Major fault: 0 Minor fault: 38413
Allocated PAGES: 38413
 All Calls: 3397540
 Critical Calls: 2337313
------------------
Depth Distribution
------------------
depth 0: 0
depth 1: 2170143
depth 2: 1075847
depth 3: 721903
depth 4: 496681
depth 5: 349617
depth 6: 262496
depth 7: 182032
depth 8: 112350
depth 9: 42648
depth 10: 3734
depth 11: 423
depth 12: 24
depth 13: 0
depth 14: 0
depth 15: 0
depth 16: 0
depth 17: 0
depth 18: 0
depth 19: 0
depth 20: 0
depth 21: 0
depth 22: 0
depth 23: 0
depth 24: 0
depth 25: 0
depth 26: 0
depth 27: 0
depth 28: 0
depth 29: 0
Total: 5417898
-----------------------------
-----------------------------
	Captured at Filter
-----------------------------
depth 0: 0
depth 1: 12565
depth 2: 4439
depth 3: 2351
depth 4: 1499
depth 5: 1026
depth 6: 674
depth 7: 455
depth 8: 260
depth 9: 81
depth 10: 10
depth 11: 2
depth 12: 0
depth 13: 0
depth 14: 0
depth 15: 0
depth 16: 0
depth 17: 0
depth 18: 0
depth 19: 0
depth 20: 0
depth 21: 0
depth 22: 0
depth 23: 0
depth 24: 0
depth 25: 0
depth 26: 0
depth 27: 0
depth 28: 0
depth 29: 0
-----------------------------
-----------------------------
		Lost at Page
-----------------------------
depth 0: 0
depth 1: 86616
depth 2: 55765
depth 3: 50817
depth 4: 44659
depth 5: 36327
depth 6: 29478
depth 7: 22302
depth 8: 15222
depth 9: 6595
depth 10: 628
depth 11: 89
depth 12: 5
depth 13: 0
depth 14: 0
depth 15: 0
depth 16: 0
depth 17: 0
depth 18: 0
depth 19: 0
depth 20: 0
depth 21: 0
depth 22: 0
depth 23: 0
depth 24: 0
depth 25: 0
depth 26: 0
depth 27: 0
depth 28: 0
depth 29: 0
-----------------------------
-----------------------------
	Lost due to PQ Size
-----------------------------
1069
-----------------------------
ST read accesses: 2269831
ST write accesses: 67482
PT read accesses: 44459400
PT write accesses: 3371698
FILTER read accesses: 10332398
FILTER write accesses: 3228672
GHR read accesses: 2389617
GHR write accesses: 348503
GHR counter read accesses: 36190466
GHR counter write accesses: 2997293
ST tag read accesses: 933456751
ST tag write accesses: 25076495

DRAM Statistics
 CHANNEL 0
 RQ ROW_BUFFER_HIT:    1244641  ROW_BUFFER_MISS:    1605496
 DBUS_CONGESTED:       3598
 WQ ROW_BUFFER_HIT:     118393  ROW_BUFFER_MISS:     481517  FULL:          0

 AVG_CONGESTED_CYCLE: 4
 All warmup complete: 2
Channel 0 Bank busy for read cycles: 0
Channel 0 Bank busy for write cycles: 0
Channel 0
Rank 0
0banks busy for read cycles: 73769139
0banks busy for write cycles: 102360
1banks busy for read cycles: 41315995
1banks busy for write cycles: 13196899
2banks busy for read cycles: 26480129
2banks busy for write cycles: 7555703
3banks busy for read cycles: 18131416
3banks busy for write cycles: 5017194
4banks busy for read cycles: 12371741
4banks busy for write cycles: 3342075
5banks busy for read cycles: 8256209
5banks busy for write cycles: 2293178
6banks busy for read cycles: 5125027
6banks busy for write cycles: 1606468
7banks busy for read cycles: 2980277
7banks busy for write cycles: 1554650
8banks busy for read cycles: 1555694
8banks busy for write cycles: 6510543

CPU 0 Branch Prediction Accuracy: 99.1519% MPKI: 0.83374 Average ROB Occupancy at Mispredict: 259.374
Branch types
NOT_BRANCH: 90169469 90.1695%
BRANCH_DIRECT_JUMP: 463202 0.463202%
BRANCH_INDIRECT: 0 0%
BRANCH_CONDITIONAL: 9367125 9.36712%
BRANCH_DIRECT_CALL: 44 4.4e-05%
BRANCH_INDIRECT_CALL: 0 0%
BRANCH_RETURN: 44 4.4e-05%
BRANCH_OTHER: 0 0%

DRAM PAGES: 1048576
Allocated PAGES: 38413
