Initialize SIGNATURE TABLE
ST_SET: 1
ST_WAY: 256
ST_TAG_BIT: 16
ST_TAG_MASK: ffff

Initialize PATTERN TABLE
PT_SET: 512
PT_WAY: 4
SIG_DELTA_BIT: 7
C_SIG_BIT: 4
C_DELTA_BIT: 4

Initialize PREFETCH FILTER
FILTER_SET: 1024

*** ChampSim Multicore Out-of-Order Simulator ***

Warmup Instructions: 50000000
Simulation Instructions: 100000000
Number of CPUs: 1
LLC sets: 2048
LLC ways: 16
Off-chip DRAM Size: 4096 MB Channels: 1 Width: 64-bit Data Rate: 6400 MT/s
CPU 0 runs ../SPEC2017//605.mcf_s-994B.champsimtrace.xz
.xz
BTB has LRU replacement policy
ITLB has LRU replacement policy
DTLB has LRU replacement policy
STLB has LRU replacement policy
L1I has LRU replacement policy
L1D has LRU replacement policy
Initialize SRRIP state for L2C
Initialize DRRIP state for LLC
Heartbeat CPU 0 instructions: 10000000 cycles: 3247143 heartbeat IPC: 3.07963 cumulative IPC: 3.07963 (Simulation time: 0 hr 7 min 13 sec) 
Heartbeat CPU 0 instructions: 20000003 cycles: 6529645 heartbeat IPC: 3.04646 cumulative IPC: 3.06295 (Simulation time: 0 hr 13 min 37 sec) 
Heartbeat CPU 0 instructions: 30000003 cycles: 9812095 heartbeat IPC: 3.0465 cumulative IPC: 3.05745 (Simulation time: 0 hr 19 min 35 sec) 
Heartbeat CPU 0 instructions: 40000002 cycles: 13073684 heartbeat IPC: 3.06599 cumulative IPC: 3.05958 (Simulation time: 0 hr 25 min 20 sec) 
Heartbeat CPU 0 instructions: 50000001 cycles: 16596425 heartbeat IPC: 2.8387 cumulative IPC: 3.0127 (Simulation time: 0 hr 31 min 8 sec) 

Warmup complete CPU 0 instructions: 50000001 cycles: 16596425 (Simulation time: 0 hr 31 min 8 sec) 

Heartbeat CPU 0 instructions: 60000000 cycles: 58204905 heartbeat IPC: 0.240336 cumulative IPC: 0.240336 (Simulation time: 0 hr 37 min 18 sec) 
Heartbeat CPU 0 instructions: 70000000 cycles: 105294307 heartbeat IPC: 0.212362 cumulative IPC: 0.225485 (Simulation time: 0 hr 43 min 27 sec) 
Heartbeat CPU 0 instructions: 80000002 cycles: 138200164 heartbeat IPC: 0.303897 cumulative IPC: 0.246703 (Simulation time: 0 hr 48 min 35 sec) 
Heartbeat CPU 0 instructions: 90000002 cycles: 170885300 heartbeat IPC: 0.305949 cumulative IPC: 0.259254 (Simulation time: 0 hr 53 min 21 sec) 
Heartbeat CPU 0 instructions: 100000001 cycles: 202053310 heartbeat IPC: 0.320842 cumulative IPC: 0.269604 (Simulation time: 0 hr 57 min 40 sec) 
Heartbeat CPU 0 instructions: 110000000 cycles: 253748557 heartbeat IPC: 0.193441 cumulative IPC: 0.253002 (Simulation time: 1 hr 2 min 24 sec) 
Heartbeat CPU 0 instructions: 120000000 cycles: 294652599 heartbeat IPC: 0.244475 cumulative IPC: 0.251748 (Simulation time: 1 hr 7 min 6 sec) 
Heartbeat CPU 0 instructions: 130000000 cycles: 331247816 heartbeat IPC: 0.27326 cumulative IPC: 0.25425 (Simulation time: 1 hr 16 min 15 sec) 
Heartbeat CPU 0 instructions: 140000000 cycles: 376464860 heartbeat IPC: 0.221156 cumulative IPC: 0.250091 (Simulation time: 1 hr 24 min 21 sec) 
Heartbeat CPU 0 instructions: 150000001 cycles: 440036161 heartbeat IPC: 0.157304 cumulative IPC: 0.236161 (Simulation time: 1 hr 33 min 8 sec) 
Finished CPU 0 instructions: 100000000 cycles: 423439736 cumulative IPC: 0.236161 (Simulation time: 1 hr 33 min 8 sec) 

ChampSim completed all CPUs

Region of Interest Statistics

CPU 0 cumulative IPC: 0.236161 instructions: 100000000 cycles: 423439736

CPU 0 Average Load ROB stall cycles: 9.70281e+07
CPU 0 Fraction of times ROB stalled by Loads: 44.4488
CPU 0 Percentage of Load stall cycles in Total stall cycles: 7.33946e+08
Issued all: 52337480
Issued LT all: 40800576
rob_not_full_when_issued_lt_all: 39470810
Issued LT one: 29791823
rob_not_full_when_issued_lt_one: 28559999
FVP critical_dynamic_instances_0: 32272653
FVP unique_critical_ips_0: 99
 Total stall cycles: 386790400
 Total load stall cycles: 2838833601726116
Unique Load IPs: 117
CPU 0 NUM of IPS identified critical: 0
CPU 0 Num of Load IPs stalling ROB: 0
Threshold modification factor: 0
Trouble in retire width: -nan
MaC = Marked as critical.
lt_50_percent_before_Mac: 0
gt_90_percent_before_Mac: 0
gt_75_percent_before_Mac: 0
gt_50_percent_before_Mac: 0
stall_proportion_bin_same_before_after: 0
stall_proportion_bin_lower_before_after: 0
stall_proportion_bin_upper_before_after: 0
average_stall_proportion_before: -nan
average_stall_proportion_after: -nan
Critical IP stalls, total frequency: 0
Non-critical IP stalls, total frequency: 0
Total Freq all stalling IPs: 0
Critical_IP_Detector_Accuracy_70: 0.010101
Critical_IP_Detector_Accuracy_80: 0.010101
Critical_IP_Detector_Accuracy_90: 0.010101
Critical_IP_Detector_Coverage_70: 1
Critical_IP_Detector_Coverage_80: 1
Critical_IP_Detector_Coverage_90: 1
stat_90_percent_critical_ip_stalls_freq: 2858611
stat_90_percent_non_critical_ip_stalls_freq: 18446744073706693005
AVERAGE_ROB_Occupancy_90_Percent_Critical_IP_Stalls: 40.508
AVERAGE_ROB_Occupancy_90_Percent_Non_Critical_IP_Stalls: 1.67939e-11
Critical_IP_ROB_Stalls_Bucket_0: 0
Non-critical_IP_ROB_Stalls_Bucket_0: 11010750
Critical_IP_ROB_Stalls_Bucket_1: 0
Non-critical_IP_ROB_Stalls_Bucket_1: 1431718
Critical_IP_ROB_Stalls_Bucket_2: 0
Non-critical_IP_ROB_Stalls_Bucket_2: 324144
Critical_IP_ROB_Stalls_Bucket_3: 0
Non-critical_IP_ROB_Stalls_Bucket_3: 120510
Critical_IP_ROB_Stalls_Bucket_4: 0
Non-critical_IP_ROB_Stalls_Bucket_4: 48696
Critical_IP_ROB_Stalls_Bucket_5: 0
Non-critical_IP_ROB_Stalls_Bucket_5: 24617
Critical_IP_ROB_Stalls_Bucket_6: 0
Non-critical_IP_ROB_Stalls_Bucket_6: 44324
0 => IPs accounting for >50 percent of stalls, 1 => 55, 2 => 60, 3 => 65 and so on till 90.
percent50: inf num IPs:  1
percent55: inf num IPs: 1
percent60: inf num IPs: 1
percent65: inf num IPs: 1
percent70: inf num IPs: 1
percent75: inf num IPs: 1
percent80: inf num IPs: 1
percent85: inf num IPs: 1
percent90: inf num IPs: 1
Critical_ROB_Stalls_Percent_0_Bucket_0: 2099239
Non-critical_ROB_Stalls_Percent_0_Bucket_0: 8911511
Critical_ROB_Stalls_Percent_0_Bucket_1: 547476
Non-critical_ROB_Stalls_Percent_0_Bucket_1: 884242
Critical_ROB_Stalls_Percent_0_Bucket_2: 121867
Non-critical_ROB_Stalls_Percent_0_Bucket_2: 202277
Critical_ROB_Stalls_Percent_0_Bucket_3: 46566
Non-critical_ROB_Stalls_Percent_0_Bucket_3: 73944
Critical_ROB_Stalls_Percent_0_Bucket_4: 17447
Non-critical_ROB_Stalls_Percent_0_Bucket_4: 31249
Critical_ROB_Stalls_Percent_0_Bucket_5: 9272
Non-critical_ROB_Stalls_Percent_0_Bucket_5: 15345
Critical_ROB_Stalls_Percent_0_Bucket_6: 16744
Non-critical_ROB_Stalls_Percent_0_Bucket_6: 27580
Critical_ROB_Stalls_Percent_1_Bucket_0: 2099239
Non-critical_ROB_Stalls_Percent_1_Bucket_0: 8911511
Critical_ROB_Stalls_Percent_1_Bucket_1: 547476
Non-critical_ROB_Stalls_Percent_1_Bucket_1: 884242
Critical_ROB_Stalls_Percent_1_Bucket_2: 121867
Non-critical_ROB_Stalls_Percent_1_Bucket_2: 202277
Critical_ROB_Stalls_Percent_1_Bucket_3: 46566
Non-critical_ROB_Stalls_Percent_1_Bucket_3: 73944
Critical_ROB_Stalls_Percent_1_Bucket_4: 17447
Non-critical_ROB_Stalls_Percent_1_Bucket_4: 31249
Critical_ROB_Stalls_Percent_1_Bucket_5: 9272
Non-critical_ROB_Stalls_Percent_1_Bucket_5: 15345
Critical_ROB_Stalls_Percent_1_Bucket_6: 16744
Non-critical_ROB_Stalls_Percent_1_Bucket_6: 27580
Critical_ROB_Stalls_Percent_2_Bucket_0: 2099239
Non-critical_ROB_Stalls_Percent_2_Bucket_0: 8911511
Critical_ROB_Stalls_Percent_2_Bucket_1: 547476
Non-critical_ROB_Stalls_Percent_2_Bucket_1: 884242
Critical_ROB_Stalls_Percent_2_Bucket_2: 121867
Non-critical_ROB_Stalls_Percent_2_Bucket_2: 202277
Critical_ROB_Stalls_Percent_2_Bucket_3: 46566
Non-critical_ROB_Stalls_Percent_2_Bucket_3: 73944
Critical_ROB_Stalls_Percent_2_Bucket_4: 17447
Non-critical_ROB_Stalls_Percent_2_Bucket_4: 31249
Critical_ROB_Stalls_Percent_2_Bucket_5: 9272
Non-critical_ROB_Stalls_Percent_2_Bucket_5: 15345
Critical_ROB_Stalls_Percent_2_Bucket_6: 16744
Non-critical_ROB_Stalls_Percent_2_Bucket_6: 27580
Critical_ROB_Stalls_Percent_3_Bucket_0: 2099239
Non-critical_ROB_Stalls_Percent_3_Bucket_0: 8911511
Critical_ROB_Stalls_Percent_3_Bucket_1: 547476
Non-critical_ROB_Stalls_Percent_3_Bucket_1: 884242
Critical_ROB_Stalls_Percent_3_Bucket_2: 121867
Non-critical_ROB_Stalls_Percent_3_Bucket_2: 202277
Critical_ROB_Stalls_Percent_3_Bucket_3: 46566
Non-critical_ROB_Stalls_Percent_3_Bucket_3: 73944
Critical_ROB_Stalls_Percent_3_Bucket_4: 17447
Non-critical_ROB_Stalls_Percent_3_Bucket_4: 31249
Critical_ROB_Stalls_Percent_3_Bucket_5: 9272
Non-critical_ROB_Stalls_Percent_3_Bucket_5: 15345
Critical_ROB_Stalls_Percent_3_Bucket_6: 16744
Non-critical_ROB_Stalls_Percent_3_Bucket_6: 27580
Critical_ROB_Stalls_Percent_4_Bucket_0: 2099239
Non-critical_ROB_Stalls_Percent_4_Bucket_0: 8911511
Critical_ROB_Stalls_Percent_4_Bucket_1: 547476
Non-critical_ROB_Stalls_Percent_4_Bucket_1: 884242
Critical_ROB_Stalls_Percent_4_Bucket_2: 121867
Non-critical_ROB_Stalls_Percent_4_Bucket_2: 202277
Critical_ROB_Stalls_Percent_4_Bucket_3: 46566
Non-critical_ROB_Stalls_Percent_4_Bucket_3: 73944
Critical_ROB_Stalls_Percent_4_Bucket_4: 17447
Non-critical_ROB_Stalls_Percent_4_Bucket_4: 31249
Critical_ROB_Stalls_Percent_4_Bucket_5: 9272
Non-critical_ROB_Stalls_Percent_4_Bucket_5: 15345
Critical_ROB_Stalls_Percent_4_Bucket_6: 16744
Non-critical_ROB_Stalls_Percent_4_Bucket_6: 27580
Critical_ROB_Stalls_Percent_5_Bucket_0: 2099239
Non-critical_ROB_Stalls_Percent_5_Bucket_0: 8911511
Critical_ROB_Stalls_Percent_5_Bucket_1: 547476
Non-critical_ROB_Stalls_Percent_5_Bucket_1: 884242
Critical_ROB_Stalls_Percent_5_Bucket_2: 121867
Non-critical_ROB_Stalls_Percent_5_Bucket_2: 202277
Critical_ROB_Stalls_Percent_5_Bucket_3: 46566
Non-critical_ROB_Stalls_Percent_5_Bucket_3: 73944
Critical_ROB_Stalls_Percent_5_Bucket_4: 17447
Non-critical_ROB_Stalls_Percent_5_Bucket_4: 31249
Critical_ROB_Stalls_Percent_5_Bucket_5: 9272
Non-critical_ROB_Stalls_Percent_5_Bucket_5: 15345
Critical_ROB_Stalls_Percent_5_Bucket_6: 16744
Non-critical_ROB_Stalls_Percent_5_Bucket_6: 27580
Critical_ROB_Stalls_Percent_6_Bucket_0: 2099239
Non-critical_ROB_Stalls_Percent_6_Bucket_0: 8911511
Critical_ROB_Stalls_Percent_6_Bucket_1: 547476
Non-critical_ROB_Stalls_Percent_6_Bucket_1: 884242
Critical_ROB_Stalls_Percent_6_Bucket_2: 121867
Non-critical_ROB_Stalls_Percent_6_Bucket_2: 202277
Critical_ROB_Stalls_Percent_6_Bucket_3: 46566
Non-critical_ROB_Stalls_Percent_6_Bucket_3: 73944
Critical_ROB_Stalls_Percent_6_Bucket_4: 17447
Non-critical_ROB_Stalls_Percent_6_Bucket_4: 31249
Critical_ROB_Stalls_Percent_6_Bucket_5: 9272
Non-critical_ROB_Stalls_Percent_6_Bucket_5: 15345
Critical_ROB_Stalls_Percent_6_Bucket_6: 16744
Non-critical_ROB_Stalls_Percent_6_Bucket_6: 27580
Critical_ROB_Stalls_Percent_7_Bucket_0: 2099239
Non-critical_ROB_Stalls_Percent_7_Bucket_0: 8911511
Critical_ROB_Stalls_Percent_7_Bucket_1: 547476
Non-critical_ROB_Stalls_Percent_7_Bucket_1: 884242
Critical_ROB_Stalls_Percent_7_Bucket_2: 121867
Non-critical_ROB_Stalls_Percent_7_Bucket_2: 202277
Critical_ROB_Stalls_Percent_7_Bucket_3: 46566
Non-critical_ROB_Stalls_Percent_7_Bucket_3: 73944
Critical_ROB_Stalls_Percent_7_Bucket_4: 17447
Non-critical_ROB_Stalls_Percent_7_Bucket_4: 31249
Critical_ROB_Stalls_Percent_7_Bucket_5: 9272
Non-critical_ROB_Stalls_Percent_7_Bucket_5: 15345
Critical_ROB_Stalls_Percent_7_Bucket_6: 16744
Non-critical_ROB_Stalls_Percent_7_Bucket_6: 27580
Critical_ROB_Stalls_Percent_8_Bucket_0: 2099239
Non-critical_ROB_Stalls_Percent_8_Bucket_0: 8911511
Critical_ROB_Stalls_Percent_8_Bucket_1: 547476
Non-critical_ROB_Stalls_Percent_8_Bucket_1: 884242
Critical_ROB_Stalls_Percent_8_Bucket_2: 121867
Non-critical_ROB_Stalls_Percent_8_Bucket_2: 202277
Critical_ROB_Stalls_Percent_8_Bucket_3: 46566
Non-critical_ROB_Stalls_Percent_8_Bucket_3: 73944
Critical_ROB_Stalls_Percent_8_Bucket_4: 17447
Non-critical_ROB_Stalls_Percent_8_Bucket_4: 31249
Critical_ROB_Stalls_Percent_8_Bucket_5: 9272
Non-critical_ROB_Stalls_Percent_8_Bucket_5: 15345
Critical_ROB_Stalls_Percent_8_Bucket_6: 16744
Non-critical_ROB_Stalls_Percent_8_Bucket_6: 27580
Average ROB occupancy Load Stall Begin: 27.946
Average ROB occupancy Load Stall End: 32.7256
Min ROB occupancy Load Stall Begin: 1
Max ROB occupancy Load Stall Begin: 352
Min ROB occupancy Load Stall End: 1
Max ROB occupancy Load Stall End: 352
Average ROB occupancy Critical Load Stall Begin: -nan
Average ROB occupancy Critical Load Stall End: -nan
Min ROB occupancy Critical Load Stall Begin: 400
Max ROB occupancy Critical Load Stall Begin: 0
Min ROB occupancy Critical Load Stall End: 400
Max ROB occupancy Critical Load Stall End: 0
 ROB Load Stall Begin Bucket Count 0: 11452185
 ROB Load Stall End Bucket Count 0: 11010750
 ROB Critical Load Stall Begin Bucket Count 0: 0
 ROB Critical Load Stall End Bucket Count 0: 0
 ROB Load Stall Begin Bucket Count 1: 1072872
 ROB Load Stall End Bucket Count 1: 1431718
 ROB Critical Load Stall Begin Bucket Count 1: 0
 ROB Critical Load Stall End Bucket Count 1: 0
 ROB Load Stall Begin Bucket Count 2: 271847
 ROB Load Stall End Bucket Count 2: 324144
 ROB Critical Load Stall Begin Bucket Count 2: 0
 ROB Critical Load Stall End Bucket Count 2: 0
 ROB Load Stall Begin Bucket Count 3: 101578
 ROB Load Stall End Bucket Count 3: 120510
 ROB Critical Load Stall Begin Bucket Count 3: 0
 ROB Critical Load Stall End Bucket Count 3: 0
 ROB Load Stall Begin Bucket Count 4: 43378
 ROB Load Stall End Bucket Count 4: 48696
 ROB Critical Load Stall Begin Bucket Count 4: 0
 ROB Critical Load Stall End Bucket Count 4: 0
 ROB Load Stall Begin Bucket Count 5: 22206
 ROB Load Stall End Bucket Count 5: 24617
 ROB Critical Load Stall Begin Bucket Count 5: 0
 ROB Critical Load Stall End Bucket Count 5: 0
 ROB Load Stall Begin Bucket Count 6: 40694
 ROB Load Stall End Bucket Count 6: 44324
 ROB Critical Load Stall Begin Bucket Count 6: 0
 ROB Critical Load Stall End Bucket Count 6: 0
PIST Tag Read Accesses: 0
PIST Read Accesses: 0
PIST Tag Write Accesses: 0
PIST Write Accesses: 0
Criticality detector called times: 0
Max global_stall_cycles_count: 0
Threshold Modified: 0 times, factor: 0
ITLB TOTAL     ACCESS:   17689223  HIT:   17689223  MISS:          0  HIT %:        100  MISS %:          0   MPKI: 0
ITLB LOAD TRANSLATION ACCESS:   17689223  HIT:   17689223  MISS:          0  HIT %:        100  MISS %:          0   MPKI: 0
ITLB PREFETCH  REQUESTED:          0  ISSUED:          0  USEFUL:          0  USELESS:          0
ITLB USEFUL LOAD PREFETCHES:          0 PREFETCH ISSUED TO LOWER LEVEL:          0  ACCURACY: -nan
ITLB TIMELY PREFETCHES:          0 LATE PREFETCHES: 0 DROPPED PREFETCHES: 0
ITLB PREFETCHES SAME FILL-ORIGIN LEVEL: 0 DIFFERENT FILL-ORIGIN LEVEL: 0
ITLB AVERAGE MISS LATENCY: -nan cycles
ITLB RQ	ACCESS:   18118165	FORWARD:          0	MERGED:     428943	TO_CACHE:   17689222

DTLB TOTAL     ACCESS:   32454225  HIT:   30830685  MISS:    1623540  HIT %:    94.9974  MISS %:    5.00255   MPKI: 16.2354
DTLB LOAD TRANSLATION ACCESS:   32454225  HIT:   30830685  MISS:    1623540  HIT %:    94.9974  MISS %:    5.00255   MPKI: 16.2354
DTLB PREFETCH  REQUESTED:          0  ISSUED:          0  USEFUL:          0  USELESS:          0
DTLB USEFUL LOAD PREFETCHES:          0 PREFETCH ISSUED TO LOWER LEVEL:          0  ACCURACY: -nan
DTLB TIMELY PREFETCHES:          0 LATE PREFETCHES: 0 DROPPED PREFETCHES: 0
DTLB PREFETCHES SAME FILL-ORIGIN LEVEL: 0 DIFFERENT FILL-ORIGIN LEVEL: 0
DTLB AVERAGE MISS LATENCY: 67.6913 cycles
DTLB RQ	ACCESS:   38541045	FORWARD:          0	MERGED:    5658864	TO_CACHE:   32882181

STLB TOTAL     ACCESS:    1623540  HIT:     815895  MISS:     807645  HIT %:    50.2541  MISS %:    49.7459   MPKI: 8.07645
STLB LOAD TRANSLATION ACCESS:    1623540  HIT:     815895  MISS:     807645  HIT %:    50.2541  MISS %:    49.7459   MPKI: 8.07645
STLB PREFETCH  REQUESTED:          0  ISSUED:          0  USEFUL:          0  USELESS:          0
STLB USEFUL LOAD PREFETCHES:          0 PREFETCH ISSUED TO LOWER LEVEL:          0  ACCURACY: -nan
STLB TIMELY PREFETCHES:          0 LATE PREFETCHES: 0 DROPPED PREFETCHES: 0
STLB PREFETCHES SAME FILL-ORIGIN LEVEL: 0 DIFFERENT FILL-ORIGIN LEVEL: 0
STLB AVERAGE MISS LATENCY: 117.872 cycles
STLB RQ	ACCESS:    1623540	FORWARD:          0	MERGED:          0	TO_CACHE:    1623540

STLB Hit, L1D data hit: 0
STLB Hit, L2C data hit: 0
STLB Hit, LLC data hit: 0
STLB Hit, LLC data miss: 0
STLB STLB hints to L2: 0
L1D TOTAL     ACCESS:   38425828  HIT:   34852265  MISS:    3573563  HIT %:    90.7001  MISS %:     9.2999   MPKI: 35.7356
L1D LOAD      ACCESS:   28421664  HIT:   24873849  MISS:    3547815  HIT %:    87.5172  MISS %:    12.4828   MPKI: 35.4781
L1D RFO       ACCESS:   10004164  HIT:    9978416  MISS:      25748  HIT %:    99.7426  MISS %:   0.257373   MPKI: 0.25748
L1D PREFETCH  REQUESTED:          0  ISSUED:          0  USEFUL:          0  USELESS:          0
L1D USEFUL LOAD PREFETCHES:          0 PREFETCH ISSUED TO LOWER LEVEL:          0  ACCURACY: -nan
L1D TIMELY PREFETCHES:          0 LATE PREFETCHES: 0 DROPPED PREFETCHES: 0
L1D PREFETCHES SAME FILL-ORIGIN LEVEL: 0 DIFFERENT FILL-ORIGIN LEVEL: 0
L1D AVERAGE MISS LATENCY: 109.128 cycles
L1D RQ	ACCESS:   33834092	FORWARD:          0	MERGED:    2985451	TO_CACHE:   28492310
L1D WQ	ACCESS:   10094511	FORWARD:    2356331	MERGED:      45776	TO_CACHE:   10048735

L1D UNIQUE REGIONS ACCESSED: 0
L1D REGIONS CONFLICTS: 0
L1D Cross Page Prefetch Requests: 0
L1D Same Page Prefetch Requests: 0
L1D ROI Sum of L1D PQ occupancy: 0
L1D PREFETCHES PUSHED FROM L2C: 0
L1I TOTAL     ACCESS:   18118166  HIT:   18118166  MISS:          0  HIT %:        100  MISS %:          0   MPKI: 0
L1I LOAD      ACCESS:   18118166  HIT:   18118166  MISS:          0  HIT %:        100  MISS %:          0   MPKI: 0
L1I PREFETCH  REQUESTED:          0  ISSUED:          0  USEFUL:          0  USELESS:          0
L1I USEFUL LOAD PREFETCHES:          0 PREFETCH ISSUED TO LOWER LEVEL:          0  ACCURACY: -nan
L1I TIMELY PREFETCHES:          0 LATE PREFETCHES: 0 DROPPED PREFETCHES: 0
L1I PREFETCHES SAME FILL-ORIGIN LEVEL: 0 DIFFERENT FILL-ORIGIN LEVEL: 0
L1I AVERAGE MISS LATENCY: -nan cycles
L1I RQ	ACCESS:   28694608	FORWARD:          0	MERGED:   10576443	TO_CACHE:   18118165

BTB TOTAL     ACCESS:   23415583  HIT:   22036176  MISS:    1379407  HIT %:     94.109  MISS %:    5.89098   MPKI: 13.7941
BTB BRANCH_DIRECT_JUMP	ACCESS:    2277732  HIT:    2277711  MISS:         21
BTB BRANCH_INDIRECT	ACCESS:          0  HIT:          0  MISS:          0
BTB BRANCH_CONDITIONAL	ACCESS:   14850308  HIT:   14850266  MISS:         42
BTB BRANCH_DIRECT_CALL	ACCESS:    3040680  HIT:    3040667  MISS:         13
BTB BRANCH_INDIRECT_CALL	ACCESS:     103096  HIT:     103088  MISS:          8
BTB BRANCH_RETURN	ACCESS:    3143767  HIT:    1764444  MISS:    1379323
BTB BRANCH_OTHER ACCESS:          0  HIT:          0  MISS:          0

L2C TOTAL     ACCESS:    5769014  HIT:    3068704  MISS:    2700310  HIT %:    53.1929  MISS %:    46.8071   MPKI: 27.0031
L2C LOAD      ACCESS:    3547811  HIT:    1196643  MISS:    2351168  HIT %:    33.7291  MISS %:    66.2709   MPKI: 23.5117
L2C DATA LOAD MPKI: 23.5117
L2C INSTRUCTION LOAD MPKI: 0
L2C RFO       ACCESS:      25748  HIT:      22158  MISS:       3590  HIT %:    86.0572  MISS %:    13.9428   MPKI: 0.0359
L2C PREFETCH  ACCESS:     614360  HIT:     576123  MISS:      38237  HIT %:    93.7761  MISS %:    6.22388   MPKI: 0.38237
L2C DATA PREFETCH MPKI: 0.38237
L2C INSTRUCTION PREFETCH MPKI: 0
L2C WRITEBACK ACCESS:     240946  HIT:     239204  MISS:       1742  HIT %:     99.277  MISS %:   0.722984   MPKI: 0.01742
L2C LOAD TRANSLATION ACCESS:    1340149  HIT:    1034576  MISS:     305573  HIT %:    77.1986  MISS %:    22.8014   MPKI: 3.05573
L2C PREFETCH  REQUESTED:    2202421  ISSUED:    2202421  USEFUL:      24762  USELESS:      13433
L2C USEFUL LOAD PREFETCHES:      24762 PREFETCH ISSUED TO LOWER LEVEL:    1434960  ACCURACY: 1.72562
L2C TIMELY PREFETCHES:      24762 LATE PREFETCHES: 16363 DROPPED PREFETCHES: 0
L2C PREFETCHES SAME FILL-ORIGIN LEVEL: 54600 DIFFERENT FILL-ORIGIN LEVEL: 1380360
L2C AVERAGE MISS LATENCY: 143.334 cycles
L2C RQ	ACCESS:    4913712	FORWARD:          0	MERGED:          0	TO_CACHE:    4913708
L2C WQ	ACCESS:     240946	FORWARD:          5	MERGED:          0	TO_CACHE:     240946
L2C PQ	ACCESS:    2202421	FORWARD:          0	MERGED:      20107	TO_CACHE:    2182313

L2C Instructions Evicting Data 0
L2C Translations Evicting Data 266047
L2C Data Evicting Data 2125865
L2C Instructions Evicting Instructions 0
L2C Translations Evicting Instructions 0
L2C Data Evicting Instructions 0
L2C Instructions Evicting Translations 0
L2C Translations Evicting Translations 39526
L2C Data Evicting Translations 267130
L2C Dense regions hint from L2: 0
PSCL5 TOTAL     ACCESS:     807645  HIT:     807645  MISS:          0  HIT %:        100  MISS %:          0   MPKI: 0
PSCL5 LOAD TRANSLATION ACCESS:     807645  HIT:     807645  MISS:          0  HIT %:        100  MISS %:          0   MPKI: 0
PSCL5 PREFETCH  REQUESTED:          0  ISSUED:          0  USEFUL:          0  USELESS:          0
PSCL5 USEFUL LOAD PREFETCHES:          0 PREFETCH ISSUED TO LOWER LEVEL:          0  ACCURACY: -nan
PSCL5 TIMELY PREFETCHES:          0 LATE PREFETCHES: 0 DROPPED PREFETCHES: 0
PSCL5 PREFETCHES SAME FILL-ORIGIN LEVEL: 0 DIFFERENT FILL-ORIGIN LEVEL: 0

PSCL4 TOTAL     ACCESS:     807645  HIT:     807645  MISS:          0  HIT %:        100  MISS %:          0   MPKI: 0
PSCL4 LOAD TRANSLATION ACCESS:     807645  HIT:     807645  MISS:          0  HIT %:        100  MISS %:          0   MPKI: 0
PSCL4 PREFETCH  REQUESTED:          0  ISSUED:          0  USEFUL:          0  USELESS:          0
PSCL4 USEFUL LOAD PREFETCHES:          0 PREFETCH ISSUED TO LOWER LEVEL:          0  ACCURACY: -nan
PSCL4 TIMELY PREFETCHES:          0 LATE PREFETCHES: 0 DROPPED PREFETCHES: 0
PSCL4 PREFETCHES SAME FILL-ORIGIN LEVEL: 0 DIFFERENT FILL-ORIGIN LEVEL: 0

PSCL3 TOTAL     ACCESS:     807645  HIT:     807645  MISS:          0  HIT %:        100  MISS %:          0   MPKI: 0
PSCL3 LOAD TRANSLATION ACCESS:     807645  HIT:     807645  MISS:          0  HIT %:        100  MISS %:          0   MPKI: 0
PSCL3 PREFETCH  REQUESTED:          0  ISSUED:          0  USEFUL:          0  USELESS:          0
PSCL3 USEFUL LOAD PREFETCHES:          0 PREFETCH ISSUED TO LOWER LEVEL:          0  ACCURACY: -nan
PSCL3 TIMELY PREFETCHES:          0 LATE PREFETCHES: 0 DROPPED PREFETCHES: 0
PSCL3 PREFETCHES SAME FILL-ORIGIN LEVEL: 0 DIFFERENT FILL-ORIGIN LEVEL: 0

PSCL2 TOTAL     ACCESS:     807645  HIT:     275134  MISS:     532511  HIT %:    34.0662  MISS %:    65.9338   MPKI: 5.32511
PSCL2 LOAD TRANSLATION ACCESS:     807645  HIT:     275134  MISS:     532511  HIT %:    34.0662  MISS %:    65.9338   MPKI: 5.32511
PSCL2 PREFETCH  REQUESTED:          0  ISSUED:          0  USEFUL:          0  USELESS:          0
PSCL2 USEFUL LOAD PREFETCHES:          0 PREFETCH ISSUED TO LOWER LEVEL:          0  ACCURACY: -nan
PSCL2 TIMELY PREFETCHES:          0 LATE PREFETCHES: 0 DROPPED PREFETCHES: 0
PSCL2 PREFETCHES SAME FILL-ORIGIN LEVEL: 0 DIFFERENT FILL-ORIGIN LEVEL: 0

LLC TOTAL     ACCESS:    4046619  HIT:    1596517  MISS:    2450102  HIT %:    39.4531  MISS %:    60.5469   MPKI: 24.501
LLC LOAD      ACCESS:    2334805  HIT:     822981  MISS:    1511824  HIT %:    35.2484  MISS %:    64.7516   MPKI: 15.1182
LLC RFO       ACCESS:       3590  HIT:       1868  MISS:       1722  HIT %:    52.0334  MISS %:    47.9666   MPKI: 0.01722
LLC PREFETCH  ACCESS:    1267529  HIT:     547338  MISS:     720191  HIT %:    43.1815  MISS %:    56.8185   MPKI: 7.20191
LLC WRITEBACK ACCESS:     135122  HIT:     133303  MISS:       1819  HIT %:    98.6538  MISS %:    1.34619   MPKI: 0.01819
LLC LOAD TRANSLATION ACCESS:     305573  HIT:      91027  MISS:     214546  HIT %:     29.789  MISS %:     70.211   MPKI: 2.14546
LLC PREFETCH  REQUESTED:          0  ISSUED:          0  USEFUL:     161837  USELESS:     549172
LLC USEFUL LOAD PREFETCHES:     161837 PREFETCH ISSUED TO LOWER LEVEL:     863834  ACCURACY: 18.7347
LLC TIMELY PREFETCHES:     161837 LATE PREFETCHES: 143643 DROPPED PREFETCHES: 0
LLC PREFETCHES SAME FILL-ORIGIN LEVEL: 843709 DIFFERENT FILL-ORIGIN LEVEL: 0
LLC AVERAGE MISS LATENCY: 176.668 cycles
LLC RQ	ACCESS:    2643968	FORWARD:          0	MERGED:          0	TO_CACHE:    2643968
LLC WQ	ACCESS:     135122	FORWARD:          1	MERGED:          0	TO_CACHE:     135122
LLC PQ	ACCESS:    1434960	FORWARD:          0	MERGED:       9662	TO_CACHE:    1425297

LLC Dense regions hint to LLC: 0

RAW hits: 862919
Loads Generated: 34697014
Loads sent to L1D: 33834092
Stores Generated: 10094507
Stores sent to L1D: 10094511
Major fault: 0 Minor fault: 167017
Allocated PAGES: 167017
 All Calls: 5195917
 Critical Calls: 3556969
------------------
Depth Distribution
------------------
depth 0: 0
depth 1: 1840055
depth 2: 325836
depth 3: 34269
depth 4: 2175
depth 5: 85
depth 6: 1
depth 7: 0
depth 8: 0
depth 9: 0
depth 10: 0
depth 11: 0
depth 12: 0
depth 13: 0
depth 14: 0
depth 15: 0
depth 16: 0
depth 17: 0
depth 18: 0
depth 19: 0
depth 20: 0
depth 21: 0
depth 22: 0
depth 23: 0
depth 24: 0
depth 25: 0
depth 26: 0
depth 27: 0
depth 28: 0
depth 29: 0
Total: 2202421
-----------------------------
-----------------------------
	Captured at Filter
-----------------------------
depth 0: 0
depth 1: 25998
depth 2: 3061
depth 3: 206
depth 4: 20
depth 5: 0
depth 6: 0
depth 7: 0
depth 8: 0
depth 9: 0
depth 10: 0
depth 11: 0
depth 12: 0
depth 13: 0
depth 14: 0
depth 15: 0
depth 16: 0
depth 17: 0
depth 18: 0
depth 19: 0
depth 20: 0
depth 21: 0
depth 22: 0
depth 23: 0
depth 24: 0
depth 25: 0
depth 26: 0
depth 27: 0
depth 28: 0
depth 29: 0
-----------------------------
-----------------------------
		Lost at Page
-----------------------------
depth 0: 0
depth 1: 31389
depth 2: 10524
depth 3: 1484
depth 4: 115
depth 5: 8
depth 6: 1
depth 7: 0
depth 8: 0
depth 9: 0
depth 10: 0
depth 11: 0
depth 12: 0
depth 13: 0
depth 14: 0
depth 15: 0
depth 16: 0
depth 17: 0
depth 18: 0
depth 19: 0
depth 20: 0
depth 21: 0
depth 22: 0
depth 23: 0
depth 24: 0
depth 25: 0
depth 26: 0
depth 27: 0
depth 28: 0
depth 29: 0
-----------------------------
-----------------------------
	Lost due to PQ Size
-----------------------------
0
-----------------------------
ST read accesses: 2406526
ST write accesses: 1139094
PT read accesses: 32125775
PT write accesses: 2317615
FILTER read accesses: 8477630
FILTER write accesses: 2893524
GHR read accesses: 9481448
GHR write accesses: 43521
GHR counter read accesses: 30121096
GHR counter write accesses: 3712820
ST tag read accesses: 1946465974
ST tag write accesses: 334846040

DRAM Statistics
 CHANNEL 0
 RQ ROW_BUFFER_HIT:     128254  ROW_BUFFER_MISS:    2320026
 DBUS_CONGESTED:        174
 WQ ROW_BUFFER_HIT:      30235  ROW_BUFFER_MISS:      73223  FULL:          0

 AVG_CONGESTED_CYCLE: 4
 All warmup complete: 2
Channel 0 Bank busy for read cycles: 0
Channel 0 Bank busy for write cycles: 0
Channel 0
Rank 0
0banks busy for read cycles: 227552703
0banks busy for write cycles: 77459
1banks busy for read cycles: 76556596
1banks busy for write cycles: 15724081
2banks busy for read cycles: 51845993
2banks busy for write cycles: 3067857
3banks busy for read cycles: 27958395
3banks busy for write cycles: 612011
4banks busy for read cycles: 12123690
4banks busy for write cycles: 164495
5banks busy for read cycles: 5096297
5banks busy for write cycles: 48025
6banks busy for read cycles: 1904353
6banks busy for write cycles: 16306
7banks busy for read cycles: 571246
7banks busy for write cycles: 7586
8banks busy for read cycles: 111650
8banks busy for write cycles: 994

CPU 0 Branch Prediction Accuracy: 94.6877% MPKI: 13.1818 Average ROB Occupancy at Mispredict: 23.3192
Branch types
NOT_BRANCH: 75185764 75.1858%
BRANCH_DIRECT_JUMP: 2277732 2.27773%
BRANCH_INDIRECT: 0 0%
BRANCH_CONDITIONAL: 16248591 16.2486%
BRANCH_DIRECT_CALL: 3040680 3.04068%
BRANCH_INDIRECT_CALL: 103096 0.103096%
BRANCH_RETURN: 3143767 3.14377%
BRANCH_OTHER: 0 0%

DRAM PAGES: 1048576
Allocated PAGES: 167017
