
*** ChampSim Multicore Out-of-Order Simulator ***

Warmup Instructions: 50000000
Simulation Instructions: 100000000
Number of CPUs: 1
LLC sets: 2048
LLC ways: 16
Off-chip DRAM Size: 4096 MB Channels: 1 Width: 64-bit Data Rate: 6400 MT/s
CPU 0 runs ../SPEC2017//605.mcf_s-782B.champsimtrace.xz
.xz
BTB has LRU replacement policy
ITLB has LRU replacement policy
DTLB has LRU replacement policy
STLB has LRU replacement policy
L1I has LRU replacement policy
L1D has LRU replacement policy
Bingo PHT WAYS: 16 and PHT_SIZE: 16384
Initialize SRRIP state for L2C
Initialize DRRIP state for LLC
Heartbeat CPU 0 instructions: 10000001 cycles: 3765424 heartbeat IPC: 2.65574 cumulative IPC: 2.65574 (Simulation time: 0 hr 9 min 40 sec) 
Heartbeat CPU 0 instructions: 20000000 cycles: 7503007 heartbeat IPC: 2.67553 cumulative IPC: 2.6656 (Simulation time: 0 hr 18 min 1 sec) 
Heartbeat CPU 0 instructions: 30000000 cycles: 11296424 heartbeat IPC: 2.63615 cumulative IPC: 2.65571 (Simulation time: 0 hr 25 min 14 sec) 
Heartbeat CPU 0 instructions: 40000003 cycles: 15063596 heartbeat IPC: 2.65451 cumulative IPC: 2.65541 (Simulation time: 0 hr 31 min 47 sec) 
Heartbeat CPU 0 instructions: 50000000 cycles: 18866615 heartbeat IPC: 2.62949 cumulative IPC: 2.65018 (Simulation time: 0 hr 37 min 26 sec) 

Warmup complete CPU 0 instructions: 50000001 cycles: 18866616 (Simulation time: 0 hr 37 min 26 sec) 

Heartbeat CPU 0 instructions: 60000000 cycles: 64468251 heartbeat IPC: 0.21929 cumulative IPC: 0.21929 (Simulation time: 0 hr 47 min 50 sec) 
Heartbeat CPU 0 instructions: 70000002 cycles: 109338912 heartbeat IPC: 0.222863 cumulative IPC: 0.221062 (Simulation time: 0 hr 56 min 41 sec) 
Heartbeat CPU 0 instructions: 80000002 cycles: 154559383 heartbeat IPC: 0.221139 cumulative IPC: 0.221088 (Simulation time: 1 hr 4 min 9 sec) 
Heartbeat CPU 0 instructions: 90000000 cycles: 202327839 heartbeat IPC: 0.209343 cumulative IPC: 0.21803 (Simulation time: 1 hr 10 min 13 sec) 
Heartbeat CPU 0 instructions: 100000001 cycles: 253064492 heartbeat IPC: 0.197096 cumulative IPC: 0.213495 (Simulation time: 1 hr 14 min 44 sec) 
Heartbeat CPU 0 instructions: 110000000 cycles: 304783618 heartbeat IPC: 0.193352 cumulative IPC: 0.209851 (Simulation time: 1 hr 18 min 20 sec) 
Heartbeat CPU 0 instructions: 120000000 cycles: 353943930 heartbeat IPC: 0.203416 cumulative IPC: 0.208907 (Simulation time: 1 hr 21 min 19 sec) 
Heartbeat CPU 0 instructions: 130000000 cycles: 400693111 heartbeat IPC: 0.213907 cumulative IPC: 0.209519 (Simulation time: 1 hr 23 min 24 sec) 
Heartbeat CPU 0 instructions: 140000001 cycles: 446145527 heartbeat IPC: 0.22001 cumulative IPC: 0.210635 (Simulation time: 1 hr 25 min 5 sec) 
Heartbeat CPU 0 instructions: 150000000 cycles: 492514604 heartbeat IPC: 0.215661 cumulative IPC: 0.211127 (Simulation time: 1 hr 26 min 10 sec) 
Finished CPU 0 instructions: 100000003 cycles: 473648017 cumulative IPC: 0.211127 (Simulation time: 1 hr 26 min 10 sec) 

ChampSim completed all CPUs

Region of Interest Statistics

CPU 0 cumulative IPC: 0.211127 instructions: 100000003 cycles: 473648017

CPU 0 Average Load ROB stall cycles: 8.54344e+07
CPU 0 Fraction of times ROB stalled by Loads: 33.541
CPU 0 Percentage of Load stall cycles in Total stall cycles: 4.40984e+08
Issued all: 80337611
Issued LT all: 65578939
rob_not_full_when_issued_lt_all: 44516391
Issued LT one: 61382728
rob_not_full_when_issued_lt_one: 42394352
FVP critical_dynamic_instances_0: 29457200
FVP unique_critical_ips_0: 210
 Total stall cycles: 435593110
 Total load stall cycles: 1920897073119150
Unique Load IPs: 264
CPU 0 NUM of IPS identified critical: 0
CPU 0 Num of Load IPs stalling ROB: 0
Threshold modification factor: 0
Trouble in retire width: -nan
MaC = Marked as critical.
lt_50_percent_before_Mac: 0
gt_90_percent_before_Mac: 0
gt_75_percent_before_Mac: 0
gt_50_percent_before_Mac: 0
stall_proportion_bin_same_before_after: 0
stall_proportion_bin_lower_before_after: 0
stall_proportion_bin_upper_before_after: 0
average_stall_proportion_before: -nan
average_stall_proportion_after: -nan
Critical IP stalls, total frequency: 0
Non-critical IP stalls, total frequency: 0
Total Freq all stalling IPs: 0
Critical_IP_Detector_Accuracy_70: 0.0047619
Critical_IP_Detector_Accuracy_80: 0.0047619
Critical_IP_Detector_Accuracy_90: 0.0047619
Critical_IP_Detector_Coverage_70: 1
Critical_IP_Detector_Coverage_80: 1
Critical_IP_Detector_Coverage_90: 1
stat_90_percent_critical_ip_stalls_freq: 2553523
stat_90_percent_non_critical_ip_stalls_freq: 18446744073706998093
AVERAGE_ROB_Occupancy_90_Percent_Critical_IP_Stalls: 88.8745
AVERAGE_ROB_Occupancy_90_Percent_Non_Critical_IP_Stalls: 2.62021e-11
Critical_IP_ROB_Stalls_Bucket_0: 0
Non-critical_IP_ROB_Stalls_Bucket_0: 3915668
Critical_IP_ROB_Stalls_Bucket_1: 0
Non-critical_IP_ROB_Stalls_Bucket_1: 1256850
Critical_IP_ROB_Stalls_Bucket_2: 0
Non-critical_IP_ROB_Stalls_Bucket_2: 653854
Critical_IP_ROB_Stalls_Bucket_3: 0
Non-critical_IP_ROB_Stalls_Bucket_3: 416750
Critical_IP_ROB_Stalls_Bucket_4: 0
Non-critical_IP_ROB_Stalls_Bucket_4: 327474
Critical_IP_ROB_Stalls_Bucket_5: 0
Non-critical_IP_ROB_Stalls_Bucket_5: 242731
Critical_IP_ROB_Stalls_Bucket_6: 0
Non-critical_IP_ROB_Stalls_Bucket_6: 727985
0 => IPs accounting for >50 percent of stalls, 1 => 55, 2 => 60, 3 => 65 and so on till 90.
percent50: inf num IPs:  1
percent55: inf num IPs: 1
percent60: inf num IPs: 1
percent65: inf num IPs: 1
percent70: inf num IPs: 1
percent75: inf num IPs: 1
percent80: inf num IPs: 1
percent85: inf num IPs: 1
percent90: inf num IPs: 1
Critical_ROB_Stalls_Percent_0_Bucket_0: 1180149
Non-critical_ROB_Stalls_Percent_0_Bucket_0: 2735519
Critical_ROB_Stalls_Percent_0_Bucket_1: 565701
Non-critical_ROB_Stalls_Percent_0_Bucket_1: 691149
Critical_ROB_Stalls_Percent_0_Bucket_2: 322246
Non-critical_ROB_Stalls_Percent_0_Bucket_2: 331608
Critical_ROB_Stalls_Percent_0_Bucket_3: 105065
Non-critical_ROB_Stalls_Percent_0_Bucket_3: 311685
Critical_ROB_Stalls_Percent_0_Bucket_4: 132391
Non-critical_ROB_Stalls_Percent_0_Bucket_4: 195083
Critical_ROB_Stalls_Percent_0_Bucket_5: 79170
Non-critical_ROB_Stalls_Percent_0_Bucket_5: 163561
Critical_ROB_Stalls_Percent_0_Bucket_6: 168801
Non-critical_ROB_Stalls_Percent_0_Bucket_6: 559184
Critical_ROB_Stalls_Percent_1_Bucket_0: 1180149
Non-critical_ROB_Stalls_Percent_1_Bucket_0: 2735519
Critical_ROB_Stalls_Percent_1_Bucket_1: 565701
Non-critical_ROB_Stalls_Percent_1_Bucket_1: 691149
Critical_ROB_Stalls_Percent_1_Bucket_2: 322246
Non-critical_ROB_Stalls_Percent_1_Bucket_2: 331608
Critical_ROB_Stalls_Percent_1_Bucket_3: 105065
Non-critical_ROB_Stalls_Percent_1_Bucket_3: 311685
Critical_ROB_Stalls_Percent_1_Bucket_4: 132391
Non-critical_ROB_Stalls_Percent_1_Bucket_4: 195083
Critical_ROB_Stalls_Percent_1_Bucket_5: 79170
Non-critical_ROB_Stalls_Percent_1_Bucket_5: 163561
Critical_ROB_Stalls_Percent_1_Bucket_6: 168801
Non-critical_ROB_Stalls_Percent_1_Bucket_6: 559184
Critical_ROB_Stalls_Percent_2_Bucket_0: 1180149
Non-critical_ROB_Stalls_Percent_2_Bucket_0: 2735519
Critical_ROB_Stalls_Percent_2_Bucket_1: 565701
Non-critical_ROB_Stalls_Percent_2_Bucket_1: 691149
Critical_ROB_Stalls_Percent_2_Bucket_2: 322246
Non-critical_ROB_Stalls_Percent_2_Bucket_2: 331608
Critical_ROB_Stalls_Percent_2_Bucket_3: 105065
Non-critical_ROB_Stalls_Percent_2_Bucket_3: 311685
Critical_ROB_Stalls_Percent_2_Bucket_4: 132391
Non-critical_ROB_Stalls_Percent_2_Bucket_4: 195083
Critical_ROB_Stalls_Percent_2_Bucket_5: 79170
Non-critical_ROB_Stalls_Percent_2_Bucket_5: 163561
Critical_ROB_Stalls_Percent_2_Bucket_6: 168801
Non-critical_ROB_Stalls_Percent_2_Bucket_6: 559184
Critical_ROB_Stalls_Percent_3_Bucket_0: 1180149
Non-critical_ROB_Stalls_Percent_3_Bucket_0: 2735519
Critical_ROB_Stalls_Percent_3_Bucket_1: 565701
Non-critical_ROB_Stalls_Percent_3_Bucket_1: 691149
Critical_ROB_Stalls_Percent_3_Bucket_2: 322246
Non-critical_ROB_Stalls_Percent_3_Bucket_2: 331608
Critical_ROB_Stalls_Percent_3_Bucket_3: 105065
Non-critical_ROB_Stalls_Percent_3_Bucket_3: 311685
Critical_ROB_Stalls_Percent_3_Bucket_4: 132391
Non-critical_ROB_Stalls_Percent_3_Bucket_4: 195083
Critical_ROB_Stalls_Percent_3_Bucket_5: 79170
Non-critical_ROB_Stalls_Percent_3_Bucket_5: 163561
Critical_ROB_Stalls_Percent_3_Bucket_6: 168801
Non-critical_ROB_Stalls_Percent_3_Bucket_6: 559184
Critical_ROB_Stalls_Percent_4_Bucket_0: 1180149
Non-critical_ROB_Stalls_Percent_4_Bucket_0: 2735519
Critical_ROB_Stalls_Percent_4_Bucket_1: 565701
Non-critical_ROB_Stalls_Percent_4_Bucket_1: 691149
Critical_ROB_Stalls_Percent_4_Bucket_2: 322246
Non-critical_ROB_Stalls_Percent_4_Bucket_2: 331608
Critical_ROB_Stalls_Percent_4_Bucket_3: 105065
Non-critical_ROB_Stalls_Percent_4_Bucket_3: 311685
Critical_ROB_Stalls_Percent_4_Bucket_4: 132391
Non-critical_ROB_Stalls_Percent_4_Bucket_4: 195083
Critical_ROB_Stalls_Percent_4_Bucket_5: 79170
Non-critical_ROB_Stalls_Percent_4_Bucket_5: 163561
Critical_ROB_Stalls_Percent_4_Bucket_6: 168801
Non-critical_ROB_Stalls_Percent_4_Bucket_6: 559184
Critical_ROB_Stalls_Percent_5_Bucket_0: 1180149
Non-critical_ROB_Stalls_Percent_5_Bucket_0: 2735519
Critical_ROB_Stalls_Percent_5_Bucket_1: 565701
Non-critical_ROB_Stalls_Percent_5_Bucket_1: 691149
Critical_ROB_Stalls_Percent_5_Bucket_2: 322246
Non-critical_ROB_Stalls_Percent_5_Bucket_2: 331608
Critical_ROB_Stalls_Percent_5_Bucket_3: 105065
Non-critical_ROB_Stalls_Percent_5_Bucket_3: 311685
Critical_ROB_Stalls_Percent_5_Bucket_4: 132391
Non-critical_ROB_Stalls_Percent_5_Bucket_4: 195083
Critical_ROB_Stalls_Percent_5_Bucket_5: 79170
Non-critical_ROB_Stalls_Percent_5_Bucket_5: 163561
Critical_ROB_Stalls_Percent_5_Bucket_6: 168801
Non-critical_ROB_Stalls_Percent_5_Bucket_6: 559184
Critical_ROB_Stalls_Percent_6_Bucket_0: 1180149
Non-critical_ROB_Stalls_Percent_6_Bucket_0: 2735519
Critical_ROB_Stalls_Percent_6_Bucket_1: 565701
Non-critical_ROB_Stalls_Percent_6_Bucket_1: 691149
Critical_ROB_Stalls_Percent_6_Bucket_2: 322246
Non-critical_ROB_Stalls_Percent_6_Bucket_2: 331608
Critical_ROB_Stalls_Percent_6_Bucket_3: 105065
Non-critical_ROB_Stalls_Percent_6_Bucket_3: 311685
Critical_ROB_Stalls_Percent_6_Bucket_4: 132391
Non-critical_ROB_Stalls_Percent_6_Bucket_4: 195083
Critical_ROB_Stalls_Percent_6_Bucket_5: 79170
Non-critical_ROB_Stalls_Percent_6_Bucket_5: 163561
Critical_ROB_Stalls_Percent_6_Bucket_6: 168801
Non-critical_ROB_Stalls_Percent_6_Bucket_6: 559184
Critical_ROB_Stalls_Percent_7_Bucket_0: 1180149
Non-critical_ROB_Stalls_Percent_7_Bucket_0: 2735519
Critical_ROB_Stalls_Percent_7_Bucket_1: 565701
Non-critical_ROB_Stalls_Percent_7_Bucket_1: 691149
Critical_ROB_Stalls_Percent_7_Bucket_2: 322246
Non-critical_ROB_Stalls_Percent_7_Bucket_2: 331608
Critical_ROB_Stalls_Percent_7_Bucket_3: 105065
Non-critical_ROB_Stalls_Percent_7_Bucket_3: 311685
Critical_ROB_Stalls_Percent_7_Bucket_4: 132391
Non-critical_ROB_Stalls_Percent_7_Bucket_4: 195083
Critical_ROB_Stalls_Percent_7_Bucket_5: 79170
Non-critical_ROB_Stalls_Percent_7_Bucket_5: 163561
Critical_ROB_Stalls_Percent_7_Bucket_6: 168801
Non-critical_ROB_Stalls_Percent_7_Bucket_6: 559184
Critical_ROB_Stalls_Percent_8_Bucket_0: 1180149
Non-critical_ROB_Stalls_Percent_8_Bucket_0: 2735519
Critical_ROB_Stalls_Percent_8_Bucket_1: 565701
Non-critical_ROB_Stalls_Percent_8_Bucket_1: 691149
Critical_ROB_Stalls_Percent_8_Bucket_2: 322246
Non-critical_ROB_Stalls_Percent_8_Bucket_2: 331608
Critical_ROB_Stalls_Percent_8_Bucket_3: 105065
Non-critical_ROB_Stalls_Percent_8_Bucket_3: 311685
Critical_ROB_Stalls_Percent_8_Bucket_4: 132391
Non-critical_ROB_Stalls_Percent_8_Bucket_4: 195083
Critical_ROB_Stalls_Percent_8_Bucket_5: 79170
Non-critical_ROB_Stalls_Percent_8_Bucket_5: 163561
Critical_ROB_Stalls_Percent_8_Bucket_6: 168801
Non-critical_ROB_Stalls_Percent_8_Bucket_6: 559184
Average ROB occupancy Load Stall Begin: 84.6501
Average ROB occupancy Load Stall End: 94.186
Min ROB occupancy Load Stall Begin: 1
Max ROB occupancy Load Stall Begin: 352
Min ROB occupancy Load Stall End: 1
Max ROB occupancy Load Stall End: 352
Average ROB occupancy Critical Load Stall Begin: -nan
Average ROB occupancy Critical Load Stall End: -nan
Min ROB occupancy Critical Load Stall Begin: 400
Max ROB occupancy Critical Load Stall Begin: 0
Min ROB occupancy Critical Load Stall End: 400
Max ROB occupancy Critical Load Stall End: 0
 ROB Load Stall Begin Bucket Count 0: 4265047
 ROB Load Stall End Bucket Count 0: 3915668
 ROB Critical Load Stall Begin Bucket Count 0: 0
 ROB Critical Load Stall End Bucket Count 0: 0
 ROB Load Stall Begin Bucket Count 1: 1222574
 ROB Load Stall End Bucket Count 1: 1256850
 ROB Critical Load Stall Begin Bucket Count 1: 0
 ROB Critical Load Stall End Bucket Count 1: 0
 ROB Load Stall Begin Bucket Count 2: 487333
 ROB Load Stall End Bucket Count 2: 653854
 ROB Critical Load Stall Begin Bucket Count 2: 0
 ROB Critical Load Stall End Bucket Count 2: 0
 ROB Load Stall Begin Bucket Count 3: 396909
 ROB Load Stall End Bucket Count 3: 416750
 ROB Critical Load Stall Begin Bucket Count 3: 0
 ROB Critical Load Stall End Bucket Count 3: 0
 ROB Load Stall Begin Bucket Count 4: 278175
 ROB Load Stall End Bucket Count 4: 327474
 ROB Critical Load Stall Begin Bucket Count 4: 0
 ROB Critical Load Stall End Bucket Count 4: 0
 ROB Load Stall Begin Bucket Count 5: 261862
 ROB Load Stall End Bucket Count 5: 242731
 ROB Critical Load Stall Begin Bucket Count 5: 0
 ROB Critical Load Stall End Bucket Count 5: 0
 ROB Load Stall Begin Bucket Count 6: 629412
 ROB Load Stall End Bucket Count 6: 727985
 ROB Critical Load Stall Begin Bucket Count 6: 0
 ROB Critical Load Stall End Bucket Count 6: 0
PIST Tag Read Accesses: 0
PIST Read Accesses: 0
PIST Tag Write Accesses: 0
PIST Write Accesses: 0
Criticality detector called times: 0
Max global_stall_cycles_count: 0
Threshold Modified: 0 times, factor: 0
ITLB TOTAL     ACCESS:   16297619  HIT:   16297619  MISS:          0  HIT %:        100  MISS %:          0   MPKI: 0
ITLB LOAD TRANSLATION ACCESS:   16297619  HIT:   16297619  MISS:          0  HIT %:        100  MISS %:          0   MPKI: 0
ITLB PREFETCH  REQUESTED:          0  ISSUED:          0  USEFUL:          0  USELESS:          0
ITLB USEFUL LOAD PREFETCHES:          0 PREFETCH ISSUED TO LOWER LEVEL:          0  ACCURACY: -nan
ITLB TIMELY PREFETCHES:          0 LATE PREFETCHES: 0 DROPPED PREFETCHES: 0
ITLB PREFETCHES SAME FILL-ORIGIN LEVEL: 0 DIFFERENT FILL-ORIGIN LEVEL: 0
ITLB AVERAGE MISS LATENCY: -nan cycles
ITLB RQ	ACCESS:   16516263	FORWARD:          0	MERGED:     218645	TO_CACHE:   16297618

DTLB TOTAL     ACCESS:   21150046  HIT:   12631057  MISS:    8518989  HIT %:    59.7212  MISS %:    40.2788   MPKI: 85.1899
DTLB LOAD TRANSLATION ACCESS:   21150046  HIT:   12631057  MISS:    8518989  HIT %:    59.7212  MISS %:    40.2788   MPKI: 85.1899
DTLB PREFETCH  REQUESTED:          0  ISSUED:          0  USEFUL:          0  USELESS:          0
DTLB USEFUL LOAD PREFETCHES:          0 PREFETCH ISSUED TO LOWER LEVEL:          0  ACCURACY: -nan
DTLB TIMELY PREFETCHES:          0 LATE PREFETCHES: 0 DROPPED PREFETCHES: 0
DTLB PREFETCHES SAME FILL-ORIGIN LEVEL: 0 DIFFERENT FILL-ORIGIN LEVEL: 0
DTLB AVERAGE MISS LATENCY: 11.1952 cycles
DTLB RQ	ACCESS:   23456042	FORWARD:          0	MERGED:    2154490	TO_CACHE:   21301552

STLB TOTAL     ACCESS:    8518988  HIT:    8405777  MISS:     113211  HIT %:    98.6711  MISS %:    1.32893   MPKI: 1.13211
STLB LOAD TRANSLATION ACCESS:    8518988  HIT:    8405777  MISS:     113211  HIT %:    98.6711  MISS %:    1.32893   MPKI: 1.13211
STLB PREFETCH  REQUESTED:          0  ISSUED:          0  USEFUL:          0  USELESS:          0
STLB USEFUL LOAD PREFETCHES:          0 PREFETCH ISSUED TO LOWER LEVEL:          0  ACCURACY: -nan
STLB TIMELY PREFETCHES:          0 LATE PREFETCHES: 0 DROPPED PREFETCHES: 0
STLB PREFETCHES SAME FILL-ORIGIN LEVEL: 0 DIFFERENT FILL-ORIGIN LEVEL: 0
STLB AVERAGE MISS LATENCY: 141.26 cycles
STLB RQ	ACCESS:    8518988	FORWARD:          0	MERGED:          0	TO_CACHE:    8518988

STLB Hit, L1D data hit: 0
STLB Hit, L2C data hit: 0
STLB Hit, LLC data hit: 0
STLB Hit, LLC data miss: 0
STLB STLB hints to L2: 0
L1D TOTAL     ACCESS:   23119785  HIT:    8183635  MISS:   14936150  HIT %:    35.3967  MISS %:    64.6033   MPKI: 149.361
L1D LOAD      ACCESS:   21094176  HIT:    6196905  MISS:   14897271  HIT %:    29.3773  MISS %:    70.6227   MPKI: 148.973
L1D RFO       ACCESS:    2025609  HIT:    1986730  MISS:      38879  HIT %:    98.0806  MISS %:    1.91937   MPKI: 0.38879
L1D PREFETCH  REQUESTED:          0  ISSUED:          0  USEFUL:          0  USELESS:          0
L1D USEFUL LOAD PREFETCHES:          0 PREFETCH ISSUED TO LOWER LEVEL:          0  ACCURACY: -nan
L1D TIMELY PREFETCHES:          0 LATE PREFETCHES: 0 DROPPED PREFETCHES: 0
L1D PREFETCHES SAME FILL-ORIGIN LEVEL: 0 DIFFERENT FILL-ORIGIN LEVEL: 0
L1D AVERAGE MISS LATENCY: 56.1182 cycles
L1D RQ	ACCESS:   35641486	FORWARD:          0	MERGED:   13957335	TO_CACHE:   21342116
L1D WQ	ACCESS:    2185912	FORWARD:     342035	MERGED:      71986	TO_CACHE:    2113926

L1D UNIQUE REGIONS ACCESSED: 0
L1D REGIONS CONFLICTS: 0
L1D Cross Page Prefetch Requests: 0
L1D Same Page Prefetch Requests: 0
L1D ROI Sum of L1D PQ occupancy: 0
L1D PREFETCHES PUSHED FROM L2C: 0
L1I TOTAL     ACCESS:   16516264  HIT:   16516264  MISS:          0  HIT %:        100  MISS %:          0   MPKI: 0
L1I LOAD      ACCESS:   16516264  HIT:   16516264  MISS:          0  HIT %:        100  MISS %:          0   MPKI: 0
L1I PREFETCH  REQUESTED:          0  ISSUED:          0  USEFUL:          0  USELESS:          0
L1I USEFUL LOAD PREFETCHES:          0 PREFETCH ISSUED TO LOWER LEVEL:          0  ACCURACY: -nan
L1I TIMELY PREFETCHES:          0 LATE PREFETCHES: 0 DROPPED PREFETCHES: 0
L1I PREFETCHES SAME FILL-ORIGIN LEVEL: 0 DIFFERENT FILL-ORIGIN LEVEL: 0
L1I AVERAGE MISS LATENCY: -nan cycles
L1I RQ	ACCESS:   22058795	FORWARD:          0	MERGED:    5542532	TO_CACHE:   16516263

BTB TOTAL     ACCESS:   29634397  HIT:   29518849  MISS:     115548  HIT %:    99.6101  MISS %:   0.389912   MPKI: 1.15548
BTB BRANCH_DIRECT_JUMP	ACCESS:    3793757  HIT:    3793720  MISS:         37
BTB BRANCH_INDIRECT	ACCESS:          0  HIT:          0  MISS:          0
BTB BRANCH_CONDITIONAL	ACCESS:   24997970  HIT:   24997888  MISS:         82
BTB BRANCH_DIRECT_CALL	ACCESS:     389591  HIT:     389573  MISS:         18
BTB BRANCH_INDIRECT_CALL	ACCESS:      31744  HIT:      31736  MISS:          8
BTB BRANCH_RETURN	ACCESS:     421335  HIT:     305932  MISS:     115403
BTB BRANCH_OTHER ACCESS:          0  HIT:          0  MISS:          0

L2C TOTAL     ACCESS:   28223638  HIT:    8798045  MISS:   19425593  HIT %:    31.1726  MISS %:    68.8274   MPKI: 194.256
L2C LOAD      ACCESS:   14897264  HIT:    6673414  MISS:    8223850  HIT %:    44.7962  MISS %:    55.2038   MPKI: 82.2385
L2C DATA LOAD MPKI: 82.2385
L2C INSTRUCTION LOAD MPKI: 0
L2C RFO       ACCESS:      38879  HIT:      10425  MISS:      28454  HIT %:     26.814  MISS %:     73.186   MPKI: 0.28454
L2C PREFETCH  ACCESS:   12867923  HIT:    1739272  MISS:   11128651  HIT %:    13.5163  MISS %:    86.4837   MPKI: 111.287
L2C DATA PREFETCH MPKI: 111.287
L2C INSTRUCTION PREFETCH MPKI: 0
L2C WRITEBACK ACCESS:     305312  HIT:     298953  MISS:       6359  HIT %:    97.9172  MISS %:    2.08279   MPKI: 0.06359
L2C LOAD TRANSLATION ACCESS:     114260  HIT:      75981  MISS:      38279  HIT %:    66.4983  MISS %:    33.5017   MPKI: 0.38279
L2C PREFETCH  REQUESTED:   13589597  ISSUED:   13589597  USEFUL:    5188244  USELESS:    5938739
L2C USEFUL LOAD PREFETCHES:    5188244 PREFETCH ISSUED TO LOWER LEVEL:   11554748  ACCURACY: 44.9014
L2C TIMELY PREFETCHES:    5188244 LATE PREFETCHES: 426097 DROPPED PREFETCHES: 0
L2C PREFETCHES SAME FILL-ORIGIN LEVEL: 11554748 DIFFERENT FILL-ORIGIN LEVEL: 0
L2C AVERAGE MISS LATENCY: 113.625 cycles
L2C RQ	ACCESS:   15050409	FORWARD:          0	MERGED:          0	TO_CACHE:   15050403
L2C WQ	ACCESS:     305312	FORWARD:          6	MERGED:          0	TO_CACHE:     305312
L2C PQ	ACCESS:   13589597	FORWARD:          0	MERGED:          0	TO_CACHE:   13589597

L2C Instructions Evicting Data 0
L2C Translations Evicting Data 38210
L2C Data Evicting Data 19342740
L2C Instructions Evicting Instructions 0
L2C Translations Evicting Instructions 0
L2C Data Evicting Instructions 0
L2C Instructions Evicting Translations 0
L2C Translations Evicting Translations 69
L2C Data Evicting Translations 38215
L2C Dense regions hint from L2: 0
PSCL5 TOTAL     ACCESS:     113211  HIT:     113211  MISS:          0  HIT %:        100  MISS %:          0   MPKI: 0
PSCL5 LOAD TRANSLATION ACCESS:     113211  HIT:     113211  MISS:          0  HIT %:        100  MISS %:          0   MPKI: 0
PSCL5 PREFETCH  REQUESTED:          0  ISSUED:          0  USEFUL:          0  USELESS:          0
PSCL5 USEFUL LOAD PREFETCHES:          0 PREFETCH ISSUED TO LOWER LEVEL:          0  ACCURACY: -nan
PSCL5 TIMELY PREFETCHES:          0 LATE PREFETCHES: 0 DROPPED PREFETCHES: 0
PSCL5 PREFETCHES SAME FILL-ORIGIN LEVEL: 0 DIFFERENT FILL-ORIGIN LEVEL: 0

PSCL4 TOTAL     ACCESS:     113211  HIT:     113211  MISS:          0  HIT %:        100  MISS %:          0   MPKI: 0
PSCL4 LOAD TRANSLATION ACCESS:     113211  HIT:     113211  MISS:          0  HIT %:        100  MISS %:          0   MPKI: 0
PSCL4 PREFETCH  REQUESTED:          0  ISSUED:          0  USEFUL:          0  USELESS:          0
PSCL4 USEFUL LOAD PREFETCHES:          0 PREFETCH ISSUED TO LOWER LEVEL:          0  ACCURACY: -nan
PSCL4 TIMELY PREFETCHES:          0 LATE PREFETCHES: 0 DROPPED PREFETCHES: 0
PSCL4 PREFETCHES SAME FILL-ORIGIN LEVEL: 0 DIFFERENT FILL-ORIGIN LEVEL: 0

PSCL3 TOTAL     ACCESS:     113211  HIT:     113211  MISS:          0  HIT %:        100  MISS %:          0   MPKI: 0
PSCL3 LOAD TRANSLATION ACCESS:     113211  HIT:     113211  MISS:          0  HIT %:        100  MISS %:          0   MPKI: 0
PSCL3 PREFETCH  REQUESTED:          0  ISSUED:          0  USEFUL:          0  USELESS:          0
PSCL3 USEFUL LOAD PREFETCHES:          0 PREFETCH ISSUED TO LOWER LEVEL:          0  ACCURACY: -nan
PSCL3 TIMELY PREFETCHES:          0 LATE PREFETCHES: 0 DROPPED PREFETCHES: 0
PSCL3 PREFETCHES SAME FILL-ORIGIN LEVEL: 0 DIFFERENT FILL-ORIGIN LEVEL: 0

PSCL2 TOTAL     ACCESS:     113211  HIT:     111849  MISS:       1362  HIT %:    98.7969  MISS %:    1.20306   MPKI: 0.01362
PSCL2 LOAD TRANSLATION ACCESS:     113211  HIT:     111849  MISS:       1362  HIT %:    98.7969  MISS %:    1.20306   MPKI: 0.01362
PSCL2 PREFETCH  REQUESTED:          0  ISSUED:          0  USEFUL:          0  USELESS:          0
PSCL2 USEFUL LOAD PREFETCHES:          0 PREFETCH ISSUED TO LOWER LEVEL:          0  ACCURACY: -nan
PSCL2 TIMELY PREFETCHES:          0 LATE PREFETCHES: 0 DROPPED PREFETCHES: 0
PSCL2 PREFETCHES SAME FILL-ORIGIN LEVEL: 0 DIFFERENT FILL-ORIGIN LEVEL: 0

LLC TOTAL     ACCESS:   19666430  HIT:   10975280  MISS:    8691150  HIT %:    55.8072  MISS %:    44.1928   MPKI: 86.9115
LLC LOAD      ACCESS:    7797748  HIT:    6139872  MISS:    1657876  HIT %:     78.739  MISS %:     21.261   MPKI: 16.5788
LLC RFO       ACCESS:      28454  HIT:      25720  MISS:       2734  HIT %:    90.3915  MISS %:    9.60849   MPKI: 0.02734
LLC PREFETCH  ACCESS:   11554745  HIT:    4588906  MISS:    6965839  HIT %:    39.7145  MISS %:    60.2855   MPKI: 69.6584
LLC WRITEBACK ACCESS:     247204  HIT:     206432  MISS:      40772  HIT %:    83.5067  MISS %:    16.4933   MPKI: 0.40772
LLC LOAD TRANSLATION ACCESS:      38279  HIT:      14350  MISS:      23929  HIT %:    37.4879  MISS %:    62.5121   MPKI: 0.23929
LLC PREFETCH  REQUESTED:          0  ISSUED:          0  USEFUL:      28737  USELESS:    6930562
LLC USEFUL LOAD PREFETCHES:      28737 PREFETCH ISSUED TO LOWER LEVEL:    6965839  ACCURACY: 0.412542
LLC TIMELY PREFETCHES:      28737 LATE PREFETCHES: 0 DROPPED PREFETCHES: 0
LLC PREFETCHES SAME FILL-ORIGIN LEVEL: 0 DIFFERENT FILL-ORIGIN LEVEL: 0
LLC AVERAGE MISS LATENCY: 189.188 cycles
LLC RQ	ACCESS:    7864486	FORWARD:          0	MERGED:          0	TO_CACHE:    7864481
LLC WQ	ACCESS:     247204	FORWARD:          8	MERGED:          0	TO_CACHE:     247204
LLC PQ	ACCESS:   11554748	FORWARD:          0	MERGED:          0	TO_CACHE:   11554745

LLC Dense regions hint to LLC: 0

RAW hits: 284527
Loads Generated: 35926018
Loads sent to L1D: 35641486
Stores Generated: 2185912
Stores sent to L1D: 2185912
Major fault: 0 Minor fault: 128515
Allocated PAGES: 128515
[Bingo] PHT Access: 8261724
[Bingo] PHT Hit PC+Addr: 918736
[Bingo] PHT Hit PC+Offs: 7329086
[Bingo] PHT Miss: 13902
[Bingo] Prefetch PC+Addr: 0
[Bingo] Prefetch PC+Offs: 0
[Bingo] Useful PC+Addr: 0
[Bingo] Useful PC+Offs: 0
[Bingo] Useless PC+Addr: 0
[Bingo] Useless PC+Offs: 0
[Bingo] L1 Prefetch per Region: 0
[Bingo] L2 Prefetch per Region: 2.68152
[Bingo] L3 Prefetch per Region: 0
[Bingo] No Prefetch per Region: 29.3185
[Bingo] Number of Voters Mean: 15.9183
[Bingo] Number of Voters SD: 2.95132
PHT read accesses: 124739862
PHT write accesses: 740569
AT read accesses: 7026066
AT write accesses: 7230434
FT read accesses: 2554344
FT write accesses: 8261724
PS read accesses: 17224123
PS write accesses: 8247822
PHT tag read accesses: 144577851
PHT tag write accesses: 1659305
AT tag read accesses: 577999667
AT tag write accesses: 7766742
FT tag read accesses: 722976731
FT tag write accesses: 10074838
PS tag read accesses: 528317300
PS tag write accesses: 25357098

DRAM Statistics
 CHANNEL 0
 RQ ROW_BUFFER_HIT:    4320617  ROW_BUFFER_MISS:    4329743
 DBUS_CONGESTED:        358
 WQ ROW_BUFFER_HIT:      11420  ROW_BUFFER_MISS:      49883  FULL:          0

 AVG_CONGESTED_CYCLE: 4
 All warmup complete: 2
Channel 0 Bank busy for read cycles: 0
Channel 0 Bank busy for write cycles: 0
Channel 0
Rank 0
0banks busy for read cycles: 173016637
0banks busy for write cycles: 44514
1banks busy for read cycles: 110437417
1banks busy for write cycles: 8719025
2banks busy for read cycles: 60762954
2banks busy for write cycles: 1286902
3banks busy for read cycles: 34358876
3banks busy for write cycles: 320347
4banks busy for read cycles: 19893144
4banks busy for write cycles: 131193
5banks busy for read cycles: 11979562
5banks busy for write cycles: 76296
6banks busy for read cycles: 8662161
6banks busy for write cycles: 50513
7banks busy for read cycles: 11756910
7banks busy for write cycles: 32546
8banks busy for read cycles: 32103399
8banks busy for write cycles: 15622

CPU 0 Branch Prediction Accuracy: 97.0234% MPKI: 8.99605 Average ROB Occupancy at Mispredict: 52.4414
Branch types
NOT_BRANCH: 69777207 69.7772%
BRANCH_DIRECT_JUMP: 3793757 3.79376%
BRANCH_INDIRECT: 0 0%
BRANCH_CONDITIONAL: 25586017 25.586%
BRANCH_DIRECT_CALL: 389591 0.389591%
BRANCH_INDIRECT_CALL: 31744 0.031744%
BRANCH_RETURN: 421335 0.421335%
BRANCH_OTHER: 0 0%

DRAM PAGES: 1048576
Allocated PAGES: 128515
