
*** ChampSim Multicore Out-of-Order Simulator ***

Warmup Instructions: 50000000
Simulation Instructions: 100000000
Number of CPUs: 1
LLC sets: 2048
LLC ways: 16
Off-chip DRAM Size: 4096 MB Channels: 1 Width: 64-bit Data Rate: 6400 MT/s
CPU 0 runs ../SPEC2017//605.mcf_s-484B.champsimtrace.xz
.xz
BTB has LRU replacement policy
ITLB has LRU replacement policy
DTLB has LRU replacement policy
STLB has LRU replacement policy
L1I has LRU replacement policy
IP Table Entries: 64
L1D has LRU replacement policy
Initialize SRRIP state for L2C
Initialize DRRIP state for LLC
Heartbeat CPU 0 instructions: 10000001 cycles: 3176428 heartbeat IPC: 3.14819 cumulative IPC: 3.14819 (Simulation time: 0 hr 6 min 33 sec) 
Heartbeat CPU 0 instructions: 20000003 cycles: 6386523 heartbeat IPC: 3.11517 cumulative IPC: 3.13159 (Simulation time: 0 hr 12 min 51 sec) 
Heartbeat CPU 0 instructions: 30000001 cycles: 9566710 heartbeat IPC: 3.14447 cumulative IPC: 3.13587 (Simulation time: 0 hr 19 min 9 sec) 
Heartbeat CPU 0 instructions: 40000000 cycles: 12729924 heartbeat IPC: 3.16134 cumulative IPC: 3.1422 (Simulation time: 0 hr 24 min 40 sec) 
Heartbeat CPU 0 instructions: 50000000 cycles: 15921479 heartbeat IPC: 3.13327 cumulative IPC: 3.14041 (Simulation time: 0 hr 29 min 58 sec) 

Warmup complete CPU 0 instructions: 50000004 cycles: 15921480 (Simulation time: 0 hr 29 min 58 sec) 

Heartbeat CPU 0 instructions: 60000003 cycles: 47424302 heartbeat IPC: 0.317432 cumulative IPC: 0.317432 (Simulation time: 0 hr 37 min 23 sec) 
Heartbeat CPU 0 instructions: 70000002 cycles: 87133038 heartbeat IPC: 0.251834 cumulative IPC: 0.280853 (Simulation time: 0 hr 44 min 57 sec) 
Heartbeat CPU 0 instructions: 80000000 cycles: 121288152 heartbeat IPC: 0.292782 cumulative IPC: 0.28472 (Simulation time: 0 hr 52 min 7 sec) 
Heartbeat CPU 0 instructions: 90000000 cycles: 149518698 heartbeat IPC: 0.354226 cumulative IPC: 0.299407 (Simulation time: 0 hr 58 min 42 sec) 
Heartbeat CPU 0 instructions: 100000000 cycles: 174441812 heartbeat IPC: 0.401234 cumulative IPC: 0.315417 (Simulation time: 1 hr 4 min 2 sec) 
Heartbeat CPU 0 instructions: 110000000 cycles: 199489888 heartbeat IPC: 0.399232 cumulative IPC: 0.326854 (Simulation time: 1 hr 9 min 4 sec) 
Heartbeat CPU 0 instructions: 120000001 cycles: 222535570 heartbeat IPC: 0.433921 cumulative IPC: 0.338796 (Simulation time: 1 hr 12 min 27 sec) 
Heartbeat CPU 0 instructions: 130000000 cycles: 246433661 heartbeat IPC: 0.418443 cumulative IPC: 0.347053 (Simulation time: 1 hr 19 min 44 sec) 
Heartbeat CPU 0 instructions: 140000001 cycles: 271244788 heartbeat IPC: 0.403045 cumulative IPC: 0.352494 (Simulation time: 1 hr 29 min 53 sec) 
Heartbeat CPU 0 instructions: 150000002 cycles: 294452867 heartbeat IPC: 0.430884 cumulative IPC: 0.359026 (Simulation time: 1 hr 38 min 21 sec) 
Finished CPU 0 instructions: 100000000 cycles: 278531388 cumulative IPC: 0.359026 (Simulation time: 1 hr 38 min 21 sec) 

ChampSim completed all CPUs

Region of Interest Statistics

CPU 0 cumulative IPC: 0.359026 instructions: 100000000 cycles: 278531388

CPU 0 Average Load ROB stall cycles: 5.47942e+07
CPU 0 Fraction of times ROB stalled by Loads: 32.6171
CPU 0 Percentage of Load stall cycles in Total stall cycles: 5.33335e+08
Issued all: 160943479
Issued LT all: 152863092
rob_not_full_when_issued_lt_all: 26764127
Issued LT one: 132346927
rob_not_full_when_issued_lt_one: 22011812
 Total stall cycles: 255508536
 Total load stall cycles: 1362715856987710
Unique Load IPs: 96
CPU 0 NUM of IPS identified critical: 11
CPU 0 Num of Load IPs stalling ROB: 0
Threshold modification factor: 0
Trouble in retire width: -nan
MaC = Marked as critical.
lt_50_percent_before_Mac: 8
gt_90_percent_before_Mac: 1
gt_75_percent_before_Mac: 0
gt_50_percent_before_Mac: 2
stall_proportion_bin_same_before_after: 0
stall_proportion_bin_lower_before_after: 0
stall_proportion_bin_upper_before_after: 0
average_stall_proportion_before: 0.0162625
average_stall_proportion_after: 0.0233356
Critical_IP_Detector_Accuracy_70: 0
Critical_IP_Detector_Accuracy_80: 0
Critical_IP_Detector_Accuracy_90: 0
Critical_IP_Detector_Coverage_70: 0
Critical_IP_Detector_Coverage_80: 0
Critical_IP_Detector_Coverage_90: 0
stat_90_percent_critical_ip_stalls_freq: 2259705
stat_90_percent_non_critical_ip_stalls_freq: 18446744073707291911
AVERAGE_ROB_Occupancy_90_Percent_Critical_IP_Stalls: 280.967
AVERAGE_ROB_Occupancy_90_Percent_Non_Critical_IP_Stalls: 8.36774e-11
Critical_IP_ROB_Stalls_Bucket_0: 204402
Non-critical_IP_ROB_Stalls_Bucket_0: 386468
Critical_IP_ROB_Stalls_Bucket_1: 126049
Non-critical_IP_ROB_Stalls_Bucket_1: 230373
Critical_IP_ROB_Stalls_Bucket_2: 39197
Non-critical_IP_ROB_Stalls_Bucket_2: 334951
Critical_IP_ROB_Stalls_Bucket_3: 38037
Non-critical_IP_ROB_Stalls_Bucket_3: 567333
Critical_IP_ROB_Stalls_Bucket_4: 29761
Non-critical_IP_ROB_Stalls_Bucket_4: 852013
Critical_IP_ROB_Stalls_Bucket_5: 55549
Non-critical_IP_ROB_Stalls_Bucket_5: 727017
Critical_IP_ROB_Stalls_Bucket_6: 506607
Non-critical_IP_ROB_Stalls_Bucket_6: 4014016
0 => IPs accounting for >50 percent of stalls, 1 => 55, 2 => 60, 3 => 65 and so on till 90.
percent50: inf num IPs:  1
percent55: inf num IPs: 1
percent60: inf num IPs: 1
percent65: inf num IPs: 1
percent70: inf num IPs: 1
percent75: inf num IPs: 1
percent80: inf num IPs: 1
percent85: inf num IPs: 1
percent90: inf num IPs: 1
Critical_ROB_Stalls_Percent_0_Bucket_0: 102057
Non-critical_ROB_Stalls_Percent_0_Bucket_0: 488813
Critical_ROB_Stalls_Percent_0_Bucket_1: 58183
Non-critical_ROB_Stalls_Percent_0_Bucket_1: 298239
Critical_ROB_Stalls_Percent_0_Bucket_2: 107954
Non-critical_ROB_Stalls_Percent_0_Bucket_2: 266194
Critical_ROB_Stalls_Percent_0_Bucket_3: 142113
Non-critical_ROB_Stalls_Percent_0_Bucket_3: 463257
Critical_ROB_Stalls_Percent_0_Bucket_4: 293450
Non-critical_ROB_Stalls_Percent_0_Bucket_4: 588324
Critical_ROB_Stalls_Percent_0_Bucket_5: 258898
Non-critical_ROB_Stalls_Percent_0_Bucket_5: 523668
Critical_ROB_Stalls_Percent_0_Bucket_6: 1297050
Non-critical_ROB_Stalls_Percent_0_Bucket_6: 3223573
Critical_ROB_Stalls_Percent_1_Bucket_0: 102057
Non-critical_ROB_Stalls_Percent_1_Bucket_0: 488813
Critical_ROB_Stalls_Percent_1_Bucket_1: 58183
Non-critical_ROB_Stalls_Percent_1_Bucket_1: 298239
Critical_ROB_Stalls_Percent_1_Bucket_2: 107954
Non-critical_ROB_Stalls_Percent_1_Bucket_2: 266194
Critical_ROB_Stalls_Percent_1_Bucket_3: 142113
Non-critical_ROB_Stalls_Percent_1_Bucket_3: 463257
Critical_ROB_Stalls_Percent_1_Bucket_4: 293450
Non-critical_ROB_Stalls_Percent_1_Bucket_4: 588324
Critical_ROB_Stalls_Percent_1_Bucket_5: 258898
Non-critical_ROB_Stalls_Percent_1_Bucket_5: 523668
Critical_ROB_Stalls_Percent_1_Bucket_6: 1297050
Non-critical_ROB_Stalls_Percent_1_Bucket_6: 3223573
Critical_ROB_Stalls_Percent_2_Bucket_0: 102057
Non-critical_ROB_Stalls_Percent_2_Bucket_0: 488813
Critical_ROB_Stalls_Percent_2_Bucket_1: 58183
Non-critical_ROB_Stalls_Percent_2_Bucket_1: 298239
Critical_ROB_Stalls_Percent_2_Bucket_2: 107954
Non-critical_ROB_Stalls_Percent_2_Bucket_2: 266194
Critical_ROB_Stalls_Percent_2_Bucket_3: 142113
Non-critical_ROB_Stalls_Percent_2_Bucket_3: 463257
Critical_ROB_Stalls_Percent_2_Bucket_4: 293450
Non-critical_ROB_Stalls_Percent_2_Bucket_4: 588324
Critical_ROB_Stalls_Percent_2_Bucket_5: 258898
Non-critical_ROB_Stalls_Percent_2_Bucket_5: 523668
Critical_ROB_Stalls_Percent_2_Bucket_6: 1297050
Non-critical_ROB_Stalls_Percent_2_Bucket_6: 3223573
Critical_ROB_Stalls_Percent_3_Bucket_0: 102057
Non-critical_ROB_Stalls_Percent_3_Bucket_0: 488813
Critical_ROB_Stalls_Percent_3_Bucket_1: 58183
Non-critical_ROB_Stalls_Percent_3_Bucket_1: 298239
Critical_ROB_Stalls_Percent_3_Bucket_2: 107954
Non-critical_ROB_Stalls_Percent_3_Bucket_2: 266194
Critical_ROB_Stalls_Percent_3_Bucket_3: 142113
Non-critical_ROB_Stalls_Percent_3_Bucket_3: 463257
Critical_ROB_Stalls_Percent_3_Bucket_4: 293450
Non-critical_ROB_Stalls_Percent_3_Bucket_4: 588324
Critical_ROB_Stalls_Percent_3_Bucket_5: 258898
Non-critical_ROB_Stalls_Percent_3_Bucket_5: 523668
Critical_ROB_Stalls_Percent_3_Bucket_6: 1297050
Non-critical_ROB_Stalls_Percent_3_Bucket_6: 3223573
Critical_ROB_Stalls_Percent_4_Bucket_0: 102057
Non-critical_ROB_Stalls_Percent_4_Bucket_0: 488813
Critical_ROB_Stalls_Percent_4_Bucket_1: 58183
Non-critical_ROB_Stalls_Percent_4_Bucket_1: 298239
Critical_ROB_Stalls_Percent_4_Bucket_2: 107954
Non-critical_ROB_Stalls_Percent_4_Bucket_2: 266194
Critical_ROB_Stalls_Percent_4_Bucket_3: 142113
Non-critical_ROB_Stalls_Percent_4_Bucket_3: 463257
Critical_ROB_Stalls_Percent_4_Bucket_4: 293450
Non-critical_ROB_Stalls_Percent_4_Bucket_4: 588324
Critical_ROB_Stalls_Percent_4_Bucket_5: 258898
Non-critical_ROB_Stalls_Percent_4_Bucket_5: 523668
Critical_ROB_Stalls_Percent_4_Bucket_6: 1297050
Non-critical_ROB_Stalls_Percent_4_Bucket_6: 3223573
Critical_ROB_Stalls_Percent_5_Bucket_0: 102057
Non-critical_ROB_Stalls_Percent_5_Bucket_0: 488813
Critical_ROB_Stalls_Percent_5_Bucket_1: 58183
Non-critical_ROB_Stalls_Percent_5_Bucket_1: 298239
Critical_ROB_Stalls_Percent_5_Bucket_2: 107954
Non-critical_ROB_Stalls_Percent_5_Bucket_2: 266194
Critical_ROB_Stalls_Percent_5_Bucket_3: 142113
Non-critical_ROB_Stalls_Percent_5_Bucket_3: 463257
Critical_ROB_Stalls_Percent_5_Bucket_4: 293450
Non-critical_ROB_Stalls_Percent_5_Bucket_4: 588324
Critical_ROB_Stalls_Percent_5_Bucket_5: 258898
Non-critical_ROB_Stalls_Percent_5_Bucket_5: 523668
Critical_ROB_Stalls_Percent_5_Bucket_6: 1297050
Non-critical_ROB_Stalls_Percent_5_Bucket_6: 3223573
Critical_ROB_Stalls_Percent_6_Bucket_0: 102057
Non-critical_ROB_Stalls_Percent_6_Bucket_0: 488813
Critical_ROB_Stalls_Percent_6_Bucket_1: 58183
Non-critical_ROB_Stalls_Percent_6_Bucket_1: 298239
Critical_ROB_Stalls_Percent_6_Bucket_2: 107954
Non-critical_ROB_Stalls_Percent_6_Bucket_2: 266194
Critical_ROB_Stalls_Percent_6_Bucket_3: 142113
Non-critical_ROB_Stalls_Percent_6_Bucket_3: 463257
Critical_ROB_Stalls_Percent_6_Bucket_4: 293450
Non-critical_ROB_Stalls_Percent_6_Bucket_4: 588324
Critical_ROB_Stalls_Percent_6_Bucket_5: 258898
Non-critical_ROB_Stalls_Percent_6_Bucket_5: 523668
Critical_ROB_Stalls_Percent_6_Bucket_6: 1297050
Non-critical_ROB_Stalls_Percent_6_Bucket_6: 3223573
Critical_ROB_Stalls_Percent_7_Bucket_0: 102057
Non-critical_ROB_Stalls_Percent_7_Bucket_0: 488813
Critical_ROB_Stalls_Percent_7_Bucket_1: 58183
Non-critical_ROB_Stalls_Percent_7_Bucket_1: 298239
Critical_ROB_Stalls_Percent_7_Bucket_2: 107954
Non-critical_ROB_Stalls_Percent_7_Bucket_2: 266194
Critical_ROB_Stalls_Percent_7_Bucket_3: 142113
Non-critical_ROB_Stalls_Percent_7_Bucket_3: 463257
Critical_ROB_Stalls_Percent_7_Bucket_4: 293450
Non-critical_ROB_Stalls_Percent_7_Bucket_4: 588324
Critical_ROB_Stalls_Percent_7_Bucket_5: 258898
Non-critical_ROB_Stalls_Percent_7_Bucket_5: 523668
Critical_ROB_Stalls_Percent_7_Bucket_6: 1297050
Non-critical_ROB_Stalls_Percent_7_Bucket_6: 3223573
Critical_ROB_Stalls_Percent_8_Bucket_0: 102057
Non-critical_ROB_Stalls_Percent_8_Bucket_0: 488813
Critical_ROB_Stalls_Percent_8_Bucket_1: 58183
Non-critical_ROB_Stalls_Percent_8_Bucket_1: 298239
Critical_ROB_Stalls_Percent_8_Bucket_2: 107954
Non-critical_ROB_Stalls_Percent_8_Bucket_2: 266194
Critical_ROB_Stalls_Percent_8_Bucket_3: 142113
Non-critical_ROB_Stalls_Percent_8_Bucket_3: 463257
Critical_ROB_Stalls_Percent_8_Bucket_4: 293450
Non-critical_ROB_Stalls_Percent_8_Bucket_4: 588324
Critical_ROB_Stalls_Percent_8_Bucket_5: 258898
Non-critical_ROB_Stalls_Percent_8_Bucket_5: 523668
Critical_ROB_Stalls_Percent_8_Bucket_6: 1297050
Non-critical_ROB_Stalls_Percent_8_Bucket_6: 3223573
Average ROB occupancy Load Stall Begin: 263.227
Average ROB occupancy Load Stall End: 268.558
Min ROB occupancy Load Stall Begin: 1
Max ROB occupancy Load Stall Begin: 352
Min ROB occupancy Load Stall End: 1
Max ROB occupancy Load Stall End: 352
Average ROB occupancy Critical Load Stall Begin: 192.874
Average ROB occupancy Critical Load Stall End: 205.55
Min ROB occupancy Critical Load Stall Begin: 2
Max ROB occupancy Critical Load Stall Begin: 352
Min ROB occupancy Critical Load Stall End: 2
Max ROB occupancy Critical Load Stall End: 352
 ROB Load Stall Begin Bucket Count 0: 655874
 ROB Load Stall End Bucket Count 0: 590870
 ROB Critical Load Stall Begin Bucket Count 0: 177407
 ROB Critical Load Stall End Bucket Count 0: 136827
 ROB Load Stall Begin Bucket Count 1: 359079
 ROB Load Stall End Bucket Count 1: 356422
 ROB Critical Load Stall Begin Bucket Count 1: 79949
 ROB Critical Load Stall End Bucket Count 1: 101770
 ROB Load Stall Begin Bucket Count 2: 391110
 ROB Load Stall End Bucket Count 2: 374148
 ROB Critical Load Stall Begin Bucket Count 2: 19875
 ROB Critical Load Stall End Bucket Count 2: 22444
 ROB Load Stall Begin Bucket Count 3: 674776
 ROB Load Stall End Bucket Count 3: 605370
 ROB Critical Load Stall Begin Bucket Count 3: 19973
 ROB Critical Load Stall End Bucket Count 3: 22594
 ROB Load Stall Begin Bucket Count 4: 846261
 ROB Load Stall End Bucket Count 4: 881774
 ROB Critical Load Stall Begin Bucket Count 4: 13334
 ROB Critical Load Stall End Bucket Count 4: 13990
 ROB Load Stall Begin Bucket Count 5: 787769
 ROB Load Stall End Bucket Count 5: 782566
 ROB Critical Load Stall Begin Bucket Count 5: 27752
 ROB Critical Load Stall End Bucket Count 5: 29261
 ROB Load Stall Begin Bucket Count 6: 4396904
 ROB Load Stall End Bucket Count 6: 4520623
 ROB Critical Load Stall Begin Bucket Count 6: 260271
 ROB Critical Load Stall End Bucket Count 6: 271678
PIST Tag Read Accesses: 0
PIST Read Accesses: 0
PIST Tag Write Accesses: 0
PIST Write Accesses: 0
Criticality detector called times: 0
Max global_stall_cycles_count: 0
Threshold Modified: 0 times, factor: 0
Sturdy critical IP cache stats: 
 Unused entries: 0
CIC Tag Read Accesses: 0
CIC Read Accesses: 0
CIC Tag Write Accesses: 0
CIC Write Accesses: 0
Wobbly critical IP cache stats: 
 Unused entries: 14
CIC Tag Read Accesses: 494882484
CIC Read Accesses: 0
CIC Tag Write Accesses: 4546717
CIC Write Accesses: 0
ITLB TOTAL     ACCESS:   16511059  HIT:   16511059  MISS:          0  HIT %:        100  MISS %:          0   MPKI: 0
ITLB LOAD TRANSLATION ACCESS:   16511059  HIT:   16511059  MISS:          0  HIT %:        100  MISS %:          0   MPKI: 0
ITLB PREFETCH  REQUESTED:          0  ISSUED:          0  USEFUL:          0  USELESS:          0
ITLB USEFUL LOAD PREFETCHES:          0 PREFETCH ISSUED TO LOWER LEVEL:          0  ACCURACY: -nan
ITLB TIMELY PREFETCHES:          0 LATE PREFETCHES: 0 DROPPED PREFETCHES: 0
ITLB PREFETCHES SAME FILL-ORIGIN LEVEL: 0 DIFFERENT FILL-ORIGIN LEVEL: 0
ITLB AVERAGE MISS LATENCY: -nan cycles
ITLB RQ	ACCESS:   21495205	FORWARD:          0	MERGED:    4984147	TO_CACHE:   16511058

DTLB TOTAL     ACCESS:   26434701  HIT:   26228751  MISS:     205950  HIT %:    99.2209  MISS %:    0.77909   MPKI: 2.0595
DTLB LOAD TRANSLATION ACCESS:   26434701  HIT:   26228751  MISS:     205950  HIT %:    99.2209  MISS %:    0.77909   MPKI: 2.0595
DTLB PREFETCH  REQUESTED:          0  ISSUED:          0  USEFUL:          0  USELESS:          0
DTLB USEFUL LOAD PREFETCHES:          0 PREFETCH ISSUED TO LOWER LEVEL:          0  ACCURACY: -nan
DTLB TIMELY PREFETCHES:          0 LATE PREFETCHES: 0 DROPPED PREFETCHES: 0
DTLB PREFETCHES SAME FILL-ORIGIN LEVEL: 0 DIFFERENT FILL-ORIGIN LEVEL: 0
DTLB AVERAGE MISS LATENCY: 36.1751 cycles
DTLB RQ	ACCESS:   46689534	FORWARD:          0	MERGED:   20227977	TO_CACHE:   26461557

STLB TOTAL     ACCESS:    1262862  HIT:    1193126  MISS:      69736  HIT %:    94.4779  MISS %:    5.52206   MPKI: 0.69736
STLB LOAD TRANSLATION ACCESS:     205950  HIT:     136225  MISS:      69725  HIT %:    66.1447  MISS %:    33.8553   MPKI: 0.69725
STLB TRANSLATION FROM L1D PREFETCHER ACCESS:    1056912  HIT:    1056901  MISS:         11  HIT %:     99.999  MISS %: 0.00104077   MPKI: 0.00011
STLB PREFETCH  REQUESTED:          0  ISSUED:          0  USEFUL:          8  USELESS:          3
STLB USEFUL LOAD PREFETCHES:          8 PREFETCH ISSUED TO LOWER LEVEL:          0  ACCURACY: inf
STLB TIMELY PREFETCHES:          8 LATE PREFETCHES: 0 DROPPED PREFETCHES: 0
STLB PREFETCHES SAME FILL-ORIGIN LEVEL: 0 DIFFERENT FILL-ORIGIN LEVEL: 0
STLB AVERAGE MISS LATENCY: 80.1869 cycles
STLB RQ	ACCESS:    1774027	FORWARD:          0	MERGED:     511165	TO_CACHE:    1262862

STLB Hit, L1D data hit: 0
STLB Hit, L2C data hit: 0
STLB Hit, LLC data hit: 0
STLB Hit, LLC data miss: 0
STLB STLB hints to L2: 0
L1D TOTAL     ACCESS:   46988074  HIT:   43804649  MISS:    3183425  HIT %:     93.225  MISS %:    6.77496   MPKI: 31.8343
L1D LOAD      ACCESS:   17937837  HIT:   16105817  MISS:    1832020  HIT %:    89.7868  MISS %:    10.2132   MPKI: 18.3202
L1D RFO       ACCESS:   27838958  HIT:   27605356  MISS:     233602  HIT %:    99.1609  MISS %:   0.839119   MPKI: 2.33602
L1D PREFETCH  ACCESS:    1211279  HIT:      93476  MISS:    1117803  HIT %:    7.71713  MISS %:    92.2829   MPKI: 11.178
L1D PREFETCH  REQUESTED:    3136214  ISSUED:    3136154  USEFUL:     524230  USELESS:     593659
L1D USEFUL LOAD PREFETCHES:     524230 PREFETCH ISSUED TO LOWER LEVEL:    1378424  ACCURACY: 38.0311
L1D TIMELY PREFETCHES:     524230 LATE PREFETCHES: 260621 DROPPED PREFETCHES: 0
L1D PREFETCHES SAME FILL-ORIGIN LEVEL: 1378424 DIFFERENT FILL-ORIGIN LEVEL: 0
L1D AVERAGE MISS LATENCY: 1.51753e+07 cycles
L1D RQ	ACCESS:   31245470	FORWARD:          0	MERGED:   13084602	TO_CACHE:   18133885
L1D WQ	ACCESS:   28891366	FORWARD:      26983	MERGED:     335717	TO_CACHE:   28555649
L1D PQ	ACCESS:    1568077	FORWARD:          0	MERGED:          0	TO_CACHE:    1568077

L1D UNIQUE REGIONS ACCESSED: 0
L1D REGIONS CONFLICTS: 0
L1D Cross Page Prefetch Requests: 0
L1D Same Page Prefetch Requests: 5296139
L1D ROI Sum of L1D PQ occupancy: 22810043
L1D PREFETCHES PUSHED FROM L2C: 0
L1I TOTAL     ACCESS:   21495206  HIT:   21495206  MISS:          0  HIT %:        100  MISS %:          0   MPKI: 0
L1I LOAD      ACCESS:   21495206  HIT:   21495206  MISS:          0  HIT %:        100  MISS %:          0   MPKI: 0
L1I PREFETCH  REQUESTED:          0  ISSUED:          0  USEFUL:          0  USELESS:          0
L1I USEFUL LOAD PREFETCHES:          0 PREFETCH ISSUED TO LOWER LEVEL:          0  ACCURACY: -nan
L1I TIMELY PREFETCHES:          0 LATE PREFETCHES: 0 DROPPED PREFETCHES: 0
L1I PREFETCHES SAME FILL-ORIGIN LEVEL: 0 DIFFERENT FILL-ORIGIN LEVEL: 0
L1I AVERAGE MISS LATENCY: -nan cycles
L1I RQ	ACCESS:   29821995	FORWARD:          0	MERGED:    8326790	TO_CACHE:   21495205

BTB TOTAL     ACCESS:    9650941  HIT:    9650907  MISS:         34  HIT %:    99.9996  MISS %: 0.000352297   MPKI: 0.00034
BTB BRANCH_DIRECT_JUMP	ACCESS:     463202  HIT:     463196  MISS:          6
BTB BRANCH_INDIRECT	ACCESS:          0  HIT:          0  MISS:          0
BTB BRANCH_CONDITIONAL	ACCESS:    9187651  HIT:    9187627  MISS:         24
BTB BRANCH_DIRECT_CALL	ACCESS:         44  HIT:         42  MISS:          2
BTB BRANCH_INDIRECT_CALL	ACCESS:          0  HIT:          0  MISS:          0
BTB BRANCH_RETURN	ACCESS:         44  HIT:         42  MISS:          2
BTB BRANCH_OTHER ACCESS:          0  HIT:          0  MISS:          0

L2C TOTAL     ACCESS:    4290707  HIT:    1154431  MISS:    3136276  HIT %:    26.9054  MISS %:    73.0946   MPKI: 31.3628
L2C LOAD      ACCESS:    1571395  HIT:      63353  MISS:    1508042  HIT %:    4.03164  MISS %:    95.9684   MPKI: 15.0804
L2C DATA LOAD MPKI: 15.0804
L2C INSTRUCTION LOAD MPKI: 0
L2C RFO       ACCESS:     233598  HIT:       2709  MISS:     230889  HIT %:    1.15968  MISS %:    98.8403   MPKI: 2.30889
L2C PREFETCH  ACCESS:    1785498  HIT:     405781  MISS:    1379717  HIT %:    22.7265  MISS %:    77.2735   MPKI: 13.7972
L2C DATA PREFETCH MPKI: 13.7972
L2C INSTRUCTION PREFETCH MPKI: 0
L2C WRITEBACK ACCESS:     630336  HIT:     622823  MISS:       7513  HIT %:    98.8081  MISS %:     1.1919   MPKI: 0.07513
L2C LOAD TRANSLATION ACCESS:      69869  HIT:      59765  MISS:      10104  HIT %:    85.5387  MISS %:    14.4613   MPKI: 0.10104
L2C TRANSLATION FROM L1D PREFETCHER ACCESS:         11  HIT:          0  MISS:         11  HIT %:          0  MISS %:        100   MPKI: 0.00011
L2C PREFETCH  REQUESTED:     513257  ISSUED:     513257  USEFUL:       1375  USELESS:    1378991
L2C USEFUL LOAD PREFETCHES:       1375 PREFETCH ISSUED TO LOWER LEVEL:    1379825  ACCURACY: 0.0996503
L2C TIMELY PREFETCHES:       1375 LATE PREFETCHES: 108 DROPPED PREFETCHES: 0
L2C PREFETCHES SAME FILL-ORIGIN LEVEL: 188150 DIFFERENT FILL-ORIGIN LEVEL: 0
L2C AVERAGE MISS LATENCY: 173.364 cycles
L2C RQ	ACCESS:    1874881	FORWARD:          0	MERGED:          0	TO_CACHE:    1874873
L2C WQ	ACCESS:     630336	FORWARD:          8	MERGED:          0	TO_CACHE:     630336
L2C PQ	ACCESS:    1891681	FORWARD:          0	MERGED:      11922	TO_CACHE:    1879759

L2C Instructions Evicting Data 0
L2C Translations Evicting Data 10093
L2C Data Evicting Data 3108622
L2C Instructions Evicting Instructions 0
L2C Translations Evicting Instructions 0
L2C Data Evicting Instructions 0
L2C Instructions Evicting Translations 0
L2C Translations Evicting Translations 22
L2C Data Evicting Translations 10026
L2C Dense regions hint from L2: 0
PSCL5 TOTAL     ACCESS:      69736  HIT:      69736  MISS:          0  HIT %:        100  MISS %:          0   MPKI: 0
PSCL5 LOAD TRANSLATION ACCESS:      69725  HIT:      69725  MISS:          0  HIT %:        100  MISS %:          0   MPKI: 0
PSCL5 TRANSLATION FROM L1D PREFETCHER ACCESS:         11  HIT:         11  MISS:          0  HIT %:        100  MISS %:          0   MPKI: 0
PSCL5 PREFETCH  REQUESTED:          0  ISSUED:          0  USEFUL:          0  USELESS:          0
PSCL5 USEFUL LOAD PREFETCHES:          0 PREFETCH ISSUED TO LOWER LEVEL:          0  ACCURACY: -nan
PSCL5 TIMELY PREFETCHES:          0 LATE PREFETCHES: 0 DROPPED PREFETCHES: 0
PSCL5 PREFETCHES SAME FILL-ORIGIN LEVEL: 0 DIFFERENT FILL-ORIGIN LEVEL: 0

PSCL4 TOTAL     ACCESS:      69736  HIT:      69736  MISS:          0  HIT %:        100  MISS %:          0   MPKI: 0
PSCL4 LOAD TRANSLATION ACCESS:      69725  HIT:      69725  MISS:          0  HIT %:        100  MISS %:          0   MPKI: 0
PSCL4 TRANSLATION FROM L1D PREFETCHER ACCESS:         11  HIT:         11  MISS:          0  HIT %:        100  MISS %:          0   MPKI: 0
PSCL4 PREFETCH  REQUESTED:          0  ISSUED:          0  USEFUL:          0  USELESS:          0
PSCL4 USEFUL LOAD PREFETCHES:          0 PREFETCH ISSUED TO LOWER LEVEL:          0  ACCURACY: -nan
PSCL4 TIMELY PREFETCHES:          0 LATE PREFETCHES: 0 DROPPED PREFETCHES: 0
PSCL4 PREFETCHES SAME FILL-ORIGIN LEVEL: 0 DIFFERENT FILL-ORIGIN LEVEL: 0

PSCL3 TOTAL     ACCESS:      69736  HIT:      69736  MISS:          0  HIT %:        100  MISS %:          0   MPKI: 0
PSCL3 LOAD TRANSLATION ACCESS:      69725  HIT:      69725  MISS:          0  HIT %:        100  MISS %:          0   MPKI: 0
PSCL3 TRANSLATION FROM L1D PREFETCHER ACCESS:         11  HIT:         11  MISS:          0  HIT %:        100  MISS %:          0   MPKI: 0
PSCL3 PREFETCH  REQUESTED:          0  ISSUED:          0  USEFUL:          0  USELESS:          0
PSCL3 USEFUL LOAD PREFETCHES:          0 PREFETCH ISSUED TO LOWER LEVEL:          0  ACCURACY: -nan
PSCL3 TIMELY PREFETCHES:          0 LATE PREFETCHES: 0 DROPPED PREFETCHES: 0
PSCL3 PREFETCHES SAME FILL-ORIGIN LEVEL: 0 DIFFERENT FILL-ORIGIN LEVEL: 0

PSCL2 TOTAL     ACCESS:      69736  HIT:      69541  MISS:        195  HIT %:    99.7204  MISS %:   0.279626   MPKI: 0.00195
PSCL2 LOAD TRANSLATION ACCESS:      69725  HIT:      69530  MISS:        195  HIT %:    99.7203  MISS %:    0.27967   MPKI: 0.00195
PSCL2 TRANSLATION FROM L1D PREFETCHER ACCESS:         11  HIT:         11  MISS:          0  HIT %:        100  MISS %:          0   MPKI: 0
PSCL2 PREFETCH  REQUESTED:          0  ISSUED:          0  USEFUL:          0  USELESS:          0
PSCL2 USEFUL LOAD PREFETCHES:          0 PREFETCH ISSUED TO LOWER LEVEL:          0  ACCURACY: -nan
PSCL2 TIMELY PREFETCHES:          0 LATE PREFETCHES: 0 DROPPED PREFETCHES: 0
PSCL2 PREFETCHES SAME FILL-ORIGIN LEVEL: 0 DIFFERENT FILL-ORIGIN LEVEL: 0

LLC TOTAL     ACCESS:    3709841  HIT:     257864  MISS:    3451977  HIT %:    6.95081  MISS %:    93.0492   MPKI: 34.5198
LLC LOAD      ACCESS:    1507934  HIT:      97108  MISS:    1410826  HIT %:     6.4398  MISS %:    93.5602   MPKI: 14.1083
LLC RFO       ACCESS:     230889  HIT:        112  MISS:     230777  HIT %:  0.0485082  MISS %:    99.9515   MPKI: 2.30777
LLC PREFETCH  ACCESS:    1379825  HIT:     130131  MISS:    1249694  HIT %:    9.43098  MISS %:     90.569   MPKI: 12.4969
LLC WRITEBACK ACCESS:     581078  HIT:      29802  MISS:     551276  HIT %:    5.12874  MISS %:    94.8713   MPKI: 5.51276
LLC LOAD TRANSLATION ACCESS:      10104  HIT:        711  MISS:       9393  HIT %:    7.03682  MISS %:    92.9632   MPKI: 0.09393
LLC TRANSLATION FROM L1D PREFETCHER ACCESS:         11  HIT:          0  MISS:         11  HIT %:          0  MISS %:        100   MPKI: 0.00011
LLC PREFETCH  REQUESTED:          0  ISSUED:          0  USEFUL:       2846  USELESS:    1242728
LLC USEFUL LOAD PREFETCHES:       2846 PREFETCH ISSUED TO LOWER LEVEL:    1249694  ACCURACY: 0.227736
LLC TIMELY PREFETCHES:       2846 LATE PREFETCHES: 0 DROPPED PREFETCHES: 0
LLC PREFETCHES SAME FILL-ORIGIN LEVEL: 0 DIFFERENT FILL-ORIGIN LEVEL: 0
LLC AVERAGE MISS LATENCY: 130.218 cycles
LLC RQ	ACCESS:    1748938	FORWARD:          0	MERGED:          0	TO_CACHE:    1748938
LLC WQ	ACCESS:     581078	FORWARD:          0	MERGED:          0	TO_CACHE:     581078
LLC PQ	ACCESS:    1379825	FORWARD:          0	MERGED:          0	TO_CACHE:    1379825

LLC Dense regions hint to LLC: 0

RAW hits: 639659
Loads Generated: 31885130
Loads sent to L1D: 31245470
Stores Generated: 28891363
Stores sent to L1D: 28891366
Major fault: 0 Minor fault: 38413
Allocated PAGES: 38413

stream: 
stream:times selected: 5825563
stream:pref_filled: 1004385
stream:pref_useful: 173055
stream:pref_late: 94977
stream:misses: 114912
stream:misses_by_poll: 0

CS: 
CS:times selected: 402538
CS:pref_filled: 311293
CS:pref_useful: 309221
CS:pref_late: 1225
CS:misses: 2982
CS:misses_by_poll: 546

CPLX: 
CPLX:times selected: 5388101
CPLX:pref_filled: 500540
CPLX:pref_useful: 314796
CPLX:pref_late: 248974
CPLX:misses: 1179787
CPLX:misses_by_poll: 3008

NL_L1: 
NL:times selected: 86451
NL:pref_filled: 12304
NL:pref_useful: 5806
NL:pref_late: 1250
NL:misses: 30381
NL:misses_by_poll: 0

total selections: 11702653
total_filled: 1117803
total_useful: 524230
total_late: 350939
total_polluted: 3554
total_misses_after_warmup: 838570
conflicts: 1798
Degree Incremented Times: 35918
Degree Decremented Times: 59597

L1 IP Table Write Accesses: 2623834
L1 IP Table Read Accesses: 2622036
L1 RST Write Accesses: 1716992
L1 RST Read Accesses: 3433984
L1 CSPT Write Accesses: 1716992
L1 CSPT Read Accesses: 3158339
L1 RR Filter Tag Write Accesses: 1568137
L1 RR Filter Tag Read Accesses: 88974955
L1 IP Table Tag Write Accesses: 2633621
L1 IP Table Tag Read Accesses: 2633621
L1 RST Tag Write Accesses: 0
L1 RST Tag Read Accesses: 15442603
L1 RR Filter Write Accesses: 0
L1 RR Filter Read Accesses: 3326858
test: 2507709
L2 IP Table Read Accesses: 3635572
L2 IP Table Write Accesses: 3165917
L2 IP Table Tag Read Accesses: 1817786
L2 IP Table Tag Write Accesses: 1817786

DRAM Statistics
 CHANNEL 0
 RQ ROW_BUFFER_HIT:    1260025  ROW_BUFFER_MISS:    1640676
 DBUS_CONGESTED:       3690
 WQ ROW_BUFFER_HIT:     139690  ROW_BUFFER_MISS:     448786  FULL:          0

 AVG_CONGESTED_CYCLE: 5
 All warmup complete: 2
Channel 0 Bank busy for read cycles: 0
Channel 0 Bank busy for write cycles: 0
Channel 0
Rank 0
0banks busy for read cycles: 76185239
0banks busy for write cycles: 121100
1banks busy for read cycles: 77080640
1banks busy for write cycles: 19638206
2banks busy for read cycles: 25714252
2banks busy for write cycles: 13018825
3banks busy for read cycles: 15820932
3banks busy for write cycles: 8423669
4banks busy for read cycles: 10268126
4banks busy for write cycles: 5107282
5banks busy for read cycles: 6128160
5banks busy for write cycles: 2980951
6banks busy for read cycles: 4041727
6banks busy for write cycles: 1720598
7banks busy for read cycles: 2942968
7banks busy for write cycles: 1609695
8banks busy for read cycles: 2130248
8banks busy for write cycles: 5598771

CPU 0 Branch Prediction Accuracy: 99.1519% MPKI: 0.83374 Average ROB Occupancy at Mispredict: 252.519
Branch types
NOT_BRANCH: 90169467 90.1695%
BRANCH_DIRECT_JUMP: 463202 0.463202%
BRANCH_INDIRECT: 0 0%
BRANCH_CONDITIONAL: 9367125 9.36712%
BRANCH_DIRECT_CALL: 44 4.4e-05%
BRANCH_INDIRECT_CALL: 0 0%
BRANCH_RETURN: 44 4.4e-05%
BRANCH_OTHER: 0 0%

DRAM PAGES: 1048576
Allocated PAGES: 38413
