
*** ChampSim Multicore Out-of-Order Simulator ***

Warmup Instructions: 50000000
Simulation Instructions: 100000000
Number of CPUs: 1
LLC sets: 2048
LLC ways: 16
Off-chip DRAM Size: 4096 MB Channels: 1 Width: 64-bit Data Rate: 6400 MT/s
CPU 0 runs ../SPEC_2006_2017//605.mcf_s-484B.champsimtrace.xz
.xz
NUM_OF_IPS_IN_CRITICAL_IP_TRAINING: 64
NUM_OF_CRITICAL_IP_TRAINING_TABLE_WAYS: 2
NUM_OF_CRITICAL_IP_TRAINING_TABLE_SETS: 32
WOBBLY_CRITICAL_IP_CACHE_SETS: 32
WOBBLY_CRITICAL_IP_CACHE_WAYS: 4
BTB has LRU replacement policy
ITLB has LRU replacement policy
DTLB has LRU replacement policy
STLB has LRU replacement policy
L1I has LRU replacement policy
IP Table Entries: 64
L1D has LRU replacement policy
Initialize SRRIP state for L2C
Initialize DRRIP state for LLC
Heartbeat CPU 0 instructions: 10000001 cycles: 3160005 heartbeat IPC: 3.16455 cumulative IPC: 3.16455 (Simulation time: 0 hr 6 min 24 sec) 
Heartbeat CPU 0 instructions: 20000003 cycles: 6351968 heartbeat IPC: 3.13287 cumulative IPC: 3.14863 (Simulation time: 0 hr 12 min 41 sec) 
Heartbeat CPU 0 instructions: 30000001 cycles: 9520143 heartbeat IPC: 3.15639 cumulative IPC: 3.15121 (Simulation time: 0 hr 18 min 35 sec) 
Heartbeat CPU 0 instructions: 40000000 cycles: 12669872 heartbeat IPC: 3.17488 cumulative IPC: 3.1571 (Simulation time: 0 hr 24 min 2 sec) 
Heartbeat CPU 0 instructions: 50000000 cycles: 15845889 heartbeat IPC: 3.1486 cumulative IPC: 3.15539 (Simulation time: 0 hr 29 min 5 sec) 

Warmup complete CPU 0 instructions: 50000004 cycles: 15845890 (Simulation time: 0 hr 29 min 5 sec) 

% increase in all ip prefetch 654.138
% increase in all ip prefetch -30.0368
Heartbeat CPU 0 instructions: 60000003 cycles: 40552508 heartbeat IPC: 0.40475 cumulative IPC: 0.40475 (Simulation time: 0 hr 35 min 5 sec) 
Heartbeat CPU 0 instructions: 70000002 cycles: 70143199 heartbeat IPC: 0.337944 cumulative IPC: 0.368342 (Simulation time: 0 hr 41 min 24 sec) 
Heartbeat CPU 0 instructions: 80000000 cycles: 100037099 heartbeat IPC: 0.334516 cumulative IPC: 0.356332 (Simulation time: 0 hr 47 min 28 sec) 
Heartbeat CPU 0 instructions: 90000000 cycles: 127101881 heartbeat IPC: 0.369484 cumulative IPC: 0.359531 (Simulation time: 0 hr 53 min 5 sec) 
Heartbeat CPU 0 instructions: 100000000 cycles: 151338508 heartbeat IPC: 0.412599 cumulative IPC: 0.369024 (Simulation time: 0 hr 57 min 41 sec) 
Heartbeat CPU 0 instructions: 110000000 cycles: 175981626 heartbeat IPC: 0.405793 cumulative IPC: 0.374682 (Simulation time: 1 hr 1 min 11 sec) 
Heartbeat CPU 0 instructions: 120000001 cycles: 197709568 heartbeat IPC: 0.460237 cumulative IPC: 0.384904 (Simulation time: 1 hr 7 min 18 sec) 
Heartbeat CPU 0 instructions: 130000000 cycles: 220143577 heartbeat IPC: 0.445752 cumulative IPC: 0.391585 (Simulation time: 1 hr 14 min 37 sec) 
Heartbeat CPU 0 instructions: 140000001 cycles: 244460571 heartbeat IPC: 0.411235 cumulative IPC: 0.393676 (Simulation time: 1 hr 22 min 0 sec) 
Heartbeat CPU 0 instructions: 150000002 cycles: 266868367 heartbeat IPC: 0.446273 cumulative IPC: 0.398371 (Simulation time: 1 hr 28 min 30 sec) 
Finished CPU 0 instructions: 100000000 cycles: 251022478 cumulative IPC: 0.398371 (Simulation time: 1 hr 28 min 30 sec) 

ChampSim completed all CPUs

Region of Interest Statistics

CPU 0 cumulative IPC: 0.398371 instructions: 100000000 cycles: 251022478

CPU 0 Average Load ROB stall cycles: 4.76534e+07
CPU 0 Fraction of times ROB stalled by Loads: 32.3437
CPU 0 Percentage of Load stall cycles in Total stall cycles: 5.13438e+08
Issued all: 154951405
Issued LT all: 148281681
rob_not_full_when_issued_lt_all: 23617398
Issued LT one: 124338708
rob_not_full_when_issued_lt_one: 19226322
 Total stall cycles: 227853986
 Total load stall cycles: 1169889356674365
CPU 0 NUM of IPS identified critical: 0
CPU 0 Num of Load IPs stalling ROB: 75
Threshold modification factor: -1
Max PIST entries: 32
Min PIST entries: 0
Avg PIST entries: 8.84
Trouble in retire width: 0.996996
MaC = Marked as critical.
lt_50_percent_before_Mac: 0
gt_90_percent_before_Mac: 0
gt_75_percent_before_Mac: 0
gt_50_percent_before_Mac: 0
stall_proportion_bin_same_before_after: 0
stall_proportion_bin_lower_before_after: 0
stall_proportion_bin_upper_before_after: 0
average_stall_proportion_before: -nan
average_stall_proportion_after: -nan
Critical IP stalls, total frequency: 0
Non-critical IP stalls, total frequency: 7940369
Total Freq all stalling IPs: 7940369
stat_90_percent_critical_ip_stalls_freq: 7195878
stat_90_percent_non_critical_ip_stalls_freq: 744491
Critical_IP_ROB_Stalls_Bucket_0: 0
Non-critical_IP_ROB_Stalls_Bucket_0: 593332
Critical_IP_ROB_Stalls_Bucket_1: 0
Non-critical_IP_ROB_Stalls_Bucket_1: 221589
Critical_IP_ROB_Stalls_Bucket_2: 0
Non-critical_IP_ROB_Stalls_Bucket_2: 298791
Critical_IP_ROB_Stalls_Bucket_3: 0
Non-critical_IP_ROB_Stalls_Bucket_3: 391805
Critical_IP_ROB_Stalls_Bucket_4: 0
Non-critical_IP_ROB_Stalls_Bucket_4: 307071
Critical_IP_ROB_Stalls_Bucket_5: 0
Non-critical_IP_ROB_Stalls_Bucket_5: 590981
Critical_IP_ROB_Stalls_Bucket_6: 0
Non-critical_IP_ROB_Stalls_Bucket_6: 5536800
0 => IPs accounting for >50 percent of stalls, 1 => 55, 2 => 60, 3 => 65 and so on till 90.
percent50: 56.3972 num IPs:  2
percent55: 56.3972 num IPs: 2
percent60: 70.6413 num IPs: 3
percent65: 70.6413 num IPs: 3
percent70: 70.6413 num IPs: 3
percent75: 78.0256 num IPs: 4
percent80: 82.1297 num IPs: 5
percent85: 87.0834 num IPs: 7
percent90: 90.624 num IPs: 9
Critical_ROB_Stalls_Percent_0_Bucket_0: 203140
Non-critical_ROB_Stalls_Percent_0_Bucket_0: 390192
Critical_ROB_Stalls_Percent_0_Bucket_1: 115864
Non-critical_ROB_Stalls_Percent_0_Bucket_1: 105725
Critical_ROB_Stalls_Percent_0_Bucket_2: 180877
Non-critical_ROB_Stalls_Percent_0_Bucket_2: 117914
Critical_ROB_Stalls_Percent_0_Bucket_3: 252915
Non-critical_ROB_Stalls_Percent_0_Bucket_3: 138890
Critical_ROB_Stalls_Percent_0_Bucket_4: 173629
Non-critical_ROB_Stalls_Percent_0_Bucket_4: 133442
Critical_ROB_Stalls_Percent_0_Bucket_5: 398883
Non-critical_ROB_Stalls_Percent_0_Bucket_5: 192098
Critical_ROB_Stalls_Percent_0_Bucket_6: 3152837
Non-critical_ROB_Stalls_Percent_0_Bucket_6: 2383963
Critical_ROB_Stalls_Percent_1_Bucket_0: 203140
Non-critical_ROB_Stalls_Percent_1_Bucket_0: 390192
Critical_ROB_Stalls_Percent_1_Bucket_1: 115864
Non-critical_ROB_Stalls_Percent_1_Bucket_1: 105725
Critical_ROB_Stalls_Percent_1_Bucket_2: 180877
Non-critical_ROB_Stalls_Percent_1_Bucket_2: 117914
Critical_ROB_Stalls_Percent_1_Bucket_3: 252915
Non-critical_ROB_Stalls_Percent_1_Bucket_3: 138890
Critical_ROB_Stalls_Percent_1_Bucket_4: 173629
Non-critical_ROB_Stalls_Percent_1_Bucket_4: 133442
Critical_ROB_Stalls_Percent_1_Bucket_5: 398883
Non-critical_ROB_Stalls_Percent_1_Bucket_5: 192098
Critical_ROB_Stalls_Percent_1_Bucket_6: 3152837
Non-critical_ROB_Stalls_Percent_1_Bucket_6: 2383963
Critical_ROB_Stalls_Percent_2_Bucket_0: 205352
Non-critical_ROB_Stalls_Percent_2_Bucket_0: 387980
Critical_ROB_Stalls_Percent_2_Bucket_1: 117465
Non-critical_ROB_Stalls_Percent_2_Bucket_1: 104124
Critical_ROB_Stalls_Percent_2_Bucket_2: 217427
Non-critical_ROB_Stalls_Percent_2_Bucket_2: 81364
Critical_ROB_Stalls_Percent_2_Bucket_3: 313170
Non-critical_ROB_Stalls_Percent_2_Bucket_3: 78635
Critical_ROB_Stalls_Percent_2_Bucket_4: 259929
Non-critical_ROB_Stalls_Percent_2_Bucket_4: 47142
Critical_ROB_Stalls_Percent_2_Bucket_5: 460044
Non-critical_ROB_Stalls_Percent_2_Bucket_5: 130937
Critical_ROB_Stalls_Percent_2_Bucket_6: 4035792
Non-critical_ROB_Stalls_Percent_2_Bucket_6: 1501008
Critical_ROB_Stalls_Percent_3_Bucket_0: 205352
Non-critical_ROB_Stalls_Percent_3_Bucket_0: 387980
Critical_ROB_Stalls_Percent_3_Bucket_1: 117465
Non-critical_ROB_Stalls_Percent_3_Bucket_1: 104124
Critical_ROB_Stalls_Percent_3_Bucket_2: 217427
Non-critical_ROB_Stalls_Percent_3_Bucket_2: 81364
Critical_ROB_Stalls_Percent_3_Bucket_3: 313170
Non-critical_ROB_Stalls_Percent_3_Bucket_3: 78635
Critical_ROB_Stalls_Percent_3_Bucket_4: 259929
Non-critical_ROB_Stalls_Percent_3_Bucket_4: 47142
Critical_ROB_Stalls_Percent_3_Bucket_5: 460044
Non-critical_ROB_Stalls_Percent_3_Bucket_5: 130937
Critical_ROB_Stalls_Percent_3_Bucket_6: 4035792
Non-critical_ROB_Stalls_Percent_3_Bucket_6: 1501008
Critical_ROB_Stalls_Percent_4_Bucket_0: 205352
Non-critical_ROB_Stalls_Percent_4_Bucket_0: 387980
Critical_ROB_Stalls_Percent_4_Bucket_1: 117465
Non-critical_ROB_Stalls_Percent_4_Bucket_1: 104124
Critical_ROB_Stalls_Percent_4_Bucket_2: 217427
Non-critical_ROB_Stalls_Percent_4_Bucket_2: 81364
Critical_ROB_Stalls_Percent_4_Bucket_3: 313170
Non-critical_ROB_Stalls_Percent_4_Bucket_3: 78635
Critical_ROB_Stalls_Percent_4_Bucket_4: 259929
Non-critical_ROB_Stalls_Percent_4_Bucket_4: 47142
Critical_ROB_Stalls_Percent_4_Bucket_5: 460044
Non-critical_ROB_Stalls_Percent_4_Bucket_5: 130937
Critical_ROB_Stalls_Percent_4_Bucket_6: 4035792
Non-critical_ROB_Stalls_Percent_4_Bucket_6: 1501008
Critical_ROB_Stalls_Percent_5_Bucket_0: 212693
Non-critical_ROB_Stalls_Percent_5_Bucket_0: 380639
Critical_ROB_Stalls_Percent_5_Bucket_1: 134535
Non-critical_ROB_Stalls_Percent_5_Bucket_1: 87054
Critical_ROB_Stalls_Percent_5_Bucket_2: 237680
Non-critical_ROB_Stalls_Percent_5_Bucket_2: 61111
Critical_ROB_Stalls_Percent_5_Bucket_3: 321625
Non-critical_ROB_Stalls_Percent_5_Bucket_3: 70180
Critical_ROB_Stalls_Percent_5_Bucket_4: 263173
Non-critical_ROB_Stalls_Percent_5_Bucket_4: 43898
Critical_ROB_Stalls_Percent_5_Bucket_5: 466256
Non-critical_ROB_Stalls_Percent_5_Bucket_5: 124725
Critical_ROB_Stalls_Percent_5_Bucket_6: 4559561
Non-critical_ROB_Stalls_Percent_5_Bucket_6: 977239
Critical_ROB_Stalls_Percent_6_Bucket_0: 241324
Non-critical_ROB_Stalls_Percent_6_Bucket_0: 352008
Critical_ROB_Stalls_Percent_6_Bucket_1: 150853
Non-critical_ROB_Stalls_Percent_6_Bucket_1: 70736
Critical_ROB_Stalls_Percent_6_Bucket_2: 251492
Non-critical_ROB_Stalls_Percent_6_Bucket_2: 47299
Critical_ROB_Stalls_Percent_6_Bucket_3: 333895
Non-critical_ROB_Stalls_Percent_6_Bucket_3: 57910
Critical_ROB_Stalls_Percent_6_Bucket_4: 271147
Non-critical_ROB_Stalls_Percent_6_Bucket_4: 35924
Critical_ROB_Stalls_Percent_6_Bucket_5: 482843
Non-critical_ROB_Stalls_Percent_6_Bucket_5: 108138
Critical_ROB_Stalls_Percent_6_Bucket_6: 4789846
Non-critical_ROB_Stalls_Percent_6_Bucket_6: 746954
Critical_ROB_Stalls_Percent_7_Bucket_0: 302054
Non-critical_ROB_Stalls_Percent_7_Bucket_0: 291278
Critical_ROB_Stalls_Percent_7_Bucket_1: 178169
Non-critical_ROB_Stalls_Percent_7_Bucket_1: 43420
Critical_ROB_Stalls_Percent_7_Bucket_2: 271867
Non-critical_ROB_Stalls_Percent_7_Bucket_2: 26924
Critical_ROB_Stalls_Percent_7_Bucket_3: 356502
Non-critical_ROB_Stalls_Percent_7_Bucket_3: 35303
Critical_ROB_Stalls_Percent_7_Bucket_4: 281952
Non-critical_ROB_Stalls_Percent_7_Bucket_4: 25119
Critical_ROB_Stalls_Percent_7_Bucket_5: 526768
Non-critical_ROB_Stalls_Percent_7_Bucket_5: 64213
Critical_ROB_Stalls_Percent_7_Bucket_6: 4997432
Non-critical_ROB_Stalls_Percent_7_Bucket_6: 539368
Critical_ROB_Stalls_Percent_8_Bucket_0: 336935
Non-critical_ROB_Stalls_Percent_8_Bucket_0: 256397
Critical_ROB_Stalls_Percent_8_Bucket_1: 198376
Non-critical_ROB_Stalls_Percent_8_Bucket_1: 23213
Critical_ROB_Stalls_Percent_8_Bucket_2: 281885
Non-critical_ROB_Stalls_Percent_8_Bucket_2: 16906
Critical_ROB_Stalls_Percent_8_Bucket_3: 368773
Non-critical_ROB_Stalls_Percent_8_Bucket_3: 23032
Critical_ROB_Stalls_Percent_8_Bucket_4: 290066
Non-critical_ROB_Stalls_Percent_8_Bucket_4: 17005
Critical_ROB_Stalls_Percent_8_Bucket_5: 566128
Non-critical_ROB_Stalls_Percent_8_Bucket_5: 24853
Critical_ROB_Stalls_Percent_8_Bucket_6: 5153715
Non-critical_ROB_Stalls_Percent_8_Bucket_6: 383085
Average ROB occupancy Load Stall Begin: 283.749
Average ROB occupancy Load Stall End: 288.808
Min ROB occupancy Load Stall Begin: 1
Max ROB occupancy Load Stall Begin: 352
Min ROB occupancy Load Stall End: 1
Max ROB occupancy Load Stall End: 352
Average ROB occupancy Critical Load Stall Begin: -nan
Average ROB occupancy Critical Load Stall End: -nan
Min ROB occupancy Critical Load Stall Begin: 400
Max ROB occupancy Critical Load Stall Begin: 0
Min ROB occupancy Critical Load Stall End: 400
Max ROB occupancy Critical Load Stall End: 0
 ROB Load Stall Begin Bucket Count 0: 662857
 ROB Load Stall End Bucket Count 0: 593332
 ROB Critical Load Stall Begin Bucket Count 0: 0
 ROB Critical Load Stall End Bucket Count 0: 0
 ROB Load Stall Begin Bucket Count 1: 219119
 ROB Load Stall End Bucket Count 1: 221589
 ROB Critical Load Stall Begin Bucket Count 1: 0
 ROB Critical Load Stall End Bucket Count 1: 0
 ROB Load Stall Begin Bucket Count 2: 315777
 ROB Load Stall End Bucket Count 2: 298791
 ROB Critical Load Stall Begin Bucket Count 2: 0
 ROB Critical Load Stall End Bucket Count 2: 0
 ROB Load Stall Begin Bucket Count 3: 389092
 ROB Load Stall End Bucket Count 3: 391805
 ROB Critical Load Stall Begin Bucket Count 3: 0
 ROB Critical Load Stall End Bucket Count 3: 0
 ROB Load Stall Begin Bucket Count 4: 291643
 ROB Load Stall End Bucket Count 4: 307071
 ROB Critical Load Stall Begin Bucket Count 4: 0
 ROB Critical Load Stall End Bucket Count 4: 0
 ROB Load Stall Begin Bucket Count 5: 649696
 ROB Load Stall End Bucket Count 5: 590981
 ROB Critical Load Stall Begin Bucket Count 5: 0
 ROB Critical Load Stall End Bucket Count 5: 0
 ROB Load Stall Begin Bucket Count 6: 5412185
 ROB Load Stall End Bucket Count 6: 5536800
 ROB Critical Load Stall Begin Bucket Count 6: 0
 ROB Critical Load Stall End Bucket Count 6: 0
PIST Tag Read Accesses: 27598
PIST Read Accesses: 13799
PIST Tag Write Accesses: 27598
PIST Write Accesses: 13799
Criticality detector called times: 39418
Max global_stall_cycles_count: 449666
Threshold Modified: 1 times, factor: -1
Sturdy critical IP cache stats: 
 Unused entries: 0
CIC Tag Read Accesses: 0
CIC Read Accesses: 0
CIC Tag Write Accesses: 0
CIC Write Accesses: 0
Wobbly critical IP cache stats: 
 Unused entries: 94
CIC Tag Read Accesses: 310919370
CIC Read Accesses: 0
CIC Tag Write Accesses: 1993412
CIC Write Accesses: 0
ITLB TOTAL     ACCESS:   16834579  HIT:   16834579  MISS:          0  HIT %:        100  MISS %:          0   MPKI: 0
ITLB LOAD TRANSLATION ACCESS:   16834579  HIT:   16834579  MISS:          0  HIT %:        100  MISS %:          0   MPKI: 0
ITLB PREFETCH  REQUESTED:          0  ISSUED:          0  USEFUL:          0  USELESS:          0
ITLB USEFUL LOAD PREFETCHES:          0 PREFETCH ISSUED TO LOWER LEVEL:          0  ACCURACY: -nan
ITLB TIMELY PREFETCHES:          0 LATE PREFETCHES: 0 DROPPED PREFETCHES: 0
ITLB PREFETCHES SAME FILL-ORIGIN LEVEL: 0 DIFFERENT FILL-ORIGIN LEVEL: 0
ITLB AVERAGE MISS LATENCY: -nan cycles
ITLB RQ	ACCESS:   21657201	FORWARD:          0	MERGED:    4822623	TO_CACHE:   16834578

DTLB TOTAL     ACCESS:   26314490  HIT:   26108009  MISS:     206481  HIT %:    99.2153  MISS %:   0.784667   MPKI: 2.06481
DTLB LOAD TRANSLATION ACCESS:   26314490  HIT:   26108009  MISS:     206481  HIT %:    99.2153  MISS %:   0.784667   MPKI: 2.06481
DTLB PREFETCH  REQUESTED:          0  ISSUED:          0  USEFUL:          0  USELESS:          0
DTLB USEFUL LOAD PREFETCHES:          0 PREFETCH ISSUED TO LOWER LEVEL:          0  ACCURACY: -nan
DTLB TIMELY PREFETCHES:          0 LATE PREFETCHES: 0 DROPPED PREFETCHES: 0
DTLB PREFETCHES SAME FILL-ORIGIN LEVEL: 0 DIFFERENT FILL-ORIGIN LEVEL: 0
DTLB AVERAGE MISS LATENCY: 36.4644 cycles
DTLB RQ	ACCESS:   46584762	FORWARD:          0	MERGED:   20241169	TO_CACHE:   26343593

STLB TOTAL     ACCESS:    7684086  HIT:    7614487  MISS:      69599  HIT %:    99.0942  MISS %:   0.905755   MPKI: 0.69599
STLB LOAD TRANSLATION ACCESS:     206481  HIT:     136900  MISS:      69581  HIT %:    66.3015  MISS %:    33.6985   MPKI: 0.69581
STLB TRANSLATION FROM L1D PREFETCHER ACCESS:    7477605  HIT:    7477587  MISS:         18  HIT %:    99.9998  MISS %: 0.000240719   MPKI: 0.00018
STLB PREFETCH  REQUESTED:          0  ISSUED:          0  USEFUL:         12  USELESS:          6
STLB USEFUL LOAD PREFETCHES:         12 PREFETCH ISSUED TO LOWER LEVEL:          0  ACCURACY: inf
STLB TIMELY PREFETCHES:         12 LATE PREFETCHES: 0 DROPPED PREFETCHES: 0
STLB PREFETCHES SAME FILL-ORIGIN LEVEL: 0 DIFFERENT FILL-ORIGIN LEVEL: 0
STLB AVERAGE MISS LATENCY: 81.3658 cycles
STLB RQ	ACCESS:   12136143	FORWARD:          0	MERGED:    4452056	TO_CACHE:    7684087

STLB Hit, L1D data hit: 0
STLB Hit, L2C data hit: 0
STLB Hit, LLC data hit: 0
STLB Hit, LLC data miss: 0
STLB STLB hints to L2: 0
L1D TOTAL     ACCESS:   57091620  HIT:   53190228  MISS:    3901392  HIT %:    93.1664  MISS %:    6.83356   MPKI: 39.0139
L1D LOAD      ACCESS:   17969472  HIT:   16248281  MISS:    1721191  HIT %:    90.4216  MISS %:    9.57842   MPKI: 17.2119
L1D RFO       ACCESS:   27707253  HIT:   27487428  MISS:     219825  HIT %:    99.2066  MISS %:   0.793384   MPKI: 2.19825
L1D PREFETCH  ACCESS:   11414895  HIT:    9454519  MISS:    1960376  HIT %:    82.8262  MISS %:    17.1738   MPKI: 19.6038
L1D PREFETCH  REQUESTED:   23859399  ISSUED:   23859327  USEFUL:     660774  USELESS:    1299630
L1D USEFUL LOAD PREFETCHES:     660774 PREFETCH ISSUED TO LOWER LEVEL:    2338788  ACCURACY: 28.2528
L1D TIMELY PREFETCHES:     660774 LATE PREFETCHES: 374893 DROPPED PREFETCHES: 0
L1D PREFETCHES SAME FILL-ORIGIN LEVEL: 2338788 DIFFERENT FILL-ORIGIN LEVEL: 0
L1D AVERAGE MISS LATENCY: 1.23245e+07 cycles
L1D RQ	ACCESS:   31250108	FORWARD:          0	MERGED:   13068233	TO_CACHE:   18151849
L1D WQ	ACCESS:   28891366	FORWARD:      30029	MERGED:     458453	TO_CACHE:   28432913
L1D PQ	ACCESS:   11929665	FORWARD:          0	MERGED:          0	TO_CACHE:   11929662

L1D UNIQUE REGIONS ACCESSED: 0
L1D REGIONS CONFLICTS: 0
L1D Cross Page Prefetch Requests: 0
L1D Same Page Prefetch Requests: 18268700
L1D ROI Sum of L1D PQ occupancy: 160076327
L1D PREFETCHES PUSHED FROM L2C: 0
L1I TOTAL     ACCESS:   21657202  HIT:   21657202  MISS:          0  HIT %:        100  MISS %:          0   MPKI: 0
L1I LOAD      ACCESS:   21657202  HIT:   21657202  MISS:          0  HIT %:        100  MISS %:          0   MPKI: 0
L1I PREFETCH  REQUESTED:          0  ISSUED:          0  USEFUL:          0  USELESS:          0
L1I USEFUL LOAD PREFETCHES:          0 PREFETCH ISSUED TO LOWER LEVEL:          0  ACCURACY: -nan
L1I TIMELY PREFETCHES:          0 LATE PREFETCHES: 0 DROPPED PREFETCHES: 0
L1I PREFETCHES SAME FILL-ORIGIN LEVEL: 0 DIFFERENT FILL-ORIGIN LEVEL: 0
L1I AVERAGE MISS LATENCY: -nan cycles
L1I RQ	ACCESS:   30409165	FORWARD:          0	MERGED:    8751964	TO_CACHE:   21657201

BTB TOTAL     ACCESS:    9650941  HIT:    9650907  MISS:         34  HIT %:    99.9996  MISS %: 0.000352297   MPKI: 0.00034
BTB BRANCH_DIRECT_JUMP	ACCESS:     463202  HIT:     463196  MISS:          6
BTB BRANCH_INDIRECT	ACCESS:          0  HIT:          0  MISS:          0
BTB BRANCH_CONDITIONAL	ACCESS:    9187651  HIT:    9187627  MISS:         24
BTB BRANCH_DIRECT_CALL	ACCESS:         44  HIT:         42  MISS:          2
BTB BRANCH_INDIRECT_CALL	ACCESS:          0  HIT:          0  MISS:          0
BTB BRANCH_RETURN	ACCESS:         44  HIT:         42  MISS:          2
BTB BRANCH_OTHER ACCESS:          0  HIT:          0  MISS:          0

L2C TOTAL     ACCESS:    4614008  HIT:    1164617  MISS:    3449391  HIT %:    25.2409  MISS %:    74.7591   MPKI: 34.4939
L2C LOAD      ACCESS:    1346241  HIT:      75999  MISS:    1270242  HIT %:    5.64527  MISS %:    94.3547   MPKI: 12.7024
L2C DATA LOAD MPKI: 12.7024
L2C INSTRUCTION LOAD MPKI: 0
L2C RFO       ACCESS:     216304  HIT:       3990  MISS:     212314  HIT %:    1.84463  MISS %:    98.1554   MPKI: 2.12314
L2C PREFETCH  ACCESS:    2338761  HIT:     385710  MISS:    1953051  HIT %:    16.4921  MISS %:    83.5079   MPKI: 19.5305
L2C DATA PREFETCH MPKI: 19.5305
L2C INSTRUCTION PREFETCH MPKI: 0
L2C WRITEBACK ACCESS:     642959  HIT:     639241  MISS:       3718  HIT %:    99.4217  MISS %:   0.578264   MPKI: 0.03718
L2C LOAD TRANSLATION ACCESS:      69725  HIT:      59677  MISS:      10048  HIT %:    85.5891  MISS %:    14.4109   MPKI: 0.10048
L2C TRANSLATION FROM L1D PREFETCHER ACCESS:         18  HIT:          0  MISS:         18  HIT %:          0  MISS %:        100   MPKI: 0.00018
L2C PREFETCH  REQUESTED:          0  ISSUED:          0  USEFUL:      28395  USELESS:    1924714
L2C USEFUL LOAD PREFETCHES:      28395 PREFETCH ISSUED TO LOWER LEVEL:    1953051  ACCURACY: 1.45388
L2C TIMELY PREFETCHES:      28395 LATE PREFETCHES: 0 DROPPED PREFETCHES: 0
L2C PREFETCHES SAME FILL-ORIGIN LEVEL: 0 DIFFERENT FILL-ORIGIN LEVEL: 0
L2C AVERAGE MISS LATENCY: 172.852 cycles
L2C RQ	ACCESS:    1632347	FORWARD:          0	MERGED:          0	TO_CACHE:    1632288
L2C WQ	ACCESS:     642959	FORWARD:         86	MERGED:          0	TO_CACHE:     642959
L2C PQ	ACCESS:    2338788	FORWARD:          0	MERGED:          0	TO_CACHE:    2338761

L2C Instructions Evicting Data 0
L2C Translations Evicting Data 10033
L2C Data Evicting Data 3425613
L2C Instructions Evicting Instructions 0
L2C Translations Evicting Instructions 0
L2C Data Evicting Instructions 0
L2C Instructions Evicting Translations 0
L2C Translations Evicting Translations 33
L2C Data Evicting Translations 9994
L2C Dense regions hint from L2: 0
PSCL5 TOTAL     ACCESS:      69599  HIT:      69599  MISS:          0  HIT %:        100  MISS %:          0   MPKI: 0
PSCL5 LOAD TRANSLATION ACCESS:      69581  HIT:      69581  MISS:          0  HIT %:        100  MISS %:          0   MPKI: 0
PSCL5 TRANSLATION FROM L1D PREFETCHER ACCESS:         18  HIT:         18  MISS:          0  HIT %:        100  MISS %:          0   MPKI: 0
PSCL5 PREFETCH  REQUESTED:          0  ISSUED:          0  USEFUL:          0  USELESS:          0
PSCL5 USEFUL LOAD PREFETCHES:          0 PREFETCH ISSUED TO LOWER LEVEL:          0  ACCURACY: -nan
PSCL5 TIMELY PREFETCHES:          0 LATE PREFETCHES: 0 DROPPED PREFETCHES: 0
PSCL5 PREFETCHES SAME FILL-ORIGIN LEVEL: 0 DIFFERENT FILL-ORIGIN LEVEL: 0

PSCL4 TOTAL     ACCESS:      69599  HIT:      69599  MISS:          0  HIT %:        100  MISS %:          0   MPKI: 0
PSCL4 LOAD TRANSLATION ACCESS:      69581  HIT:      69581  MISS:          0  HIT %:        100  MISS %:          0   MPKI: 0
PSCL4 TRANSLATION FROM L1D PREFETCHER ACCESS:         18  HIT:         18  MISS:          0  HIT %:        100  MISS %:          0   MPKI: 0
PSCL4 PREFETCH  REQUESTED:          0  ISSUED:          0  USEFUL:          0  USELESS:          0
PSCL4 USEFUL LOAD PREFETCHES:          0 PREFETCH ISSUED TO LOWER LEVEL:          0  ACCURACY: -nan
PSCL4 TIMELY PREFETCHES:          0 LATE PREFETCHES: 0 DROPPED PREFETCHES: 0
PSCL4 PREFETCHES SAME FILL-ORIGIN LEVEL: 0 DIFFERENT FILL-ORIGIN LEVEL: 0

PSCL3 TOTAL     ACCESS:      69599  HIT:      69599  MISS:          0  HIT %:        100  MISS %:          0   MPKI: 0
PSCL3 LOAD TRANSLATION ACCESS:      69581  HIT:      69581  MISS:          0  HIT %:        100  MISS %:          0   MPKI: 0
PSCL3 TRANSLATION FROM L1D PREFETCHER ACCESS:         18  HIT:         18  MISS:          0  HIT %:        100  MISS %:          0   MPKI: 0
PSCL3 PREFETCH  REQUESTED:          0  ISSUED:          0  USEFUL:          0  USELESS:          0
PSCL3 USEFUL LOAD PREFETCHES:          0 PREFETCH ISSUED TO LOWER LEVEL:          0  ACCURACY: -nan
PSCL3 TIMELY PREFETCHES:          0 LATE PREFETCHES: 0 DROPPED PREFETCHES: 0
PSCL3 PREFETCHES SAME FILL-ORIGIN LEVEL: 0 DIFFERENT FILL-ORIGIN LEVEL: 0

PSCL2 TOTAL     ACCESS:      69599  HIT:      69404  MISS:        195  HIT %:    99.7198  MISS %:   0.280176   MPKI: 0.00195
PSCL2 LOAD TRANSLATION ACCESS:      69581  HIT:      69386  MISS:        195  HIT %:    99.7198  MISS %:   0.280249   MPKI: 0.00195
PSCL2 TRANSLATION FROM L1D PREFETCHER ACCESS:         18  HIT:         18  MISS:          0  HIT %:        100  MISS %:          0   MPKI: 0
PSCL2 PREFETCH  REQUESTED:          0  ISSUED:          0  USEFUL:          0  USELESS:          0
PSCL2 USEFUL LOAD PREFETCHES:          0 PREFETCH ISSUED TO LOWER LEVEL:          0  ACCURACY: -nan
PSCL2 TIMELY PREFETCHES:          0 LATE PREFETCHES: 0 DROPPED PREFETCHES: 0
PSCL2 PREFETCHES SAME FILL-ORIGIN LEVEL: 0 DIFFERENT FILL-ORIGIN LEVEL: 0

LLC TOTAL     ACCESS:    4027030  HIT:     274448  MISS:    3752582  HIT %:    6.81515  MISS %:    93.1849   MPKI: 37.5258
LLC LOAD      ACCESS:    1270241  HIT:     101835  MISS:    1168406  HIT %:    8.01698  MISS %:     91.983   MPKI: 11.6841
LLC RFO       ACCESS:     212314  HIT:        101  MISS:     212213  HIT %:  0.0475711  MISS %:    99.9524   MPKI: 2.12213
LLC PREFETCH  ACCESS:    1953051  HIT:     142188  MISS:    1810863  HIT %:     7.2803  MISS %:    92.7197   MPKI: 18.1086
LLC WRITEBACK ACCESS:     581358  HIT:      29678  MISS:     551680  HIT %:    5.10494  MISS %:    94.8951   MPKI: 5.5168
LLC LOAD TRANSLATION ACCESS:      10048  HIT:        646  MISS:       9402  HIT %:    6.42914  MISS %:    93.5709   MPKI: 0.09402
LLC TRANSLATION FROM L1D PREFETCHER ACCESS:         18  HIT:          0  MISS:         18  HIT %:          0  MISS %:        100   MPKI: 0.00018
LLC PREFETCH  REQUESTED:          0  ISSUED:          0  USEFUL:       5376  USELESS:    1803440
LLC USEFUL LOAD PREFETCHES:       5376 PREFETCH ISSUED TO LOWER LEVEL:    1810863  ACCURACY: 0.296875
LLC TIMELY PREFETCHES:       5376 LATE PREFETCHES: 0 DROPPED PREFETCHES: 0
LLC PREFETCHES SAME FILL-ORIGIN LEVEL: 0 DIFFERENT FILL-ORIGIN LEVEL: 0
LLC AVERAGE MISS LATENCY: 131.189 cycles
LLC RQ	ACCESS:    1492622	FORWARD:          0	MERGED:          0	TO_CACHE:    1492621
LLC WQ	ACCESS:     581358	FORWARD:          1	MERGED:          0	TO_CACHE:     581358
LLC PQ	ACCESS:    1953051	FORWARD:          0	MERGED:          0	TO_CACHE:    1953051

LLC Dense regions hint to LLC: 0

RAW hits: 635021
Loads Generated: 31885130
Loads sent to L1D: 31250108
Stores Generated: 28891363
Stores sent to L1D: 28891366
Major fault: 0 Minor fault: 38413
Allocated PAGES: 38413

stream: 
stream:times selected: 17265843
stream:pref_filled: 1420240
stream:pref_useful: 312689
stream:pref_late: 145617
stream:misses: 254938
stream:misses_by_poll: 0

CS: 
CS:times selected: 531161
CS:pref_filled: 359967
CS:pref_useful: 357892
CS:pref_late: 12856
CS:misses: 16016
CS:misses_by_poll: 317

CPLX: 
CPLX:times selected: 16612371
CPLX:pref_filled: 1319692
CPLX:pref_useful: 490610
CPLX:pref_late: 294418
CPLX:misses: 1756036
CPLX:misses_by_poll: 4410

NL_L1: 
NL:times selected: 164208
NL:pref_filled: 20285
NL:pref_useful: 9787
NL:pref_late: 1587
NL:misses: 41940
NL:misses_by_poll: 3

total selections: 34573583
total_filled: 1960376
total_useful: 660774
total_late: 458595
total_polluted: 4730
total_misses_after_warmup: 1901664
conflicts: 106934
Degree Incremented Times: 107009
Degree Decremented Times: 147404

L1 IP Table Write Accesses: 17018032
L1 IP Table Read Accesses: 16911098
L1 RST Write Accesses: 11374276
L1 RST Read Accesses: 22748552
L1 CSPT Write Accesses: 11374276
L1 CSPT Read Accesses: 22288677
L1 RR Filter Tag Write Accesses: 11929737
L1 RR Filter Tag Read Accesses: 542293219
L1 IP Table Tag Write Accesses: 17549426
L1 IP Table Tag Read Accesses: 17549426
L1 RST Tag Write Accesses: 0
L1 RST Tag Read Accesses: 108659874
L1 RR Filter Write Accesses: 0
L1 RR Filter Read Accesses: 17802699
test: 9621729

DRAM Statistics
 CHANNEL 0
 RQ ROW_BUFFER_HIT:    1534916  ROW_BUFFER_MISS:    1665986
 DBUS_CONGESTED:       3110
 WQ ROW_BUFFER_HIT:     123664  ROW_BUFFER_MISS:     464210  FULL:          0

 AVG_CONGESTED_CYCLE: 5
 All warmup complete: 2
Channel 0 Bank busy for read cycles: 0
Channel 0 Bank busy for write cycles: 0
Channel 0
Rank 0
0banks busy for read cycles: 66500153
0banks busy for write cycles: 114927
1banks busy for read cycles: 56059866
1banks busy for write cycles: 17122271
2banks busy for read cycles: 32699471
2banks busy for write cycles: 10369694
3banks busy for read cycles: 16777001
3banks busy for write cycles: 6819575
4banks busy for read cycles: 9754025
4banks busy for write cycles: 4378695
5banks busy for read cycles: 6992721
5banks busy for write cycles: 2691331
6banks busy for read cycles: 5507593
6banks busy for write cycles: 1634590
7banks busy for read cycles: 4039446
7banks busy for write cycles: 1398407
8banks busy for read cycles: 2533288
8banks busy for write cycles: 5629425

CPU 0 Branch Prediction Accuracy: 99.1519% MPKI: 0.83374 Average ROB Occupancy at Mispredict: 264.603
Branch types
NOT_BRANCH: 90169467 90.1695%
BRANCH_DIRECT_JUMP: 463202 0.463202%
BRANCH_INDIRECT: 0 0%
BRANCH_CONDITIONAL: 9367125 9.36712%
BRANCH_DIRECT_CALL: 44 4.4e-05%
BRANCH_INDIRECT_CALL: 0 0%
BRANCH_RETURN: 44 4.4e-05%
BRANCH_OTHER: 0 0%

DRAM PAGES: 1048576
Allocated PAGES: 38413
