
*** ChampSim Multicore Out-of-Order Simulator ***

Warmup Instructions: 50000000
Simulation Instructions: 100000000
Number of CPUs: 1
LLC sets: 2048
LLC ways: 16
Off-chip DRAM Size: 4096 MB Channels: 1 Width: 64-bit Data Rate: 6400 MT/s
CPU 0 runs ../SPEC2017//605.mcf_s-665B.champsimtrace.xz
.xz
BTB has LRU replacement policy
ITLB has LRU replacement policy
DTLB has LRU replacement policy
STLB has LRU replacement policy
L1I has LRU replacement policy
IP Table Entries: 64
L1D has LRU replacement policy
Initialize SRRIP state for L2C
Initialize DRRIP state for LLC
Heartbeat CPU 0 instructions: 10000000 cycles: 3314065 heartbeat IPC: 3.01744 cumulative IPC: 3.01744 (Simulation time: 0 hr 7 min 41 sec) 
Heartbeat CPU 0 instructions: 20000000 cycles: 6632578 heartbeat IPC: 3.0134 cumulative IPC: 3.01542 (Simulation time: 0 hr 15 min 7 sec) 
Heartbeat CPU 0 instructions: 30000002 cycles: 9943781 heartbeat IPC: 3.02005 cumulative IPC: 3.01696 (Simulation time: 0 hr 21 min 37 sec) 
Heartbeat CPU 0 instructions: 40000003 cycles: 13254723 heartbeat IPC: 3.02029 cumulative IPC: 3.01779 (Simulation time: 0 hr 27 min 32 sec) 
Heartbeat CPU 0 instructions: 50000002 cycles: 16560221 heartbeat IPC: 3.02526 cumulative IPC: 3.01928 (Simulation time: 0 hr 32 min 52 sec) 

Warmup complete CPU 0 instructions: 50000002 cycles: 16560221 (Simulation time: 0 hr 32 min 52 sec) 

Heartbeat CPU 0 instructions: 60000003 cycles: 54575391 heartbeat IPC: 0.263053 cumulative IPC: 0.263053 (Simulation time: 0 hr 37 min 34 sec) 
Heartbeat CPU 0 instructions: 70000003 cycles: 89362563 heartbeat IPC: 0.287462 cumulative IPC: 0.274716 (Simulation time: 0 hr 42 min 10 sec) 
Heartbeat CPU 0 instructions: 80000001 cycles: 124458303 heartbeat IPC: 0.284935 cumulative IPC: 0.27804 (Simulation time: 0 hr 46 min 28 sec) 
Heartbeat CPU 0 instructions: 90000002 cycles: 160311211 heartbeat IPC: 0.278917 cumulative IPC: 0.278259 (Simulation time: 0 hr 51 min 6 sec) 
Heartbeat CPU 0 instructions: 100000000 cycles: 195112155 heartbeat IPC: 0.287348 cumulative IPC: 0.280031 (Simulation time: 0 hr 55 min 8 sec) 
Heartbeat CPU 0 instructions: 110000000 cycles: 229940128 heartbeat IPC: 0.287126 cumulative IPC: 0.281189 (Simulation time: 0 hr 58 min 55 sec) 
Heartbeat CPU 0 instructions: 120000000 cycles: 264747239 heartbeat IPC: 0.287298 cumulative IPC: 0.282045 (Simulation time: 1 hr 2 min 42 sec) 
Heartbeat CPU 0 instructions: 130000000 cycles: 299565986 heartbeat IPC: 0.287202 cumulative IPC: 0.28268 (Simulation time: 1 hr 6 min 21 sec) 
Heartbeat CPU 0 instructions: 140000002 cycles: 335011033 heartbeat IPC: 0.282127 cumulative IPC: 0.282618 (Simulation time: 1 hr 9 min 30 sec) 
Heartbeat CPU 0 instructions: 150000000 cycles: 370272070 heartbeat IPC: 0.283599 cumulative IPC: 0.282716 (Simulation time: 1 hr 11 min 55 sec) 
Finished CPU 0 instructions: 100000000 cycles: 353711851 cumulative IPC: 0.282716 (Simulation time: 1 hr 11 min 55 sec) 

ChampSim completed all CPUs

Region of Interest Statistics

CPU 0 cumulative IPC: 0.282716 instructions: 100000000 cycles: 353711851

CPU 0 Average Load ROB stall cycles: 8.81257e+07
CPU 0 Fraction of times ROB stalled by Loads: 45.0758
CPU 0 Percentage of Load stall cycles in Total stall cycles: 8.77381e+08
Issued all: 55674228
Issued LT all: 44125218
rob_not_full_when_issued_lt_all: 41801166
Issued LT one: 32029221
rob_not_full_when_issued_lt_one: 29987180
 Total stall cycles: 301841103
 Total load stall cycles: 2648297758254153
Unique Load IPs: 264
CPU 0 NUM of IPS identified critical: 16
CPU 0 Num of Load IPs stalling ROB: 0
Threshold modification factor: 0
Trouble in retire width: -nan
MaC = Marked as critical.
lt_50_percent_before_Mac: 8
gt_90_percent_before_Mac: 2
gt_75_percent_before_Mac: 1
gt_50_percent_before_Mac: 5
stall_proportion_bin_same_before_after: 0
stall_proportion_bin_lower_before_after: 0
stall_proportion_bin_upper_before_after: 0
average_stall_proportion_before: 0.0421811
average_stall_proportion_after: 0.0437307
Critical_IP_Detector_Accuracy_70: 0
Critical_IP_Detector_Accuracy_80: 0
Critical_IP_Detector_Accuracy_90: 0
Critical_IP_Detector_Coverage_70: 0
Critical_IP_Detector_Coverage_80: 0
Critical_IP_Detector_Coverage_90: 0
stat_90_percent_critical_ip_stalls_freq: 2559110
stat_90_percent_non_critical_ip_stalls_freq: 18446744073706992506
AVERAGE_ROB_Occupancy_90_Percent_Critical_IP_Stalls: 29.641
AVERAGE_ROB_Occupancy_90_Percent_Non_Critical_IP_Stalls: 1.64914e-11
Critical_IP_ROB_Stalls_Bucket_0: 5514192
Non-critical_IP_ROB_Stalls_Bucket_0: 6336756
Critical_IP_ROB_Stalls_Bucket_1: 480014
Non-critical_IP_ROB_Stalls_Bucket_1: 668789
Critical_IP_ROB_Stalls_Bucket_2: 113980
Non-critical_IP_ROB_Stalls_Bucket_2: 163866
Critical_IP_ROB_Stalls_Bucket_3: 39892
Non-critical_IP_ROB_Stalls_Bucket_3: 56847
Critical_IP_ROB_Stalls_Bucket_4: 21414
Non-critical_IP_ROB_Stalls_Bucket_4: 29983
Critical_IP_ROB_Stalls_Bucket_5: 9542
Non-critical_IP_ROB_Stalls_Bucket_5: 19508
Critical_IP_ROB_Stalls_Bucket_6: 14822
Non-critical_IP_ROB_Stalls_Bucket_6: 76279
0 => IPs accounting for >50 percent of stalls, 1 => 55, 2 => 60, 3 => 65 and so on till 90.
percent50: inf num IPs:  1
percent55: inf num IPs: 1
percent60: inf num IPs: 1
percent65: inf num IPs: 1
percent70: inf num IPs: 1
percent75: inf num IPs: 1
percent80: inf num IPs: 1
percent85: inf num IPs: 1
percent90: inf num IPs: 1
Critical_ROB_Stalls_Percent_0_Bucket_0: 2178641
Non-critical_ROB_Stalls_Percent_0_Bucket_0: 9672307
Critical_ROB_Stalls_Percent_0_Bucket_1: 236511
Non-critical_ROB_Stalls_Percent_0_Bucket_1: 912292
Critical_ROB_Stalls_Percent_0_Bucket_2: 75076
Non-critical_ROB_Stalls_Percent_0_Bucket_2: 202770
Critical_ROB_Stalls_Percent_0_Bucket_3: 21935
Non-critical_ROB_Stalls_Percent_0_Bucket_3: 74804
Critical_ROB_Stalls_Percent_0_Bucket_4: 14437
Non-critical_ROB_Stalls_Percent_0_Bucket_4: 36960
Critical_ROB_Stalls_Percent_0_Bucket_5: 7908
Non-critical_ROB_Stalls_Percent_0_Bucket_5: 21142
Critical_ROB_Stalls_Percent_0_Bucket_6: 24602
Non-critical_ROB_Stalls_Percent_0_Bucket_6: 66499
Critical_ROB_Stalls_Percent_1_Bucket_0: 2178641
Non-critical_ROB_Stalls_Percent_1_Bucket_0: 9672307
Critical_ROB_Stalls_Percent_1_Bucket_1: 236511
Non-critical_ROB_Stalls_Percent_1_Bucket_1: 912292
Critical_ROB_Stalls_Percent_1_Bucket_2: 75076
Non-critical_ROB_Stalls_Percent_1_Bucket_2: 202770
Critical_ROB_Stalls_Percent_1_Bucket_3: 21935
Non-critical_ROB_Stalls_Percent_1_Bucket_3: 74804
Critical_ROB_Stalls_Percent_1_Bucket_4: 14437
Non-critical_ROB_Stalls_Percent_1_Bucket_4: 36960
Critical_ROB_Stalls_Percent_1_Bucket_5: 7908
Non-critical_ROB_Stalls_Percent_1_Bucket_5: 21142
Critical_ROB_Stalls_Percent_1_Bucket_6: 24602
Non-critical_ROB_Stalls_Percent_1_Bucket_6: 66499
Critical_ROB_Stalls_Percent_2_Bucket_0: 2178641
Non-critical_ROB_Stalls_Percent_2_Bucket_0: 9672307
Critical_ROB_Stalls_Percent_2_Bucket_1: 236511
Non-critical_ROB_Stalls_Percent_2_Bucket_1: 912292
Critical_ROB_Stalls_Percent_2_Bucket_2: 75076
Non-critical_ROB_Stalls_Percent_2_Bucket_2: 202770
Critical_ROB_Stalls_Percent_2_Bucket_3: 21935
Non-critical_ROB_Stalls_Percent_2_Bucket_3: 74804
Critical_ROB_Stalls_Percent_2_Bucket_4: 14437
Non-critical_ROB_Stalls_Percent_2_Bucket_4: 36960
Critical_ROB_Stalls_Percent_2_Bucket_5: 7908
Non-critical_ROB_Stalls_Percent_2_Bucket_5: 21142
Critical_ROB_Stalls_Percent_2_Bucket_6: 24602
Non-critical_ROB_Stalls_Percent_2_Bucket_6: 66499
Critical_ROB_Stalls_Percent_3_Bucket_0: 2178641
Non-critical_ROB_Stalls_Percent_3_Bucket_0: 9672307
Critical_ROB_Stalls_Percent_3_Bucket_1: 236511
Non-critical_ROB_Stalls_Percent_3_Bucket_1: 912292
Critical_ROB_Stalls_Percent_3_Bucket_2: 75076
Non-critical_ROB_Stalls_Percent_3_Bucket_2: 202770
Critical_ROB_Stalls_Percent_3_Bucket_3: 21935
Non-critical_ROB_Stalls_Percent_3_Bucket_3: 74804
Critical_ROB_Stalls_Percent_3_Bucket_4: 14437
Non-critical_ROB_Stalls_Percent_3_Bucket_4: 36960
Critical_ROB_Stalls_Percent_3_Bucket_5: 7908
Non-critical_ROB_Stalls_Percent_3_Bucket_5: 21142
Critical_ROB_Stalls_Percent_3_Bucket_6: 24602
Non-critical_ROB_Stalls_Percent_3_Bucket_6: 66499
Critical_ROB_Stalls_Percent_4_Bucket_0: 2178641
Non-critical_ROB_Stalls_Percent_4_Bucket_0: 9672307
Critical_ROB_Stalls_Percent_4_Bucket_1: 236511
Non-critical_ROB_Stalls_Percent_4_Bucket_1: 912292
Critical_ROB_Stalls_Percent_4_Bucket_2: 75076
Non-critical_ROB_Stalls_Percent_4_Bucket_2: 202770
Critical_ROB_Stalls_Percent_4_Bucket_3: 21935
Non-critical_ROB_Stalls_Percent_4_Bucket_3: 74804
Critical_ROB_Stalls_Percent_4_Bucket_4: 14437
Non-critical_ROB_Stalls_Percent_4_Bucket_4: 36960
Critical_ROB_Stalls_Percent_4_Bucket_5: 7908
Non-critical_ROB_Stalls_Percent_4_Bucket_5: 21142
Critical_ROB_Stalls_Percent_4_Bucket_6: 24602
Non-critical_ROB_Stalls_Percent_4_Bucket_6: 66499
Critical_ROB_Stalls_Percent_5_Bucket_0: 2178641
Non-critical_ROB_Stalls_Percent_5_Bucket_0: 9672307
Critical_ROB_Stalls_Percent_5_Bucket_1: 236511
Non-critical_ROB_Stalls_Percent_5_Bucket_1: 912292
Critical_ROB_Stalls_Percent_5_Bucket_2: 75076
Non-critical_ROB_Stalls_Percent_5_Bucket_2: 202770
Critical_ROB_Stalls_Percent_5_Bucket_3: 21935
Non-critical_ROB_Stalls_Percent_5_Bucket_3: 74804
Critical_ROB_Stalls_Percent_5_Bucket_4: 14437
Non-critical_ROB_Stalls_Percent_5_Bucket_4: 36960
Critical_ROB_Stalls_Percent_5_Bucket_5: 7908
Non-critical_ROB_Stalls_Percent_5_Bucket_5: 21142
Critical_ROB_Stalls_Percent_5_Bucket_6: 24602
Non-critical_ROB_Stalls_Percent_5_Bucket_6: 66499
Critical_ROB_Stalls_Percent_6_Bucket_0: 2178641
Non-critical_ROB_Stalls_Percent_6_Bucket_0: 9672307
Critical_ROB_Stalls_Percent_6_Bucket_1: 236511
Non-critical_ROB_Stalls_Percent_6_Bucket_1: 912292
Critical_ROB_Stalls_Percent_6_Bucket_2: 75076
Non-critical_ROB_Stalls_Percent_6_Bucket_2: 202770
Critical_ROB_Stalls_Percent_6_Bucket_3: 21935
Non-critical_ROB_Stalls_Percent_6_Bucket_3: 74804
Critical_ROB_Stalls_Percent_6_Bucket_4: 14437
Non-critical_ROB_Stalls_Percent_6_Bucket_4: 36960
Critical_ROB_Stalls_Percent_6_Bucket_5: 7908
Non-critical_ROB_Stalls_Percent_6_Bucket_5: 21142
Critical_ROB_Stalls_Percent_6_Bucket_6: 24602
Non-critical_ROB_Stalls_Percent_6_Bucket_6: 66499
Critical_ROB_Stalls_Percent_7_Bucket_0: 2178641
Non-critical_ROB_Stalls_Percent_7_Bucket_0: 9672307
Critical_ROB_Stalls_Percent_7_Bucket_1: 236511
Non-critical_ROB_Stalls_Percent_7_Bucket_1: 912292
Critical_ROB_Stalls_Percent_7_Bucket_2: 75076
Non-critical_ROB_Stalls_Percent_7_Bucket_2: 202770
Critical_ROB_Stalls_Percent_7_Bucket_3: 21935
Non-critical_ROB_Stalls_Percent_7_Bucket_3: 74804
Critical_ROB_Stalls_Percent_7_Bucket_4: 14437
Non-critical_ROB_Stalls_Percent_7_Bucket_4: 36960
Critical_ROB_Stalls_Percent_7_Bucket_5: 7908
Non-critical_ROB_Stalls_Percent_7_Bucket_5: 21142
Critical_ROB_Stalls_Percent_7_Bucket_6: 24602
Non-critical_ROB_Stalls_Percent_7_Bucket_6: 66499
Critical_ROB_Stalls_Percent_8_Bucket_0: 2178641
Non-critical_ROB_Stalls_Percent_8_Bucket_0: 9672307
Critical_ROB_Stalls_Percent_8_Bucket_1: 236511
Non-critical_ROB_Stalls_Percent_8_Bucket_1: 912292
Critical_ROB_Stalls_Percent_8_Bucket_2: 75076
Non-critical_ROB_Stalls_Percent_8_Bucket_2: 202770
Critical_ROB_Stalls_Percent_8_Bucket_3: 21935
Non-critical_ROB_Stalls_Percent_8_Bucket_3: 74804
Critical_ROB_Stalls_Percent_8_Bucket_4: 14437
Non-critical_ROB_Stalls_Percent_8_Bucket_4: 36960
Critical_ROB_Stalls_Percent_8_Bucket_5: 7908
Non-critical_ROB_Stalls_Percent_8_Bucket_5: 21142
Critical_ROB_Stalls_Percent_8_Bucket_6: 24602
Non-critical_ROB_Stalls_Percent_8_Bucket_6: 66499
Average ROB occupancy Load Stall Begin: 24.0834
Average ROB occupancy Load Stall End: 28.0578
Min ROB occupancy Load Stall Begin: 1
Max ROB occupancy Load Stall Begin: 352
Min ROB occupancy Load Stall End: 1
Max ROB occupancy Load Stall End: 352
Average ROB occupancy Critical Load Stall Begin: 20.2732
Average ROB occupancy Critical Load Stall End: 26.1375
Min ROB occupancy Critical Load Stall Begin: 1
Max ROB occupancy Critical Load Stall Begin: 352
Min ROB occupancy Critical Load Stall End: 1
Max ROB occupancy Critical Load Stall End: 352
 ROB Load Stall Begin Bucket Count 0: 12144133
 ROB Load Stall End Bucket Count 0: 11850948
 ROB Critical Load Stall Begin Bucket Count 0: 1979448
 ROB Critical Load Stall End Bucket Count 0: 1901579
 ROB Load Stall Begin Bucket Count 1: 930934
 ROB Load Stall End Bucket Count 1: 1148803
 ROB Critical Load Stall Begin Bucket Count 1: 149663
 ROB Critical Load Stall End Bucket Count 1: 204002
 ROB Load Stall Begin Bucket Count 2: 233181
 ROB Load Stall End Bucket Count 2: 277846
 ROB Critical Load Stall Begin Bucket Count 2: 43988
 ROB Critical Load Stall End Bucket Count 2: 57876
 ROB Load Stall Begin Bucket Count 3: 79726
 ROB Load Stall End Bucket Count 3: 96739
 ROB Critical Load Stall Begin Bucket Count 3: 15713
 ROB Critical Load Stall End Bucket Count 3: 19822
 ROB Load Stall Begin Bucket Count 4: 44761
 ROB Load Stall End Bucket Count 4: 51397
 ROB Critical Load Stall Begin Bucket Count 4: 8547
 ROB Critical Load Stall End Bucket Count 4: 11772
 ROB Load Stall Begin Bucket Count 5: 26841
 ROB Load Stall End Bucket Count 5: 29050
 ROB Critical Load Stall Begin Bucket Count 5: 4024
 ROB Critical Load Stall End Bucket Count 5: 4815
 ROB Load Stall Begin Bucket Count 6: 86308
 ROB Load Stall End Bucket Count 6: 91101
 ROB Critical Load Stall Begin Bucket Count 6: 4159
 ROB Critical Load Stall End Bucket Count 6: 5680
PIST Tag Read Accesses: 0
PIST Read Accesses: 0
PIST Tag Write Accesses: 0
PIST Write Accesses: 0
Criticality detector called times: 0
Max global_stall_cycles_count: 0
Threshold Modified: 0 times, factor: 0
Sturdy critical IP cache stats: 
 Unused entries: 0
CIC Tag Read Accesses: 0
CIC Read Accesses: 0
CIC Tag Write Accesses: 0
CIC Write Accesses: 0
Wobbly critical IP cache stats: 
 Unused entries: 5
CIC Tag Read Accesses: 417640414
CIC Read Accesses: 0
CIC Tag Write Accesses: 8909613
CIC Write Accesses: 0
ITLB TOTAL     ACCESS:   18143582  HIT:   18143582  MISS:          0  HIT %:        100  MISS %:          0   MPKI: 0
ITLB LOAD TRANSLATION ACCESS:   18143582  HIT:   18143582  MISS:          0  HIT %:        100  MISS %:          0   MPKI: 0
ITLB PREFETCH  REQUESTED:          0  ISSUED:          0  USEFUL:          0  USELESS:          0
ITLB USEFUL LOAD PREFETCHES:          0 PREFETCH ISSUED TO LOWER LEVEL:          0  ACCURACY: -nan
ITLB TIMELY PREFETCHES:          0 LATE PREFETCHES: 0 DROPPED PREFETCHES: 0
ITLB PREFETCHES SAME FILL-ORIGIN LEVEL: 0 DIFFERENT FILL-ORIGIN LEVEL: 0
ITLB AVERAGE MISS LATENCY: -nan cycles
ITLB RQ	ACCESS:   18993526	FORWARD:          0	MERGED:     849945	TO_CACHE:   18143581

DTLB TOTAL     ACCESS:   31060185  HIT:   29485528  MISS:    1574657  HIT %:    94.9303  MISS %:     5.0697   MPKI: 15.7466
DTLB LOAD TRANSLATION ACCESS:   31060185  HIT:   29485528  MISS:    1574657  HIT %:    94.9303  MISS %:     5.0697   MPKI: 15.7466
DTLB PREFETCH  REQUESTED:          0  ISSUED:          0  USEFUL:          0  USELESS:          0
DTLB USEFUL LOAD PREFETCHES:          0 PREFETCH ISSUED TO LOWER LEVEL:          0  ACCURACY: -nan
DTLB TIMELY PREFETCHES:          0 LATE PREFETCHES: 0 DROPPED PREFETCHES: 0
DTLB PREFETCHES SAME FILL-ORIGIN LEVEL: 0 DIFFERENT FILL-ORIGIN LEVEL: 0
DTLB AVERAGE MISS LATENCY: 10.7822 cycles
DTLB RQ	ACCESS:   37826553	FORWARD:          0	MERGED:    6576815	TO_CACHE:   31249738

STLB TOTAL     ACCESS:    3603131  HIT:    3579934  MISS:      23197  HIT %:    99.3562  MISS %:   0.643801   MPKI: 0.23197
STLB LOAD TRANSLATION ACCESS:    1574657  HIT:    1551460  MISS:      23197  HIT %:    98.5269  MISS %:    1.47315   MPKI: 0.23197
STLB TRANSLATION FROM L1D PREFETCHER ACCESS:    2028474  HIT:    2028474  MISS:          0  HIT %:        100  MISS %:          0   MPKI: 0
STLB PREFETCH  REQUESTED:          0  ISSUED:          0  USEFUL:          0  USELESS:          0
STLB USEFUL LOAD PREFETCHES:          0 PREFETCH ISSUED TO LOWER LEVEL:          0  ACCURACY: -nan
STLB TIMELY PREFETCHES:          0 LATE PREFETCHES: 0 DROPPED PREFETCHES: 0
STLB PREFETCHES SAME FILL-ORIGIN LEVEL: 0 DIFFERENT FILL-ORIGIN LEVEL: 0
STLB AVERAGE MISS LATENCY: 108.774 cycles
STLB RQ	ACCESS:    3853965	FORWARD:          0	MERGED:     250834	TO_CACHE:    3603131

STLB Hit, L1D data hit: 0
STLB Hit, L2C data hit: 0
STLB Hit, LLC data hit: 0
STLB Hit, LLC data miss: 0
STLB STLB hints to L2: 0
L1D TOTAL     ACCESS:   39308584  HIT:   34431675  MISS:    4876909  HIT %:    87.5933  MISS %:    12.4067   MPKI: 48.7691
L1D LOAD      ACCESS:   26073928  HIT:   23391472  MISS:    2682456  HIT %:    89.7121  MISS %:    10.2879   MPKI: 26.8246
L1D RFO       ACCESS:   11072348  HIT:   10690800  MISS:     381548  HIT %:     96.554  MISS %:    3.44595   MPKI: 3.81548
L1D PREFETCH  ACCESS:    2162308  HIT:     349403  MISS:    1812905  HIT %:    16.1588  MISS %:    83.8412   MPKI: 18.129
L1D PREFETCH  REQUESTED:    4559116  ISSUED:    4559116  USEFUL:     588406  USELESS:    1224496
L1D USEFUL LOAD PREFETCHES:     588406 PREFETCH ISSUED TO LOWER LEVEL:    1891134  ACCURACY: 31.1139
L1D TIMELY PREFETCHES:     588406 LATE PREFETCHES: 78229 DROPPED PREFETCHES: 0
L1D PREFETCHES SAME FILL-ORIGIN LEVEL: 1891134 DIFFERENT FILL-ORIGIN LEVEL: 0
L1D AVERAGE MISS LATENCY: 2.90463e+06 cycles
L1D RQ	ACCESS:   33577526	FORWARD:          0	MERGED:    6331298	TO_CACHE:   26115792
L1D WQ	ACCESS:   11754634	FORWARD:    1130936	MERGED:      43873	TO_CACHE:   11710761
L1D PQ	ACCESS:    2279808	FORWARD:          0	MERGED:          0	TO_CACHE:    2279308

L1D UNIQUE REGIONS ACCESSED: 0
L1D REGIONS CONFLICTS: 0
L1D Cross Page Prefetch Requests: 0
L1D Same Page Prefetch Requests: 4974649
L1D ROI Sum of L1D PQ occupancy: 29606845
L1D PREFETCHES PUSHED FROM L2C: 0
L1I TOTAL     ACCESS:   18993527  HIT:   18993525  MISS:          2  HIT %:        100  MISS %: 1.05299e-05   MPKI: 2e-05
L1I LOAD      ACCESS:   18993527  HIT:   18993525  MISS:          2  HIT %:        100  MISS %: 1.05299e-05   MPKI: 2e-05
L1I PREFETCH  REQUESTED:          0  ISSUED:          0  USEFUL:          0  USELESS:          0
L1I USEFUL LOAD PREFETCHES:          0 PREFETCH ISSUED TO LOWER LEVEL:          0  ACCURACY: -nan
L1I TIMELY PREFETCHES:          0 LATE PREFETCHES: 0 DROPPED PREFETCHES: 0
L1I PREFETCHES SAME FILL-ORIGIN LEVEL: 0 DIFFERENT FILL-ORIGIN LEVEL: 0
L1I AVERAGE MISS LATENCY: 214 cycles
L1I RQ	ACCESS:   30756029	FORWARD:          0	MERGED:   11762503	TO_CACHE:   18993526

BTB TOTAL     ACCESS:   23681315  HIT:   22481474  MISS:    1199841  HIT %:    94.9334  MISS %:    5.06661   MPKI: 11.9984
BTB BRANCH_DIRECT_JUMP	ACCESS:    2599450  HIT:    2599413  MISS:         37
BTB BRANCH_INDIRECT	ACCESS:          0  HIT:          0  MISS:          0
BTB BRANCH_CONDITIONAL	ACCESS:   15578423  HIT:   15578344  MISS:         79
BTB BRANCH_DIRECT_CALL	ACCESS:    2602035  HIT:    2602017  MISS:         18
BTB BRANCH_INDIRECT_CALL	ACCESS:     149686  HIT:     149678  MISS:          8
BTB BRANCH_RETURN	ACCESS:    2751721  HIT:    1552022  MISS:    1199699
BTB BRANCH_OTHER ACCESS:          0  HIT:          0  MISS:          0

L2C TOTAL     ACCESS:    6056587  HIT:    2798024  MISS:    3258563  HIT %:     46.198  MISS %:     53.802   MPKI: 32.5856
L2C LOAD      ACCESS:    2604213  HIT:    1123469  MISS:    1480744  HIT %:    43.1404  MISS %:    56.8596   MPKI: 14.8074
L2C DATA LOAD MPKI: 14.8074
L2C INSTRUCTION LOAD MPKI: 2e-05
L2C RFO       ACCESS:     381538  HIT:     281786  MISS:      99752  HIT %:    73.8553  MISS %:    26.1447   MPKI: 0.99752
L2C PREFETCH  ACCESS:    2516397  HIT:     850123  MISS:    1666274  HIT %:    33.7833  MISS %:    66.2167   MPKI: 16.6627
L2C DATA PREFETCH MPKI: 16.6627
L2C INSTRUCTION PREFETCH MPKI: 0
L2C WRITEBACK ACCESS:     531027  HIT:     529733  MISS:       1294  HIT %:    99.7563  MISS %:   0.243679   MPKI: 0.01294
L2C LOAD TRANSLATION ACCESS:      23412  HIT:      12913  MISS:      10499  HIT %:    55.1555  MISS %:    44.8445   MPKI: 0.10499
L2C PREFETCH  REQUESTED:    1273516  ISSUED:    1273516  USEFUL:     157234  USELESS:    1508760
L2C USEFUL LOAD PREFETCHES:     157234 PREFETCH ISSUED TO LOWER LEVEL:    1669534  ACCURACY: 9.41784
L2C TIMELY PREFETCHES:     157234 LATE PREFETCHES: 3260 DROPPED PREFETCHES: 0
L2C PREFETCHES SAME FILL-ORIGIN LEVEL: 514195 DIFFERENT FILL-ORIGIN LEVEL: 0
L2C AVERAGE MISS LATENCY: 104.326 cycles
L2C RQ	ACCESS:    3009189	FORWARD:          0	MERGED:          0	TO_CACHE:    3009163
L2C WQ	ACCESS:     531027	FORWARD:         26	MERGED:          0	TO_CACHE:     531027
L2C PQ	ACCESS:    3164650	FORWARD:          0	MERGED:     279571	TO_CACHE:    2885079

L2C Instructions Evicting Data 2
L2C Translations Evicting Data 10464
L2C Data Evicting Data 3236295
L2C Instructions Evicting Instructions 0
L2C Translations Evicting Instructions 0
L2C Data Evicting Instructions 2
L2C Instructions Evicting Translations 0
L2C Translations Evicting Translations 35
L2C Data Evicting Translations 10471
L2C Dense regions hint from L2: 0
PSCL5 TOTAL     ACCESS:      23197  HIT:      23197  MISS:          0  HIT %:        100  MISS %:          0   MPKI: 0
PSCL5 LOAD TRANSLATION ACCESS:      23197  HIT:      23197  MISS:          0  HIT %:        100  MISS %:          0   MPKI: 0
PSCL5 PREFETCH  REQUESTED:          0  ISSUED:          0  USEFUL:          0  USELESS:          0
PSCL5 USEFUL LOAD PREFETCHES:          0 PREFETCH ISSUED TO LOWER LEVEL:          0  ACCURACY: -nan
PSCL5 TIMELY PREFETCHES:          0 LATE PREFETCHES: 0 DROPPED PREFETCHES: 0
PSCL5 PREFETCHES SAME FILL-ORIGIN LEVEL: 0 DIFFERENT FILL-ORIGIN LEVEL: 0

PSCL4 TOTAL     ACCESS:      23197  HIT:      23197  MISS:          0  HIT %:        100  MISS %:          0   MPKI: 0
PSCL4 LOAD TRANSLATION ACCESS:      23197  HIT:      23197  MISS:          0  HIT %:        100  MISS %:          0   MPKI: 0
PSCL4 PREFETCH  REQUESTED:          0  ISSUED:          0  USEFUL:          0  USELESS:          0
PSCL4 USEFUL LOAD PREFETCHES:          0 PREFETCH ISSUED TO LOWER LEVEL:          0  ACCURACY: -nan
PSCL4 TIMELY PREFETCHES:          0 LATE PREFETCHES: 0 DROPPED PREFETCHES: 0
PSCL4 PREFETCHES SAME FILL-ORIGIN LEVEL: 0 DIFFERENT FILL-ORIGIN LEVEL: 0

PSCL3 TOTAL     ACCESS:      23197  HIT:      23197  MISS:          0  HIT %:        100  MISS %:          0   MPKI: 0
PSCL3 LOAD TRANSLATION ACCESS:      23197  HIT:      23197  MISS:          0  HIT %:        100  MISS %:          0   MPKI: 0
PSCL3 PREFETCH  REQUESTED:          0  ISSUED:          0  USEFUL:          0  USELESS:          0
PSCL3 USEFUL LOAD PREFETCHES:          0 PREFETCH ISSUED TO LOWER LEVEL:          0  ACCURACY: -nan
PSCL3 TIMELY PREFETCHES:          0 LATE PREFETCHES: 0 DROPPED PREFETCHES: 0
PSCL3 PREFETCHES SAME FILL-ORIGIN LEVEL: 0 DIFFERENT FILL-ORIGIN LEVEL: 0

PSCL2 TOTAL     ACCESS:      23197  HIT:      22867  MISS:        330  HIT %:    98.5774  MISS %:     1.4226   MPKI: 0.0033
PSCL2 LOAD TRANSLATION ACCESS:      23197  HIT:      22867  MISS:        330  HIT %:    98.5774  MISS %:     1.4226   MPKI: 0.0033
PSCL2 PREFETCH  REQUESTED:          0  ISSUED:          0  USEFUL:          0  USELESS:          0
PSCL2 USEFUL LOAD PREFETCHES:          0 PREFETCH ISSUED TO LOWER LEVEL:          0  ACCURACY: -nan
PSCL2 TIMELY PREFETCHES:          0 LATE PREFETCHES: 0 DROPPED PREFETCHES: 0
PSCL2 PREFETCHES SAME FILL-ORIGIN LEVEL: 0 DIFFERENT FILL-ORIGIN LEVEL: 0

LLC TOTAL     ACCESS:    3430981  HIT:    1995967  MISS:    1435014  HIT %:    58.1748  MISS %:    41.8252   MPKI: 14.3501
LLC LOAD      ACCESS:    1477484  HIT:    1021618  MISS:     455866  HIT %:    69.1458  MISS %:    30.8542   MPKI: 4.55866
LLC RFO       ACCESS:      99748  HIT:      96984  MISS:       2764  HIT %:     97.229  MISS %:    2.77098   MPKI: 0.02764
LLC PREFETCH  ACCESS:    1669533  HIT:     708093  MISS:     961440  HIT %:    42.4126  MISS %:    57.5874   MPKI: 9.6144
LLC WRITEBACK ACCESS:     173717  HIT:     162182  MISS:      11535  HIT %:    93.3599  MISS %:    6.64011   MPKI: 0.11535
LLC LOAD TRANSLATION ACCESS:      10499  HIT:       7090  MISS:       3409  HIT %:    67.5302  MISS %:    32.4698   MPKI: 0.03409
LLC PREFETCH  REQUESTED:          0  ISSUED:          0  USEFUL:      89692  USELESS:     871693
LLC USEFUL LOAD PREFETCHES:      89692 PREFETCH ISSUED TO LOWER LEVEL:     961440  ACCURACY: 9.32892
LLC TIMELY PREFETCHES:      89692 LATE PREFETCHES: 0 DROPPED PREFETCHES: 0
LLC PREFETCHES SAME FILL-ORIGIN LEVEL: 0 DIFFERENT FILL-ORIGIN LEVEL: 0
LLC AVERAGE MISS LATENCY: 168.5 cycles
LLC RQ	ACCESS:    1587735	FORWARD:          0	MERGED:          0	TO_CACHE:    1587731
LLC WQ	ACCESS:     173717	FORWARD:          5	MERGED:          0	TO_CACHE:     173717
LLC PQ	ACCESS:    1669534	FORWARD:          0	MERGED:          0	TO_CACHE:    1669533

LLC Dense regions hint to LLC: 0

RAW hits: 1544723
Loads Generated: 35122249
Loads sent to L1D: 33577526
Stores Generated: 11754604
Stores sent to L1D: 11754634
Major fault: 0 Minor fault: 20569
Allocated PAGES: 20569

stream: 
stream:times selected: 6701427
stream:pref_filled: 2266710
stream:pref_useful: 147388
stream:pref_late: 19221
stream:misses: 474057
stream:misses_by_poll: 0

CS: 
CS:times selected: 1098708
CS:pref_filled: 857997
CS:pref_useful: 850356
CS:pref_late: 125173
CS:misses: 185040
CS:misses_by_poll: 1617

CPLX: 
CPLX:times selected: 5558211
CPLX:pref_filled: 137755
CPLX:pref_useful: 23578
CPLX:pref_late: 1070
CPLX:misses: 1844836
CPLX:misses_by_poll: 110

NL_L1: 
NL:times selected: 42026
NL:pref_filled: 15589
NL:pref_useful: 1145
NL:pref_late: 102
NL:misses: 15660
NL:misses_by_poll: 1

total selections: 13400372
total_filled: 1812905
total_useful: 588406
total_late: 153484
total_polluted: 1728
total_misses_after_warmup: 1332776
conflicts: 1017
Degree Incremented Times: 46247
Degree Decremented Times: 176626

L1 IP Table Write Accesses: 5206905
L1 IP Table Read Accesses: 5205888
L1 RST Write Accesses: 3020921
L1 RST Read Accesses: 6041842
L1 CSPT Write Accesses: 3020921
L1 CSPT Read Accesses: 5370411
L1 RR Filter Tag Write Accesses: 2279808
L1 RR Filter Tag Read Accesses: 146411477
L1 IP Table Tag Write Accesses: 5262396
L1 IP Table Tag Read Accesses: 5262396
L1 RST Tag Write Accesses: 0
L1 RST Tag Read Accesses: 27599046
L1 RR Filter Write Accesses: 0
L1 RR Filter Read Accesses: 5135573
test: 3064628
L2 IP Table Read Accesses: 5830628
L2 IP Table Write Accesses: 4590434
L2 IP Table Tag Read Accesses: 2915314
L2 IP Table Tag Write Accesses: 2915314

DRAM Statistics
 CHANNEL 0
 RQ ROW_BUFFER_HIT:     330262  ROW_BUFFER_MISS:    1093202
 DBUS_CONGESTED:        296
 WQ ROW_BUFFER_HIT:       4356  ROW_BUFFER_MISS:      24279  FULL:          0

 AVG_CONGESTED_CYCLE: 4
 All warmup complete: 2
Channel 0 Bank busy for read cycles: 0
Channel 0 Bank busy for write cycles: 0
Channel 0
Rank 0
0banks busy for read cycles: 275721901
0banks busy for write cycles: 20832
1banks busy for read cycles: 25382881
1banks busy for write cycles: 4085331
2banks busy for read cycles: 18511999
2banks busy for write cycles: 796947
3banks busy for read cycles: 12034588
3banks busy for write cycles: 193745
4banks busy for read cycles: 8159891
4banks busy for write cycles: 66645
5banks busy for read cycles: 4747913
5banks busy for write cycles: 31644
6banks busy for read cycles: 2392032
6banks busy for write cycles: 12796
7banks busy for read cycles: 1064878
7banks busy for write cycles: 9575
8banks busy for read cycles: 475037
8banks busy for write cycles: 3217

CPU 0 Branch Prediction Accuracy: 93.0034% MPKI: 17.3454 Average ROB Occupancy at Mispredict: 19.5661
Branch types
NOT_BRANCH: 75208488 75.2085%
BRANCH_DIRECT_JUMP: 2599450 2.59945%
BRANCH_INDIRECT: 0 0%
BRANCH_CONDITIONAL: 16688242 16.6882%
BRANCH_DIRECT_CALL: 2602035 2.60203%
BRANCH_INDIRECT_CALL: 149686 0.149686%
BRANCH_RETURN: 2751721 2.75172%
BRANCH_OTHER: 0 0%

DRAM PAGES: 1048576
Allocated PAGES: 20569
