
*** ChampSim Multicore Out-of-Order Simulator ***

Warmup Instructions: 50000000
Simulation Instructions: 100000000
Number of CPUs: 1
LLC sets: 2048
LLC ways: 16
Off-chip DRAM Size: 4096 MB Channels: 1 Width: 64-bit Data Rate: 6400 MT/s
CPU 0 runs ../SPEC2017//605.mcf_s-1152B.champsimtrace.xz
.xz
NUM_OF_IPS_IN_CRITICAL_IP_TRAINING: 64
NUM_OF_CRITICAL_IP_TRAINING_TABLE_WAYS: 2
NUM_OF_CRITICAL_IP_TRAINING_TABLE_SETS: 32
WOBBLY_CRITICAL_IP_CACHE_SETS: 32
WOBBLY_CRITICAL_IP_CACHE_WAYS: 4
BTB has LRU replacement policy
ITLB has LRU replacement policy
DTLB has LRU replacement policy
STLB has LRU replacement policy
L1I has LRU replacement policy
L1D has LRU replacement policy
Bingo PHT WAYS: 16 and PHT_SIZE: 16384
Initialize SRRIP state for L2C
Initialize DRRIP state for LLC
Heartbeat CPU 0 instructions: 10000001 cycles: 3330007 heartbeat IPC: 3.003 cumulative IPC: 3.003 (Simulation time: 0 hr 6 min 37 sec) 
Heartbeat CPU 0 instructions: 20000000 cycles: 6661087 heartbeat IPC: 3.00203 cumulative IPC: 3.00251 (Simulation time: 0 hr 12 min 40 sec) 
Heartbeat CPU 0 instructions: 30000001 cycles: 9989804 heartbeat IPC: 3.00416 cumulative IPC: 3.00306 (Simulation time: 0 hr 18 min 3 sec) 
Heartbeat CPU 0 instructions: 40000001 cycles: 13321223 heartbeat IPC: 3.00172 cumulative IPC: 3.00273 (Simulation time: 0 hr 22 min 40 sec) 
Heartbeat CPU 0 instructions: 50000001 cycles: 16655737 heartbeat IPC: 2.99894 cumulative IPC: 3.00197 (Simulation time: 0 hr 26 min 56 sec) 

Warmup complete CPU 0 instructions: 50000001 cycles: 16655737 (Simulation time: 0 hr 26 min 56 sec) 

Heartbeat CPU 0 instructions: 60000001 cycles: 51442369 heartbeat IPC: 0.287467 cumulative IPC: 0.287467 (Simulation time: 0 hr 32 min 31 sec) 
Heartbeat CPU 0 instructions: 70000001 cycles: 86317075 heartbeat IPC: 0.286741 cumulative IPC: 0.287103 (Simulation time: 0 hr 37 min 44 sec) 
Heartbeat CPU 0 instructions: 80000001 cycles: 120752241 heartbeat IPC: 0.290401 cumulative IPC: 0.288194 (Simulation time: 0 hr 42 min 16 sec) 
Heartbeat CPU 0 instructions: 90000003 cycles: 155349341 heartbeat IPC: 0.289042 cumulative IPC: 0.288406 (Simulation time: 0 hr 46 min 5 sec) 
Heartbeat CPU 0 instructions: 100000001 cycles: 190021256 heartbeat IPC: 0.288418 cumulative IPC: 0.288408 (Simulation time: 0 hr 49 min 45 sec) 
Heartbeat CPU 0 instructions: 110000000 cycles: 224630603 heartbeat IPC: 0.288939 cumulative IPC: 0.288496 (Simulation time: 0 hr 55 min 5 sec) 
Heartbeat CPU 0 instructions: 120000002 cycles: 259352171 heartbeat IPC: 0.288005 cumulative IPC: 0.288426 (Simulation time: 1 hr 0 min 13 sec) 
Heartbeat CPU 0 instructions: 130000002 cycles: 294210261 heartbeat IPC: 0.286877 cumulative IPC: 0.288232 (Simulation time: 1 hr 4 min 9 sec) 
Heartbeat CPU 0 instructions: 140000003 cycles: 329256437 heartbeat IPC: 0.285338 cumulative IPC: 0.287907 (Simulation time: 1 hr 7 min 47 sec) 
Heartbeat CPU 0 instructions: 150000001 cycles: 364583236 heartbeat IPC: 0.283071 cumulative IPC: 0.287416 (Simulation time: 1 hr 11 min 9 sec) 
Finished CPU 0 instructions: 100000000 cycles: 347927499 cumulative IPC: 0.287416 (Simulation time: 1 hr 11 min 9 sec) 

ChampSim completed all CPUs

Region of Interest Statistics

CPU 0 cumulative IPC: 0.287416 instructions: 100000000 cycles: 347927499

CPU 0 Average Load ROB stall cycles: 8.0841e+07
CPU 0 Fraction of times ROB stalled by Loads: 43.2038
CPU 0 Percentage of Load stall cycles in Total stall cycles: 7.80043e+08
Issued all: 57910034
Issued LT all: 45629967
rob_not_full_when_issued_lt_all: 42042878
Issued LT one: 35573870
rob_not_full_when_issued_lt_one: 32539185
 Total stall cycles: 299747206
 Total load stall cycles: 2338158210401799
CPU 0 NUM of IPS identified critical: 0
CPU 0 Num of Load IPs stalling ROB: 260
Threshold modification factor: 0
Max PIST entries: 64
Min PIST entries: 0
Avg PIST entries: 40.12
Trouble in retire width: 0.974239
MaC = Marked as critical.
lt_50_percent_before_Mac: 0
gt_90_percent_before_Mac: 0
gt_75_percent_before_Mac: 0
gt_50_percent_before_Mac: 0
stall_proportion_bin_same_before_after: 0
stall_proportion_bin_lower_before_after: 0
stall_proportion_bin_upper_before_after: 0
average_stall_proportion_before: -nan
average_stall_proportion_after: -nan
Critical IP stalls, total frequency: 0
Non-critical IP stalls, total frequency: 12495806
Total Freq all stalling IPs: 12495806
stat_90_percent_critical_ip_stalls_freq: 11281499
stat_90_percent_non_critical_ip_stalls_freq: 1214307
Critical_IP_ROB_Stalls_Bucket_0: 0
Non-critical_IP_ROB_Stalls_Bucket_0: 10254385
Critical_IP_ROB_Stalls_Bucket_1: 0
Non-critical_IP_ROB_Stalls_Bucket_1: 1260734
Critical_IP_ROB_Stalls_Bucket_2: 0
Non-critical_IP_ROB_Stalls_Bucket_2: 413772
Critical_IP_ROB_Stalls_Bucket_3: 0
Non-critical_IP_ROB_Stalls_Bucket_3: 179045
Critical_IP_ROB_Stalls_Bucket_4: 0
Non-critical_IP_ROB_Stalls_Bucket_4: 113424
Critical_IP_ROB_Stalls_Bucket_5: 0
Non-critical_IP_ROB_Stalls_Bucket_5: 74664
Critical_IP_ROB_Stalls_Bucket_6: 0
Non-critical_IP_ROB_Stalls_Bucket_6: 199782
0 => IPs accounting for >50 percent of stalls, 1 => 55, 2 => 60, 3 => 65 and so on till 90.
percent50: 51.1549 num IPs:  6
percent55: 55.7496 num IPs: 7
percent60: 60.3359 num IPs: 8
percent65: 67.1598 num IPs: 10
percent70: 70.1341 num IPs: 11
percent75: 76.783 num IPs: 14
percent80: 80.3365 num IPs: 16
percent85: 86.0662 num IPs: 20
percent90: 90.2823 num IPs: 28
Critical_ROB_Stalls_Percent_0_Bucket_0: 5191543
Non-critical_ROB_Stalls_Percent_0_Bucket_0: 5062842
Critical_ROB_Stalls_Percent_0_Bucket_1: 675112
Non-critical_ROB_Stalls_Percent_0_Bucket_1: 585622
Critical_ROB_Stalls_Percent_0_Bucket_2: 256829
Non-critical_ROB_Stalls_Percent_0_Bucket_2: 156943
Critical_ROB_Stalls_Percent_0_Bucket_3: 79794
Non-critical_ROB_Stalls_Percent_0_Bucket_3: 99251
Critical_ROB_Stalls_Percent_0_Bucket_4: 60261
Non-critical_ROB_Stalls_Percent_0_Bucket_4: 53163
Critical_ROB_Stalls_Percent_0_Bucket_5: 34881
Non-critical_ROB_Stalls_Percent_0_Bucket_5: 39783
Critical_ROB_Stalls_Percent_0_Bucket_6: 93795
Non-critical_ROB_Stalls_Percent_0_Bucket_6: 105987
Critical_ROB_Stalls_Percent_1_Bucket_0: 5565721
Non-critical_ROB_Stalls_Percent_1_Bucket_0: 4688664
Critical_ROB_Stalls_Percent_1_Bucket_1: 804775
Non-critical_ROB_Stalls_Percent_1_Bucket_1: 455959
Critical_ROB_Stalls_Percent_1_Bucket_2: 290551
Non-critical_ROB_Stalls_Percent_1_Bucket_2: 123221
Critical_ROB_Stalls_Percent_1_Bucket_3: 99590
Non-critical_ROB_Stalls_Percent_1_Bucket_3: 79455
Critical_ROB_Stalls_Percent_1_Bucket_4: 68317
Non-critical_ROB_Stalls_Percent_1_Bucket_4: 45107
Critical_ROB_Stalls_Percent_1_Bucket_5: 39611
Non-critical_ROB_Stalls_Percent_1_Bucket_5: 35053
Critical_ROB_Stalls_Percent_1_Bucket_6: 97795
Non-critical_ROB_Stalls_Percent_1_Bucket_6: 101987
Critical_ROB_Stalls_Percent_2_Bucket_0: 6079686
Non-critical_ROB_Stalls_Percent_2_Bucket_0: 4174699
Critical_ROB_Stalls_Percent_2_Bucket_1: 832976
Non-critical_ROB_Stalls_Percent_2_Bucket_1: 427758
Critical_ROB_Stalls_Percent_2_Bucket_2: 299430
Non-critical_ROB_Stalls_Percent_2_Bucket_2: 114342
Critical_ROB_Stalls_Percent_2_Bucket_3: 108468
Non-critical_ROB_Stalls_Percent_2_Bucket_3: 70577
Critical_ROB_Stalls_Percent_2_Bucket_4: 72177
Non-critical_ROB_Stalls_Percent_2_Bucket_4: 41247
Critical_ROB_Stalls_Percent_2_Bucket_5: 43716
Non-critical_ROB_Stalls_Percent_2_Bucket_5: 30948
Critical_ROB_Stalls_Percent_2_Bucket_6: 103003
Non-critical_ROB_Stalls_Percent_2_Bucket_6: 96779
Critical_ROB_Stalls_Percent_3_Bucket_0: 6852482
Non-critical_ROB_Stalls_Percent_3_Bucket_0: 3401903
Critical_ROB_Stalls_Percent_3_Bucket_1: 873695
Non-critical_ROB_Stalls_Percent_3_Bucket_1: 387039
Critical_ROB_Stalls_Percent_3_Bucket_2: 313240
Non-critical_ROB_Stalls_Percent_3_Bucket_2: 100532
Critical_ROB_Stalls_Percent_3_Bucket_3: 117880
Non-critical_ROB_Stalls_Percent_3_Bucket_3: 61165
Critical_ROB_Stalls_Percent_3_Bucket_4: 76387
Non-critical_ROB_Stalls_Percent_3_Bucket_4: 37037
Critical_ROB_Stalls_Percent_3_Bucket_5: 46623
Non-critical_ROB_Stalls_Percent_3_Bucket_5: 28041
Critical_ROB_Stalls_Percent_3_Bucket_6: 111850
Non-critical_ROB_Stalls_Percent_3_Bucket_6: 87932
Critical_ROB_Stalls_Percent_4_Bucket_0: 7195920
Non-critical_ROB_Stalls_Percent_4_Bucket_0: 3058465
Critical_ROB_Stalls_Percent_4_Bucket_1: 896129
Non-critical_ROB_Stalls_Percent_4_Bucket_1: 364605
Critical_ROB_Stalls_Percent_4_Bucket_2: 315599
Non-critical_ROB_Stalls_Percent_4_Bucket_2: 98173
Critical_ROB_Stalls_Percent_4_Bucket_3: 119060
Non-critical_ROB_Stalls_Percent_4_Bucket_3: 59985
Critical_ROB_Stalls_Percent_4_Bucket_4: 76918
Non-critical_ROB_Stalls_Percent_4_Bucket_4: 36506
Critical_ROB_Stalls_Percent_4_Bucket_5: 47042
Non-critical_ROB_Stalls_Percent_4_Bucket_5: 27622
Critical_ROB_Stalls_Percent_4_Bucket_6: 113150
Non-critical_ROB_Stalls_Percent_4_Bucket_6: 86632
Critical_ROB_Stalls_Percent_5_Bucket_0: 7963646
Non-critical_ROB_Stalls_Percent_5_Bucket_0: 2290739
Critical_ROB_Stalls_Percent_5_Bucket_1: 932237
Non-critical_ROB_Stalls_Percent_5_Bucket_1: 328497
Critical_ROB_Stalls_Percent_5_Bucket_2: 327276
Non-critical_ROB_Stalls_Percent_5_Bucket_2: 86496
Critical_ROB_Stalls_Percent_5_Bucket_3: 125234
Non-critical_ROB_Stalls_Percent_5_Bucket_3: 53811
Critical_ROB_Stalls_Percent_5_Bucket_4: 79652
Non-critical_ROB_Stalls_Percent_5_Bucket_4: 33772
Critical_ROB_Stalls_Percent_5_Bucket_5: 49582
Non-critical_ROB_Stalls_Percent_5_Bucket_5: 25082
Critical_ROB_Stalls_Percent_5_Bucket_6: 117021
Non-critical_ROB_Stalls_Percent_5_Bucket_6: 82761
Critical_ROB_Stalls_Percent_6_Bucket_0: 8405128
Non-critical_ROB_Stalls_Percent_6_Bucket_0: 1849257
Critical_ROB_Stalls_Percent_6_Bucket_1: 934697
Non-critical_ROB_Stalls_Percent_6_Bucket_1: 326037
Critical_ROB_Stalls_Percent_6_Bucket_2: 327319
Non-critical_ROB_Stalls_Percent_6_Bucket_2: 86453
Critical_ROB_Stalls_Percent_6_Bucket_3: 125262
Non-critical_ROB_Stalls_Percent_6_Bucket_3: 53783
Critical_ROB_Stalls_Percent_6_Bucket_4: 79673
Non-critical_ROB_Stalls_Percent_6_Bucket_4: 33751
Critical_ROB_Stalls_Percent_6_Bucket_5: 49593
Non-critical_ROB_Stalls_Percent_6_Bucket_5: 25071
Critical_ROB_Stalls_Percent_6_Bucket_6: 117023
Non-critical_ROB_Stalls_Percent_6_Bucket_6: 82759
Critical_ROB_Stalls_Percent_7_Bucket_0: 9097430
Non-critical_ROB_Stalls_Percent_7_Bucket_0: 1156955
Critical_ROB_Stalls_Percent_7_Bucket_1: 945880
Non-critical_ROB_Stalls_Percent_7_Bucket_1: 314854
Critical_ROB_Stalls_Percent_7_Bucket_2: 330342
Non-critical_ROB_Stalls_Percent_7_Bucket_2: 83430
Critical_ROB_Stalls_Percent_7_Bucket_3: 127282
Non-critical_ROB_Stalls_Percent_7_Bucket_3: 51763
Critical_ROB_Stalls_Percent_7_Bucket_4: 80994
Non-critical_ROB_Stalls_Percent_7_Bucket_4: 32430
Critical_ROB_Stalls_Percent_7_Bucket_5: 50807
Non-critical_ROB_Stalls_Percent_7_Bucket_5: 23857
Critical_ROB_Stalls_Percent_7_Bucket_6: 121927
Non-critical_ROB_Stalls_Percent_7_Bucket_6: 77855
Critical_ROB_Stalls_Percent_8_Bucket_0: 9435175
Non-critical_ROB_Stalls_Percent_8_Bucket_0: 819210
Critical_ROB_Stalls_Percent_8_Bucket_1: 1077973
Non-critical_ROB_Stalls_Percent_8_Bucket_1: 182761
Critical_ROB_Stalls_Percent_8_Bucket_2: 361374
Non-critical_ROB_Stalls_Percent_8_Bucket_2: 52398
Critical_ROB_Stalls_Percent_8_Bucket_3: 139685
Non-critical_ROB_Stalls_Percent_8_Bucket_3: 39360
Critical_ROB_Stalls_Percent_8_Bucket_4: 85554
Non-critical_ROB_Stalls_Percent_8_Bucket_4: 27870
Critical_ROB_Stalls_Percent_8_Bucket_5: 53225
Non-critical_ROB_Stalls_Percent_8_Bucket_5: 21439
Critical_ROB_Stalls_Percent_8_Bucket_6: 128513
Non-critical_ROB_Stalls_Percent_8_Bucket_6: 71269
Average ROB occupancy Load Stall Begin: 32.6101
Average ROB occupancy Load Stall End: 37.1451
Min ROB occupancy Load Stall Begin: 1
Max ROB occupancy Load Stall Begin: 352
Min ROB occupancy Load Stall End: 1
Max ROB occupancy Load Stall End: 352
Average ROB occupancy Critical Load Stall Begin: -nan
Average ROB occupancy Critical Load Stall End: -nan
Min ROB occupancy Critical Load Stall Begin: 400
Max ROB occupancy Critical Load Stall Begin: 0
Min ROB occupancy Critical Load Stall End: 400
Max ROB occupancy Critical Load Stall End: 0
 ROB Load Stall Begin Bucket Count 0: 10572597
 ROB Load Stall End Bucket Count 0: 10254385
 ROB Critical Load Stall Begin Bucket Count 0: 0
 ROB Critical Load Stall End Bucket Count 0: 0
 ROB Load Stall Begin Bucket Count 1: 1083273
 ROB Load Stall End Bucket Count 1: 1260734
 ROB Critical Load Stall Begin Bucket Count 1: 0
 ROB Critical Load Stall End Bucket Count 1: 0
 ROB Load Stall Begin Bucket Count 2: 323652
 ROB Load Stall End Bucket Count 2: 413772
 ROB Critical Load Stall Begin Bucket Count 2: 0
 ROB Critical Load Stall End Bucket Count 2: 0
 ROB Load Stall Begin Bucket Count 3: 158158
 ROB Load Stall End Bucket Count 3: 179045
 ROB Critical Load Stall Begin Bucket Count 3: 0
 ROB Critical Load Stall End Bucket Count 3: 0
 ROB Load Stall Begin Bucket Count 4: 99958
 ROB Load Stall End Bucket Count 4: 113424
 ROB Critical Load Stall Begin Bucket Count 4: 0
 ROB Critical Load Stall End Bucket Count 4: 0
 ROB Load Stall Begin Bucket Count 5: 71238
 ROB Load Stall End Bucket Count 5: 74664
 ROB Critical Load Stall Begin Bucket Count 5: 0
 ROB Critical Load Stall End Bucket Count 5: 0
 ROB Load Stall Begin Bucket Count 6: 186930
 ROB Load Stall End Bucket Count 6: 199782
 ROB Critical Load Stall Begin Bucket Count 6: 0
 ROB Critical Load Stall End Bucket Count 6: 0
PIST Tag Read Accesses: 810220
PIST Read Accesses: 405110
PIST Tag Write Accesses: 810220
PIST Write Accesses: 405110
Criticality detector called times: 3124671
Max global_stall_cycles_count: 1092844
Threshold Modified: 0 times, factor: 0
Sturdy critical IP cache stats: 
 Unused entries: 0
CIC Tag Read Accesses: 0
CIC Read Accesses: 0
CIC Tag Write Accesses: 0
CIC Write Accesses: 0
Wobbly critical IP cache stats: 
 Unused entries: 103
CIC Tag Read Accesses: 342904238
CIC Read Accesses: 0
CIC Tag Write Accesses: 2359126
CIC Write Accesses: 0
ITLB TOTAL     ACCESS:   17475264  HIT:   17475264  MISS:          0  HIT %:        100  MISS %:          0   MPKI: 0
ITLB LOAD TRANSLATION ACCESS:   17475264  HIT:   17475264  MISS:          0  HIT %:        100  MISS %:          0   MPKI: 0
ITLB PREFETCH  REQUESTED:          0  ISSUED:          0  USEFUL:          0  USELESS:          0
ITLB USEFUL LOAD PREFETCHES:          0 PREFETCH ISSUED TO LOWER LEVEL:          0  ACCURACY: -nan
ITLB TIMELY PREFETCHES:          0 LATE PREFETCHES: 0 DROPPED PREFETCHES: 0
ITLB PREFETCHES SAME FILL-ORIGIN LEVEL: 0 DIFFERENT FILL-ORIGIN LEVEL: 0
ITLB AVERAGE MISS LATENCY: -nan cycles
ITLB RQ	ACCESS:   18269979	FORWARD:          0	MERGED:     794715	TO_CACHE:   17475264

DTLB TOTAL     ACCESS:   28855459  HIT:   25913350  MISS:    2942109  HIT %:     89.804  MISS %:     10.196   MPKI: 29.4211
DTLB LOAD TRANSLATION ACCESS:   28855459  HIT:   25913350  MISS:    2942109  HIT %:     89.804  MISS %:     10.196   MPKI: 29.4211
DTLB PREFETCH  REQUESTED:          0  ISSUED:          0  USEFUL:          0  USELESS:          0
DTLB USEFUL LOAD PREFETCHES:          0 PREFETCH ISSUED TO LOWER LEVEL:          0  ACCURACY: -nan
DTLB TIMELY PREFETCHES:          0 LATE PREFETCHES: 0 DROPPED PREFETCHES: 0
DTLB PREFETCHES SAME FILL-ORIGIN LEVEL: 0 DIFFERENT FILL-ORIGIN LEVEL: 0
DTLB AVERAGE MISS LATENCY: 10.8117 cycles
DTLB RQ	ACCESS:   35123312	FORWARD:          0	MERGED:    6062542	TO_CACHE:   29060770

STLB TOTAL     ACCESS:    2942109  HIT:    2903863  MISS:      38246  HIT %:       98.7  MISS %:    1.29995   MPKI: 0.38246
STLB LOAD TRANSLATION ACCESS:    2942109  HIT:    2903863  MISS:      38246  HIT %:       98.7  MISS %:    1.29995   MPKI: 0.38246
STLB PREFETCH  REQUESTED:          0  ISSUED:          0  USEFUL:          0  USELESS:          0
STLB USEFUL LOAD PREFETCHES:          0 PREFETCH ISSUED TO LOWER LEVEL:          0  ACCURACY: -nan
STLB TIMELY PREFETCHES:          0 LATE PREFETCHES: 0 DROPPED PREFETCHES: 0
STLB PREFETCHES SAME FILL-ORIGIN LEVEL: 0 DIFFERENT FILL-ORIGIN LEVEL: 0
STLB AVERAGE MISS LATENCY: 120.124 cycles
STLB RQ	ACCESS:    2942109	FORWARD:          0	MERGED:          0	TO_CACHE:    2942109

STLB Hit, L1D data hit: 0
STLB Hit, L2C data hit: 0
STLB Hit, LLC data hit: 0
STLB Hit, LLC data miss: 0
STLB STLB hints to L2: 0
L1D TOTAL     ACCESS:   34486495  HIT:   28756657  MISS:    5729838  HIT %:    83.3853  MISS %:    16.6147   MPKI: 57.2984
L1D LOAD      ACCESS:   25187790  HIT:   19794190  MISS:    5393600  HIT %:    78.5865  MISS %:    21.4135   MPKI: 53.936
L1D RFO       ACCESS:    9298705  HIT:    8962467  MISS:     336238  HIT %:     96.384  MISS %:    3.61597   MPKI: 3.36238
L1D PREFETCH  REQUESTED:          0  ISSUED:          0  USEFUL:          0  USELESS:          0
L1D USEFUL LOAD PREFETCHES:          0 PREFETCH ISSUED TO LOWER LEVEL:          0  ACCURACY: -nan
L1D TIMELY PREFETCHES:          0 LATE PREFETCHES: 0 DROPPED PREFETCHES: 0
L1D PREFETCHES SAME FILL-ORIGIN LEVEL: 0 DIFFERENT FILL-ORIGIN LEVEL: 0
L1D AVERAGE MISS LATENCY: 45.4017 cycles
L1D RQ	ACCESS:   34108768	FORWARD:          0	MERGED:    7886885	TO_CACHE:   25248326
L1D WQ	ACCESS:    9921850	FORWARD:     973557	MERGED:      46864	TO_CACHE:    9874986

L1D UNIQUE REGIONS ACCESSED: 0
L1D REGIONS CONFLICTS: 0
L1D Cross Page Prefetch Requests: 0
L1D Same Page Prefetch Requests: 0
L1D ROI Sum of L1D PQ occupancy: 0
L1D PREFETCHES PUSHED FROM L2C: 0
L1I TOTAL     ACCESS:   18269979  HIT:   18269979  MISS:          0  HIT %:        100  MISS %:          0   MPKI: 0
L1I LOAD      ACCESS:   18269979  HIT:   18269979  MISS:          0  HIT %:        100  MISS %:          0   MPKI: 0
L1I PREFETCH  REQUESTED:          0  ISSUED:          0  USEFUL:          0  USELESS:          0
L1I USEFUL LOAD PREFETCHES:          0 PREFETCH ISSUED TO LOWER LEVEL:          0  ACCURACY: -nan
L1I TIMELY PREFETCHES:          0 LATE PREFETCHES: 0 DROPPED PREFETCHES: 0
L1I PREFETCHES SAME FILL-ORIGIN LEVEL: 0 DIFFERENT FILL-ORIGIN LEVEL: 0
L1I AVERAGE MISS LATENCY: -nan cycles
L1I RQ	ACCESS:   28570951	FORWARD:          0	MERGED:   10300972	TO_CACHE:   18269979

BTB TOTAL     ACCESS:   24144380  HIT:   23206832  MISS:     937548  HIT %:    96.1169  MISS %:    3.88309   MPKI: 9.37548
BTB BRANCH_DIRECT_JUMP	ACCESS:    2725127  HIT:    2725091  MISS:         36
BTB BRANCH_INDIRECT	ACCESS:          0  HIT:          0  MISS:          0
BTB BRANCH_CONDITIONAL	ACCESS:   17002725  HIT:   17002650  MISS:         75
BTB BRANCH_DIRECT_CALL	ACCESS:    2072101  HIT:    2072083  MISS:         18
BTB BRANCH_INDIRECT_CALL	ACCESS:     136160  HIT:     136152  MISS:          8
BTB BRANCH_RETURN	ACCESS:    2208267  HIT:    1270856  MISS:     937411
BTB BRANCH_OTHER ACCESS:          0  HIT:          0  MISS:          0

L2C TOTAL     ACCESS:    9252264  HIT:    3913660  MISS:    5338604  HIT %:    42.2995  MISS %:    57.7005   MPKI: 53.386
L2C LOAD      ACCESS:    5393580  HIT:    2698803  MISS:    2694777  HIT %:    50.0373  MISS %:    49.9627   MPKI: 26.9478
L2C DATA LOAD MPKI: 26.9478
L2C INSTRUCTION LOAD MPKI: 0
L2C RFO       ACCESS:     336236  HIT:     251740  MISS:      84496  HIT %:      74.87  MISS %:      25.13   MPKI: 0.84496
L2C PREFETCH  ACCESS:    3000553  HIT:     457536  MISS:    2543017  HIT %:    15.2484  MISS %:    84.7516   MPKI: 25.4302
L2C DATA PREFETCH MPKI: 25.4302
L2C INSTRUCTION PREFETCH MPKI: 0
L2C WRITEBACK ACCESS:     483454  HIT:     481124  MISS:       2330  HIT %:    99.5181  MISS %:   0.481949   MPKI: 0.0233
L2C LOAD TRANSLATION ACCESS:      38441  HIT:      24457  MISS:      13984  HIT %:    63.6222  MISS %:    36.3778   MPKI: 0.13984
L2C PREFETCH  REQUESTED:    3165870  ISSUED:    3165870  USEFUL:    1624025  USELESS:     918195
L2C USEFUL LOAD PREFETCHES:    1624025 PREFETCH ISSUED TO LOWER LEVEL:    2650609  ACCURACY: 61.2699
L2C TIMELY PREFETCHES:    1624025 LATE PREFETCHES: 107590 DROPPED PREFETCHES: 0
L2C PREFETCHES SAME FILL-ORIGIN LEVEL: 2650609 DIFFERENT FILL-ORIGIN LEVEL: 0
L2C AVERAGE MISS LATENCY: 102.9 cycles
L2C RQ	ACCESS:    5768279	FORWARD:          0	MERGED:          0	TO_CACHE:    5768257
L2C WQ	ACCESS:     483454	FORWARD:         24	MERGED:          0	TO_CACHE:     483454
L2C PQ	ACCESS:    3165870	FORWARD:          0	MERGED:          1	TO_CACHE:    3165867

L2C Instructions Evicting Data 0
L2C Translations Evicting Data 13962
L2C Data Evicting Data 5308325
L2C Instructions Evicting Instructions 0
L2C Translations Evicting Instructions 0
L2C Data Evicting Instructions 0
L2C Instructions Evicting Translations 0
L2C Translations Evicting Translations 22
L2C Data Evicting Translations 13965
L2C Dense regions hint from L2: 0
PSCL5 TOTAL     ACCESS:      38246  HIT:      38246  MISS:          0  HIT %:        100  MISS %:          0   MPKI: 0
PSCL5 LOAD TRANSLATION ACCESS:      38246  HIT:      38246  MISS:          0  HIT %:        100  MISS %:          0   MPKI: 0
PSCL5 PREFETCH  REQUESTED:          0  ISSUED:          0  USEFUL:          0  USELESS:          0
PSCL5 USEFUL LOAD PREFETCHES:          0 PREFETCH ISSUED TO LOWER LEVEL:          0  ACCURACY: -nan
PSCL5 TIMELY PREFETCHES:          0 LATE PREFETCHES: 0 DROPPED PREFETCHES: 0
PSCL5 PREFETCHES SAME FILL-ORIGIN LEVEL: 0 DIFFERENT FILL-ORIGIN LEVEL: 0

PSCL4 TOTAL     ACCESS:      38246  HIT:      38246  MISS:          0  HIT %:        100  MISS %:          0   MPKI: 0
PSCL4 LOAD TRANSLATION ACCESS:      38246  HIT:      38246  MISS:          0  HIT %:        100  MISS %:          0   MPKI: 0
PSCL4 PREFETCH  REQUESTED:          0  ISSUED:          0  USEFUL:          0  USELESS:          0
PSCL4 USEFUL LOAD PREFETCHES:          0 PREFETCH ISSUED TO LOWER LEVEL:          0  ACCURACY: -nan
PSCL4 TIMELY PREFETCHES:          0 LATE PREFETCHES: 0 DROPPED PREFETCHES: 0
PSCL4 PREFETCHES SAME FILL-ORIGIN LEVEL: 0 DIFFERENT FILL-ORIGIN LEVEL: 0

PSCL3 TOTAL     ACCESS:      38246  HIT:      38246  MISS:          0  HIT %:        100  MISS %:          0   MPKI: 0
PSCL3 LOAD TRANSLATION ACCESS:      38246  HIT:      38246  MISS:          0  HIT %:        100  MISS %:          0   MPKI: 0
PSCL3 PREFETCH  REQUESTED:          0  ISSUED:          0  USEFUL:          0  USELESS:          0
PSCL3 USEFUL LOAD PREFETCHES:          0 PREFETCH ISSUED TO LOWER LEVEL:          0  ACCURACY: -nan
PSCL3 TIMELY PREFETCHES:          0 LATE PREFETCHES: 0 DROPPED PREFETCHES: 0
PSCL3 PREFETCHES SAME FILL-ORIGIN LEVEL: 0 DIFFERENT FILL-ORIGIN LEVEL: 0

PSCL2 TOTAL     ACCESS:      38246  HIT:      37852  MISS:        394  HIT %:    98.9698  MISS %:    1.03017   MPKI: 0.00394
PSCL2 LOAD TRANSLATION ACCESS:      38246  HIT:      37852  MISS:        394  HIT %:    98.9698  MISS %:    1.03017   MPKI: 0.00394
PSCL2 PREFETCH  REQUESTED:          0  ISSUED:          0  USEFUL:          0  USELESS:          0
PSCL2 USEFUL LOAD PREFETCHES:          0 PREFETCH ISSUED TO LOWER LEVEL:          0  ACCURACY: -nan
PSCL2 TIMELY PREFETCHES:          0 LATE PREFETCHES: 0 DROPPED PREFETCHES: 0
PSCL2 PREFETCHES SAME FILL-ORIGIN LEVEL: 0 DIFFERENT FILL-ORIGIN LEVEL: 0

LLC TOTAL     ACCESS:    5527018  HIT:    3247529  MISS:    2279489  HIT %:    58.7573  MISS %:    41.2427   MPKI: 22.7949
LLC LOAD      ACCESS:    2587186  HIT:    2147434  MISS:     439752  HIT %:    83.0027  MISS %:    16.9973   MPKI: 4.39752
LLC RFO       ACCESS:      84495  HIT:      82613  MISS:       1882  HIT %:    97.7726  MISS %:    2.22735   MPKI: 0.01882
LLC PREFETCH  ACCESS:    2650596  HIT:     825565  MISS:    1825031  HIT %:    31.1464  MISS %:    68.8536   MPKI: 18.2503
LLC WRITEBACK ACCESS:     190757  HIT:     183462  MISS:       7295  HIT %:    96.1758  MISS %:    3.82424   MPKI: 0.07295
LLC LOAD TRANSLATION ACCESS:      13984  HIT:       8455  MISS:       5529  HIT %:     60.462  MISS %:     39.538   MPKI: 0.05529
LLC PREFETCH  REQUESTED:          0  ISSUED:          0  USEFUL:      66792  USELESS:    1744292
LLC USEFUL LOAD PREFETCHES:      66792 PREFETCH ISSUED TO LOWER LEVEL:    1825033  ACCURACY: 3.65977
LLC TIMELY PREFETCHES:      66792 LATE PREFETCHES: 0 DROPPED PREFETCHES: 0
LLC PREFETCHES SAME FILL-ORIGIN LEVEL: 0 DIFFERENT FILL-ORIGIN LEVEL: 0
LLC AVERAGE MISS LATENCY: 172.328 cycles
LLC RQ	ACCESS:    2685667	FORWARD:          0	MERGED:          0	TO_CACHE:    2685665
LLC WQ	ACCESS:     190757	FORWARD:         13	MERGED:          0	TO_CACHE:     190757
LLC PQ	ACCESS:    2650609	FORWARD:          0	MERGED:          0	TO_CACHE:    2650598

LLC Dense regions hint to LLC: 0

RAW hits: 1309211
Loads Generated: 35417979
Loads sent to L1D: 34108768
Stores Generated: 9921850
Stores sent to L1D: 9921850
Major fault: 0 Minor fault: 38847
Allocated PAGES: 38847
[Bingo] PHT Access: 2547870
[Bingo] PHT Hit PC+Addr: 257214
[Bingo] PHT Hit PC+Offs: 2283355
[Bingo] PHT Miss: 7301
[Bingo] Prefetch PC+Addr: 0
[Bingo] Prefetch PC+Offs: 0
[Bingo] Useful PC+Addr: 0
[Bingo] Useful PC+Offs: 0
[Bingo] Useless PC+Addr: 0
[Bingo] Useless PC+Offs: 0
[Bingo] L1 Prefetch per Region: 0
[Bingo] L2 Prefetch per Region: 2.25604
[Bingo] L3 Prefetch per Region: 0
[Bingo] No Prefetch per Region: 29.744
[Bingo] Number of Voters Mean: 15.865
[Bingo] Number of Voters SD: 1.23638
PHT read accesses: 38442532
PHT write accesses: 306981
AT read accesses: 2346804
AT write accesses: 2454768
FT read accesses: 1029383
FT write accesses: 2547870
PS read accesses: 5244950
PS write accesses: 2540569
PHT tag read accesses: 46689976
PHT tag write accesses: 564195
AT tag read accesses: 173716977
AT tag write accesses: 2653879
FT tag read accesses: 214416531
FT tag write accesses: 3269651
PS tag read accesses: 161857025
PS tag write accesses: 7768525

DRAM Statistics
 CHANNEL 0
 RQ ROW_BUFFER_HIT:    1350144  ROW_BUFFER_MISS:     922047
 DBUS_CONGESTED:        114
 WQ ROW_BUFFER_HIT:       1623  ROW_BUFFER_MISS:      14357  FULL:          0

 AVG_CONGESTED_CYCLE: 4
 All warmup complete: 2
Channel 0 Bank busy for read cycles: 0
Channel 0 Bank busy for write cycles: 0
Channel 0
Rank 0
0banks busy for read cycles: 270273596
0banks busy for write cycles: 14162
1banks busy for read cycles: 35597519
1banks busy for write cycles: 2421992
2banks busy for read cycles: 14638113
2banks busy for write cycles: 256895
3banks busy for read cycles: 6292275
3banks busy for write cycles: 23147
4banks busy for read cycles: 3126623
4banks busy for write cycles: 4160
5banks busy for read cycles: 2042018
5banks busy for write cycles: 326
6banks busy for read cycles: 1772480
6banks busy for write cycles: 318
7banks busy for read cycles: 2947941
7banks busy for write cycles: 0
8banks busy for read cycles: 8515935
8banks busy for write cycles: 0

CPU 0 Branch Prediction Accuracy: 93.8692% MPKI: 15.451 Average ROB Occupancy at Mispredict: 23.7957
Branch types
NOT_BRANCH: 74797529 74.7975%
BRANCH_DIRECT_JUMP: 2725127 2.72513%
BRANCH_INDIRECT: 0 0%
BRANCH_CONDITIONAL: 18060505 18.0605%
BRANCH_DIRECT_CALL: 2072101 2.0721%
BRANCH_INDIRECT_CALL: 136160 0.13616%
BRANCH_RETURN: 2208267 2.20827%
BRANCH_OTHER: 0 0%

DRAM PAGES: 1048576
Allocated PAGES: 38847
