
*** ChampSim Multicore Out-of-Order Simulator ***

Warmup Instructions: 50000000
Simulation Instructions: 100000000
Number of CPUs: 1
LLC sets: 2048
LLC ways: 16
Off-chip DRAM Size: 4096 MB Channels: 1 Width: 64-bit Data Rate: 6400 MT/s
CPU 0 runs ../SPEC2017//605.mcf_s-994B.champsimtrace.xz
.xz
BTB has LRU replacement policy
ITLB has LRU replacement policy
DTLB has LRU replacement policy
STLB has LRU replacement policy
L1I has LRU replacement policy
IP Table Entries: 64
L1D has LRU replacement policy
Initialize SRRIP state for L2C
Initialize DRRIP state for LLC
Heartbeat CPU 0 instructions: 10000000 cycles: 3247027 heartbeat IPC: 3.07974 cumulative IPC: 3.07974 (Simulation time: 0 hr 3 min 43 sec) 
Heartbeat CPU 0 instructions: 20000003 cycles: 6529460 heartbeat IPC: 3.04652 cumulative IPC: 3.06304 (Simulation time: 0 hr 7 min 24 sec) 
Heartbeat CPU 0 instructions: 30000003 cycles: 9811957 heartbeat IPC: 3.04646 cumulative IPC: 3.05749 (Simulation time: 0 hr 11 min 4 sec) 
Heartbeat CPU 0 instructions: 40000002 cycles: 13073489 heartbeat IPC: 3.06604 cumulative IPC: 3.05963 (Simulation time: 0 hr 14 min 39 sec) 
Heartbeat CPU 0 instructions: 50000001 cycles: 16596067 heartbeat IPC: 2.83883 cumulative IPC: 3.01276 (Simulation time: 0 hr 18 min 15 sec) 

Warmup complete CPU 0 instructions: 50000001 cycles: 16596067 (Simulation time: 0 hr 18 min 15 sec) 

Heartbeat CPU 0 instructions: 60000000 cycles: 59760190 heartbeat IPC: 0.231674 cumulative IPC: 0.231674 (Simulation time: 0 hr 22 min 43 sec) 
Heartbeat CPU 0 instructions: 70000000 cycles: 109576121 heartbeat IPC: 0.200739 cumulative IPC: 0.2151 (Simulation time: 0 hr 27 min 31 sec) 
Heartbeat CPU 0 instructions: 80000001 cycles: 145253735 heartbeat IPC: 0.280288 cumulative IPC: 0.233177 (Simulation time: 0 hr 31 min 52 sec) 
Heartbeat CPU 0 instructions: 90000002 cycles: 179298554 heartbeat IPC: 0.29373 cumulative IPC: 0.245848 (Simulation time: 0 hr 36 min 7 sec) 
Heartbeat CPU 0 instructions: 100000001 cycles: 211991669 heartbeat IPC: 0.305875 cumulative IPC: 0.255891 (Simulation time: 0 hr 40 min 3 sec) 
Heartbeat CPU 0 instructions: 110000000 cycles: 265773747 heartbeat IPC: 0.185936 cumulative IPC: 0.240792 (Simulation time: 0 hr 44 min 34 sec) 
Heartbeat CPU 0 instructions: 120000000 cycles: 308400355 heartbeat IPC: 0.234595 cumulative IPC: 0.239887 (Simulation time: 0 hr 49 min 40 sec) 
Heartbeat CPU 0 instructions: 130000000 cycles: 347812235 heartbeat IPC: 0.253731 cumulative IPC: 0.241534 (Simulation time: 0 hr 58 min 23 sec) 
Heartbeat CPU 0 instructions: 140000000 cycles: 394254855 heartbeat IPC: 0.215319 cumulative IPC: 0.23831 (Simulation time: 1 hr 6 min 30 sec) 
Heartbeat CPU 0 instructions: 150000001 cycles: 458721369 heartbeat IPC: 0.155119 cumulative IPC: 0.22618 (Simulation time: 1 hr 15 min 36 sec) 
Finished CPU 0 instructions: 100000000 cycles: 442125302 cumulative IPC: 0.22618 (Simulation time: 1 hr 15 min 36 sec) 

ChampSim completed all CPUs

Region of Interest Statistics

CPU 0 cumulative IPC: 0.22618 instructions: 100000000 cycles: 442125302

CPU 0 Average Load ROB stall cycles: 1.00917e+08
CPU 0 Fraction of times ROB stalled by Loads: 44.215
CPU 0 Percentage of Load stall cycles in Total stall cycles: 7.41532e+08
Issued all: 52525435
Issued LT all: 40988591
rob_not_full_when_issued_lt_all: 39471313
Issued LT one: 29977907
rob_not_full_when_issued_lt_one: 28560631
FVP critical_dynamic_instances_0: 32279639
FVP unique_critical_ips_0: 100
 Total stall cycles: 405213939
 Total load stall cycles: 3004792646371500
Unique Load IPs: 117
CPU 0 NUM of IPS identified critical: 0
CPU 0 Num of Load IPs stalling ROB: 0
Threshold modification factor: 0
Trouble in retire width: -nan
MaC = Marked as critical.
lt_50_percent_before_Mac: 0
gt_90_percent_before_Mac: 0
gt_75_percent_before_Mac: 0
gt_50_percent_before_Mac: 0
stall_proportion_bin_same_before_after: 0
stall_proportion_bin_lower_before_after: 0
stall_proportion_bin_upper_before_after: 0
average_stall_proportion_before: -nan
average_stall_proportion_after: -nan
Critical IP stalls, total frequency: 0
Non-critical IP stalls, total frequency: 0
Total Freq all stalling IPs: 0
Critical_IP_Detector_Accuracy_70: 0.01
Critical_IP_Detector_Accuracy_80: 0.01
Critical_IP_Detector_Accuracy_90: 0.01
Critical_IP_Detector_Coverage_70: 1
Critical_IP_Detector_Coverage_80: 1
Critical_IP_Detector_Coverage_90: 1
stat_90_percent_critical_ip_stalls_freq: 2832466
stat_90_percent_non_critical_ip_stalls_freq: 18446744073706719150
AVERAGE_ROB_Occupancy_90_Percent_Critical_IP_Stalls: 40.6137
AVERAGE_ROB_Occupancy_90_Percent_Non_Critical_IP_Stalls: 1.71228e-11
Critical_IP_ROB_Stalls_Bucket_0: 0
Non-critical_IP_ROB_Stalls_Bucket_0: 11151495
Critical_IP_ROB_Stalls_Bucket_1: 0
Non-critical_IP_ROB_Stalls_Bucket_1: 1435368
Critical_IP_ROB_Stalls_Bucket_2: 0
Non-critical_IP_ROB_Stalls_Bucket_2: 329676
Critical_IP_ROB_Stalls_Bucket_3: 0
Non-critical_IP_ROB_Stalls_Bucket_3: 125275
Critical_IP_ROB_Stalls_Bucket_4: 0
Non-critical_IP_ROB_Stalls_Bucket_4: 50445
Critical_IP_ROB_Stalls_Bucket_5: 0
Non-critical_IP_ROB_Stalls_Bucket_5: 26037
Critical_IP_ROB_Stalls_Bucket_6: 0
Non-critical_IP_ROB_Stalls_Bucket_6: 46681
0 => IPs accounting for >50 percent of stalls, 1 => 55, 2 => 60, 3 => 65 and so on till 90.
percent50: inf num IPs:  1
percent55: inf num IPs: 1
percent60: inf num IPs: 1
percent65: inf num IPs: 1
percent70: inf num IPs: 1
percent75: inf num IPs: 1
percent80: inf num IPs: 1
percent85: inf num IPs: 1
percent90: inf num IPs: 1
Critical_ROB_Stalls_Percent_0_Bucket_0: 2080000
Non-critical_ROB_Stalls_Percent_0_Bucket_0: 9071495
Critical_ROB_Stalls_Percent_0_Bucket_1: 540345
Non-critical_ROB_Stalls_Percent_0_Bucket_1: 895023
Critical_ROB_Stalls_Percent_0_Bucket_2: 121135
Non-critical_ROB_Stalls_Percent_0_Bucket_2: 208541
Critical_ROB_Stalls_Percent_0_Bucket_3: 47532
Non-critical_ROB_Stalls_Percent_0_Bucket_3: 77743
Critical_ROB_Stalls_Percent_0_Bucket_4: 17425
Non-critical_ROB_Stalls_Percent_0_Bucket_4: 33020
Critical_ROB_Stalls_Percent_0_Bucket_5: 9296
Non-critical_ROB_Stalls_Percent_0_Bucket_5: 16741
Critical_ROB_Stalls_Percent_0_Bucket_6: 16733
Non-critical_ROB_Stalls_Percent_0_Bucket_6: 29948
Critical_ROB_Stalls_Percent_1_Bucket_0: 2080000
Non-critical_ROB_Stalls_Percent_1_Bucket_0: 9071495
Critical_ROB_Stalls_Percent_1_Bucket_1: 540345
Non-critical_ROB_Stalls_Percent_1_Bucket_1: 895023
Critical_ROB_Stalls_Percent_1_Bucket_2: 121135
Non-critical_ROB_Stalls_Percent_1_Bucket_2: 208541
Critical_ROB_Stalls_Percent_1_Bucket_3: 47532
Non-critical_ROB_Stalls_Percent_1_Bucket_3: 77743
Critical_ROB_Stalls_Percent_1_Bucket_4: 17425
Non-critical_ROB_Stalls_Percent_1_Bucket_4: 33020
Critical_ROB_Stalls_Percent_1_Bucket_5: 9296
Non-critical_ROB_Stalls_Percent_1_Bucket_5: 16741
Critical_ROB_Stalls_Percent_1_Bucket_6: 16733
Non-critical_ROB_Stalls_Percent_1_Bucket_6: 29948
Critical_ROB_Stalls_Percent_2_Bucket_0: 2080000
Non-critical_ROB_Stalls_Percent_2_Bucket_0: 9071495
Critical_ROB_Stalls_Percent_2_Bucket_1: 540345
Non-critical_ROB_Stalls_Percent_2_Bucket_1: 895023
Critical_ROB_Stalls_Percent_2_Bucket_2: 121135
Non-critical_ROB_Stalls_Percent_2_Bucket_2: 208541
Critical_ROB_Stalls_Percent_2_Bucket_3: 47532
Non-critical_ROB_Stalls_Percent_2_Bucket_3: 77743
Critical_ROB_Stalls_Percent_2_Bucket_4: 17425
Non-critical_ROB_Stalls_Percent_2_Bucket_4: 33020
Critical_ROB_Stalls_Percent_2_Bucket_5: 9296
Non-critical_ROB_Stalls_Percent_2_Bucket_5: 16741
Critical_ROB_Stalls_Percent_2_Bucket_6: 16733
Non-critical_ROB_Stalls_Percent_2_Bucket_6: 29948
Critical_ROB_Stalls_Percent_3_Bucket_0: 2080000
Non-critical_ROB_Stalls_Percent_3_Bucket_0: 9071495
Critical_ROB_Stalls_Percent_3_Bucket_1: 540345
Non-critical_ROB_Stalls_Percent_3_Bucket_1: 895023
Critical_ROB_Stalls_Percent_3_Bucket_2: 121135
Non-critical_ROB_Stalls_Percent_3_Bucket_2: 208541
Critical_ROB_Stalls_Percent_3_Bucket_3: 47532
Non-critical_ROB_Stalls_Percent_3_Bucket_3: 77743
Critical_ROB_Stalls_Percent_3_Bucket_4: 17425
Non-critical_ROB_Stalls_Percent_3_Bucket_4: 33020
Critical_ROB_Stalls_Percent_3_Bucket_5: 9296
Non-critical_ROB_Stalls_Percent_3_Bucket_5: 16741
Critical_ROB_Stalls_Percent_3_Bucket_6: 16733
Non-critical_ROB_Stalls_Percent_3_Bucket_6: 29948
Critical_ROB_Stalls_Percent_4_Bucket_0: 2080000
Non-critical_ROB_Stalls_Percent_4_Bucket_0: 9071495
Critical_ROB_Stalls_Percent_4_Bucket_1: 540345
Non-critical_ROB_Stalls_Percent_4_Bucket_1: 895023
Critical_ROB_Stalls_Percent_4_Bucket_2: 121135
Non-critical_ROB_Stalls_Percent_4_Bucket_2: 208541
Critical_ROB_Stalls_Percent_4_Bucket_3: 47532
Non-critical_ROB_Stalls_Percent_4_Bucket_3: 77743
Critical_ROB_Stalls_Percent_4_Bucket_4: 17425
Non-critical_ROB_Stalls_Percent_4_Bucket_4: 33020
Critical_ROB_Stalls_Percent_4_Bucket_5: 9296
Non-critical_ROB_Stalls_Percent_4_Bucket_5: 16741
Critical_ROB_Stalls_Percent_4_Bucket_6: 16733
Non-critical_ROB_Stalls_Percent_4_Bucket_6: 29948
Critical_ROB_Stalls_Percent_5_Bucket_0: 2080000
Non-critical_ROB_Stalls_Percent_5_Bucket_0: 9071495
Critical_ROB_Stalls_Percent_5_Bucket_1: 540345
Non-critical_ROB_Stalls_Percent_5_Bucket_1: 895023
Critical_ROB_Stalls_Percent_5_Bucket_2: 121135
Non-critical_ROB_Stalls_Percent_5_Bucket_2: 208541
Critical_ROB_Stalls_Percent_5_Bucket_3: 47532
Non-critical_ROB_Stalls_Percent_5_Bucket_3: 77743
Critical_ROB_Stalls_Percent_5_Bucket_4: 17425
Non-critical_ROB_Stalls_Percent_5_Bucket_4: 33020
Critical_ROB_Stalls_Percent_5_Bucket_5: 9296
Non-critical_ROB_Stalls_Percent_5_Bucket_5: 16741
Critical_ROB_Stalls_Percent_5_Bucket_6: 16733
Non-critical_ROB_Stalls_Percent_5_Bucket_6: 29948
Critical_ROB_Stalls_Percent_6_Bucket_0: 2080000
Non-critical_ROB_Stalls_Percent_6_Bucket_0: 9071495
Critical_ROB_Stalls_Percent_6_Bucket_1: 540345
Non-critical_ROB_Stalls_Percent_6_Bucket_1: 895023
Critical_ROB_Stalls_Percent_6_Bucket_2: 121135
Non-critical_ROB_Stalls_Percent_6_Bucket_2: 208541
Critical_ROB_Stalls_Percent_6_Bucket_3: 47532
Non-critical_ROB_Stalls_Percent_6_Bucket_3: 77743
Critical_ROB_Stalls_Percent_6_Bucket_4: 17425
Non-critical_ROB_Stalls_Percent_6_Bucket_4: 33020
Critical_ROB_Stalls_Percent_6_Bucket_5: 9296
Non-critical_ROB_Stalls_Percent_6_Bucket_5: 16741
Critical_ROB_Stalls_Percent_6_Bucket_6: 16733
Non-critical_ROB_Stalls_Percent_6_Bucket_6: 29948
Critical_ROB_Stalls_Percent_7_Bucket_0: 2080000
Non-critical_ROB_Stalls_Percent_7_Bucket_0: 9071495
Critical_ROB_Stalls_Percent_7_Bucket_1: 540345
Non-critical_ROB_Stalls_Percent_7_Bucket_1: 895023
Critical_ROB_Stalls_Percent_7_Bucket_2: 121135
Non-critical_ROB_Stalls_Percent_7_Bucket_2: 208541
Critical_ROB_Stalls_Percent_7_Bucket_3: 47532
Non-critical_ROB_Stalls_Percent_7_Bucket_3: 77743
Critical_ROB_Stalls_Percent_7_Bucket_4: 17425
Non-critical_ROB_Stalls_Percent_7_Bucket_4: 33020
Critical_ROB_Stalls_Percent_7_Bucket_5: 9296
Non-critical_ROB_Stalls_Percent_7_Bucket_5: 16741
Critical_ROB_Stalls_Percent_7_Bucket_6: 16733
Non-critical_ROB_Stalls_Percent_7_Bucket_6: 29948
Critical_ROB_Stalls_Percent_8_Bucket_0: 2080000
Non-critical_ROB_Stalls_Percent_8_Bucket_0: 9071495
Critical_ROB_Stalls_Percent_8_Bucket_1: 540345
Non-critical_ROB_Stalls_Percent_8_Bucket_1: 895023
Critical_ROB_Stalls_Percent_8_Bucket_2: 121135
Non-critical_ROB_Stalls_Percent_8_Bucket_2: 208541
Critical_ROB_Stalls_Percent_8_Bucket_3: 47532
Non-critical_ROB_Stalls_Percent_8_Bucket_3: 77743
Critical_ROB_Stalls_Percent_8_Bucket_4: 17425
Non-critical_ROB_Stalls_Percent_8_Bucket_4: 33020
Critical_ROB_Stalls_Percent_8_Bucket_5: 9296
Non-critical_ROB_Stalls_Percent_8_Bucket_5: 16741
Critical_ROB_Stalls_Percent_8_Bucket_6: 16733
Non-critical_ROB_Stalls_Percent_8_Bucket_6: 29948
Average ROB occupancy Load Stall Begin: 28.0145
Average ROB occupancy Load Stall End: 32.7305
Min ROB occupancy Load Stall Begin: 1
Max ROB occupancy Load Stall Begin: 352
Min ROB occupancy Load Stall End: 1
Max ROB occupancy Load Stall End: 352
Average ROB occupancy Critical Load Stall Begin: -nan
Average ROB occupancy Critical Load Stall End: -nan
Min ROB occupancy Critical Load Stall Begin: 400
Max ROB occupancy Critical Load Stall Begin: 0
Min ROB occupancy Critical Load Stall End: 400
Max ROB occupancy Critical Load Stall End: 0
 ROB Load Stall Begin Bucket Count 0: 11590685
 ROB Load Stall End Bucket Count 0: 11151495
 ROB Critical Load Stall Begin Bucket Count 0: 0
 ROB Critical Load Stall End Bucket Count 0: 0
 ROB Load Stall Begin Bucket Count 1: 1079677
 ROB Load Stall End Bucket Count 1: 1435368
 ROB Critical Load Stall Begin Bucket Count 1: 0
 ROB Critical Load Stall End Bucket Count 1: 0
 ROB Load Stall Begin Bucket Count 2: 277603
 ROB Load Stall End Bucket Count 2: 329676
 ROB Critical Load Stall Begin Bucket Count 2: 0
 ROB Critical Load Stall End Bucket Count 2: 0
 ROB Load Stall Begin Bucket Count 3: 105628
 ROB Load Stall End Bucket Count 3: 125275
 ROB Critical Load Stall Begin Bucket Count 3: 0
 ROB Critical Load Stall End Bucket Count 3: 0
 ROB Load Stall Begin Bucket Count 4: 44873
 ROB Load Stall End Bucket Count 4: 50445
 ROB Critical Load Stall Begin Bucket Count 4: 0
 ROB Critical Load Stall End Bucket Count 4: 0
 ROB Load Stall Begin Bucket Count 5: 23667
 ROB Load Stall End Bucket Count 5: 26037
 ROB Critical Load Stall Begin Bucket Count 5: 0
 ROB Critical Load Stall End Bucket Count 5: 0
 ROB Load Stall Begin Bucket Count 6: 42845
 ROB Load Stall End Bucket Count 6: 46681
 ROB Critical Load Stall Begin Bucket Count 6: 0
 ROB Critical Load Stall End Bucket Count 6: 0
PIST Tag Read Accesses: 0
PIST Read Accesses: 0
PIST Tag Write Accesses: 0
PIST Write Accesses: 0
Criticality detector called times: 0
Max global_stall_cycles_count: 0
Threshold Modified: 0 times, factor: 0
ITLB TOTAL     ACCESS:   17689790  HIT:   17689790  MISS:          0  HIT %:        100  MISS %:          0   MPKI: 0
ITLB LOAD TRANSLATION ACCESS:   17689790  HIT:   17689790  MISS:          0  HIT %:        100  MISS %:          0   MPKI: 0
ITLB PREFETCH  REQUESTED:          0  ISSUED:          0  USEFUL:          0  USELESS:          0
ITLB USEFUL LOAD PREFETCHES:          0 PREFETCH ISSUED TO LOWER LEVEL:          0  ACCURACY: -nan
ITLB TIMELY PREFETCHES:          0 LATE PREFETCHES: 0 DROPPED PREFETCHES: 0
ITLB PREFETCHES SAME FILL-ORIGIN LEVEL: 0 DIFFERENT FILL-ORIGIN LEVEL: 0
ITLB AVERAGE MISS LATENCY: -nan cycles
ITLB RQ	ACCESS:   18118732	FORWARD:          0	MERGED:     428943	TO_CACHE:   17689789

DTLB TOTAL     ACCESS:   32488480  HIT:   30864940  MISS:    1623540  HIT %:    95.0027  MISS %:    4.99728   MPKI: 16.2354
DTLB LOAD TRANSLATION ACCESS:   32488480  HIT:   30864940  MISS:    1623540  HIT %:    95.0027  MISS %:    4.99728   MPKI: 16.2354
DTLB PREFETCH  REQUESTED:          0  ISSUED:          0  USEFUL:          0  USELESS:          0
DTLB USEFUL LOAD PREFETCHES:          0 PREFETCH ISSUED TO LOWER LEVEL:          0  ACCURACY: -nan
DTLB TIMELY PREFETCHES:          0 LATE PREFETCHES: 0 DROPPED PREFETCHES: 0
DTLB PREFETCHES SAME FILL-ORIGIN LEVEL: 0 DIFFERENT FILL-ORIGIN LEVEL: 0
DTLB AVERAGE MISS LATENCY: 74.8528 cycles
DTLB RQ	ACCESS:   38537742	FORWARD:          0	MERGED:    5599300	TO_CACHE:   32938442

STLB TOTAL     ACCESS:    7522203  HIT:    6714368  MISS:     807835  HIT %:    89.2607  MISS %:    10.7393   MPKI: 8.07835
STLB LOAD TRANSLATION ACCESS:    1623540  HIT:     815961  MISS:     807579  HIT %:    50.2581  MISS %:    49.7419   MPKI: 8.07579
STLB TRANSLATION FROM L1D PREFETCHER ACCESS:    5898663  HIT:    5898407  MISS:        256  HIT %:    99.9957  MISS %: 0.00433997   MPKI: 0.00256
STLB PREFETCH  REQUESTED:          0  ISSUED:          0  USEFUL:        230  USELESS:         26
STLB USEFUL LOAD PREFETCHES:        230 PREFETCH ISSUED TO LOWER LEVEL:          0  ACCURACY: inf
STLB TIMELY PREFETCHES:        230 LATE PREFETCHES: 0 DROPPED PREFETCHES: 0
STLB PREFETCHES SAME FILL-ORIGIN LEVEL: 0 DIFFERENT FILL-ORIGIN LEVEL: 0
STLB AVERAGE MISS LATENCY: 132.27 cycles
STLB RQ	ACCESS:    9319411	FORWARD:          0	MERGED:    1797171	TO_CACHE:    7522240

STLB Hit, L1D data hit: 0
STLB Hit, L2C data hit: 0
STLB Hit, LLC data hit: 0
STLB Hit, LLC data miss: 0
STLB STLB hints to L2: 0
L1D TOTAL     ACCESS:   45049818  HIT:   38014282  MISS:    7035536  HIT %:    84.3828  MISS %:    15.6172   MPKI: 70.3554
L1D LOAD      ACCESS:   28450937  HIT:   24920429  MISS:    3530508  HIT %:    87.5909  MISS %:    12.4091   MPKI: 35.3051
L1D RFO       ACCESS:    9981164  HIT:    9943419  MISS:      37745  HIT %:    99.6218  MISS %:   0.378162   MPKI: 0.37745
L1D PREFETCH  ACCESS:    6617717  HIT:    3150434  MISS:    3467283  HIT %:    47.6061  MISS %:    52.3939   MPKI: 34.6728
L1D PREFETCH  REQUESTED:   15395548  ISSUED:   15395548  USEFUL:     420685  USELESS:    3046143
L1D USEFUL LOAD PREFETCHES:     420685 PREFETCH ISSUED TO LOWER LEVEL:    3824975  ACCURACY: 10.9984
L1D TIMELY PREFETCHES:     420685 LATE PREFETCHES: 357485 DROPPED PREFETCHES: 0
L1D PREFETCHES SAME FILL-ORIGIN LEVEL: 3824975 DIFFERENT FILL-ORIGIN LEVEL: 0
L1D AVERAGE MISS LATENCY: 1.19143e+07 cycles
L1D RQ	ACCESS:   33841753	FORWARD:          0	MERGED:    2977826	TO_CACHE:   28498568
L1D WQ	ACCESS:   10094511	FORWARD:    2369165	MERGED:      55337	TO_CACHE:   10039174
L1D PQ	ACCESS:    7699677	FORWARD:          0	MERGED:          0	TO_CACHE:    7695871

L1D UNIQUE REGIONS ACCESSED: 0
L1D REGIONS CONFLICTS: 0
L1D Cross Page Prefetch Requests: 0
L1D Same Page Prefetch Requests: 7716678
L1D ROI Sum of L1D PQ occupancy: 100272666
L1D PREFETCHES PUSHED FROM L2C: 0
L1I TOTAL     ACCESS:   18118733  HIT:   18118733  MISS:          0  HIT %:        100  MISS %:          0   MPKI: 0
L1I LOAD      ACCESS:   18118733  HIT:   18118733  MISS:          0  HIT %:        100  MISS %:          0   MPKI: 0
L1I PREFETCH  REQUESTED:          0  ISSUED:          0  USEFUL:          0  USELESS:          0
L1I USEFUL LOAD PREFETCHES:          0 PREFETCH ISSUED TO LOWER LEVEL:          0  ACCURACY: -nan
L1I TIMELY PREFETCHES:          0 LATE PREFETCHES: 0 DROPPED PREFETCHES: 0
L1I PREFETCHES SAME FILL-ORIGIN LEVEL: 0 DIFFERENT FILL-ORIGIN LEVEL: 0
L1I AVERAGE MISS LATENCY: -nan cycles
L1I RQ	ACCESS:   28695231	FORWARD:          0	MERGED:   10576499	TO_CACHE:   18118732

BTB TOTAL     ACCESS:   23415583  HIT:   22036176  MISS:    1379407  HIT %:     94.109  MISS %:    5.89098   MPKI: 13.7941
BTB BRANCH_DIRECT_JUMP	ACCESS:    2277732  HIT:    2277711  MISS:         21
BTB BRANCH_INDIRECT	ACCESS:          0  HIT:          0  MISS:          0
BTB BRANCH_CONDITIONAL	ACCESS:   14850308  HIT:   14850266  MISS:         42
BTB BRANCH_DIRECT_CALL	ACCESS:    3040680  HIT:    3040667  MISS:         13
BTB BRANCH_INDIRECT_CALL	ACCESS:     103096  HIT:     103088  MISS:          8
BTB BRANCH_RETURN	ACCESS:    3143767  HIT:    1764444  MISS:    1379323
BTB BRANCH_OTHER ACCESS:          0  HIT:          0  MISS:          0

L2C TOTAL     ACCESS:    8653112  HIT:    3219133  MISS:    5433979  HIT %:     37.202  MISS %:     62.798   MPKI: 54.3398
L2C LOAD      ACCESS:    3173020  HIT:     927330  MISS:    2245690  HIT %:    29.2255  MISS %:    70.7745   MPKI: 22.4569
L2C DATA LOAD MPKI: 22.4569
L2C INSTRUCTION LOAD MPKI: 0
L2C RFO       ACCESS:      37533  HIT:      34405  MISS:       3128  HIT %:     91.666  MISS %:      8.334   MPKI: 0.03128
L2C PREFETCH  ACCESS:    3824967  HIT:     983415  MISS:    2841552  HIT %:    25.7104  MISS %:    74.2896   MPKI: 28.4155
L2C DATA PREFETCH MPKI: 28.4155
L2C INSTRUCTION PREFETCH MPKI: 0
L2C WRITEBACK ACCESS:     277138  HIT:     275935  MISS:       1203  HIT %:    99.5659  MISS %:    0.43408   MPKI: 0.01203
L2C LOAD TRANSLATION ACCESS:    1340016  HIT:     997876  MISS:     342140  HIT %:    74.4675  MISS %:    25.5325   MPKI: 3.4214
L2C TRANSLATION FROM L1D PREFETCHER ACCESS:        438  HIT:        172  MISS:        266  HIT %:    39.2694  MISS %:    60.7306   MPKI: 0.00266
L2C PREFETCH  REQUESTED:          0  ISSUED:          0  USEFUL:      44177  USELESS:    2793022
L2C USEFUL LOAD PREFETCHES:      44177 PREFETCH ISSUED TO LOWER LEVEL:    2841552  ACCURACY: 1.55468
L2C TIMELY PREFETCHES:      44177 LATE PREFETCHES: 0 DROPPED PREFETCHES: 0
L2C PREFETCHES SAME FILL-ORIGIN LEVEL: 0 DIFFERENT FILL-ORIGIN LEVEL: 0
L2C AVERAGE MISS LATENCY: 168.361 cycles
L2C RQ	ACCESS:    4551015	FORWARD:          0	MERGED:          0	TO_CACHE:    4551007
L2C WQ	ACCESS:     277138	FORWARD:         16	MERGED:          0	TO_CACHE:     277138
L2C PQ	ACCESS:    3824975	FORWARD:          0	MERGED:          0	TO_CACHE:    3824967

L2C Instructions Evicting Data 0
L2C Translations Evicting Data 315788
L2C Data Evicting Data 4772900
L2C Instructions Evicting Instructions 0
L2C Translations Evicting Instructions 0
L2C Data Evicting Instructions 0
L2C Instructions Evicting Translations 0
L2C Translations Evicting Translations 26618
L2C Data Evicting Translations 317470
L2C Dense regions hint from L2: 0
PSCL5 TOTAL     ACCESS:     807835  HIT:     807835  MISS:          0  HIT %:        100  MISS %:          0   MPKI: 0
PSCL5 LOAD TRANSLATION ACCESS:     807579  HIT:     807579  MISS:          0  HIT %:        100  MISS %:          0   MPKI: 0
PSCL5 TRANSLATION FROM L1D PREFETCHER ACCESS:        256  HIT:        256  MISS:          0  HIT %:        100  MISS %:          0   MPKI: 0
PSCL5 PREFETCH  REQUESTED:          0  ISSUED:          0  USEFUL:          0  USELESS:          0
PSCL5 USEFUL LOAD PREFETCHES:          0 PREFETCH ISSUED TO LOWER LEVEL:          0  ACCURACY: -nan
PSCL5 TIMELY PREFETCHES:          0 LATE PREFETCHES: 0 DROPPED PREFETCHES: 0
PSCL5 PREFETCHES SAME FILL-ORIGIN LEVEL: 0 DIFFERENT FILL-ORIGIN LEVEL: 0

PSCL4 TOTAL     ACCESS:     807835  HIT:     807835  MISS:          0  HIT %:        100  MISS %:          0   MPKI: 0
PSCL4 LOAD TRANSLATION ACCESS:     807579  HIT:     807579  MISS:          0  HIT %:        100  MISS %:          0   MPKI: 0
PSCL4 TRANSLATION FROM L1D PREFETCHER ACCESS:        256  HIT:        256  MISS:          0  HIT %:        100  MISS %:          0   MPKI: 0
PSCL4 PREFETCH  REQUESTED:          0  ISSUED:          0  USEFUL:          0  USELESS:          0
PSCL4 USEFUL LOAD PREFETCHES:          0 PREFETCH ISSUED TO LOWER LEVEL:          0  ACCURACY: -nan
PSCL4 TIMELY PREFETCHES:          0 LATE PREFETCHES: 0 DROPPED PREFETCHES: 0
PSCL4 PREFETCHES SAME FILL-ORIGIN LEVEL: 0 DIFFERENT FILL-ORIGIN LEVEL: 0

PSCL3 TOTAL     ACCESS:     807835  HIT:     807835  MISS:          0  HIT %:        100  MISS %:          0   MPKI: 0
PSCL3 LOAD TRANSLATION ACCESS:     807579  HIT:     807579  MISS:          0  HIT %:        100  MISS %:          0   MPKI: 0
PSCL3 TRANSLATION FROM L1D PREFETCHER ACCESS:        256  HIT:        256  MISS:          0  HIT %:        100  MISS %:          0   MPKI: 0
PSCL3 PREFETCH  REQUESTED:          0  ISSUED:          0  USEFUL:          0  USELESS:          0
PSCL3 USEFUL LOAD PREFETCHES:          0 PREFETCH ISSUED TO LOWER LEVEL:          0  ACCURACY: -nan
PSCL3 TIMELY PREFETCHES:          0 LATE PREFETCHES: 0 DROPPED PREFETCHES: 0
PSCL3 PREFETCHES SAME FILL-ORIGIN LEVEL: 0 DIFFERENT FILL-ORIGIN LEVEL: 0

PSCL2 TOTAL     ACCESS:     807835  HIT:     275209  MISS:     532626  HIT %:    34.0675  MISS %:    65.9325   MPKI: 5.32626
PSCL2 LOAD TRANSLATION ACCESS:     807761  HIT:     275135  MISS:     532626  HIT %:    34.0614  MISS %:    65.9386   MPKI: 5.32626
PSCL2 TRANSLATION FROM L1D PREFETCHER ACCESS:         74  HIT:         74  MISS:          0  HIT %:        100  MISS %:          0   MPKI: 0
PSCL2 PREFETCH  REQUESTED:          0  ISSUED:          0  USEFUL:          0  USELESS:          0
PSCL2 USEFUL LOAD PREFETCHES:          0 PREFETCH ISSUED TO LOWER LEVEL:          0  ACCURACY: -nan
PSCL2 TIMELY PREFETCHES:          0 LATE PREFETCHES: 0 DROPPED PREFETCHES: 0
PSCL2 PREFETCHES SAME FILL-ORIGIN LEVEL: 0 DIFFERENT FILL-ORIGIN LEVEL: 0

LLC TOTAL     ACCESS:    5584042  HIT:    1403212  MISS:    4180830  HIT %:     25.129  MISS %:     74.871   MPKI: 41.8083
LLC LOAD      ACCESS:    2245690  HIT:     647003  MISS:    1598687  HIT %:    28.8109  MISS %:    71.1891   MPKI: 15.9869
LLC RFO       ACCESS:       3128  HIT:       1965  MISS:       1163  HIT %:    62.8197  MISS %:    37.1803   MPKI: 0.01163
LLC PREFETCH  ACCESS:    2841551  HIT:     525860  MISS:    2315691  HIT %:    18.5061  MISS %:    81.4939   MPKI: 23.1569
LLC WRITEBACK ACCESS:     151267  HIT:     132634  MISS:      18633  HIT %:     87.682  MISS %:     12.318   MPKI: 0.18633
LLC LOAD TRANSLATION ACCESS:     342140  HIT:      95522  MISS:     246618  HIT %:     27.919  MISS %:     72.081   MPKI: 2.46618
LLC TRANSLATION FROM L1D PREFETCHER ACCESS:        266  HIT:        228  MISS:         38  HIT %:    85.7143  MISS %:    14.2857   MPKI: 0.00038
LLC PREFETCH  REQUESTED:          0  ISSUED:          0  USEFUL:      30795  USELESS:    2264334
LLC USEFUL LOAD PREFETCHES:      30795 PREFETCH ISSUED TO LOWER LEVEL:    2315691  ACCURACY: 1.32984
LLC TIMELY PREFETCHES:      30795 LATE PREFETCHES: 0 DROPPED PREFETCHES: 0
LLC PREFETCHES SAME FILL-ORIGIN LEVEL: 0 DIFFERENT FILL-ORIGIN LEVEL: 0
LLC AVERAGE MISS LATENCY: 179.599 cycles
LLC RQ	ACCESS:    2591224	FORWARD:          0	MERGED:          0	TO_CACHE:    2591224
LLC WQ	ACCESS:     151267	FORWARD:          1	MERGED:          0	TO_CACHE:     151267
LLC PQ	ACCESS:    2841552	FORWARD:          0	MERGED:          0	TO_CACHE:    2841551

LLC Dense regions hint to LLC: 0

RAW hits: 855258
Loads Generated: 34697014
Loads sent to L1D: 33841753
Stores Generated: 10094507
Stores sent to L1D: 10094511
Major fault: 0 Minor fault: 167017
Allocated PAGES: 167017

stream: 
stream:times selected: 8507111
stream:pref_filled: 2157413
stream:pref_useful: 266278
stream:pref_late: 317153
stream:misses: 888938
stream:misses_by_poll: 0

CS: 
CS:times selected: 231190
CS:pref_filled: 108002
CS:pref_useful: 102559
CS:pref_late: 27
CS:misses: 1367
CS:misses_by_poll: 52

CPLX: 
CPLX:times selected: 8197585
CPLX:pref_filled: 1187674
CPLX:pref_useful: 51603
CPLX:pref_late: 1922
CPLX:misses: 2662473
CPLX:misses_by_poll: 9189

NL_L1: 
NL:times selected: 76140
NL:pref_filled: 26220
NL:pref_useful: 4069
NL:pref_late: 4515
NL:misses: 33928
NL:misses_by_poll: 7

total selections: 17012026
total_filled: 3467283
total_useful: 420685
total_late: 357646
total_polluted: 9248
total_misses_after_warmup: 3575136
conflicts: 56188
Degree Incremented Times: 107989
Degree Decremented Times: 295554

L1 IP Table Write Accesses: 23773605
L1 IP Table Read Accesses: 23717417
L1 RST Write Accesses: 8490615
L1 RST Read Accesses: 16981230
L1 CSPT Write Accesses: 8490615
L1 CSPT Read Accesses: 16672026
L1 RR Filter Tag Write Accesses: 7699677
L1 RR Filter Tag Read Accesses: 302694332
L1 IP Table Tag Write Accesses: 24770335
L1 IP Table Tag Read Accesses: 24770335
L1 RST Tag Write Accesses: 0
L1 RST Tag Read Accesses: 77568021
L1 RR Filter Write Accesses: 0
L1 RR Filter Read Accesses: 10695234
test: 5279217

DRAM Statistics
 CHANNEL 0
 RQ ROW_BUFFER_HIT:     261006  ROW_BUFFER_MISS:    3901179
 DBUS_CONGESTED:        341
 WQ ROW_BUFFER_HIT:      39501  ROW_BUFFER_MISS:      78518  FULL:          0

 AVG_CONGESTED_CYCLE: 4
 All warmup complete: 2
Channel 0 Bank busy for read cycles: 0
Channel 0 Bank busy for write cycles: 0
Channel 0
Rank 0
0banks busy for read cycles: 151678601
0banks busy for write cycles: 85269
1banks busy for read cycles: 95576773
1banks busy for write cycles: 18514698
2banks busy for read cycles: 76807096
2banks busy for write cycles: 4186681
3banks busy for read cycles: 53022390
3banks busy for write cycles: 1013621
4banks busy for read cycles: 23375483
4banks busy for write cycles: 255521
5banks busy for read cycles: 10711290
5banks busy for write cycles: 65319
6banks busy for read cycles: 4975078
6banks busy for write cycles: 22856
7banks busy for read cycles: 1510001
7banks busy for write cycles: 10291
8banks busy for read cycles: 311640
8banks busy for write cycles: 2695

CPU 0 Branch Prediction Accuracy: 94.6877% MPKI: 13.1818 Average ROB Occupancy at Mispredict: 23.4661
Branch types
NOT_BRANCH: 75185764 75.1858%
BRANCH_DIRECT_JUMP: 2277732 2.27773%
BRANCH_INDIRECT: 0 0%
BRANCH_CONDITIONAL: 16248591 16.2486%
BRANCH_DIRECT_CALL: 3040680 3.04068%
BRANCH_INDIRECT_CALL: 103096 0.103096%
BRANCH_RETURN: 3143767 3.14377%
BRANCH_OTHER: 0 0%

DRAM PAGES: 1048576
Allocated PAGES: 167017
