Initialize SIGNATURE TABLE
ST_SET: 1
ST_WAY: 256
ST_TAG_BIT: 16
ST_TAG_MASK: ffff

Initialize PATTERN TABLE
PT_SET: 512
PT_WAY: 4
SIG_DELTA_BIT: 7
C_SIG_BIT: 4
C_DELTA_BIT: 4

Initialize PREFETCH FILTER
FILTER_SET: 1024

*** ChampSim Multicore Out-of-Order Simulator ***

Warmup Instructions: 50000000
Simulation Instructions: 100000000
Number of CPUs: 1
LLC sets: 2048
LLC ways: 16
Off-chip DRAM Size: 4096 MB Channels: 1 Width: 64-bit Data Rate: 6400 MT/s
CPU 0 runs ../SPEC2017//605.mcf_s-1554B.champsimtrace.xz
.xz
NUM_OF_IPS_IN_CRITICAL_IP_TRAINING: 64
NUM_OF_CRITICAL_IP_TRAINING_TABLE_WAYS: 2
NUM_OF_CRITICAL_IP_TRAINING_TABLE_SETS: 32
WOBBLY_CRITICAL_IP_CACHE_SETS: 32
WOBBLY_CRITICAL_IP_CACHE_WAYS: 4
BTB has LRU replacement policy
ITLB has LRU replacement policy
DTLB has LRU replacement policy
STLB has LRU replacement policy
L1I has LRU replacement policy
L1D has LRU replacement policy
Initialize SRRIP state for L2C
Initialize DRRIP state for LLC
Heartbeat CPU 0 instructions: 10000001 cycles: 3535579 heartbeat IPC: 2.82839 cumulative IPC: 2.82839 (Simulation time: 0 hr 7 min 8 sec) 
Heartbeat CPU 0 instructions: 20000001 cycles: 7087513 heartbeat IPC: 2.81537 cumulative IPC: 2.82186 (Simulation time: 0 hr 13 min 43 sec) 
Heartbeat CPU 0 instructions: 30000003 cycles: 10649071 heartbeat IPC: 2.80776 cumulative IPC: 2.81715 (Simulation time: 0 hr 19 min 33 sec) 
Heartbeat CPU 0 instructions: 40000000 cycles: 14199369 heartbeat IPC: 2.81666 cumulative IPC: 2.81703 (Simulation time: 0 hr 24 min 35 sec) 
Heartbeat CPU 0 instructions: 50000001 cycles: 17750831 heartbeat IPC: 2.81574 cumulative IPC: 2.81677 (Simulation time: 0 hr 29 min 6 sec) 

Warmup complete CPU 0 instructions: 50000001 cycles: 17750831 (Simulation time: 0 hr 29 min 6 sec) 

% increase in all ip prefetch 642.097
% increase in all ip prefetch 31.045
% increase in all ip prefetch -5.48374
Heartbeat CPU 0 instructions: 60000000 cycles: 50925553 heartbeat IPC: 0.301434 cumulative IPC: 0.301434 (Simulation time: 0 hr 36 min 18 sec) 
Heartbeat CPU 0 instructions: 70000000 cycles: 84672297 heartbeat IPC: 0.296325 cumulative IPC: 0.298858 (Simulation time: 0 hr 42 min 44 sec) 
Heartbeat CPU 0 instructions: 80000001 cycles: 119210111 heartbeat IPC: 0.289538 cumulative IPC: 0.295685 (Simulation time: 0 hr 48 min 19 sec) 
Heartbeat CPU 0 instructions: 90000003 cycles: 152982125 heartbeat IPC: 0.296103 cumulative IPC: 0.29579 (Simulation time: 0 hr 59 min 41 sec) 
Heartbeat CPU 0 instructions: 100000000 cycles: 186120143 heartbeat IPC: 0.301768 cumulative IPC: 0.296966 (Simulation time: 1 hr 11 min 45 sec) 
Heartbeat CPU 0 instructions: 110000000 cycles: 219525929 heartbeat IPC: 0.299349 cumulative IPC: 0.297361 (Simulation time: 1 hr 22 min 37 sec) 
Heartbeat CPU 0 instructions: 120000001 cycles: 250867439 heartbeat IPC: 0.319066 cumulative IPC: 0.300279 (Simulation time: 1 hr 32 min 42 sec) 
Heartbeat CPU 0 instructions: 130000000 cycles: 283702609 heartbeat IPC: 0.304551 cumulative IPC: 0.300806 (Simulation time: 1 hr 40 min 37 sec) 
Heartbeat CPU 0 instructions: 140000000 cycles: 316938333 heartbeat IPC: 0.300881 cumulative IPC: 0.300815 (Simulation time: 1 hr 47 min 1 sec) 
Heartbeat CPU 0 instructions: 150000001 cycles: 349667662 heartbeat IPC: 0.305536 cumulative IPC: 0.30128 (Simulation time: 1 hr 53 min 10 sec) 
Finished CPU 0 instructions: 100000000 cycles: 331916831 cumulative IPC: 0.30128 (Simulation time: 1 hr 53 min 10 sec) 

ChampSim completed all CPUs

Region of Interest Statistics

CPU 0 cumulative IPC: 0.30128 instructions: 100000000 cycles: 331916831

CPU 0 Average Load ROB stall cycles: 8.73664e+07
CPU 0 Fraction of times ROB stalled by Loads: 47.6573
CPU 0 Percentage of Load stall cycles in Total stall cycles: 4.13683e+08
Issued all: 208281557
Issued LT all: 202674131
rob_not_full_when_issued_lt_all: 26649492
Issued LT one: 179288949
rob_not_full_when_issued_lt_one: 18694175
 Total stall cycles: 302790747
 Total load stall cycles: 1252593399959348
CPU 0 NUM of IPS identified critical: 0
CPU 0 Num of Load IPs stalling ROB: 73
Threshold modification factor: -2
Max PIST entries: 35
Min PIST entries: 0
Avg PIST entries: 20.36
Trouble in retire width: 0.990123
MaC = Marked as critical.
lt_50_percent_before_Mac: 0
gt_90_percent_before_Mac: 0
gt_75_percent_before_Mac: 0
gt_50_percent_before_Mac: 0
stall_proportion_bin_same_before_after: 0
stall_proportion_bin_lower_before_after: 0
stall_proportion_bin_upper_before_after: 0
average_stall_proportion_before: -nan
average_stall_proportion_after: -nan
Critical IP stalls, total frequency: 0
Non-critical IP stalls, total frequency: 6832740
Total Freq all stalling IPs: 6832740
stat_90_percent_critical_ip_stalls_freq: 6274639
stat_90_percent_non_critical_ip_stalls_freq: 558101
Critical_IP_ROB_Stalls_Bucket_0: 0
Non-critical_IP_ROB_Stalls_Bucket_0: 1361349
Critical_IP_ROB_Stalls_Bucket_1: 0
Non-critical_IP_ROB_Stalls_Bucket_1: 668330
Critical_IP_ROB_Stalls_Bucket_2: 0
Non-critical_IP_ROB_Stalls_Bucket_2: 275951
Critical_IP_ROB_Stalls_Bucket_3: 0
Non-critical_IP_ROB_Stalls_Bucket_3: 162810
Critical_IP_ROB_Stalls_Bucket_4: 0
Non-critical_IP_ROB_Stalls_Bucket_4: 97580
Critical_IP_ROB_Stalls_Bucket_5: 0
Non-critical_IP_ROB_Stalls_Bucket_5: 74092
Critical_IP_ROB_Stalls_Bucket_6: 0
Non-critical_IP_ROB_Stalls_Bucket_6: 4192628
0 => IPs accounting for >50 percent of stalls, 1 => 55, 2 => 60, 3 => 65 and so on till 90.
percent50: 52.158 num IPs:  2
percent55: 64.5224 num IPs: 3
percent60: 64.5224 num IPs: 3
percent65: 75.6001 num IPs: 4
percent70: 75.6001 num IPs: 4
percent75: 75.6001 num IPs: 4
percent80: 85.2355 num IPs: 5
percent85: 85.2355 num IPs: 5
percent90: 91.832 num IPs: 7
Critical_ROB_Stalls_Percent_0_Bucket_0: 472301
Non-critical_ROB_Stalls_Percent_0_Bucket_0: 889048
Critical_ROB_Stalls_Percent_0_Bucket_1: 268752
Non-critical_ROB_Stalls_Percent_0_Bucket_1: 399578
Critical_ROB_Stalls_Percent_0_Bucket_2: 149884
Non-critical_ROB_Stalls_Percent_0_Bucket_2: 126067
Critical_ROB_Stalls_Percent_0_Bucket_3: 102764
Non-critical_ROB_Stalls_Percent_0_Bucket_3: 60046
Critical_ROB_Stalls_Percent_0_Bucket_4: 56703
Non-critical_ROB_Stalls_Percent_0_Bucket_4: 40877
Critical_ROB_Stalls_Percent_0_Bucket_5: 43819
Non-critical_ROB_Stalls_Percent_0_Bucket_5: 30273
Critical_ROB_Stalls_Percent_0_Bucket_6: 2469596
Non-critical_ROB_Stalls_Percent_0_Bucket_6: 1723032
Critical_ROB_Stalls_Percent_1_Bucket_0: 572514
Non-critical_ROB_Stalls_Percent_1_Bucket_0: 788835
Critical_ROB_Stalls_Percent_1_Bucket_1: 317417
Non-critical_ROB_Stalls_Percent_1_Bucket_1: 350913
Critical_ROB_Stalls_Percent_1_Bucket_2: 177868
Non-critical_ROB_Stalls_Percent_1_Bucket_2: 98083
Critical_ROB_Stalls_Percent_1_Bucket_3: 118344
Non-critical_ROB_Stalls_Percent_1_Bucket_3: 44466
Critical_ROB_Stalls_Percent_1_Bucket_4: 69075
Non-critical_ROB_Stalls_Percent_1_Bucket_4: 28505
Critical_ROB_Stalls_Percent_1_Bucket_5: 53646
Non-critical_ROB_Stalls_Percent_1_Bucket_5: 20446
Critical_ROB_Stalls_Percent_1_Bucket_6: 3099783
Non-critical_ROB_Stalls_Percent_1_Bucket_6: 1092845
Critical_ROB_Stalls_Percent_2_Bucket_0: 572514
Non-critical_ROB_Stalls_Percent_2_Bucket_0: 788835
Critical_ROB_Stalls_Percent_2_Bucket_1: 317417
Non-critical_ROB_Stalls_Percent_2_Bucket_1: 350913
Critical_ROB_Stalls_Percent_2_Bucket_2: 177868
Non-critical_ROB_Stalls_Percent_2_Bucket_2: 98083
Critical_ROB_Stalls_Percent_2_Bucket_3: 118344
Non-critical_ROB_Stalls_Percent_2_Bucket_3: 44466
Critical_ROB_Stalls_Percent_2_Bucket_4: 69075
Non-critical_ROB_Stalls_Percent_2_Bucket_4: 28505
Critical_ROB_Stalls_Percent_2_Bucket_5: 53646
Non-critical_ROB_Stalls_Percent_2_Bucket_5: 20446
Critical_ROB_Stalls_Percent_2_Bucket_6: 3099783
Non-critical_ROB_Stalls_Percent_2_Bucket_6: 1092845
Critical_ROB_Stalls_Percent_3_Bucket_0: 730020
Non-critical_ROB_Stalls_Percent_3_Bucket_0: 631329
Critical_ROB_Stalls_Percent_3_Bucket_1: 408956
Non-critical_ROB_Stalls_Percent_3_Bucket_1: 259374
Critical_ROB_Stalls_Percent_3_Bucket_2: 238458
Non-critical_ROB_Stalls_Percent_3_Bucket_2: 37493
Critical_ROB_Stalls_Percent_3_Bucket_3: 136206
Non-critical_ROB_Stalls_Percent_3_Bucket_3: 26604
Critical_ROB_Stalls_Percent_3_Bucket_4: 80437
Non-critical_ROB_Stalls_Percent_3_Bucket_4: 17143
Critical_ROB_Stalls_Percent_3_Bucket_5: 60884
Non-critical_ROB_Stalls_Percent_3_Bucket_5: 13208
Critical_ROB_Stalls_Percent_3_Bucket_6: 3510594
Non-critical_ROB_Stalls_Percent_3_Bucket_6: 682034
Critical_ROB_Stalls_Percent_4_Bucket_0: 730020
Non-critical_ROB_Stalls_Percent_4_Bucket_0: 631329
Critical_ROB_Stalls_Percent_4_Bucket_1: 408956
Non-critical_ROB_Stalls_Percent_4_Bucket_1: 259374
Critical_ROB_Stalls_Percent_4_Bucket_2: 238458
Non-critical_ROB_Stalls_Percent_4_Bucket_2: 37493
Critical_ROB_Stalls_Percent_4_Bucket_3: 136206
Non-critical_ROB_Stalls_Percent_4_Bucket_3: 26604
Critical_ROB_Stalls_Percent_4_Bucket_4: 80437
Non-critical_ROB_Stalls_Percent_4_Bucket_4: 17143
Critical_ROB_Stalls_Percent_4_Bucket_5: 60884
Non-critical_ROB_Stalls_Percent_4_Bucket_5: 13208
Critical_ROB_Stalls_Percent_4_Bucket_6: 3510594
Non-critical_ROB_Stalls_Percent_4_Bucket_6: 682034
Critical_ROB_Stalls_Percent_5_Bucket_0: 730020
Non-critical_ROB_Stalls_Percent_5_Bucket_0: 631329
Critical_ROB_Stalls_Percent_5_Bucket_1: 408956
Non-critical_ROB_Stalls_Percent_5_Bucket_1: 259374
Critical_ROB_Stalls_Percent_5_Bucket_2: 238458
Non-critical_ROB_Stalls_Percent_5_Bucket_2: 37493
Critical_ROB_Stalls_Percent_5_Bucket_3: 136206
Non-critical_ROB_Stalls_Percent_5_Bucket_3: 26604
Critical_ROB_Stalls_Percent_5_Bucket_4: 80437
Non-critical_ROB_Stalls_Percent_5_Bucket_4: 17143
Critical_ROB_Stalls_Percent_5_Bucket_5: 60884
Non-critical_ROB_Stalls_Percent_5_Bucket_5: 13208
Critical_ROB_Stalls_Percent_5_Bucket_6: 3510594
Non-critical_ROB_Stalls_Percent_5_Bucket_6: 682034
Critical_ROB_Stalls_Percent_6_Bucket_0: 815023
Non-critical_ROB_Stalls_Percent_6_Bucket_0: 546326
Critical_ROB_Stalls_Percent_6_Bucket_1: 449073
Non-critical_ROB_Stalls_Percent_6_Bucket_1: 219257
Critical_ROB_Stalls_Percent_6_Bucket_2: 256711
Non-critical_ROB_Stalls_Percent_6_Bucket_2: 19240
Critical_ROB_Stalls_Percent_6_Bucket_3: 152899
Non-critical_ROB_Stalls_Percent_6_Bucket_3: 9911
Critical_ROB_Stalls_Percent_6_Bucket_4: 90418
Non-critical_ROB_Stalls_Percent_6_Bucket_4: 7162
Critical_ROB_Stalls_Percent_6_Bucket_5: 67595
Non-critical_ROB_Stalls_Percent_6_Bucket_5: 6497
Critical_ROB_Stalls_Percent_6_Bucket_6: 3992199
Non-critical_ROB_Stalls_Percent_6_Bucket_6: 200429
Critical_ROB_Stalls_Percent_7_Bucket_0: 815023
Non-critical_ROB_Stalls_Percent_7_Bucket_0: 546326
Critical_ROB_Stalls_Percent_7_Bucket_1: 449073
Non-critical_ROB_Stalls_Percent_7_Bucket_1: 219257
Critical_ROB_Stalls_Percent_7_Bucket_2: 256711
Non-critical_ROB_Stalls_Percent_7_Bucket_2: 19240
Critical_ROB_Stalls_Percent_7_Bucket_3: 152899
Non-critical_ROB_Stalls_Percent_7_Bucket_3: 9911
Critical_ROB_Stalls_Percent_7_Bucket_4: 90418
Non-critical_ROB_Stalls_Percent_7_Bucket_4: 7162
Critical_ROB_Stalls_Percent_7_Bucket_5: 67595
Non-critical_ROB_Stalls_Percent_7_Bucket_5: 6497
Critical_ROB_Stalls_Percent_7_Bucket_6: 3992199
Non-critical_ROB_Stalls_Percent_7_Bucket_6: 200429
Critical_ROB_Stalls_Percent_8_Bucket_0: 1002684
Non-critical_ROB_Stalls_Percent_8_Bucket_0: 358665
Critical_ROB_Stalls_Percent_8_Bucket_1: 559615
Non-critical_ROB_Stalls_Percent_8_Bucket_1: 108715
Critical_ROB_Stalls_Percent_8_Bucket_2: 269960
Non-critical_ROB_Stalls_Percent_8_Bucket_2: 5991
Critical_ROB_Stalls_Percent_8_Bucket_3: 159632
Non-critical_ROB_Stalls_Percent_8_Bucket_3: 3178
Critical_ROB_Stalls_Percent_8_Bucket_4: 95379
Non-critical_ROB_Stalls_Percent_8_Bucket_4: 2201
Critical_ROB_Stalls_Percent_8_Bucket_5: 71356
Non-critical_ROB_Stalls_Percent_8_Bucket_5: 2736
Critical_ROB_Stalls_Percent_8_Bucket_6: 4116013
Non-critical_ROB_Stalls_Percent_8_Bucket_6: 76615
Average ROB occupancy Load Stall Begin: 234.283
Average ROB occupancy Load Stall End: 240.956
Min ROB occupancy Load Stall Begin: 1
Max ROB occupancy Load Stall Begin: 352
Min ROB occupancy Load Stall End: 1
Max ROB occupancy Load Stall End: 352
Average ROB occupancy Critical Load Stall Begin: -nan
Average ROB occupancy Critical Load Stall End: -nan
Min ROB occupancy Critical Load Stall Begin: 400
Max ROB occupancy Critical Load Stall Begin: 0
Min ROB occupancy Critical Load Stall End: 400
Max ROB occupancy Critical Load Stall End: 0
 ROB Load Stall Begin Bucket Count 0: 1590239
 ROB Load Stall End Bucket Count 0: 1361349
 ROB Critical Load Stall Begin Bucket Count 0: 0
 ROB Critical Load Stall End Bucket Count 0: 0
 ROB Load Stall Begin Bucket Count 1: 511804
 ROB Load Stall End Bucket Count 1: 668330
 ROB Critical Load Stall Begin Bucket Count 1: 0
 ROB Critical Load Stall End Bucket Count 1: 0
 ROB Load Stall Begin Bucket Count 2: 250533
 ROB Load Stall End Bucket Count 2: 275951
 ROB Critical Load Stall Begin Bucket Count 2: 0
 ROB Critical Load Stall End Bucket Count 2: 0
 ROB Load Stall Begin Bucket Count 3: 148099
 ROB Load Stall End Bucket Count 3: 162810
 ROB Critical Load Stall Begin Bucket Count 3: 0
 ROB Critical Load Stall End Bucket Count 3: 0
 ROB Load Stall Begin Bucket Count 4: 88687
 ROB Load Stall End Bucket Count 4: 97580
 ROB Critical Load Stall Begin Bucket Count 4: 0
 ROB Critical Load Stall End Bucket Count 4: 0
 ROB Load Stall Begin Bucket Count 5: 122152
 ROB Load Stall End Bucket Count 5: 74092
 ROB Critical Load Stall Begin Bucket Count 5: 0
 ROB Critical Load Stall End Bucket Count 5: 0
 ROB Load Stall Begin Bucket Count 6: 4121226
 ROB Load Stall End Bucket Count 6: 4192628
 ROB Critical Load Stall Begin Bucket Count 6: 0
 ROB Critical Load Stall End Bucket Count 6: 0
PIST Tag Read Accesses: 51270
PIST Read Accesses: 25635
PIST Tag Write Accesses: 51270
PIST Write Accesses: 25635
Criticality detector called times: 98114
Max global_stall_cycles_count: 228423
Threshold Modified: 2 times, factor: -2
Sturdy critical IP cache stats: 
 Unused entries: 0
CIC Tag Read Accesses: 0
CIC Read Accesses: 0
CIC Tag Write Accesses: 0
CIC Write Accesses: 0
Wobbly critical IP cache stats: 
 Unused entries: 114
CIC Tag Read Accesses: 260208699
CIC Read Accesses: 0
CIC Tag Write Accesses: 387160
CIC Write Accesses: 0
ITLB TOTAL     ACCESS:   20973852  HIT:   20973852  MISS:          0  HIT %:        100  MISS %:          0   MPKI: 0
ITLB LOAD TRANSLATION ACCESS:   20973852  HIT:   20973852  MISS:          0  HIT %:        100  MISS %:          0   MPKI: 0
ITLB PREFETCH  REQUESTED:          0  ISSUED:          0  USEFUL:          0  USELESS:          0
ITLB USEFUL LOAD PREFETCHES:          0 PREFETCH ISSUED TO LOWER LEVEL:          0  ACCURACY: -nan
ITLB TIMELY PREFETCHES:          0 LATE PREFETCHES: 0 DROPPED PREFETCHES: 0
ITLB PREFETCHES SAME FILL-ORIGIN LEVEL: 0 DIFFERENT FILL-ORIGIN LEVEL: 0
ITLB AVERAGE MISS LATENCY: -nan cycles
ITLB RQ	ACCESS:   25476933	FORWARD:          0	MERGED:    4503080	TO_CACHE:   20973853

DTLB TOTAL     ACCESS:   31793998  HIT:   31398762  MISS:     395236  HIT %:    98.7569  MISS %:    1.24312   MPKI: 3.95236
DTLB LOAD TRANSLATION ACCESS:   31793998  HIT:   31398762  MISS:     395236  HIT %:    98.7569  MISS %:    1.24312   MPKI: 3.95236
DTLB PREFETCH  REQUESTED:          0  ISSUED:          0  USEFUL:          0  USELESS:          0
DTLB USEFUL LOAD PREFETCHES:          0 PREFETCH ISSUED TO LOWER LEVEL:          0  ACCURACY: -nan
DTLB TIMELY PREFETCHES:          0 LATE PREFETCHES: 0 DROPPED PREFETCHES: 0
DTLB PREFETCHES SAME FILL-ORIGIN LEVEL: 0 DIFFERENT FILL-ORIGIN LEVEL: 0
DTLB AVERAGE MISS LATENCY: 12.5604 cycles
DTLB RQ	ACCESS:   38538970	FORWARD:          0	MERGED:    6737377	TO_CACHE:   31801593

STLB TOTAL     ACCESS:     395236  HIT:     387198  MISS:       8038  HIT %:    97.9663  MISS %:    2.03372   MPKI: 0.08038
STLB LOAD TRANSLATION ACCESS:     395236  HIT:     387198  MISS:       8038  HIT %:    97.9663  MISS %:    2.03372   MPKI: 0.08038
STLB PREFETCH  REQUESTED:          0  ISSUED:          0  USEFUL:          0  USELESS:          0
STLB USEFUL LOAD PREFETCHES:          0 PREFETCH ISSUED TO LOWER LEVEL:          0  ACCURACY: -nan
STLB TIMELY PREFETCHES:          0 LATE PREFETCHES: 0 DROPPED PREFETCHES: 0
STLB PREFETCHES SAME FILL-ORIGIN LEVEL: 0 DIFFERENT FILL-ORIGIN LEVEL: 0
STLB AVERAGE MISS LATENCY: 174.634 cycles
STLB RQ	ACCESS:     395236	FORWARD:          0	MERGED:          0	TO_CACHE:     395236

STLB Hit, L1D data hit: 0
STLB Hit, L2C data hit: 0
STLB Hit, LLC data hit: 0
STLB Hit, LLC data miss: 0
STLB STLB hints to L2: 0
L1D TOTAL     ACCESS:   36135881  HIT:   20727582  MISS:   15408299  HIT %:    57.3601  MISS %:    42.6399   MPKI: 154.083
L1D LOAD      ACCESS:   31231316  HIT:   16096159  MISS:   15135157  HIT %:    51.5385  MISS %:    48.4615   MPKI: 151.352
L1D RFO       ACCESS:    4904565  HIT:    4631423  MISS:     273142  HIT %:    94.4309  MISS %:    5.56914   MPKI: 2.73142
L1D PREFETCH  REQUESTED:          0  ISSUED:          0  USEFUL:          0  USELESS:          0
L1D USEFUL LOAD PREFETCHES:          0 PREFETCH ISSUED TO LOWER LEVEL:          0  ACCURACY: -nan
L1D TIMELY PREFETCHES:          0 LATE PREFETCHES: 0 DROPPED PREFETCHES: 0
L1D PREFETCHES SAME FILL-ORIGIN LEVEL: 0 DIFFERENT FILL-ORIGIN LEVEL: 0
L1D AVERAGE MISS LATENCY: 66.1682 cycles
L1D RQ	ACCESS:   41286389	FORWARD:          0	MERGED:    8338978	TO_CACHE:   32892388
L1D WQ	ACCESS:    7122776	FORWARD:      55023	MERGED:    1476194	TO_CACHE:    5646582

L1D UNIQUE REGIONS ACCESSED: 0
L1D REGIONS CONFLICTS: 0
L1D Cross Page Prefetch Requests: 0
L1D Same Page Prefetch Requests: 0
L1D ROI Sum of L1D PQ occupancy: 0
L1D PREFETCHES PUSHED FROM L2C: 0
L1I TOTAL     ACCESS:   25476931  HIT:   25476931  MISS:          0  HIT %:        100  MISS %:          0   MPKI: 0
L1I LOAD      ACCESS:   25476931  HIT:   25476931  MISS:          0  HIT %:        100  MISS %:          0   MPKI: 0
L1I PREFETCH  REQUESTED:          0  ISSUED:          0  USEFUL:          0  USELESS:          0
L1I USEFUL LOAD PREFETCHES:          0 PREFETCH ISSUED TO LOWER LEVEL:          0  ACCURACY: -nan
L1I TIMELY PREFETCHES:          0 LATE PREFETCHES: 0 DROPPED PREFETCHES: 0
L1I PREFETCHES SAME FILL-ORIGIN LEVEL: 0 DIFFERENT FILL-ORIGIN LEVEL: 0
L1I AVERAGE MISS LATENCY: -nan cycles
L1I RQ	ACCESS:   35429795	FORWARD:          0	MERGED:    9952862	TO_CACHE:   25476933

BTB TOTAL     ACCESS:   17751898  HIT:   17751866  MISS:         32  HIT %:    99.9998  MISS %: 0.000180262   MPKI: 0.00032
BTB BRANCH_DIRECT_JUMP	ACCESS:    4133385  HIT:    4133379  MISS:          6
BTB BRANCH_INDIRECT	ACCESS:          0  HIT:          0  MISS:          0
BTB BRANCH_CONDITIONAL	ACCESS:   13616937  HIT:   13616915  MISS:         22
BTB BRANCH_DIRECT_CALL	ACCESS:        788  HIT:        786  MISS:          2
BTB BRANCH_INDIRECT_CALL	ACCESS:          0  HIT:          0  MISS:          0
BTB BRANCH_RETURN	ACCESS:        788  HIT:        786  MISS:          2
BTB BRANCH_OTHER ACCESS:          0  HIT:          0  MISS:          0

L2C TOTAL     ACCESS:   18134076  HIT:    2686877  MISS:   15447199  HIT %:    14.8167  MISS %:    85.1833   MPKI: 154.472
L2C LOAD      ACCESS:   15135157  HIT:    1613176  MISS:   13521981  HIT %:    10.6585  MISS %:    89.3415   MPKI: 135.22
L2C DATA LOAD MPKI: 135.22
L2C INSTRUCTION LOAD MPKI: 0
L2C RFO       ACCESS:     273141  HIT:        449  MISS:     272692  HIT %:   0.164384  MISS %:    99.8356   MPKI: 2.72692
L2C PREFETCH  ACCESS:    2375605  HIT:     725706  MISS:    1649899  HIT %:    30.5483  MISS %:    69.4517   MPKI: 16.499
L2C DATA PREFETCH MPKI: 16.499
L2C INSTRUCTION PREFETCH MPKI: 0
L2C WRITEBACK ACCESS:     342126  HIT:     341442  MISS:        684  HIT %:    99.8001  MISS %:   0.199926   MPKI: 0.00684
L2C LOAD TRANSLATION ACCESS:       8047  HIT:       6104  MISS:       1943  HIT %:    75.8544  MISS %:    24.1456   MPKI: 0.01943
L2C PREFETCH  REQUESTED:   33424374  ISSUED:   33404362  USEFUL:    1611981  USELESS:      37913
L2C USEFUL LOAD PREFETCHES:    1611981 PREFETCH ISSUED TO LOWER LEVEL:   30492555  ACCURACY: 5.28647
L2C TIMELY PREFETCHES:    1611981 LATE PREFETCHES: 40048 DROPPED PREFETCHES: 0
L2C PREFETCHES SAME FILL-ORIGIN LEVEL: 1689947 DIFFERENT FILL-ORIGIN LEVEL: 28802608
L2C AVERAGE MISS LATENCY: 54.4305 cycles
L2C RQ	ACCESS:   15416348	FORWARD:          0	MERGED:          0	TO_CACHE:   15416346
L2C WQ	ACCESS:     342126	FORWARD:          2	MERGED:          0	TO_CACHE:     342126
L2C PQ	ACCESS:   33404362	FORWARD:          0	MERGED:    1101274	TO_CACHE:   32303088

L2C Instructions Evicting Data 0
L2C Translations Evicting Data 1943
L2C Data Evicting Data 15442625
L2C Instructions Evicting Instructions 0
L2C Translations Evicting Instructions 0
L2C Data Evicting Instructions 0
L2C Instructions Evicting Translations 0
L2C Translations Evicting Translations 0
L2C Data Evicting Translations 1947
L2C Dense regions hint from L2: 0
PSCL5 TOTAL     ACCESS:       8038  HIT:       8038  MISS:          0  HIT %:        100  MISS %:          0   MPKI: 0
PSCL5 LOAD TRANSLATION ACCESS:       8038  HIT:       8038  MISS:          0  HIT %:        100  MISS %:          0   MPKI: 0
PSCL5 PREFETCH  REQUESTED:          0  ISSUED:          0  USEFUL:          0  USELESS:          0
PSCL5 USEFUL LOAD PREFETCHES:          0 PREFETCH ISSUED TO LOWER LEVEL:          0  ACCURACY: -nan
PSCL5 TIMELY PREFETCHES:          0 LATE PREFETCHES: 0 DROPPED PREFETCHES: 0
PSCL5 PREFETCHES SAME FILL-ORIGIN LEVEL: 0 DIFFERENT FILL-ORIGIN LEVEL: 0

PSCL4 TOTAL     ACCESS:       8038  HIT:       8038  MISS:          0  HIT %:        100  MISS %:          0   MPKI: 0
PSCL4 LOAD TRANSLATION ACCESS:       8038  HIT:       8038  MISS:          0  HIT %:        100  MISS %:          0   MPKI: 0
PSCL4 PREFETCH  REQUESTED:          0  ISSUED:          0  USEFUL:          0  USELESS:          0
PSCL4 USEFUL LOAD PREFETCHES:          0 PREFETCH ISSUED TO LOWER LEVEL:          0  ACCURACY: -nan
PSCL4 TIMELY PREFETCHES:          0 LATE PREFETCHES: 0 DROPPED PREFETCHES: 0
PSCL4 PREFETCHES SAME FILL-ORIGIN LEVEL: 0 DIFFERENT FILL-ORIGIN LEVEL: 0

PSCL3 TOTAL     ACCESS:       8038  HIT:       8038  MISS:          0  HIT %:        100  MISS %:          0   MPKI: 0
PSCL3 LOAD TRANSLATION ACCESS:       8038  HIT:       8038  MISS:          0  HIT %:        100  MISS %:          0   MPKI: 0
PSCL3 PREFETCH  REQUESTED:          0  ISSUED:          0  USEFUL:          0  USELESS:          0
PSCL3 USEFUL LOAD PREFETCHES:          0 PREFETCH ISSUED TO LOWER LEVEL:          0  ACCURACY: -nan
PSCL3 TIMELY PREFETCHES:          0 LATE PREFETCHES: 0 DROPPED PREFETCHES: 0
PSCL3 PREFETCHES SAME FILL-ORIGIN LEVEL: 0 DIFFERENT FILL-ORIGIN LEVEL: 0

PSCL2 TOTAL     ACCESS:       8038  HIT:       8013  MISS:         25  HIT %:     99.689  MISS %:   0.311023   MPKI: 0.00025
PSCL2 LOAD TRANSLATION ACCESS:       8038  HIT:       8013  MISS:         25  HIT %:     99.689  MISS %:   0.311023   MPKI: 0.00025
PSCL2 PREFETCH  REQUESTED:          0  ISSUED:          0  USEFUL:          0  USELESS:          0
PSCL2 USEFUL LOAD PREFETCHES:          0 PREFETCH ISSUED TO LOWER LEVEL:          0  ACCURACY: -nan
PSCL2 TIMELY PREFETCHES:          0 LATE PREFETCHES: 0 DROPPED PREFETCHES: 0
PSCL2 PREFETCHES SAME FILL-ORIGIN LEVEL: 0 DIFFERENT FILL-ORIGIN LEVEL: 0

LLC TOTAL     ACCESS:   41843401  HIT:   34984869  MISS:    6858532  HIT %:     83.609  MISS %:     16.391   MPKI: 68.5853
LLC LOAD      ACCESS:   13481935  HIT:   10145950  MISS:    3335985  HIT %:    75.2559  MISS %:    24.7441   MPKI: 33.3599
LLC RFO       ACCESS:     272691  HIT:      10359  MISS:     262332  HIT %:    3.79881  MISS %:    96.2012   MPKI: 2.62332
LLC PREFETCH  ACCESS:   27744775  HIT:   24753669  MISS:    2991106  HIT %:    89.2192  MISS %:    10.7808   MPKI: 29.9111
LLC WRITEBACK ACCESS:     342057  HIT:      74870  MISS:     267187  HIT %:    21.8882  MISS %:    78.1118   MPKI: 2.67187
LLC LOAD TRANSLATION ACCESS:       1943  HIT:         21  MISS:       1922  HIT %:     1.0808  MISS %:    98.9192   MPKI: 0.01922
LLC PREFETCH  REQUESTED:          0  ISSUED:          0  USEFUL:     913339  USELESS:    2076838
LLC USEFUL LOAD PREFETCHES:     913339 PREFETCH ISSUED TO LOWER LEVEL:    4463040  ACCURACY: 20.4645
LLC TIMELY PREFETCHES:     913339 LATE PREFETCHES: 1471930 DROPPED PREFETCHES: 0
LLC PREFETCHES SAME FILL-ORIGIN LEVEL: 4424717 DIFFERENT FILL-ORIGIN LEVEL: 0
LLC AVERAGE MISS LATENCY: 107.161 cycles
LLC RQ	ACCESS:   13756569	FORWARD:          0	MERGED:          0	TO_CACHE:   13756569
LLC WQ	ACCESS:     342057	FORWARD:          0	MERGED:          0	TO_CACHE:     342057
LLC PQ	ACCESS:   30492555	FORWARD:          0	MERGED:     749225	TO_CACHE:   29743330

LLC Dense regions hint to LLC: 0

RAW hits: 4134958
Loads Generated: 45421346
Loads sent to L1D: 41286389
Stores Generated: 7122776
Stores sent to L1D: 7122776
Major fault: 0 Minor fault: 13274
Allocated PAGES: 13274
 All Calls: 22620934
 Critical Calls: 22620934
------------------
Depth Distribution
------------------
depth 0: 0
depth 1: 20645695
depth 2: 10066156
depth 3: 6375384
depth 4: 4079671
depth 5: 2658132
depth 6: 2137528
depth 7: 1777898
depth 8: 1242599
depth 9: 655192
depth 10: 61710
depth 11: 2835
depth 12: 93
depth 13: 0
depth 14: 0
depth 15: 0
depth 16: 0
depth 17: 0
depth 18: 0
depth 19: 0
depth 20: 0
depth 21: 0
depth 22: 0
depth 23: 0
depth 24: 0
depth 25: 0
depth 26: 0
depth 27: 0
depth 28: 0
depth 29: 0
Total: 49702893
-----------------------------
-----------------------------
	Captured at Filter
-----------------------------
depth 0: 0
depth 1: 171160
depth 2: 109516
depth 3: 24365
depth 4: 12987
depth 5: 6190
depth 6: 4020
depth 7: 3149
depth 8: 2286
depth 9: 1175
depth 10: 140
depth 11: 8
depth 12: 0
depth 13: 0
depth 14: 0
depth 15: 0
depth 16: 0
depth 17: 0
depth 18: 0
depth 19: 0
depth 20: 0
depth 21: 0
depth 22: 0
depth 23: 0
depth 24: 0
depth 25: 0
depth 26: 0
depth 27: 0
depth 28: 0
depth 29: 0
-----------------------------
-----------------------------
		Lost at Page
-----------------------------
depth 0: 0
depth 1: 1256677
depth 2: 688166
depth 3: 535651
depth 4: 407457
depth 5: 259302
depth 6: 218067
depth 7: 196909
depth 8: 157414
depth 9: 95410
depth 10: 10344
depth 11: 584
depth 12: 22
depth 13: 0
depth 14: 0
depth 15: 0
depth 16: 0
depth 17: 0
depth 18: 0
depth 19: 0
depth 20: 0
depth 21: 0
depth 22: 0
depth 23: 0
depth 24: 0
depth 25: 0
depth 26: 0
depth 27: 0
depth 28: 0
depth 29: 0
-----------------------------
-----------------------------
	Lost due to PQ Size
-----------------------------
4958651
-----------------------------
ST read accesses: 14744648
ST write accesses: 390510
PT read accesses: 278981064
PT write accesses: 22088847
FILTER read accesses: 64106737
FILTER write accesses: 18977289
GHR read accesses: 15928056
GHR write accesses: 2318039
GHR counter read accesses: 226889500
GHR counter write accesses: 18548426
ST tag read accesses: 6019362492
ST tag write accesses: 131938925

DRAM Statistics
 CHANNEL 0
 RQ ROW_BUFFER_HIT:    4475139  ROW_BUFFER_MISS:    2116201
 DBUS_CONGESTED:      36591
 WQ ROW_BUFFER_HIT:     103853  ROW_BUFFER_MISS:     237987  FULL:          0

 AVG_CONGESTED_CYCLE: 4
 All warmup complete: 2
Channel 0 Bank busy for read cycles: 0
Channel 0 Bank busy for write cycles: 0
Channel 0
Rank 0
0banks busy for read cycles: 49345604
0banks busy for write cycles: 62185
1banks busy for read cycles: 92731211
1banks busy for write cycles: 13612449
2banks busy for read cycles: 70444254
2banks busy for write cycles: 7112955
3banks busy for read cycles: 42873476
3banks busy for write cycles: 4485751
4banks busy for read cycles: 21995033
4banks busy for write cycles: 3121462
5banks busy for read cycles: 10069181
5banks busy for write cycles: 2371603
6banks busy for read cycles: 4323558
6banks busy for write cycles: 2064785
7banks busy for read cycles: 1649068
7banks busy for write cycles: 2214396
8banks busy for read cycles: 420736
8banks busy for write cycles: 3019125

CPU 0 Branch Prediction Accuracy: 98.5222% MPKI: 2.69335 Average ROB Occupancy at Mispredict: 73.5936
Branch types
NOT_BRANCH: 81775194 81.7752%
BRANCH_DIRECT_JUMP: 4133385 4.13338%
BRANCH_INDIRECT: 0 0%
BRANCH_CONDITIONAL: 14089840 14.0898%
BRANCH_DIRECT_CALL: 788 0.000788%
BRANCH_INDIRECT_CALL: 0 0%
BRANCH_RETURN: 788 0.000788%
BRANCH_OTHER: 0 0%

DRAM PAGES: 1048576
Allocated PAGES: 13274
