Initialize SIGNATURE TABLE
ST_SET: 1
ST_WAY: 256
ST_TAG_BIT: 16
ST_TAG_MASK: ffff

Initialize PATTERN TABLE
PT_SET: 512
PT_WAY: 4
SIG_DELTA_BIT: 7
C_SIG_BIT: 4
C_DELTA_BIT: 4

Initialize PREFETCH FILTER
FILTER_SET: 1024

*** ChampSim Multicore Out-of-Order Simulator ***

Warmup Instructions: 50000000
Simulation Instructions: 100000000
Number of CPUs: 1
LLC sets: 2048
LLC ways: 16
Off-chip DRAM Size: 4096 MB Channels: 1 Width: 64-bit Data Rate: 6400 MT/s
CPU 0 runs ../SPEC2017//605.mcf_s-1152B.champsimtrace.xz
.xz
NUM_OF_IPS_IN_CRITICAL_IP_TRAINING: 64
NUM_OF_CRITICAL_IP_TRAINING_TABLE_WAYS: 2
NUM_OF_CRITICAL_IP_TRAINING_TABLE_SETS: 32
WOBBLY_CRITICAL_IP_CACHE_SETS: 32
WOBBLY_CRITICAL_IP_CACHE_WAYS: 4
BTB has LRU replacement policy
ITLB has LRU replacement policy
DTLB has LRU replacement policy
STLB has LRU replacement policy
L1I has LRU replacement policy
L1D has LRU replacement policy
Initialize SRRIP state for L2C
Initialize DRRIP state for LLC
Heartbeat CPU 0 instructions: 10000001 cycles: 3330007 heartbeat IPC: 3.003 cumulative IPC: 3.003 (Simulation time: 0 hr 7 min 21 sec) 
Heartbeat CPU 0 instructions: 20000000 cycles: 6661087 heartbeat IPC: 3.00203 cumulative IPC: 3.00251 (Simulation time: 0 hr 13 min 34 sec) 
Heartbeat CPU 0 instructions: 30000001 cycles: 9989804 heartbeat IPC: 3.00416 cumulative IPC: 3.00306 (Simulation time: 0 hr 18 min 33 sec) 
Heartbeat CPU 0 instructions: 40000001 cycles: 13321223 heartbeat IPC: 3.00172 cumulative IPC: 3.00273 (Simulation time: 0 hr 23 min 11 sec) 
Heartbeat CPU 0 instructions: 50000001 cycles: 16655737 heartbeat IPC: 2.99894 cumulative IPC: 3.00197 (Simulation time: 0 hr 27 min 25 sec) 

Warmup complete CPU 0 instructions: 50000001 cycles: 16655737 (Simulation time: 0 hr 27 min 25 sec) 

Heartbeat CPU 0 instructions: 60000001 cycles: 53466516 heartbeat IPC: 0.27166 cumulative IPC: 0.27166 (Simulation time: 0 hr 32 min 31 sec) 
Heartbeat CPU 0 instructions: 70000001 cycles: 91003956 heartbeat IPC: 0.266401 cumulative IPC: 0.269004 (Simulation time: 0 hr 37 min 3 sec) 
Heartbeat CPU 0 instructions: 80000001 cycles: 128089906 heartbeat IPC: 0.269644 cumulative IPC: 0.269217 (Simulation time: 0 hr 41 min 13 sec) 
Heartbeat CPU 0 instructions: 90000003 cycles: 165568794 heartbeat IPC: 0.266817 cumulative IPC: 0.268613 (Simulation time: 0 hr 45 min 10 sec) 
Heartbeat CPU 0 instructions: 100000001 cycles: 203102431 heartbeat IPC: 0.266428 cumulative IPC: 0.268173 (Simulation time: 0 hr 48 min 53 sec) 
Heartbeat CPU 0 instructions: 110000000 cycles: 240514911 heartbeat IPC: 0.26729 cumulative IPC: 0.268026 (Simulation time: 0 hr 53 min 21 sec) 
Heartbeat CPU 0 instructions: 120000002 cycles: 278082662 heartbeat IPC: 0.266186 cumulative IPC: 0.267761 (Simulation time: 1 hr 1 min 36 sec) 
Heartbeat CPU 0 instructions: 130000002 cycles: 315922430 heartbeat IPC: 0.264272 cumulative IPC: 0.26732 (Simulation time: 1 hr 8 min 28 sec) 
Heartbeat CPU 0 instructions: 140000003 cycles: 354287773 heartbeat IPC: 0.260652 cumulative IPC: 0.266562 (Simulation time: 1 hr 14 min 34 sec) 
Heartbeat CPU 0 instructions: 150000001 cycles: 392509591 heartbeat IPC: 0.261631 cumulative IPC: 0.266061 (Simulation time: 1 hr 20 min 26 sec) 
Finished CPU 0 instructions: 100000000 cycles: 375853854 cumulative IPC: 0.266061 (Simulation time: 1 hr 20 min 26 sec) 

ChampSim completed all CPUs

Region of Interest Statistics

CPU 0 cumulative IPC: 0.266061 instructions: 100000000 cycles: 375853854

CPU 0 Average Load ROB stall cycles: 8.69729e+07
CPU 0 Fraction of times ROB stalled by Loads: 43.4259
CPU 0 Percentage of Load stall cycles in Total stall cycles: 7.70697e+08
Issued all: 58284535
Issued LT all: 46022677
rob_not_full_when_issued_lt_all: 42003224
Issued LT one: 35921417
rob_not_full_when_issued_lt_one: 32498188
 Total stall cycles: 327641037
 Total load stall cycles: 2525121144091065
CPU 0 NUM of IPS identified critical: 0
CPU 0 Num of Load IPs stalling ROB: 260
Threshold modification factor: 0
Max PIST entries: 64
Min PIST entries: 0
Avg PIST entries: 40.0133
Trouble in retire width: 0.97664
MaC = Marked as critical.
lt_50_percent_before_Mac: 0
gt_90_percent_before_Mac: 0
gt_75_percent_before_Mac: 0
gt_50_percent_before_Mac: 0
stall_proportion_bin_same_before_after: 0
stall_proportion_bin_lower_before_after: 0
stall_proportion_bin_upper_before_after: 0
average_stall_proportion_before: -nan
average_stall_proportion_after: -nan
Critical IP stalls, total frequency: 0
Non-critical IP stalls, total frequency: 12608032
Total Freq all stalling IPs: 12608032
stat_90_percent_critical_ip_stalls_freq: 11356006
stat_90_percent_non_critical_ip_stalls_freq: 1252026
Critical_IP_ROB_Stalls_Bucket_0: 0
Non-critical_IP_ROB_Stalls_Bucket_0: 10293213
Critical_IP_ROB_Stalls_Bucket_1: 0
Non-critical_IP_ROB_Stalls_Bucket_1: 1265365
Critical_IP_ROB_Stalls_Bucket_2: 0
Non-critical_IP_ROB_Stalls_Bucket_2: 436541
Critical_IP_ROB_Stalls_Bucket_3: 0
Non-critical_IP_ROB_Stalls_Bucket_3: 187096
Critical_IP_ROB_Stalls_Bucket_4: 0
Non-critical_IP_ROB_Stalls_Bucket_4: 127712
Critical_IP_ROB_Stalls_Bucket_5: 0
Non-critical_IP_ROB_Stalls_Bucket_5: 82846
Critical_IP_ROB_Stalls_Bucket_6: 0
Non-critical_IP_ROB_Stalls_Bucket_6: 215259
0 => IPs accounting for >50 percent of stalls, 1 => 55, 2 => 60, 3 => 65 and so on till 90.
percent50: 51.2 num IPs:  6
percent55: 55.9193 num IPs: 7
percent60: 60.4645 num IPs: 8
percent65: 67.5157 num IPs: 10
percent70: 70.4625 num IPs: 11
percent75: 75.0784 num IPs: 13
percent80: 80.5819 num IPs: 16
percent85: 85.1491 num IPs: 19
percent90: 90.0696 num IPs: 27
Critical_ROB_Stalls_Percent_0_Bucket_0: 5078863
Non-critical_ROB_Stalls_Percent_0_Bucket_0: 5214350
Critical_ROB_Stalls_Percent_0_Bucket_1: 744942
Non-critical_ROB_Stalls_Percent_0_Bucket_1: 520423
Critical_ROB_Stalls_Percent_0_Bucket_2: 302541
Non-critical_ROB_Stalls_Percent_0_Bucket_2: 134000
Critical_ROB_Stalls_Percent_0_Bucket_3: 101880
Non-critical_ROB_Stalls_Percent_0_Bucket_3: 85216
Critical_ROB_Stalls_Percent_0_Bucket_4: 77774
Non-critical_ROB_Stalls_Percent_0_Bucket_4: 49938
Critical_ROB_Stalls_Percent_0_Bucket_5: 44255
Non-critical_ROB_Stalls_Percent_0_Bucket_5: 38591
Critical_ROB_Stalls_Percent_0_Bucket_6: 105055
Non-critical_ROB_Stalls_Percent_0_Bucket_6: 110204
Critical_ROB_Stalls_Percent_1_Bucket_0: 5586622
Non-critical_ROB_Stalls_Percent_1_Bucket_0: 4706591
Critical_ROB_Stalls_Percent_1_Bucket_1: 803374
Non-critical_ROB_Stalls_Percent_1_Bucket_1: 461991
Critical_ROB_Stalls_Percent_1_Bucket_2: 310522
Non-critical_ROB_Stalls_Percent_1_Bucket_2: 126019
Critical_ROB_Stalls_Percent_1_Bucket_3: 108124
Non-critical_ROB_Stalls_Percent_1_Bucket_3: 78972
Critical_ROB_Stalls_Percent_1_Bucket_4: 81566
Non-critical_ROB_Stalls_Percent_1_Bucket_4: 46146
Critical_ROB_Stalls_Percent_1_Bucket_5: 46888
Non-critical_ROB_Stalls_Percent_1_Bucket_5: 35958
Critical_ROB_Stalls_Percent_1_Bucket_6: 113224
Non-critical_ROB_Stalls_Percent_1_Bucket_6: 102035
Critical_ROB_Stalls_Percent_2_Bucket_0: 6100557
Non-critical_ROB_Stalls_Percent_2_Bucket_0: 4192656
Critical_ROB_Stalls_Percent_2_Bucket_1: 831563
Non-critical_ROB_Stalls_Percent_2_Bucket_1: 433802
Critical_ROB_Stalls_Percent_2_Bucket_2: 319430
Non-critical_ROB_Stalls_Percent_2_Bucket_2: 117111
Critical_ROB_Stalls_Percent_2_Bucket_3: 117067
Non-critical_ROB_Stalls_Percent_2_Bucket_3: 70029
Critical_ROB_Stalls_Percent_2_Bucket_4: 85429
Non-critical_ROB_Stalls_Percent_2_Bucket_4: 42283
Critical_ROB_Stalls_Percent_2_Bucket_5: 50980
Non-critical_ROB_Stalls_Percent_2_Bucket_5: 31866
Critical_ROB_Stalls_Percent_2_Bucket_6: 118351
Non-critical_ROB_Stalls_Percent_2_Bucket_6: 96908
Critical_ROB_Stalls_Percent_3_Bucket_0: 6895140
Non-critical_ROB_Stalls_Percent_3_Bucket_0: 3398073
Critical_ROB_Stalls_Percent_3_Bucket_1: 880428
Non-critical_ROB_Stalls_Percent_3_Bucket_1: 384937
Critical_ROB_Stalls_Percent_3_Bucket_2: 336599
Non-critical_ROB_Stalls_Percent_3_Bucket_2: 99942
Critical_ROB_Stalls_Percent_3_Bucket_3: 126280
Non-critical_ROB_Stalls_Percent_3_Bucket_3: 60816
Critical_ROB_Stalls_Percent_3_Bucket_4: 90408
Non-critical_ROB_Stalls_Percent_3_Bucket_4: 37304
Critical_ROB_Stalls_Percent_3_Bucket_5: 55072
Non-critical_ROB_Stalls_Percent_3_Bucket_5: 27774
Critical_ROB_Stalls_Percent_3_Bucket_6: 128470
Non-critical_ROB_Stalls_Percent_3_Bucket_6: 86789
Critical_ROB_Stalls_Percent_4_Bucket_0: 7238449
Non-critical_ROB_Stalls_Percent_4_Bucket_0: 3054764
Critical_ROB_Stalls_Percent_4_Bucket_1: 902861
Non-critical_ROB_Stalls_Percent_4_Bucket_1: 362504
Critical_ROB_Stalls_Percent_4_Bucket_2: 338960
Non-critical_ROB_Stalls_Percent_4_Bucket_2: 97581
Critical_ROB_Stalls_Percent_4_Bucket_3: 127467
Non-critical_ROB_Stalls_Percent_4_Bucket_3: 59629
Critical_ROB_Stalls_Percent_4_Bucket_4: 90939
Non-critical_ROB_Stalls_Percent_4_Bucket_4: 36773
Critical_ROB_Stalls_Percent_4_Bucket_5: 55495
Non-critical_ROB_Stalls_Percent_4_Bucket_5: 27351
Critical_ROB_Stalls_Percent_4_Bucket_6: 129766
Non-critical_ROB_Stalls_Percent_4_Bucket_6: 85493
Critical_ROB_Stalls_Percent_5_Bucket_0: 7756419
Non-critical_ROB_Stalls_Percent_5_Bucket_0: 2536794
Critical_ROB_Stalls_Percent_5_Bucket_1: 939918
Non-critical_ROB_Stalls_Percent_5_Bucket_1: 325447
Critical_ROB_Stalls_Percent_5_Bucket_2: 350757
Non-critical_ROB_Stalls_Percent_5_Bucket_2: 85784
Critical_ROB_Stalls_Percent_5_Bucket_3: 133662
Non-critical_ROB_Stalls_Percent_5_Bucket_3: 53434
Critical_ROB_Stalls_Percent_5_Bucket_4: 93564
Non-critical_ROB_Stalls_Percent_5_Bucket_4: 34148
Critical_ROB_Stalls_Percent_5_Bucket_5: 57943
Non-critical_ROB_Stalls_Percent_5_Bucket_5: 24903
Critical_ROB_Stalls_Percent_5_Bucket_6: 133651
Non-critical_ROB_Stalls_Percent_5_Bucket_6: 81608
Critical_ROB_Stalls_Percent_6_Bucket_0: 8449631
Non-critical_ROB_Stalls_Percent_6_Bucket_0: 1843582
Critical_ROB_Stalls_Percent_6_Bucket_1: 940497
Non-critical_ROB_Stalls_Percent_6_Bucket_1: 324868
Critical_ROB_Stalls_Percent_6_Bucket_2: 350795
Non-critical_ROB_Stalls_Percent_6_Bucket_2: 85746
Critical_ROB_Stalls_Percent_6_Bucket_3: 133687
Non-critical_ROB_Stalls_Percent_6_Bucket_3: 53409
Critical_ROB_Stalls_Percent_6_Bucket_4: 93579
Non-critical_ROB_Stalls_Percent_6_Bucket_4: 34133
Critical_ROB_Stalls_Percent_6_Bucket_5: 57952
Non-critical_ROB_Stalls_Percent_6_Bucket_5: 24894
Critical_ROB_Stalls_Percent_6_Bucket_6: 133654
Non-critical_ROB_Stalls_Percent_6_Bucket_6: 81605
Critical_ROB_Stalls_Percent_7_Bucket_0: 9002290
Non-critical_ROB_Stalls_Percent_7_Bucket_0: 1290923
Critical_ROB_Stalls_Percent_7_Bucket_1: 951320
Non-critical_ROB_Stalls_Percent_7_Bucket_1: 314045
Critical_ROB_Stalls_Percent_7_Bucket_2: 353653
Non-critical_ROB_Stalls_Percent_7_Bucket_2: 82888
Critical_ROB_Stalls_Percent_7_Bucket_3: 135770
Non-critical_ROB_Stalls_Percent_7_Bucket_3: 51326
Critical_ROB_Stalls_Percent_7_Bucket_4: 94851
Non-critical_ROB_Stalls_Percent_7_Bucket_4: 32861
Critical_ROB_Stalls_Percent_7_Bucket_5: 59207
Non-critical_ROB_Stalls_Percent_7_Bucket_5: 23639
Critical_ROB_Stalls_Percent_7_Bucket_6: 138535
Non-critical_ROB_Stalls_Percent_7_Bucket_6: 76724
Critical_ROB_Stalls_Percent_8_Bucket_0: 9440176
Non-critical_ROB_Stalls_Percent_8_Bucket_0: 853037
Critical_ROB_Stalls_Percent_8_Bucket_1: 1081906
Non-critical_ROB_Stalls_Percent_8_Bucket_1: 183459
Critical_ROB_Stalls_Percent_8_Bucket_2: 381602
Non-critical_ROB_Stalls_Percent_8_Bucket_2: 54939
Critical_ROB_Stalls_Percent_8_Bucket_3: 146247
Non-critical_ROB_Stalls_Percent_8_Bucket_3: 40849
Critical_ROB_Stalls_Percent_8_Bucket_4: 99343
Non-critical_ROB_Stalls_Percent_8_Bucket_4: 28369
Critical_ROB_Stalls_Percent_8_Bucket_5: 61618
Non-critical_ROB_Stalls_Percent_8_Bucket_5: 21228
Critical_ROB_Stalls_Percent_8_Bucket_6: 145114
Non-critical_ROB_Stalls_Percent_8_Bucket_6: 70145
Average ROB occupancy Load Stall Begin: 33.7855
Average ROB occupancy Load Stall End: 38.267
Min ROB occupancy Load Stall Begin: 1
Max ROB occupancy Load Stall Begin: 352
Min ROB occupancy Load Stall End: 1
Max ROB occupancy Load Stall End: 352
Average ROB occupancy Critical Load Stall Begin: -nan
Average ROB occupancy Critical Load Stall End: -nan
Min ROB occupancy Critical Load Stall Begin: 400
Max ROB occupancy Critical Load Stall Begin: 0
Min ROB occupancy Critical Load Stall End: 400
Max ROB occupancy Critical Load Stall End: 0
 ROB Load Stall Begin Bucket Count 0: 10611729
 ROB Load Stall End Bucket Count 0: 10293213
 ROB Critical Load Stall Begin Bucket Count 0: 0
 ROB Critical Load Stall End Bucket Count 0: 0
 ROB Load Stall Begin Bucket Count 1: 1071630
 ROB Load Stall End Bucket Count 1: 1265365
 ROB Critical Load Stall Begin Bucket Count 1: 0
 ROB Critical Load Stall End Bucket Count 1: 0
 ROB Load Stall Begin Bucket Count 2: 364941
 ROB Load Stall End Bucket Count 2: 436541
 ROB Critical Load Stall Begin Bucket Count 2: 0
 ROB Critical Load Stall End Bucket Count 2: 0
 ROB Load Stall Begin Bucket Count 3: 165303
 ROB Load Stall End Bucket Count 3: 187096
 ROB Critical Load Stall Begin Bucket Count 3: 0
 ROB Critical Load Stall End Bucket Count 3: 0
 ROB Load Stall Begin Bucket Count 4: 115289
 ROB Load Stall End Bucket Count 4: 127712
 ROB Critical Load Stall Begin Bucket Count 4: 0
 ROB Critical Load Stall End Bucket Count 4: 0
 ROB Load Stall Begin Bucket Count 5: 78492
 ROB Load Stall End Bucket Count 5: 82846
 ROB Critical Load Stall Begin Bucket Count 5: 0
 ROB Critical Load Stall End Bucket Count 5: 0
 ROB Load Stall Begin Bucket Count 6: 200648
 ROB Load Stall End Bucket Count 6: 215259
 ROB Critical Load Stall Begin Bucket Count 6: 0
 ROB Critical Load Stall End Bucket Count 6: 0
PIST Tag Read Accesses: 815534
PIST Read Accesses: 407767
PIST Tag Write Accesses: 815534
PIST Write Accesses: 407767
Criticality detector called times: 3123712
Max global_stall_cycles_count: 1095892
Threshold Modified: 0 times, factor: 0
Sturdy critical IP cache stats: 
 Unused entries: 0
CIC Tag Read Accesses: 0
CIC Read Accesses: 0
CIC Tag Write Accesses: 0
CIC Write Accesses: 0
Wobbly critical IP cache stats: 
 Unused entries: 102
CIC Tag Read Accesses: 343696421
CIC Read Accesses: 0
CIC Tag Write Accesses: 2358593
CIC Write Accesses: 0
ITLB TOTAL     ACCESS:   17479300  HIT:   17479300  MISS:          0  HIT %:        100  MISS %:          0   MPKI: 0
ITLB LOAD TRANSLATION ACCESS:   17479300  HIT:   17479300  MISS:          0  HIT %:        100  MISS %:          0   MPKI: 0
ITLB PREFETCH  REQUESTED:          0  ISSUED:          0  USEFUL:          0  USELESS:          0
ITLB USEFUL LOAD PREFETCHES:          0 PREFETCH ISSUED TO LOWER LEVEL:          0  ACCURACY: -nan
ITLB TIMELY PREFETCHES:          0 LATE PREFETCHES: 0 DROPPED PREFETCHES: 0
ITLB PREFETCHES SAME FILL-ORIGIN LEVEL: 0 DIFFERENT FILL-ORIGIN LEVEL: 0
ITLB AVERAGE MISS LATENCY: -nan cycles
ITLB RQ	ACCESS:   18273205	FORWARD:          0	MERGED:     793905	TO_CACHE:   17479300

DTLB TOTAL     ACCESS:   28854759  HIT:   25912252  MISS:    2942507  HIT %:    89.8024  MISS %:    10.1976   MPKI: 29.4251
DTLB LOAD TRANSLATION ACCESS:   28854759  HIT:   25912252  MISS:    2942507  HIT %:    89.8024  MISS %:    10.1976   MPKI: 29.4251
DTLB PREFETCH  REQUESTED:          0  ISSUED:          0  USEFUL:          0  USELESS:          0
DTLB USEFUL LOAD PREFETCHES:          0 PREFETCH ISSUED TO LOWER LEVEL:          0  ACCURACY: -nan
DTLB TIMELY PREFETCHES:          0 LATE PREFETCHES: 0 DROPPED PREFETCHES: 0
DTLB PREFETCHES SAME FILL-ORIGIN LEVEL: 0 DIFFERENT FILL-ORIGIN LEVEL: 0
DTLB AVERAGE MISS LATENCY: 10.7118 cycles
DTLB RQ	ACCESS:   35126339	FORWARD:          0	MERGED:    6070996	TO_CACHE:   29055343

STLB TOTAL     ACCESS:    2942507  HIT:    2904257  MISS:      38250  HIT %:    98.7001  MISS %:    1.29991   MPKI: 0.3825
STLB LOAD TRANSLATION ACCESS:    2942507  HIT:    2904257  MISS:      38250  HIT %:    98.7001  MISS %:    1.29991   MPKI: 0.3825
STLB PREFETCH  REQUESTED:          0  ISSUED:          0  USEFUL:          0  USELESS:          0
STLB USEFUL LOAD PREFETCHES:          0 PREFETCH ISSUED TO LOWER LEVEL:          0  ACCURACY: -nan
STLB TIMELY PREFETCHES:          0 LATE PREFETCHES: 0 DROPPED PREFETCHES: 0
STLB PREFETCHES SAME FILL-ORIGIN LEVEL: 0 DIFFERENT FILL-ORIGIN LEVEL: 0
STLB AVERAGE MISS LATENCY: 121.625 cycles
STLB RQ	ACCESS:    2942507	FORWARD:          0	MERGED:          0	TO_CACHE:    2942507

STLB Hit, L1D data hit: 0
STLB Hit, L2C data hit: 0
STLB Hit, LLC data hit: 0
STLB Hit, LLC data miss: 0
STLB STLB hints to L2: 0
L1D TOTAL     ACCESS:   34374570  HIT:   28644677  MISS:    5729893  HIT %:     83.331  MISS %:     16.669   MPKI: 57.2989
L1D LOAD      ACCESS:   25043368  HIT:   19649715  MISS:    5393653  HIT %:    78.4627  MISS %:    21.5373   MPKI: 53.9365
L1D RFO       ACCESS:    9331202  HIT:    8994962  MISS:     336240  HIT %:    96.3966  MISS %:    3.60339   MPKI: 3.3624
L1D PREFETCH  REQUESTED:          0  ISSUED:          0  USEFUL:          0  USELESS:          0
L1D USEFUL LOAD PREFETCHES:          0 PREFETCH ISSUED TO LOWER LEVEL:          0  ACCURACY: -nan
L1D TIMELY PREFETCHES:          0 LATE PREFETCHES: 0 DROPPED PREFETCHES: 0
L1D PREFETCHES SAME FILL-ORIGIN LEVEL: 0 DIFFERENT FILL-ORIGIN LEVEL: 0
L1D AVERAGE MISS LATENCY: 62.6183 cycles
L1D RQ	ACCESS:   34108536	FORWARD:          0	MERGED:    7885793	TO_CACHE:   25248811
L1D WQ	ACCESS:    9921850	FORWARD:     973932	MERGED:      44322	TO_CACHE:    9877528

L1D UNIQUE REGIONS ACCESSED: 0
L1D REGIONS CONFLICTS: 0
L1D Cross Page Prefetch Requests: 0
L1D Same Page Prefetch Requests: 0
L1D ROI Sum of L1D PQ occupancy: 0
L1D PREFETCHES PUSHED FROM L2C: 0
L1I TOTAL     ACCESS:   18273205  HIT:   18273205  MISS:          0  HIT %:        100  MISS %:          0   MPKI: 0
L1I LOAD      ACCESS:   18273205  HIT:   18273205  MISS:          0  HIT %:        100  MISS %:          0   MPKI: 0
L1I PREFETCH  REQUESTED:          0  ISSUED:          0  USEFUL:          0  USELESS:          0
L1I USEFUL LOAD PREFETCHES:          0 PREFETCH ISSUED TO LOWER LEVEL:          0  ACCURACY: -nan
L1I TIMELY PREFETCHES:          0 LATE PREFETCHES: 0 DROPPED PREFETCHES: 0
L1I PREFETCHES SAME FILL-ORIGIN LEVEL: 0 DIFFERENT FILL-ORIGIN LEVEL: 0
L1I AVERAGE MISS LATENCY: -nan cycles
L1I RQ	ACCESS:   28581275	FORWARD:          0	MERGED:   10308070	TO_CACHE:   18273205

BTB TOTAL     ACCESS:   24144380  HIT:   23206832  MISS:     937548  HIT %:    96.1169  MISS %:    3.88309   MPKI: 9.37548
BTB BRANCH_DIRECT_JUMP	ACCESS:    2725127  HIT:    2725091  MISS:         36
BTB BRANCH_INDIRECT	ACCESS:          0  HIT:          0  MISS:          0
BTB BRANCH_CONDITIONAL	ACCESS:   17002725  HIT:   17002650  MISS:         75
BTB BRANCH_DIRECT_CALL	ACCESS:    2072101  HIT:    2072083  MISS:         18
BTB BRANCH_INDIRECT_CALL	ACCESS:     136160  HIT:     136152  MISS:          8
BTB BRANCH_RETURN	ACCESS:    2208267  HIT:    1270856  MISS:     937411
BTB BRANCH_OTHER ACCESS:          0  HIT:          0  MISS:          0

L2C TOTAL     ACCESS:    6484851  HIT:    2488716  MISS:    3996135  HIT %:    38.3774  MISS %:    61.6226   MPKI: 39.9614
L2C LOAD      ACCESS:    5393637  HIT:    1582678  MISS:    3810959  HIT %:    29.3434  MISS %:    70.6566   MPKI: 38.1096
L2C DATA LOAD MPKI: 38.1096
L2C INSTRUCTION LOAD MPKI: 0
L2C RFO       ACCESS:     336239  HIT:     320570  MISS:      15669  HIT %:    95.3399  MISS %:    4.66008   MPKI: 0.15669
L2C PREFETCH  ACCESS:     233074  HIT:      75979  MISS:     157095  HIT %:    32.5987  MISS %:    67.4013   MPKI: 1.57095
L2C DATA PREFETCH MPKI: 1.57095
L2C INSTRUCTION PREFETCH MPKI: 0
L2C WRITEBACK ACCESS:     483456  HIT:     483395  MISS:         61  HIT %:    99.9874  MISS %:  0.0126175   MPKI: 0.00061
L2C LOAD TRANSLATION ACCESS:      38445  HIT:      26094  MISS:      12351  HIT %:    67.8736  MISS %:    32.1264   MPKI: 0.12351
L2C PREFETCH  REQUESTED:    4942103  ISSUED:    4942093  USEFUL:     141321  USELESS:      15720
L2C USEFUL LOAD PREFETCHES:     141321 PREFETCH ISSUED TO LOWER LEVEL:    4028591  ACCURACY: 3.50795
L2C TIMELY PREFETCHES:     141321 LATE PREFETCHES: 242367 DROPPED PREFETCHES: 0
L2C PREFETCHES SAME FILL-ORIGIN LEVEL: 399462 DIFFERENT FILL-ORIGIN LEVEL: 3629129
L2C AVERAGE MISS LATENCY: 71.8989 cycles
L2C RQ	ACCESS:    5768338	FORWARD:          0	MERGED:          0	TO_CACHE:    5768321
L2C WQ	ACCESS:     483456	FORWARD:         17	MERGED:          0	TO_CACHE:     483456
L2C PQ	ACCESS:    4942093	FORWARD:          0	MERGED:     566736	TO_CACHE:    4375357

L2C Instructions Evicting Data 0
L2C Translations Evicting Data 12323
L2C Data Evicting Data 3971406
L2C Instructions Evicting Instructions 0
L2C Translations Evicting Instructions 0
L2C Data Evicting Instructions 0
L2C Instructions Evicting Translations 0
L2C Translations Evicting Translations 28
L2C Data Evicting Translations 12317
L2C Dense regions hint from L2: 0
PSCL5 TOTAL     ACCESS:      38250  HIT:      38250  MISS:          0  HIT %:        100  MISS %:          0   MPKI: 0
PSCL5 LOAD TRANSLATION ACCESS:      38250  HIT:      38250  MISS:          0  HIT %:        100  MISS %:          0   MPKI: 0
PSCL5 PREFETCH  REQUESTED:          0  ISSUED:          0  USEFUL:          0  USELESS:          0
PSCL5 USEFUL LOAD PREFETCHES:          0 PREFETCH ISSUED TO LOWER LEVEL:          0  ACCURACY: -nan
PSCL5 TIMELY PREFETCHES:          0 LATE PREFETCHES: 0 DROPPED PREFETCHES: 0
PSCL5 PREFETCHES SAME FILL-ORIGIN LEVEL: 0 DIFFERENT FILL-ORIGIN LEVEL: 0

PSCL4 TOTAL     ACCESS:      38250  HIT:      38250  MISS:          0  HIT %:        100  MISS %:          0   MPKI: 0
PSCL4 LOAD TRANSLATION ACCESS:      38250  HIT:      38250  MISS:          0  HIT %:        100  MISS %:          0   MPKI: 0
PSCL4 PREFETCH  REQUESTED:          0  ISSUED:          0  USEFUL:          0  USELESS:          0
PSCL4 USEFUL LOAD PREFETCHES:          0 PREFETCH ISSUED TO LOWER LEVEL:          0  ACCURACY: -nan
PSCL4 TIMELY PREFETCHES:          0 LATE PREFETCHES: 0 DROPPED PREFETCHES: 0
PSCL4 PREFETCHES SAME FILL-ORIGIN LEVEL: 0 DIFFERENT FILL-ORIGIN LEVEL: 0

PSCL3 TOTAL     ACCESS:      38250  HIT:      38250  MISS:          0  HIT %:        100  MISS %:          0   MPKI: 0
PSCL3 LOAD TRANSLATION ACCESS:      38250  HIT:      38250  MISS:          0  HIT %:        100  MISS %:          0   MPKI: 0
PSCL3 PREFETCH  REQUESTED:          0  ISSUED:          0  USEFUL:          0  USELESS:          0
PSCL3 USEFUL LOAD PREFETCHES:          0 PREFETCH ISSUED TO LOWER LEVEL:          0  ACCURACY: -nan
PSCL3 TIMELY PREFETCHES:          0 LATE PREFETCHES: 0 DROPPED PREFETCHES: 0
PSCL3 PREFETCHES SAME FILL-ORIGIN LEVEL: 0 DIFFERENT FILL-ORIGIN LEVEL: 0

PSCL2 TOTAL     ACCESS:      38250  HIT:      37856  MISS:        394  HIT %:    98.9699  MISS %:    1.03007   MPKI: 0.00394
PSCL2 LOAD TRANSLATION ACCESS:      38250  HIT:      37856  MISS:        394  HIT %:    98.9699  MISS %:    1.03007   MPKI: 0.00394
PSCL2 PREFETCH  REQUESTED:          0  ISSUED:          0  USEFUL:          0  USELESS:          0
PSCL2 USEFUL LOAD PREFETCHES:          0 PREFETCH ISSUED TO LOWER LEVEL:          0  ACCURACY: -nan
PSCL2 TIMELY PREFETCHES:          0 LATE PREFETCHES: 0 DROPPED PREFETCHES: 0
PSCL2 PREFETCHES SAME FILL-ORIGIN LEVEL: 0 DIFFERENT FILL-ORIGIN LEVEL: 0

LLC TOTAL     ACCESS:    6219612  HIT:    3904500  MISS:    2315112  HIT %:    62.7772  MISS %:    37.2228   MPKI: 23.1511
LLC LOAD      ACCESS:    3568591  HIT:    2515933  MISS:    1052658  HIT %:    70.5021  MISS %:    29.4979   MPKI: 10.5266
LLC RFO       ACCESS:      15668  HIT:      13436  MISS:       2232  HIT %:    85.7544  MISS %:    14.2456   MPKI: 0.02232
LLC PREFETCH  ACCESS:    2576573  HIT:    1336479  MISS:    1240094  HIT %:    51.8704  MISS %:    48.1296   MPKI: 12.4009
LLC WRITEBACK ACCESS:      46429  HIT:      32429  MISS:      14000  HIT %:    69.8464  MISS %:    30.1536   MPKI: 0.14
LLC LOAD TRANSLATION ACCESS:      12351  HIT:       6223  MISS:       6128  HIT %:    50.3846  MISS %:    49.6154   MPKI: 0.06128
LLC PREFETCH  REQUESTED:          0  ISSUED:          0  USEFUL:     750443  USELESS:     483489
LLC USEFUL LOAD PREFETCHES:     750443 PREFETCH ISSUED TO LOWER LEVEL:    1582133  ACCURACY: 47.4324
LLC TIMELY PREFETCHES:     750443 LATE PREFETCHES: 342038 DROPPED PREFETCHES: 0
LLC PREFETCHES SAME FILL-ORIGIN LEVEL: 1497531 DIFFERENT FILL-ORIGIN LEVEL: 0
LLC AVERAGE MISS LATENCY: 128.574 cycles
LLC RQ	ACCESS:    3596612	FORWARD:          0	MERGED:          0	TO_CACHE:    3596610
LLC WQ	ACCESS:      46429	FORWARD:          2	MERGED:          0	TO_CACHE:      46429
LLC PQ	ACCESS:    4028591	FORWARD:          0	MERGED:     218030	TO_CACHE:    3810561

LLC Dense regions hint to LLC: 0

RAW hits: 1309443
Loads Generated: 35417979
Loads sent to L1D: 34108536
Stores Generated: 9921850
Stores sent to L1D: 9921850
Major fault: 0 Minor fault: 38847
Allocated PAGES: 38847
 All Calls: 7792405
 Critical Calls: 4714404
------------------
Depth Distribution
------------------
depth 0: 0
depth 1: 1662152
depth 2: 1527371
depth 3: 972541
depth 4: 532000
depth 5: 216539
depth 6: 28046
depth 7: 3082
depth 8: 338
depth 9: 24
depth 10: 0
depth 11: 0
depth 12: 0
depth 13: 0
depth 14: 0
depth 15: 0
depth 16: 0
depth 17: 0
depth 18: 0
depth 19: 0
depth 20: 0
depth 21: 0
depth 22: 0
depth 23: 0
depth 24: 0
depth 25: 0
depth 26: 0
depth 27: 0
depth 28: 0
depth 29: 0
Total: 4942093
-----------------------------
-----------------------------
	Captured at Filter
-----------------------------
depth 0: 0
depth 1: 5598
depth 2: 2995
depth 3: 1933
depth 4: 1029
depth 5: 415
depth 6: 77
depth 7: 5
depth 8: 1
depth 9: 0
depth 10: 0
depth 11: 0
depth 12: 0
depth 13: 0
depth 14: 0
depth 15: 0
depth 16: 0
depth 17: 0
depth 18: 0
depth 19: 0
depth 20: 0
depth 21: 0
depth 22: 0
depth 23: 0
depth 24: 0
depth 25: 0
depth 26: 0
depth 27: 0
depth 28: 0
depth 29: 0
-----------------------------
-----------------------------
		Lost at Page
-----------------------------
depth 0: 0
depth 1: 35866
depth 2: 46442
depth 3: 44376
depth 4: 32965
depth 5: 17009
depth 6: 2606
depth 7: 378
depth 8: 52
depth 9: 7
depth 10: 0
depth 11: 0
depth 12: 0
depth 13: 0
depth 14: 0
depth 15: 0
depth 16: 0
depth 17: 0
depth 18: 0
depth 19: 0
depth 20: 0
depth 21: 0
depth 22: 0
depth 23: 0
depth 24: 0
depth 25: 0
depth 26: 0
depth 27: 0
depth 28: 0
depth 29: 0
-----------------------------
-----------------------------
	Lost due to PQ Size
-----------------------------
10
-----------------------------
ST read accesses: 3066141
ST write accesses: 1648263
PT read accesses: 54003400
PT write accesses: 3736632
FILTER read accesses: 13664544
FILTER write accesses: 5003529
GHR read accesses: 14293417
GHR write accesses: 179701
GHR counter read accesses: 48737464
GHR counter write accesses: 5678385
ST tag read accesses: 2656167011
ST tag write accesses: 549388601

DRAM Statistics
 CHANNEL 0
 RQ ROW_BUFFER_HIT:    1117694  ROW_BUFFER_MISS:    1183416
 DBUS_CONGESTED:        407
 WQ ROW_BUFFER_HIT:       2372  ROW_BUFFER_MISS:      20550  FULL:          0

 AVG_CONGESTED_CYCLE: 5
 All warmup complete: 2
Channel 0 Bank busy for read cycles: 0
Channel 0 Bank busy for write cycles: 0
Channel 0
Rank 0
0banks busy for read cycles: 268935864
0banks busy for write cycles: 20806
1banks busy for read cycles: 45971442
1banks busy for write cycles: 3692613
2banks busy for read cycles: 23178297
2banks busy for write cycles: 302365
3banks busy for read cycles: 13689484
3banks busy for write cycles: 33097
4banks busy for read cycles: 8896318
4banks busy for write cycles: 4143
5banks busy for read cycles: 5694087
5banks busy for write cycles: 399
6banks busy for read cycles: 3073822
6banks busy for write cycles: 392
7banks busy for read cycles: 1377319
7banks busy for write cycles: 0
8banks busy for read cycles: 983407
8banks busy for write cycles: 0

CPU 0 Branch Prediction Accuracy: 93.8692% MPKI: 15.451 Average ROB Occupancy at Mispredict: 24.4385
Branch types
NOT_BRANCH: 74797529 74.7975%
BRANCH_DIRECT_JUMP: 2725127 2.72513%
BRANCH_INDIRECT: 0 0%
BRANCH_CONDITIONAL: 18060505 18.0605%
BRANCH_DIRECT_CALL: 2072101 2.0721%
BRANCH_INDIRECT_CALL: 136160 0.13616%
BRANCH_RETURN: 2208267 2.20827%
BRANCH_OTHER: 0 0%

DRAM PAGES: 1048576
Allocated PAGES: 38847
