
*** ChampSim Multicore Out-of-Order Simulator ***

Warmup Instructions: 50000000
Simulation Instructions: 100000000
Number of CPUs: 1
LLC sets: 2048
LLC ways: 16
Off-chip DRAM Size: 4096 MB Channels: 1 Width: 64-bit Data Rate: 6400 MT/s
CPU 0 runs ../SPEC_2006_2017//605.mcf_s-665B.champsimtrace.xz
.xz
NUM_OF_IPS_IN_CRITICAL_IP_TRAINING: 64
NUM_OF_CRITICAL_IP_TRAINING_TABLE_WAYS: 2
NUM_OF_CRITICAL_IP_TRAINING_TABLE_SETS: 32
WOBBLY_CRITICAL_IP_CACHE_SETS: 32
WOBBLY_CRITICAL_IP_CACHE_WAYS: 4
BTB has LRU replacement policy
ITLB has LRU replacement policy
DTLB has LRU replacement policy
STLB has LRU replacement policy
L1I has LRU replacement policy
IP Table Entries: 64
L1D has LRU replacement policy
Initialize SRRIP state for L2C
Initialize DRRIP state for LLC
Heartbeat CPU 0 instructions: 10000000 cycles: 3317911 heartbeat IPC: 3.01394 cumulative IPC: 3.01394 (Simulation time: 0 hr 5 min 18 sec) 
Heartbeat CPU 0 instructions: 20000000 cycles: 6640916 heartbeat IPC: 3.00932 cumulative IPC: 3.01163 (Simulation time: 0 hr 10 min 20 sec) 
Heartbeat CPU 0 instructions: 30000002 cycles: 9955929 heartbeat IPC: 3.01658 cumulative IPC: 3.01328 (Simulation time: 0 hr 15 min 16 sec) 
Heartbeat CPU 0 instructions: 40000003 cycles: 13270944 heartbeat IPC: 3.01658 cumulative IPC: 3.0141 (Simulation time: 0 hr 20 min 4 sec) 
Heartbeat CPU 0 instructions: 50000002 cycles: 16580330 heartbeat IPC: 3.02171 cumulative IPC: 3.01562 (Simulation time: 0 hr 24 min 28 sec) 

Warmup complete CPU 0 instructions: 50000002 cycles: 16580330 (Simulation time: 0 hr 24 min 28 sec) 

% increase in all ip prefetch 804.894
% increase in all ip prefetch 1.06849
Heartbeat CPU 0 instructions: 60000003 cycles: 52013962 heartbeat IPC: 0.282218 cumulative IPC: 0.282218 (Simulation time: 0 hr 28 min 40 sec) 
Heartbeat CPU 0 instructions: 70000003 cycles: 87298059 heartbeat IPC: 0.283414 cumulative IPC: 0.282815 (Simulation time: 0 hr 32 min 45 sec) 
Heartbeat CPU 0 instructions: 80000001 cycles: 122656225 heartbeat IPC: 0.28282 cumulative IPC: 0.282816 (Simulation time: 0 hr 36 min 46 sec) 
Heartbeat CPU 0 instructions: 90000002 cycles: 158601300 heartbeat IPC: 0.278202 cumulative IPC: 0.281649 (Simulation time: 0 hr 40 min 45 sec) 
Heartbeat CPU 0 instructions: 100000000 cycles: 193629848 heartbeat IPC: 0.285481 cumulative IPC: 0.282407 (Simulation time: 0 hr 44 min 26 sec) 
Heartbeat CPU 0 instructions: 110000000 cycles: 228713692 heartbeat IPC: 0.285031 cumulative IPC: 0.282841 (Simulation time: 0 hr 48 min 0 sec) 
Heartbeat CPU 0 instructions: 120000000 cycles: 263566377 heartbeat IPC: 0.286922 cumulative IPC: 0.283417 (Simulation time: 0 hr 50 min 57 sec) 
Heartbeat CPU 0 instructions: 130000000 cycles: 298392716 heartbeat IPC: 0.287139 cumulative IPC: 0.283877 (Simulation time: 0 hr 52 min 52 sec) 
Heartbeat CPU 0 instructions: 140000002 cycles: 333800737 heartbeat IPC: 0.282422 cumulative IPC: 0.283714 (Simulation time: 0 hr 54 min 15 sec) 
Heartbeat CPU 0 instructions: 150000000 cycles: 369039379 heartbeat IPC: 0.283779 cumulative IPC: 0.283721 (Simulation time: 0 hr 55 min 42 sec) 
Finished CPU 0 instructions: 100000000 cycles: 352459051 cumulative IPC: 0.283721 (Simulation time: 0 hr 55 min 42 sec) 

ChampSim completed all CPUs

Region of Interest Statistics

CPU 0 cumulative IPC: 0.283721 instructions: 100000000 cycles: 352459051

CPU 0 Average Load ROB stall cycles: 8.74551e+07
CPU 0 Fraction of times ROB stalled by Loads: 45.0219
CPU 0 Percentage of Load stall cycles in Total stall cycles: 8.72225e+08
Issued all: 55733640
Issued LT all: 44184501
rob_not_full_when_issued_lt_all: 41805002
Issued LT one: 32088270
rob_not_full_when_issued_lt_one: 29990211
 Total stall cycles: 300586194
 Total load stall cycles: 2621788556339630
CPU 0 NUM of IPS identified critical: 0
CPU 0 Num of Load IPs stalling ROB: 255
Threshold modification factor: -1
Max PIST entries: 64
Min PIST entries: 0
Avg PIST entries: 39.7133
Trouble in retire width: 0.972692
MaC = Marked as critical.
lt_50_percent_before_Mac: 0
gt_90_percent_before_Mac: 0
gt_75_percent_before_Mac: 0
gt_50_percent_before_Mac: 0
stall_proportion_bin_same_before_after: 0
stall_proportion_bin_lower_before_after: 0
stall_proportion_bin_upper_before_after: 0
average_stall_proportion_before: -nan
average_stall_proportion_after: -nan
Critical IP stalls, total frequency: 0
Non-critical IP stalls, total frequency: 13496961
Total Freq all stalling IPs: 13496961
stat_90_percent_critical_ip_stalls_freq: 12165399
stat_90_percent_non_critical_ip_stalls_freq: 1331562
Critical_IP_ROB_Stalls_Bucket_0: 0
Non-critical_IP_ROB_Stalls_Bucket_0: 11815123
Critical_IP_ROB_Stalls_Bucket_1: 0
Non-critical_IP_ROB_Stalls_Bucket_1: 1144351
Critical_IP_ROB_Stalls_Bucket_2: 0
Non-critical_IP_ROB_Stalls_Bucket_2: 273515
Critical_IP_ROB_Stalls_Bucket_3: 0
Non-critical_IP_ROB_Stalls_Bucket_3: 94438
Critical_IP_ROB_Stalls_Bucket_4: 0
Non-critical_IP_ROB_Stalls_Bucket_4: 50589
Critical_IP_ROB_Stalls_Bucket_5: 0
Non-critical_IP_ROB_Stalls_Bucket_5: 28455
Critical_IP_ROB_Stalls_Bucket_6: 0
Non-critical_IP_ROB_Stalls_Bucket_6: 90490
0 => IPs accounting for >50 percent of stalls, 1 => 55, 2 => 60, 3 => 65 and so on till 90.
percent50: 51.4738 num IPs:  5
percent55: 55.9616 num IPs: 6
percent60: 60.2437 num IPs: 7
percent65: 66.9046 num IPs: 9
percent70: 72.0972 num IPs: 11
percent75: 76.8867 num IPs: 13
percent80: 80.9302 num IPs: 15
percent85: 85.0639 num IPs: 18
percent90: 90.1344 num IPs: 25
Critical_ROB_Stalls_Percent_0_Bucket_0: 6242498
Non-critical_ROB_Stalls_Percent_0_Bucket_0: 5572625
Critical_ROB_Stalls_Percent_0_Bucket_1: 494578
Non-critical_ROB_Stalls_Percent_0_Bucket_1: 649773
Critical_ROB_Stalls_Percent_0_Bucket_2: 116873
Non-critical_ROB_Stalls_Percent_0_Bucket_2: 156642
Critical_ROB_Stalls_Percent_0_Bucket_3: 34467
Non-critical_ROB_Stalls_Percent_0_Bucket_3: 59971
Critical_ROB_Stalls_Percent_0_Bucket_4: 19452
Non-critical_ROB_Stalls_Percent_0_Bucket_4: 31137
Critical_ROB_Stalls_Percent_0_Bucket_5: 10313
Non-critical_ROB_Stalls_Percent_0_Bucket_5: 18142
Critical_ROB_Stalls_Percent_0_Bucket_6: 29215
Non-critical_ROB_Stalls_Percent_0_Bucket_6: 61275
Critical_ROB_Stalls_Percent_1_Bucket_0: 6809784
Non-critical_ROB_Stalls_Percent_1_Bucket_0: 5005339
Critical_ROB_Stalls_Percent_1_Bucket_1: 526970
Non-critical_ROB_Stalls_Percent_1_Bucket_1: 617381
Critical_ROB_Stalls_Percent_1_Bucket_2: 120308
Non-critical_ROB_Stalls_Percent_1_Bucket_2: 153207
Critical_ROB_Stalls_Percent_1_Bucket_3: 35478
Non-critical_ROB_Stalls_Percent_1_Bucket_3: 58960
Critical_ROB_Stalls_Percent_1_Bucket_4: 19856
Non-critical_ROB_Stalls_Percent_1_Bucket_4: 30733
Critical_ROB_Stalls_Percent_1_Bucket_5: 10619
Non-critical_ROB_Stalls_Percent_1_Bucket_5: 17836
Critical_ROB_Stalls_Percent_1_Bucket_6: 30094
Non-critical_ROB_Stalls_Percent_1_Bucket_6: 60396
Critical_ROB_Stalls_Percent_2_Bucket_0: 7289647
Non-critical_ROB_Stalls_Percent_2_Bucket_0: 4525476
Critical_ROB_Stalls_Percent_2_Bucket_1: 594853
Non-critical_ROB_Stalls_Percent_2_Bucket_1: 549498
Critical_ROB_Stalls_Percent_2_Bucket_2: 144745
Non-critical_ROB_Stalls_Percent_2_Bucket_2: 128770
Critical_ROB_Stalls_Percent_2_Bucket_3: 39078
Non-critical_ROB_Stalls_Percent_2_Bucket_3: 55360
Critical_ROB_Stalls_Percent_2_Bucket_4: 20981
Non-critical_ROB_Stalls_Percent_2_Bucket_4: 29608
Critical_ROB_Stalls_Percent_2_Bucket_5: 11131
Non-critical_ROB_Stalls_Percent_2_Bucket_5: 17324
Critical_ROB_Stalls_Percent_2_Bucket_6: 30631
Non-critical_ROB_Stalls_Percent_2_Bucket_6: 59859
Critical_ROB_Stalls_Percent_3_Bucket_0: 8007616
Non-critical_ROB_Stalls_Percent_3_Bucket_0: 3807507
Critical_ROB_Stalls_Percent_3_Bucket_1: 712041
Non-critical_ROB_Stalls_Percent_3_Bucket_1: 432310
Critical_ROB_Stalls_Percent_3_Bucket_2: 178466
Non-critical_ROB_Stalls_Percent_3_Bucket_2: 95049
Critical_ROB_Stalls_Percent_3_Bucket_3: 51544
Non-critical_ROB_Stalls_Percent_3_Bucket_3: 42894
Critical_ROB_Stalls_Percent_3_Bucket_4: 30434
Non-critical_ROB_Stalls_Percent_3_Bucket_4: 20155
Critical_ROB_Stalls_Percent_3_Bucket_5: 14933
Non-critical_ROB_Stalls_Percent_3_Bucket_5: 13522
Critical_ROB_Stalls_Percent_3_Bucket_6: 35053
Non-critical_ROB_Stalls_Percent_3_Bucket_6: 55437
Critical_ROB_Stalls_Percent_4_Bucket_0: 8606978
Non-critical_ROB_Stalls_Percent_4_Bucket_0: 3208145
Critical_ROB_Stalls_Percent_4_Bucket_1: 775044
Non-critical_ROB_Stalls_Percent_4_Bucket_1: 369307
Critical_ROB_Stalls_Percent_4_Bucket_2: 201059
Non-critical_ROB_Stalls_Percent_4_Bucket_2: 72456
Critical_ROB_Stalls_Percent_4_Bucket_3: 59573
Non-critical_ROB_Stalls_Percent_4_Bucket_3: 34865
Critical_ROB_Stalls_Percent_4_Bucket_4: 34837
Non-critical_ROB_Stalls_Percent_4_Bucket_4: 15752
Critical_ROB_Stalls_Percent_4_Bucket_5: 16656
Non-critical_ROB_Stalls_Percent_4_Bucket_5: 11799
Critical_ROB_Stalls_Percent_4_Bucket_6: 36779
Non-critical_ROB_Stalls_Percent_4_Bucket_6: 53711
Critical_ROB_Stalls_Percent_5_Bucket_0: 9244956
Non-critical_ROB_Stalls_Percent_5_Bucket_0: 2570167
Critical_ROB_Stalls_Percent_5_Bucket_1: 780460
Non-critical_ROB_Stalls_Percent_5_Bucket_1: 363891
Critical_ROB_Stalls_Percent_5_Bucket_2: 202740
Non-critical_ROB_Stalls_Percent_5_Bucket_2: 70775
Critical_ROB_Stalls_Percent_5_Bucket_3: 60511
Non-critical_ROB_Stalls_Percent_5_Bucket_3: 33927
Critical_ROB_Stalls_Percent_5_Bucket_4: 35077
Non-critical_ROB_Stalls_Percent_5_Bucket_4: 15512
Critical_ROB_Stalls_Percent_5_Bucket_5: 16769
Non-critical_ROB_Stalls_Percent_5_Bucket_5: 11686
Critical_ROB_Stalls_Percent_5_Bucket_6: 36849
Non-critical_ROB_Stalls_Percent_5_Bucket_6: 53641
Critical_ROB_Stalls_Percent_6_Bucket_0: 9742156
Non-critical_ROB_Stalls_Percent_6_Bucket_0: 2072967
Critical_ROB_Stalls_Percent_6_Bucket_1: 816655
Non-critical_ROB_Stalls_Percent_6_Bucket_1: 327696
Critical_ROB_Stalls_Percent_6_Bucket_2: 211039
Non-critical_ROB_Stalls_Percent_6_Bucket_2: 62476
Critical_ROB_Stalls_Percent_6_Bucket_3: 62263
Non-critical_ROB_Stalls_Percent_6_Bucket_3: 32175
Critical_ROB_Stalls_Percent_6_Bucket_4: 35758
Non-critical_ROB_Stalls_Percent_6_Bucket_4: 14831
Critical_ROB_Stalls_Percent_6_Bucket_5: 17186
Non-critical_ROB_Stalls_Percent_6_Bucket_5: 11269
Critical_ROB_Stalls_Percent_6_Bucket_6: 38062
Non-critical_ROB_Stalls_Percent_6_Bucket_6: 52428
Critical_ROB_Stalls_Percent_7_Bucket_0: 10292205
Non-critical_ROB_Stalls_Percent_7_Bucket_0: 1522918
Critical_ROB_Stalls_Percent_7_Bucket_1: 823504
Non-critical_ROB_Stalls_Percent_7_Bucket_1: 320847
Critical_ROB_Stalls_Percent_7_Bucket_2: 211650
Non-critical_ROB_Stalls_Percent_7_Bucket_2: 61865
Critical_ROB_Stalls_Percent_7_Bucket_3: 62537
Non-critical_ROB_Stalls_Percent_7_Bucket_3: 31901
Critical_ROB_Stalls_Percent_7_Bucket_4: 35826
Non-critical_ROB_Stalls_Percent_7_Bucket_4: 14763
Critical_ROB_Stalls_Percent_7_Bucket_5: 17225
Non-critical_ROB_Stalls_Percent_7_Bucket_5: 11230
Critical_ROB_Stalls_Percent_7_Bucket_6: 38098
Non-critical_ROB_Stalls_Percent_7_Bucket_6: 52392
Critical_ROB_Stalls_Percent_8_Bucket_0: 10816406
Non-critical_ROB_Stalls_Percent_8_Bucket_0: 998717
Critical_ROB_Stalls_Percent_8_Bucket_1: 950633
Non-critical_ROB_Stalls_Percent_8_Bucket_1: 193718
Critical_ROB_Stalls_Percent_8_Bucket_2: 233118
Non-critical_ROB_Stalls_Percent_8_Bucket_2: 40397
Critical_ROB_Stalls_Percent_8_Bucket_3: 69499
Non-critical_ROB_Stalls_Percent_8_Bucket_3: 24939
Critical_ROB_Stalls_Percent_8_Bucket_4: 38212
Non-critical_ROB_Stalls_Percent_8_Bucket_4: 12377
Critical_ROB_Stalls_Percent_8_Bucket_5: 18274
Non-critical_ROB_Stalls_Percent_8_Bucket_5: 10181
Critical_ROB_Stalls_Percent_8_Bucket_6: 39257
Non-critical_ROB_Stalls_Percent_8_Bucket_6: 51233
Average ROB occupancy Load Stall Begin: 23.9758
Average ROB occupancy Load Stall End: 27.9711
Min ROB occupancy Load Stall Begin: 1
Max ROB occupancy Load Stall Begin: 352
Min ROB occupancy Load Stall End: 1
Max ROB occupancy Load Stall End: 352
Average ROB occupancy Critical Load Stall Begin: -nan
Average ROB occupancy Critical Load Stall End: -nan
Min ROB occupancy Critical Load Stall Begin: 400
Max ROB occupancy Critical Load Stall Begin: 0
Min ROB occupancy Critical Load Stall End: 400
Max ROB occupancy Critical Load Stall End: 0
 ROB Load Stall Begin Bucket Count 0: 12110361
 ROB Load Stall End Bucket Count 0: 11815123
 ROB Critical Load Stall Begin Bucket Count 0: 0
 ROB Critical Load Stall End Bucket Count 0: 0
 ROB Load Stall Begin Bucket Count 1: 924282
 ROB Load Stall End Bucket Count 1: 1144351
 ROB Critical Load Stall Begin Bucket Count 1: 0
 ROB Critical Load Stall End Bucket Count 1: 0
 ROB Load Stall Begin Bucket Count 2: 228544
 ROB Load Stall End Bucket Count 2: 273515
 ROB Critical Load Stall Begin Bucket Count 2: 0
 ROB Critical Load Stall End Bucket Count 2: 0
 ROB Load Stall Begin Bucket Count 3: 78038
 ROB Load Stall End Bucket Count 3: 94438
 ROB Critical Load Stall Begin Bucket Count 3: 0
 ROB Critical Load Stall End Bucket Count 3: 0
 ROB Load Stall Begin Bucket Count 4: 43747
 ROB Load Stall End Bucket Count 4: 50589
 ROB Critical Load Stall Begin Bucket Count 4: 0
 ROB Critical Load Stall End Bucket Count 4: 0
 ROB Load Stall Begin Bucket Count 5: 26359
 ROB Load Stall End Bucket Count 5: 28455
 ROB Critical Load Stall Begin Bucket Count 5: 0
 ROB Critical Load Stall End Bucket Count 5: 0
 ROB Load Stall Begin Bucket Count 6: 85630
 ROB Load Stall End Bucket Count 6: 90490
 ROB Critical Load Stall Begin Bucket Count 6: 0
 ROB Critical Load Stall End Bucket Count 6: 0
PIST Tag Read Accesses: 1180642
PIST Read Accesses: 590321
PIST Tag Write Accesses: 1180642
PIST Write Accesses: 590321
Criticality detector called times: 4093930
Max global_stall_cycles_count: 859304
Threshold Modified: 1 times, factor: -1
Sturdy critical IP cache stats: 
 Unused entries: 0
CIC Tag Read Accesses: 0
CIC Read Accesses: 0
CIC Tag Write Accesses: 0
CIC Write Accesses: 0
Wobbly critical IP cache stats: 
 Unused entries: 101
CIC Tag Read Accesses: 262057633
CIC Read Accesses: 0
CIC Tag Write Accesses: 1024143
CIC Write Accesses: 0
ITLB TOTAL     ACCESS:   18143984  HIT:   18143984  MISS:          0  HIT %:        100  MISS %:          0   MPKI: 0
ITLB LOAD TRANSLATION ACCESS:   18143984  HIT:   18143984  MISS:          0  HIT %:        100  MISS %:          0   MPKI: 0
ITLB PREFETCH  REQUESTED:          0  ISSUED:          0  USEFUL:          0  USELESS:          0
ITLB USEFUL LOAD PREFETCHES:          0 PREFETCH ISSUED TO LOWER LEVEL:          0  ACCURACY: -nan
ITLB TIMELY PREFETCHES:          0 LATE PREFETCHES: 0 DROPPED PREFETCHES: 0
ITLB PREFETCHES SAME FILL-ORIGIN LEVEL: 0 DIFFERENT FILL-ORIGIN LEVEL: 0
ITLB AVERAGE MISS LATENCY: -nan cycles
ITLB RQ	ACCESS:   18993983	FORWARD:          0	MERGED:     850000	TO_CACHE:   18143983

DTLB TOTAL     ACCESS:   31054855  HIT:   29480165  MISS:    1574690  HIT %:    94.9293  MISS %:    5.07067   MPKI: 15.7469
DTLB LOAD TRANSLATION ACCESS:   31054855  HIT:   29480165  MISS:    1574690  HIT %:    94.9293  MISS %:    5.07067   MPKI: 15.7469
DTLB PREFETCH  REQUESTED:          0  ISSUED:          0  USEFUL:          0  USELESS:          0
DTLB USEFUL LOAD PREFETCHES:          0 PREFETCH ISSUED TO LOWER LEVEL:          0  ACCURACY: -nan
DTLB TIMELY PREFETCHES:          0 LATE PREFETCHES: 0 DROPPED PREFETCHES: 0
DTLB PREFETCHES SAME FILL-ORIGIN LEVEL: 0 DIFFERENT FILL-ORIGIN LEVEL: 0
DTLB AVERAGE MISS LATENCY: 10.8222 cycles
DTLB RQ	ACCESS:   37817653	FORWARD:          0	MERGED:    6573096	TO_CACHE:   31244557

STLB TOTAL     ACCESS:    6501396  HIT:    6478209  MISS:      23187  HIT %:    99.6434  MISS %:   0.356646   MPKI: 0.23187
STLB LOAD TRANSLATION ACCESS:    1574690  HIT:    1551503  MISS:      23187  HIT %:    98.5275  MISS %:    1.47248   MPKI: 0.23187
STLB TRANSLATION FROM L1D PREFETCHER ACCESS:    4926706  HIT:    4926706  MISS:          0  HIT %:        100  MISS %:          0   MPKI: 0
STLB PREFETCH  REQUESTED:          0  ISSUED:          0  USEFUL:          0  USELESS:          0
STLB USEFUL LOAD PREFETCHES:          0 PREFETCH ISSUED TO LOWER LEVEL:          0  ACCURACY: -nan
STLB TIMELY PREFETCHES:          0 LATE PREFETCHES: 0 DROPPED PREFETCHES: 0
STLB PREFETCHES SAME FILL-ORIGIN LEVEL: 0 DIFFERENT FILL-ORIGIN LEVEL: 0
STLB AVERAGE MISS LATENCY: 110.214 cycles
STLB RQ	ACCESS:    6920916	FORWARD:          0	MERGED:     419520	TO_CACHE:    6501396

STLB Hit, L1D data hit: 0
STLB Hit, L2C data hit: 0
STLB Hit, LLC data hit: 0
STLB Hit, LLC data miss: 0
STLB STLB hints to L2: 0
L1D TOTAL     ACCESS:   42296774  HIT:   36109929  MISS:    6186845  HIT %:    85.3728  MISS %:    14.6272   MPKI: 61.8685
L1D LOAD      ACCESS:   26074170  HIT:   23368509  MISS:    2705661  HIT %:    89.6232  MISS %:    10.3768   MPKI: 27.0566
L1D RFO       ACCESS:   11048343  HIT:   10656684  MISS:     391659  HIT %:     96.455  MISS %:    3.54496   MPKI: 3.91659
L1D PREFETCH  ACCESS:    5174261  HIT:    2084736  MISS:    3089525  HIT %:    40.2905  MISS %:    59.7095   MPKI: 30.8953
L1D PREFETCH  REQUESTED:   10693048  ISSUED:   10693048  USEFUL:     825618  USELESS:    2263877
L1D USEFUL LOAD PREFETCHES:     825618 PREFETCH ISSUED TO LOWER LEVEL:    3183173  ACCURACY: 25.937
L1D TIMELY PREFETCHES:     825618 LATE PREFETCHES: 93634 DROPPED PREFETCHES: 0
L1D PREFETCHES SAME FILL-ORIGIN LEVEL: 3183173 DIFFERENT FILL-ORIGIN LEVEL: 0
L1D AVERAGE MISS LATENCY: 2.36946e+06 cycles
L1D RQ	ACCESS:   33577437	FORWARD:          0	MERGED:    6332740	TO_CACHE:   26114477
L1D WQ	ACCESS:   11754634	FORWARD:    1130816	MERGED:      51458	TO_CACHE:   11703176
L1D PQ	ACCESS:    5346822	FORWARD:          0	MERGED:          0	TO_CACHE:    5346226

L1D UNIQUE REGIONS ACCESSED: 0
L1D REGIONS CONFLICTS: 0
L1D Cross Page Prefetch Requests: 0
L1D Same Page Prefetch Requests: 8718270
L1D ROI Sum of L1D PQ occupancy: 69628171
L1D PREFETCHES PUSHED FROM L2C: 0
L1I TOTAL     ACCESS:   18993984  HIT:   18993982  MISS:          2  HIT %:        100  MISS %: 1.05296e-05   MPKI: 2e-05
L1I LOAD      ACCESS:   18993984  HIT:   18993982  MISS:          2  HIT %:        100  MISS %: 1.05296e-05   MPKI: 2e-05
L1I PREFETCH  REQUESTED:          0  ISSUED:          0  USEFUL:          0  USELESS:          0
L1I USEFUL LOAD PREFETCHES:          0 PREFETCH ISSUED TO LOWER LEVEL:          0  ACCURACY: -nan
L1I TIMELY PREFETCHES:          0 LATE PREFETCHES: 0 DROPPED PREFETCHES: 0
L1I PREFETCHES SAME FILL-ORIGIN LEVEL: 0 DIFFERENT FILL-ORIGIN LEVEL: 0
L1I AVERAGE MISS LATENCY: 214 cycles
L1I RQ	ACCESS:   30757308	FORWARD:          0	MERGED:   11763325	TO_CACHE:   18993983

BTB TOTAL     ACCESS:   23681315  HIT:   22481474  MISS:    1199841  HIT %:    94.9334  MISS %:    5.06661   MPKI: 11.9984
BTB BRANCH_DIRECT_JUMP	ACCESS:    2599450  HIT:    2599413  MISS:         37
BTB BRANCH_INDIRECT	ACCESS:          0  HIT:          0  MISS:          0
BTB BRANCH_CONDITIONAL	ACCESS:   15578423  HIT:   15578344  MISS:         79
BTB BRANCH_DIRECT_CALL	ACCESS:    2602035  HIT:    2602017  MISS:         18
BTB BRANCH_INDIRECT_CALL	ACCESS:     149686  HIT:     149678  MISS:          8
BTB BRANCH_RETURN	ACCESS:    2751721  HIT:    1552022  MISS:    1199699
BTB BRANCH_OTHER ACCESS:          0  HIT:          0  MISS:          0

L2C TOTAL     ACCESS:    7500907  HIT:    3837981  MISS:    3662926  HIT %:    51.1669  MISS %:    48.8331   MPKI: 36.6293
L2C LOAD      ACCESS:    2612017  HIT:    1193517  MISS:    1418500  HIT %:    45.6933  MISS %:    54.3067   MPKI: 14.185
L2C DATA LOAD MPKI: 14.185
L2C INSTRUCTION LOAD MPKI: 2e-05
L2C RFO       ACCESS:     391638  HIT:     269539  MISS:     122099  HIT %:    68.8235  MISS %:    31.1765   MPKI: 1.22099
L2C PREFETCH  ACCESS:    3902162  HIT:    1792028  MISS:    2110134  HIT %:     45.924  MISS %:     54.076   MPKI: 21.1013
L2C DATA PREFETCH MPKI: 21.1013
L2C INSTRUCTION PREFETCH MPKI: 0
L2C WRITEBACK ACCESS:     571690  HIT:     570331  MISS:       1359  HIT %:    99.7623  MISS %:   0.237716   MPKI: 0.01359
L2C LOAD TRANSLATION ACCESS:      23400  HIT:      12566  MISS:      10834  HIT %:    53.7009  MISS %:    46.2991   MPKI: 0.10834
L2C PREFETCH  REQUESTED:    1469612  ISSUED:    1469612  USEFUL:     186766  USELESS:    1923445
L2C USEFUL LOAD PREFETCHES:     186766 PREFETCH ISSUED TO LOWER LEVEL:    2114020  ACCURACY: 8.83464
L2C TIMELY PREFETCHES:     186766 LATE PREFETCHES: 3886 DROPPED PREFETCHES: 0
L2C PREFETCHES SAME FILL-ORIGIN LEVEL: 592743 DIFFERENT FILL-ORIGIN LEVEL: 0
L2C AVERAGE MISS LATENCY: 104.57 cycles
L2C RQ	ACCESS:    3027074	FORWARD:          0	MERGED:          0	TO_CACHE:    3027055
L2C WQ	ACCESS:     571690	FORWARD:         20	MERGED:          0	TO_CACHE:     571690
L2C PQ	ACCESS:    4652785	FORWARD:          0	MERGED:     327202	TO_CACHE:    4325582

L2C Instructions Evicting Data 2
L2C Translations Evicting Data 10804
L2C Data Evicting Data 3639921
L2C Instructions Evicting Instructions 0
L2C Translations Evicting Instructions 0
L2C Data Evicting Instructions 2
L2C Instructions Evicting Translations 0
L2C Translations Evicting Translations 30
L2C Data Evicting Translations 10808
L2C Dense regions hint from L2: 0
PSCL5 TOTAL     ACCESS:      23187  HIT:      23187  MISS:          0  HIT %:        100  MISS %:          0   MPKI: 0
PSCL5 LOAD TRANSLATION ACCESS:      23187  HIT:      23187  MISS:          0  HIT %:        100  MISS %:          0   MPKI: 0
PSCL5 PREFETCH  REQUESTED:          0  ISSUED:          0  USEFUL:          0  USELESS:          0
PSCL5 USEFUL LOAD PREFETCHES:          0 PREFETCH ISSUED TO LOWER LEVEL:          0  ACCURACY: -nan
PSCL5 TIMELY PREFETCHES:          0 LATE PREFETCHES: 0 DROPPED PREFETCHES: 0
PSCL5 PREFETCHES SAME FILL-ORIGIN LEVEL: 0 DIFFERENT FILL-ORIGIN LEVEL: 0

PSCL4 TOTAL     ACCESS:      23187  HIT:      23187  MISS:          0  HIT %:        100  MISS %:          0   MPKI: 0
PSCL4 LOAD TRANSLATION ACCESS:      23187  HIT:      23187  MISS:          0  HIT %:        100  MISS %:          0   MPKI: 0
PSCL4 PREFETCH  REQUESTED:          0  ISSUED:          0  USEFUL:          0  USELESS:          0
PSCL4 USEFUL LOAD PREFETCHES:          0 PREFETCH ISSUED TO LOWER LEVEL:          0  ACCURACY: -nan
PSCL4 TIMELY PREFETCHES:          0 LATE PREFETCHES: 0 DROPPED PREFETCHES: 0
PSCL4 PREFETCHES SAME FILL-ORIGIN LEVEL: 0 DIFFERENT FILL-ORIGIN LEVEL: 0

PSCL3 TOTAL     ACCESS:      23187  HIT:      23187  MISS:          0  HIT %:        100  MISS %:          0   MPKI: 0
PSCL3 LOAD TRANSLATION ACCESS:      23187  HIT:      23187  MISS:          0  HIT %:        100  MISS %:          0   MPKI: 0
PSCL3 PREFETCH  REQUESTED:          0  ISSUED:          0  USEFUL:          0  USELESS:          0
PSCL3 USEFUL LOAD PREFETCHES:          0 PREFETCH ISSUED TO LOWER LEVEL:          0  ACCURACY: -nan
PSCL3 TIMELY PREFETCHES:          0 LATE PREFETCHES: 0 DROPPED PREFETCHES: 0
PSCL3 PREFETCHES SAME FILL-ORIGIN LEVEL: 0 DIFFERENT FILL-ORIGIN LEVEL: 0

PSCL2 TOTAL     ACCESS:      23187  HIT:      22859  MISS:        328  HIT %:    98.5854  MISS %:    1.41459   MPKI: 0.00328
PSCL2 LOAD TRANSLATION ACCESS:      23187  HIT:      22859  MISS:        328  HIT %:    98.5854  MISS %:    1.41459   MPKI: 0.00328
PSCL2 PREFETCH  REQUESTED:          0  ISSUED:          0  USEFUL:          0  USELESS:          0
PSCL2 USEFUL LOAD PREFETCHES:          0 PREFETCH ISSUED TO LOWER LEVEL:          0  ACCURACY: -nan
PSCL2 TIMELY PREFETCHES:          0 LATE PREFETCHES: 0 DROPPED PREFETCHES: 0
PSCL2 PREFETCHES SAME FILL-ORIGIN LEVEL: 0 DIFFERENT FILL-ORIGIN LEVEL: 0

LLC TOTAL     ACCESS:    3867012  HIT:    2320279  MISS:    1546733  HIT %:    60.0019  MISS %:    39.9981   MPKI: 15.4673
LLC LOAD      ACCESS:    1414614  HIT:    1025028  MISS:     389586  HIT %:    72.4599  MISS %:    27.5401   MPKI: 3.89586
LLC RFO       ACCESS:     122096  HIT:     118986  MISS:       3110  HIT %:    97.4528  MISS %:    2.54718   MPKI: 0.0311
LLC PREFETCH  ACCESS:    2114020  HIT:     974738  MISS:    1139282  HIT %:    46.1083  MISS %:    53.8917   MPKI: 11.3928
LLC WRITEBACK ACCESS:     205448  HIT:     194189  MISS:      11259  HIT %:    94.5198  MISS %:    5.48022   MPKI: 0.11259
LLC LOAD TRANSLATION ACCESS:      10834  HIT:       7338  MISS:       3496  HIT %:    67.7312  MISS %:    32.2688   MPKI: 0.03496
LLC PREFETCH  REQUESTED:          0  ISSUED:          0  USEFUL:      95327  USELESS:    1044680
LLC USEFUL LOAD PREFETCHES:      95327 PREFETCH ISSUED TO LOWER LEVEL:    1139282  ACCURACY: 8.36729
LLC TIMELY PREFETCHES:      95327 LATE PREFETCHES: 0 DROPPED PREFETCHES: 0
LLC PREFETCHES SAME FILL-ORIGIN LEVEL: 0 DIFFERENT FILL-ORIGIN LEVEL: 0
LLC AVERAGE MISS LATENCY: 176.342 cycles
LLC RQ	ACCESS:    1547547	FORWARD:          0	MERGED:          0	TO_CACHE:    1547544
LLC WQ	ACCESS:     205448	FORWARD:          3	MERGED:          0	TO_CACHE:     205448
LLC PQ	ACCESS:    2114020	FORWARD:          0	MERGED:          0	TO_CACHE:    2114020

LLC Dense regions hint to LLC: 0

RAW hits: 1544812
Loads Generated: 35122249
Loads sent to L1D: 33577437
Stores Generated: 11754604
Stores sent to L1D: 11754634
Major fault: 0 Minor fault: 20569
Allocated PAGES: 20569

stream: 
stream:times selected: 11933779
stream:pref_filled: 3563540
stream:pref_useful: 299588
stream:pref_late: 6284
stream:misses: 860338
stream:misses_by_poll: 0

CS: 
CS:times selected: 1385527
CS:pref_filled: 1030254
CS:pref_useful: 1015348
CS:pref_late: 146701
CS:misses: 218535
CS:misses_by_poll: 1720

CPLX: 
CPLX:times selected: 10445874
CPLX:pref_filled: 270174
CPLX:pref_useful: 18620
CPLX:pref_late: 304
CPLX:misses: 2829717
CPLX:misses_by_poll: 184

NL_L1: 
NL:times selected: 92350
NL:pref_filled: 31760
NL:pref_useful: 2409
NL:pref_late: 51
NL:misses: 30713
NL:misses_by_poll: 1

total selections: 23857530
total_filled: 3089525
total_useful: 825618
total_late: 162120
total_polluted: 1905
total_misses_after_warmup: 2489016
conflicts: 18502
Degree Incremented Times: 95618
Degree Decremented Times: 418120

L1 IP Table Write Accesses: 13984690
L1 IP Table Read Accesses: 13966188
L1 RST Write Accesses: 7135919
L1 RST Read Accesses: 14271838
L1 CSPT Write Accesses: 7135919
L1 CSPT Read Accesses: 13492347
L1 RR Filter Tag Write Accesses: 5346822
L1 RR Filter Tag Read Accesses: 265943624
L1 IP Table Tag Write Accesses: 14331779
L1 IP Table Tag Read Accesses: 14331779
L1 RST Tag Write Accesses: 0
L1 RST Tag Read Accesses: 63821438
L1 RR Filter Write Accesses: 0
L1 RR Filter Read Accesses: 9353601
test: 6655617
L2 IP Table Read Accesses: 10537444
L2 IP Table Write Accesses: 8141933
L2 IP Table Tag Read Accesses: 5269421
L2 IP Table Tag Write Accesses: 5269421

DRAM Statistics
 CHANNEL 0
 RQ ROW_BUFFER_HIT:     293495  ROW_BUFFER_MISS:    1241946
 DBUS_CONGESTED:        265
 WQ ROW_BUFFER_HIT:       4522  ROW_BUFFER_MISS:      24907  FULL:          0

 AVG_CONGESTED_CYCLE: 4
 All warmup complete: 2
Channel 0 Bank busy for read cycles: 0
Channel 0 Bank busy for write cycles: 0
Channel 0
Rank 0
0banks busy for read cycles: 270609085
0banks busy for write cycles: 21206
1banks busy for read cycles: 23677460
1banks busy for write cycles: 4217226
2banks busy for read cycles: 19240124
2banks busy for write cycles: 827541
3banks busy for read cycles: 13399840
3banks busy for write cycles: 218049
4banks busy for read cycles: 9434711
4banks busy for write cycles: 73399
5banks busy for read cycles: 5744078
5banks busy for write cycles: 28822
6banks busy for read cycles: 2980323
6banks busy for write cycles: 14689
7banks busy for read cycles: 1364659
7banks busy for write cycles: 9342
8banks busy for read cycles: 589847
8banks busy for write cycles: 8651

CPU 0 Branch Prediction Accuracy: 93.0034% MPKI: 17.3454 Average ROB Occupancy at Mispredict: 19.5655
Branch types
NOT_BRANCH: 75208488 75.2085%
BRANCH_DIRECT_JUMP: 2599450 2.59945%
BRANCH_INDIRECT: 0 0%
BRANCH_CONDITIONAL: 16688242 16.6882%
BRANCH_DIRECT_CALL: 2602035 2.60203%
BRANCH_INDIRECT_CALL: 149686 0.149686%
BRANCH_RETURN: 2751721 2.75172%
BRANCH_OTHER: 0 0%

DRAM PAGES: 1048576
Allocated PAGES: 20569
