
*** ChampSim Multicore Out-of-Order Simulator ***

Warmup Instructions: 50000000
Simulation Instructions: 100000000
Number of CPUs: 1
LLC sets: 2048
LLC ways: 16
Off-chip DRAM Size: 4096 MB Channels: 1 Width: 64-bit Data Rate: 6400 MT/s
CPU 0 runs ../SPEC2017//605.mcf_s-994B.champsimtrace.xz
.xz
NUM_OF_IPS_IN_CRITICAL_IP_TRAINING: 64
NUM_OF_CRITICAL_IP_TRAINING_TABLE_WAYS: 2
NUM_OF_CRITICAL_IP_TRAINING_TABLE_SETS: 32
WOBBLY_CRITICAL_IP_CACHE_SETS: 32
WOBBLY_CRITICAL_IP_CACHE_WAYS: 4
BTB has LRU replacement policy
ITLB has LRU replacement policy
DTLB has LRU replacement policy
STLB has LRU replacement policy
L1I has LRU replacement policy
IP Table Entries: 64
L1D has LRU replacement policy
Initialize SRRIP state for L2C
Initialize DRRIP state for LLC
Heartbeat CPU 0 instructions: 10000000 cycles: 3242602 heartbeat IPC: 3.08394 cumulative IPC: 3.08394 (Simulation time: 0 hr 9 min 4 sec) 
Heartbeat CPU 0 instructions: 20000003 cycles: 6519155 heartbeat IPC: 3.05199 cumulative IPC: 3.06788 (Simulation time: 0 hr 16 min 47 sec) 
Heartbeat CPU 0 instructions: 30000003 cycles: 9795502 heartbeat IPC: 3.05218 cumulative IPC: 3.06263 (Simulation time: 0 hr 23 min 34 sec) 
Heartbeat CPU 0 instructions: 40000002 cycles: 13054938 heartbeat IPC: 3.06802 cumulative IPC: 3.06397 (Simulation time: 0 hr 30 min 0 sec) 
Heartbeat CPU 0 instructions: 50000001 cycles: 16565732 heartbeat IPC: 2.84836 cumulative IPC: 3.01828 (Simulation time: 0 hr 36 min 33 sec) 

Warmup complete CPU 0 instructions: 50000001 cycles: 16565732 (Simulation time: 0 hr 36 min 33 sec) 

% increase in all ip prefetch 1475.65
% increase in all ip prefetch -29.36
Heartbeat CPU 0 instructions: 60000000 cycles: 59410553 heartbeat IPC: 0.2334 cumulative IPC: 0.2334 (Simulation time: 0 hr 41 min 25 sec) 
Heartbeat CPU 0 instructions: 70000000 cycles: 108808671 heartbeat IPC: 0.202437 cumulative IPC: 0.216819 (Simulation time: 0 hr 46 min 9 sec) 
Heartbeat CPU 0 instructions: 80000001 cycles: 144270011 heartbeat IPC: 0.281997 cumulative IPC: 0.234918 (Simulation time: 0 hr 50 min 14 sec) 
Heartbeat CPU 0 instructions: 90000002 cycles: 178021367 heartbeat IPC: 0.296284 cumulative IPC: 0.247746 (Simulation time: 0 hr 53 min 49 sec) 
Heartbeat CPU 0 instructions: 100000001 cycles: 210540535 heartbeat IPC: 0.307511 cumulative IPC: 0.257765 (Simulation time: 0 hr 59 min 37 sec) 
Heartbeat CPU 0 instructions: 110000000 cycles: 263880852 heartbeat IPC: 0.187475 cumulative IPC: 0.242605 (Simulation time: 1 hr 8 min 45 sec) 
Heartbeat CPU 0 instructions: 120000000 cycles: 306153011 heartbeat IPC: 0.236562 cumulative IPC: 0.241723 (Simulation time: 1 hr 15 min 12 sec) 
Heartbeat CPU 0 instructions: 130000000 cycles: 345279422 heartbeat IPC: 0.255582 cumulative IPC: 0.243373 (Simulation time: 1 hr 21 min 43 sec) 
Heartbeat CPU 0 instructions: 140000000 cycles: 391463079 heartbeat IPC: 0.216527 cumulative IPC: 0.240066 (Simulation time: 1 hr 27 min 45 sec) 
Heartbeat CPU 0 instructions: 150000001 cycles: 455289700 heartbeat IPC: 0.156674 cumulative IPC: 0.227934 (Simulation time: 1 hr 34 min 12 sec) 
Finished CPU 0 instructions: 100000000 cycles: 438723968 cumulative IPC: 0.227934 (Simulation time: 1 hr 34 min 12 sec) 

ChampSim completed all CPUs

Region of Interest Statistics

CPU 0 cumulative IPC: 0.227934 instructions: 100000000 cycles: 438723968

CPU 0 Average Load ROB stall cycles: 4.06609e+07
CPU 0 Fraction of times ROB stalled by Loads: 17.9119
CPU 0 Percentage of Load stall cycles in Total stall cycles: 2.72831e+08
 Total stall cycles: 355632314
 Total load stall cycles: 970276351386439
CPU 0 NUM of IPS identified critical: 9
CPU 0 Num of Load IPs stalling ROB: 87
Threshold modification factor: -1
Max PIST entries: 32
Min PIST entries: 0
Avg PIST entries: 14.32
Trouble in retire width: 0.96916
MaC = Marked as critical.
lt_50_percent_before_Mac: 9
gt_90_percent_before_Mac: 0
gt_75_percent_before_Mac: 0
gt_50_percent_before_Mac: 0
stall_proportion_bin_same_before_after: 0
stall_proportion_bin_lower_before_after: 0
stall_proportion_bin_upper_before_after: 0
average_stall_proportion_before: 0.116976
average_stall_proportion_after: 0.10024
Critical IP stalls, total frequency: 2887503
Non-critical IP stalls, total frequency: 1358364
Critical_IP_ROB_Stalls_Bucket_0: 2574029
Non-critical_IP_ROB_Stalls_Bucket_0: 1360076
Critical_IP_ROB_Stalls_Bucket_1: 202306
Non-critical_IP_ROB_Stalls_Bucket_1: 20152
Critical_IP_ROB_Stalls_Bucket_2: 63822
Non-critical_IP_ROB_Stalls_Bucket_2: 4219
Critical_IP_ROB_Stalls_Bucket_3: 22723
Non-critical_IP_ROB_Stalls_Bucket_3: 1186
Critical_IP_ROB_Stalls_Bucket_4: 9830
Non-critical_IP_ROB_Stalls_Bucket_4: 474
Critical_IP_ROB_Stalls_Bucket_5: 5250
Non-critical_IP_ROB_Stalls_Bucket_5: 216
Critical_IP_ROB_Stalls_Bucket_6: 9543
Non-critical_IP_ROB_Stalls_Bucket_6: 422
0 => IPs accounting for >50 percent of stalls, 1 => 55, 2 => 60, 3 => 65 and so on till 90.
percent50: 55.7665 num IPs:5
percent55: 55.7665 num IPs:5
percent60: 62.3828 num IPs:6
percent65: 68.7607 num IPs:7
percent70: 74.8069 num IPs:8
percent75: 79.9212 num IPs:9
percent80: 84.9103 num IPs:10
percent85: 89.5162 num IPs:11
percent90: 92.892 num IPs:12
Critical_ROB_Stalls_Percent_0_Bucket_0: 2143576
Non-critical_ROB_Stalls_Percent_0_Bucket_0: 1790529
Critical_ROB_Stalls_Percent_0_Bucket_1: 149994
Non-critical_ROB_Stalls_Percent_0_Bucket_1: 72464
Critical_ROB_Stalls_Percent_0_Bucket_2: 42500
Non-critical_ROB_Stalls_Percent_0_Bucket_2: 25541
Critical_ROB_Stalls_Percent_0_Bucket_3: 15553
Non-critical_ROB_Stalls_Percent_0_Bucket_3: 8356
Critical_ROB_Stalls_Percent_0_Bucket_4: 6370
Non-critical_ROB_Stalls_Percent_0_Bucket_4: 3934
Critical_ROB_Stalls_Percent_0_Bucket_5: 3442
Non-critical_ROB_Stalls_Percent_0_Bucket_5: 2024
Critical_ROB_Stalls_Percent_0_Bucket_6: 6338
Non-critical_ROB_Stalls_Percent_0_Bucket_6: 3627
Critical_ROB_Stalls_Percent_1_Bucket_0: 2143576
Non-critical_ROB_Stalls_Percent_1_Bucket_0: 1790529
Critical_ROB_Stalls_Percent_1_Bucket_1: 149994
Non-critical_ROB_Stalls_Percent_1_Bucket_1: 72464
Critical_ROB_Stalls_Percent_1_Bucket_2: 42500
Non-critical_ROB_Stalls_Percent_1_Bucket_2: 25541
Critical_ROB_Stalls_Percent_1_Bucket_3: 15553
Non-critical_ROB_Stalls_Percent_1_Bucket_3: 8356
Critical_ROB_Stalls_Percent_1_Bucket_4: 6370
Non-critical_ROB_Stalls_Percent_1_Bucket_4: 3934
Critical_ROB_Stalls_Percent_1_Bucket_5: 3442
Non-critical_ROB_Stalls_Percent_1_Bucket_5: 2024
Critical_ROB_Stalls_Percent_1_Bucket_6: 6338
Non-critical_ROB_Stalls_Percent_1_Bucket_6: 3627
Critical_ROB_Stalls_Percent_2_Bucket_0: 2424492
Non-critical_ROB_Stalls_Percent_2_Bucket_0: 1509613
Critical_ROB_Stalls_Percent_2_Bucket_1: 149994
Non-critical_ROB_Stalls_Percent_2_Bucket_1: 72464
Critical_ROB_Stalls_Percent_2_Bucket_2: 42500
Non-critical_ROB_Stalls_Percent_2_Bucket_2: 25541
Critical_ROB_Stalls_Percent_2_Bucket_3: 15553
Non-critical_ROB_Stalls_Percent_2_Bucket_3: 8356
Critical_ROB_Stalls_Percent_2_Bucket_4: 6370
Non-critical_ROB_Stalls_Percent_2_Bucket_4: 3934
Critical_ROB_Stalls_Percent_2_Bucket_5: 3442
Non-critical_ROB_Stalls_Percent_2_Bucket_5: 2024
Critical_ROB_Stalls_Percent_2_Bucket_6: 6338
Non-critical_ROB_Stalls_Percent_2_Bucket_6: 3627
Critical_ROB_Stalls_Percent_3_Bucket_0: 2688949
Non-critical_ROB_Stalls_Percent_3_Bucket_0: 1245156
Critical_ROB_Stalls_Percent_3_Bucket_1: 153834
Non-critical_ROB_Stalls_Percent_3_Bucket_1: 68624
Critical_ROB_Stalls_Percent_3_Bucket_2: 43909
Non-critical_ROB_Stalls_Percent_3_Bucket_2: 24132
Critical_ROB_Stalls_Percent_3_Bucket_3: 16065
Non-critical_ROB_Stalls_Percent_3_Bucket_3: 7844
Critical_ROB_Stalls_Percent_3_Bucket_4: 6633
Non-critical_ROB_Stalls_Percent_3_Bucket_4: 3671
Critical_ROB_Stalls_Percent_3_Bucket_5: 3563
Non-critical_ROB_Stalls_Percent_3_Bucket_5: 1903
Critical_ROB_Stalls_Percent_3_Bucket_6: 6535
Non-critical_ROB_Stalls_Percent_3_Bucket_6: 3430
Critical_ROB_Stalls_Percent_4_Bucket_0: 2935741
Non-critical_ROB_Stalls_Percent_4_Bucket_0: 998364
Critical_ROB_Stalls_Percent_4_Bucket_1: 160222
Non-critical_ROB_Stalls_Percent_4_Bucket_1: 62236
Critical_ROB_Stalls_Percent_4_Bucket_2: 45937
Non-critical_ROB_Stalls_Percent_4_Bucket_2: 22104
Critical_ROB_Stalls_Percent_4_Bucket_3: 16667
Non-critical_ROB_Stalls_Percent_4_Bucket_3: 7242
Critical_ROB_Stalls_Percent_4_Bucket_4: 7013
Non-critical_ROB_Stalls_Percent_4_Bucket_4: 3291
Critical_ROB_Stalls_Percent_4_Bucket_5: 3706
Non-critical_ROB_Stalls_Percent_4_Bucket_5: 1760
Critical_ROB_Stalls_Percent_4_Bucket_6: 6915
Non-critical_ROB_Stalls_Percent_4_Bucket_6: 3050
Critical_ROB_Stalls_Percent_5_Bucket_0: 3113935
Non-critical_ROB_Stalls_Percent_5_Bucket_0: 820170
Critical_ROB_Stalls_Percent_5_Bucket_1: 181865
Non-critical_ROB_Stalls_Percent_5_Bucket_1: 40593
Critical_ROB_Stalls_Percent_5_Bucket_2: 56300
Non-critical_ROB_Stalls_Percent_5_Bucket_2: 11741
Critical_ROB_Stalls_Percent_5_Bucket_3: 19565
Non-critical_ROB_Stalls_Percent_5_Bucket_3: 4344
Critical_ROB_Stalls_Percent_5_Bucket_4: 8474
Non-critical_ROB_Stalls_Percent_5_Bucket_4: 1830
Critical_ROB_Stalls_Percent_5_Bucket_5: 4674
Non-critical_ROB_Stalls_Percent_5_Bucket_5: 792
Critical_ROB_Stalls_Percent_5_Bucket_6: 8535
Non-critical_ROB_Stalls_Percent_5_Bucket_6: 1430
Critical_ROB_Stalls_Percent_6_Bucket_0: 3325765
Non-critical_ROB_Stalls_Percent_6_Bucket_0: 608340
Critical_ROB_Stalls_Percent_6_Bucket_1: 181865
Non-critical_ROB_Stalls_Percent_6_Bucket_1: 40593
Critical_ROB_Stalls_Percent_6_Bucket_2: 56300
Non-critical_ROB_Stalls_Percent_6_Bucket_2: 11741
Critical_ROB_Stalls_Percent_6_Bucket_3: 19565
Non-critical_ROB_Stalls_Percent_6_Bucket_3: 4344
Critical_ROB_Stalls_Percent_6_Bucket_4: 8474
Non-critical_ROB_Stalls_Percent_6_Bucket_4: 1830
Critical_ROB_Stalls_Percent_6_Bucket_5: 4674
Non-critical_ROB_Stalls_Percent_6_Bucket_5: 792
Critical_ROB_Stalls_Percent_6_Bucket_6: 8535
Non-critical_ROB_Stalls_Percent_6_Bucket_6: 1430
Critical_ROB_Stalls_Percent_7_Bucket_0: 3501917
Non-critical_ROB_Stalls_Percent_7_Bucket_0: 432188
Critical_ROB_Stalls_Percent_7_Bucket_1: 194519
Non-critical_ROB_Stalls_Percent_7_Bucket_1: 27939
Critical_ROB_Stalls_Percent_7_Bucket_2: 60199
Non-critical_ROB_Stalls_Percent_7_Bucket_2: 7842
Critical_ROB_Stalls_Percent_7_Bucket_3: 20927
Non-critical_ROB_Stalls_Percent_7_Bucket_3: 2982
Critical_ROB_Stalls_Percent_7_Bucket_4: 9122
Non-critical_ROB_Stalls_Percent_7_Bucket_4: 1182
Critical_ROB_Stalls_Percent_7_Bucket_5: 5003
Non-critical_ROB_Stalls_Percent_7_Bucket_5: 463
Critical_ROB_Stalls_Percent_7_Bucket_6: 9051
Non-critical_ROB_Stalls_Percent_7_Bucket_6: 914
Critical_ROB_Stalls_Percent_8_Bucket_0: 3635326
Non-critical_ROB_Stalls_Percent_8_Bucket_0: 298779
Critical_ROB_Stalls_Percent_8_Bucket_1: 200327
Non-critical_ROB_Stalls_Percent_8_Bucket_1: 22131
Critical_ROB_Stalls_Percent_8_Bucket_2: 62438
Non-critical_ROB_Stalls_Percent_8_Bucket_2: 5603
Critical_ROB_Stalls_Percent_8_Bucket_3: 21777
Non-critical_ROB_Stalls_Percent_8_Bucket_3: 2132
Critical_ROB_Stalls_Percent_8_Bucket_4: 9649
Non-critical_ROB_Stalls_Percent_8_Bucket_4: 655
Critical_ROB_Stalls_Percent_8_Bucket_5: 5184
Non-critical_ROB_Stalls_Percent_8_Bucket_5: 282
Critical_ROB_Stalls_Percent_8_Bucket_6: 9370
Non-critical_ROB_Stalls_Percent_8_Bucket_6: 595
Average ROB occupancy Load Stall Begin: 25.4646
Average ROB occupancy Load Stall End: 29.6956
Min ROB occupancy Load Stall Begin: 1
Max ROB occupancy Load Stall Begin: 351
Min ROB occupancy Load Stall End: 1
Max ROB occupancy Load Stall End: 352
Average ROB occupancy Critical Load Stall Begin: 26.9397
Average ROB occupancy Critical Load Stall End: 31.5765
Min ROB occupancy Critical Load Stall Begin: 2
Max ROB occupancy Critical Load Stall Begin: 351
Min ROB occupancy Critical Load Stall End: 2
Max ROB occupancy Critical Load Stall End: 352
 ROB Load Stall Begin Bucket Count 0: 3982945
 ROB Load Stall End Bucket Count 0: 3934105
 ROB Critical Load Stall Begin Bucket Count 0: 2200189
 ROB Critical Load Stall End Bucket Count 0: 2153926
 ROB Load Stall Begin Bucket Count 1: 191801
 ROB Load Stall End Bucket Count 1: 222458
 ROB Critical Load Stall Begin Bucket Count 1: 149965
 ROB Critical Load Stall End Bucket Count 1: 179091
 ROB Load Stall Begin Bucket Count 2: 55244
 ROB Load Stall End Bucket Count 2: 68041
 ROB Critical Load Stall Begin Bucket Count 2: 46563
 ROB Critical Load Stall End Bucket Count 2: 58570
 ROB Load Stall Begin Bucket Count 3: 21052
 ROB Load Stall End Bucket Count 3: 23909
 ROB Critical Load Stall Begin Bucket Count 3: 18372
 ROB Critical Load Stall End Bucket Count 3: 21058
 ROB Load Stall Begin Bucket Count 4: 9175
 ROB Load Stall End Bucket Count 4: 10304
 ROB Critical Load Stall Begin Bucket Count 4: 7974
 ROB Critical Load Stall End Bucket Count 4: 9046
 ROB Load Stall Begin Bucket Count 5: 5058
 ROB Load Stall End Bucket Count 5: 5466
 ROB Critical Load Stall Begin Bucket Count 5: 4512
 ROB Critical Load Stall End Bucket Count 5: 4916
 ROB Load Stall Begin Bucket Count 6: 8973
 ROB Load Stall End Bucket Count 6: 9965
 ROB Critical Load Stall Begin Bucket Count 6: 8020
 ROB Critical Load Stall End Bucket Count 6: 8988
PIST Tag Read Accesses: 60424
PIST Read Accesses: 30212
PIST Tag Write Accesses: 60424
PIST Write Accesses: 30212
Criticality detector called times: 768986
Max global_stall_cycles_count: 63945
Threshold Modified: 1 times, factor: -1
ITLB TOTAL     ACCESS:   17689767  HIT:   17689767  MISS:          0  HIT %:        100  MISS %:          0   MPKI: 0
ITLB LOAD TRANSLATION ACCESS:   17689767  HIT:   17689767  MISS:          0  HIT %:        100  MISS %:          0   MPKI: 0
ITLB PREFETCH  REQUESTED:          0  ISSUED:          0  USEFUL:          0  USELESS:          0
ITLB USEFUL LOAD PREFETCHES:          0 PREFETCH ISSUED TO LOWER LEVEL:          0  ACCURACY: -nan
ITLB TIMELY PREFETCHES:          0 LATE PREFETCHES: 0 DROPPED PREFETCHES: 0
ITLB PREFETCHES SAME FILL-ORIGIN LEVEL: 0 DIFFERENT FILL-ORIGIN LEVEL: 0
ITLB AVERAGE MISS LATENCY: -nan cycles
ITLB RQ	ACCESS:   18118709	FORWARD:          0	MERGED:     428943	TO_CACHE:   17689766

DTLB TOTAL     ACCESS:   32498657  HIT:   30875124  MISS:    1623533  HIT %:    95.0043  MISS %:    4.99569   MPKI: 16.2353
DTLB LOAD TRANSLATION ACCESS:   32498657  HIT:   30875124  MISS:    1623533  HIT %:    95.0043  MISS %:    4.99569   MPKI: 16.2353
DTLB PREFETCH  REQUESTED:          0  ISSUED:          0  USEFUL:          0  USELESS:          0
DTLB USEFUL LOAD PREFETCHES:          0 PREFETCH ISSUED TO LOWER LEVEL:          0  ACCURACY: -nan
DTLB TIMELY PREFETCHES:          0 LATE PREFETCHES: 0 DROPPED PREFETCHES: 0
DTLB PREFETCHES SAME FILL-ORIGIN LEVEL: 0 DIFFERENT FILL-ORIGIN LEVEL: 0
DTLB AVERAGE MISS LATENCY: 75.1124 cycles
DTLB RQ	ACCESS:   38538893	FORWARD:          0	MERGED:    5582038	TO_CACHE:   32956855

STLB TOTAL     ACCESS:    7656645  HIT:    6848815  MISS:     807830  HIT %:    89.4493  MISS %:    10.5507   MPKI: 8.0783
STLB LOAD TRANSLATION ACCESS:    1623533  HIT:     815953  MISS:     807580  HIT %:    50.2579  MISS %:    49.7421   MPKI: 8.0758
STLB TRANSLATION FROM L1D PREFETCHER ACCESS:    6033112  HIT:    6032862  MISS:        250  HIT %:    99.9959  MISS %:  0.0041438   MPKI: 0.0025
STLB PREFETCH  REQUESTED:          0  ISSUED:          0  USEFUL:        229  USELESS:         21
STLB USEFUL LOAD PREFETCHES:        229 PREFETCH ISSUED TO LOWER LEVEL:          0  ACCURACY: inf
STLB TIMELY PREFETCHES:        229 LATE PREFETCHES: 0 DROPPED PREFETCHES: 0
STLB PREFETCHES SAME FILL-ORIGIN LEVEL: 0 DIFFERENT FILL-ORIGIN LEVEL: 0
STLB AVERAGE MISS LATENCY: 132.793 cycles
STLB RQ	ACCESS:    9570297	FORWARD:          0	MERGED:    1913624	TO_CACHE:    7656673

STLB Hit, L1D data hit: 0
STLB Hit, L2C data hit: 0
STLB Hit, LLC data hit: 0
STLB Hit, LLC data miss: 0
STLB STLB hints to L2: 0
L1D TOTAL     ACCESS:   45313147  HIT:   38304861  MISS:    7008286  HIT %:    84.5337  MISS %:    15.4663   MPKI: 70.0829
L1D LOAD      ACCESS:   28463685  HIT:   24977753  MISS:    3485932  HIT %:    87.7531  MISS %:    12.2469   MPKI: 34.8593
L1D RFO       ACCESS:    9984265  HIT:    9948735  MISS:      35530  HIT %:    99.6441  MISS %:    0.35586   MPKI: 0.3553
L1D PREFETCH  ACCESS:    6865197  HIT:    3378373  MISS:    3486824  HIT %:    49.2101  MISS %:    50.7899   MPKI: 34.8682
L1D PREFETCH  REQUESTED:   15896530  ISSUED:   15896530  USEFUL:     463420  USELESS:    3023224
L1D USEFUL LOAD PREFETCHES:     463420 PREFETCH ISSUED TO LOWER LEVEL:    3856167  ACCURACY: 12.0176
L1D TIMELY PREFETCHES:     463420 LATE PREFETCHES: 368772 DROPPED PREFETCHES: 0
L1D PREFETCHES SAME FILL-ORIGIN LEVEL: 3856167 DIFFERENT FILL-ORIGIN LEVEL: 0
L1D AVERAGE MISS LATENCY: 1.2257e+07 cycles
L1D RQ	ACCESS:   33841259	FORWARD:          0	MERGED:    2976554	TO_CACHE:   28500104
L1D WQ	ACCESS:   10094511	FORWARD:    2367603	MERGED:      55722	TO_CACHE:   10038789
L1D PQ	ACCESS:    7949766	FORWARD:          0	MERGED:          0	TO_CACHE:    7946764

L1D UNIQUE REGIONS ACCESSED: 0
L1D REGIONS CONFLICTS: 0
L1D Cross Page Prefetch Requests: 0
L1D Same Page Prefetch Requests: 11108643
L1D ROI Sum of L1D PQ occupancy: 103587266
L1D PREFETCHES PUSHED FROM L2C: 0
L1I TOTAL     ACCESS:   18118710  HIT:   18118710  MISS:          0  HIT %:        100  MISS %:          0   MPKI: 0
L1I LOAD      ACCESS:   18118710  HIT:   18118710  MISS:          0  HIT %:        100  MISS %:          0   MPKI: 0
L1I PREFETCH  REQUESTED:          0  ISSUED:          0  USEFUL:          0  USELESS:          0
L1I USEFUL LOAD PREFETCHES:          0 PREFETCH ISSUED TO LOWER LEVEL:          0  ACCURACY: -nan
L1I TIMELY PREFETCHES:          0 LATE PREFETCHES: 0 DROPPED PREFETCHES: 0
L1I PREFETCHES SAME FILL-ORIGIN LEVEL: 0 DIFFERENT FILL-ORIGIN LEVEL: 0
L1I AVERAGE MISS LATENCY: -nan cycles
L1I RQ	ACCESS:   28695040	FORWARD:          0	MERGED:   10576331	TO_CACHE:   18118709

BTB TOTAL     ACCESS:   23415583  HIT:   22036176  MISS:    1379407  HIT %:     94.109  MISS %:    5.89098   MPKI: 13.7941
BTB BRANCH_DIRECT_JUMP	ACCESS:    2277732  HIT:    2277711  MISS:         21
BTB BRANCH_INDIRECT	ACCESS:          0  HIT:          0  MISS:          0
BTB BRANCH_CONDITIONAL	ACCESS:   14850308  HIT:   14850266  MISS:         42
BTB BRANCH_DIRECT_CALL	ACCESS:    3040680  HIT:    3040667  MISS:         13
BTB BRANCH_INDIRECT_CALL	ACCESS:     103096  HIT:     103088  MISS:          8
BTB BRANCH_RETURN	ACCESS:    3143767  HIT:    1764444  MISS:    1379323
BTB BRANCH_OTHER ACCESS:          0  HIT:          0  MISS:          0

L2C TOTAL     ACCESS:    8625056  HIT:    3212990  MISS:    5412066  HIT %:    37.2518  MISS %:    62.7482   MPKI: 54.1207
L2C LOAD      ACCESS:    3117157  HIT:     908601  MISS:    2208556  HIT %:    29.1484  MISS %:    70.8516   MPKI: 22.0856
L2C DATA LOAD MPKI: 22.0856
L2C INSTRUCTION LOAD MPKI: 0
L2C RFO       ACCESS:      34955  HIT:      32111  MISS:       2844  HIT %:    91.8638  MISS %:    8.13618   MPKI: 0.02844
L2C PREFETCH  ACCESS:    3856157  HIT:     998721  MISS:    2857436  HIT %:    25.8994  MISS %:    74.1006   MPKI: 28.5744
L2C DATA PREFETCH MPKI: 28.5744
L2C INSTRUCTION PREFETCH MPKI: 0
L2C WRITEBACK ACCESS:     276352  HIT:     275092  MISS:       1260  HIT %:    99.5441  MISS %:    0.45594   MPKI: 0.0126
L2C LOAD TRANSLATION ACCESS:    1340009  HIT:     998297  MISS:     341712  HIT %:    74.4993  MISS %:    25.5007   MPKI: 3.41712
L2C TRANSLATION FROM L1D PREFETCHER ACCESS:        426  HIT:        168  MISS:        258  HIT %:    39.4366  MISS %:    60.5634   MPKI: 0.00258
L2C PREFETCH  REQUESTED:          0  ISSUED:          0  USEFUL:      43324  USELESS:    2813185
L2C USEFUL LOAD PREFETCHES:      43324 PREFETCH ISSUED TO LOWER LEVEL:    2857436  ACCURACY: 1.51618
L2C TIMELY PREFETCHES:      43324 LATE PREFETCHES: 0 DROPPED PREFETCHES: 0
L2C PREFETCHES SAME FILL-ORIGIN LEVEL: 0 DIFFERENT FILL-ORIGIN LEVEL: 0
L2C AVERAGE MISS LATENCY: 168.345 cycles
L2C RQ	ACCESS:    4492554	FORWARD:          0	MERGED:          0	TO_CACHE:    4492547
L2C WQ	ACCESS:     276352	FORWARD:         17	MERGED:          0	TO_CACHE:     276352
L2C PQ	ACCESS:    3856167	FORWARD:          0	MERGED:          0	TO_CACHE:    3856157

L2C Instructions Evicting Data 0
L2C Translations Evicting Data 315681
L2C Data Evicting Data 4751905
L2C Instructions Evicting Instructions 0
L2C Translations Evicting Instructions 0
L2C Data Evicting Instructions 0
L2C Instructions Evicting Translations 0
L2C Translations Evicting Translations 26289
L2C Data Evicting Translations 316931
L2C Dense regions hint from L2: 0
PSCL5 TOTAL     ACCESS:     807830  HIT:     807830  MISS:          0  HIT %:        100  MISS %:          0   MPKI: 0
PSCL5 LOAD TRANSLATION ACCESS:     807580  HIT:     807580  MISS:          0  HIT %:        100  MISS %:          0   MPKI: 0
PSCL5 TRANSLATION FROM L1D PREFETCHER ACCESS:        250  HIT:        250  MISS:          0  HIT %:        100  MISS %:          0   MPKI: 0
PSCL5 PREFETCH  REQUESTED:          0  ISSUED:          0  USEFUL:          0  USELESS:          0
PSCL5 USEFUL LOAD PREFETCHES:          0 PREFETCH ISSUED TO LOWER LEVEL:          0  ACCURACY: -nan
PSCL5 TIMELY PREFETCHES:          0 LATE PREFETCHES: 0 DROPPED PREFETCHES: 0
PSCL5 PREFETCHES SAME FILL-ORIGIN LEVEL: 0 DIFFERENT FILL-ORIGIN LEVEL: 0

PSCL4 TOTAL     ACCESS:     807830  HIT:     807830  MISS:          0  HIT %:        100  MISS %:          0   MPKI: 0
PSCL4 LOAD TRANSLATION ACCESS:     807580  HIT:     807580  MISS:          0  HIT %:        100  MISS %:          0   MPKI: 0
PSCL4 TRANSLATION FROM L1D PREFETCHER ACCESS:        250  HIT:        250  MISS:          0  HIT %:        100  MISS %:          0   MPKI: 0
PSCL4 PREFETCH  REQUESTED:          0  ISSUED:          0  USEFUL:          0  USELESS:          0
PSCL4 USEFUL LOAD PREFETCHES:          0 PREFETCH ISSUED TO LOWER LEVEL:          0  ACCURACY: -nan
PSCL4 TIMELY PREFETCHES:          0 LATE PREFETCHES: 0 DROPPED PREFETCHES: 0
PSCL4 PREFETCHES SAME FILL-ORIGIN LEVEL: 0 DIFFERENT FILL-ORIGIN LEVEL: 0

PSCL3 TOTAL     ACCESS:     807830  HIT:     807830  MISS:          0  HIT %:        100  MISS %:          0   MPKI: 0
PSCL3 LOAD TRANSLATION ACCESS:     807580  HIT:     807580  MISS:          0  HIT %:        100  MISS %:          0   MPKI: 0
PSCL3 TRANSLATION FROM L1D PREFETCHER ACCESS:        250  HIT:        250  MISS:          0  HIT %:        100  MISS %:          0   MPKI: 0
PSCL3 PREFETCH  REQUESTED:          0  ISSUED:          0  USEFUL:          0  USELESS:          0
PSCL3 USEFUL LOAD PREFETCHES:          0 PREFETCH ISSUED TO LOWER LEVEL:          0  ACCURACY: -nan
PSCL3 TIMELY PREFETCHES:          0 LATE PREFETCHES: 0 DROPPED PREFETCHES: 0
PSCL3 PREFETCHES SAME FILL-ORIGIN LEVEL: 0 DIFFERENT FILL-ORIGIN LEVEL: 0

PSCL2 TOTAL     ACCESS:     807830  HIT:     275218  MISS:     532612  HIT %:    34.0688  MISS %:    65.9312   MPKI: 5.32612
PSCL2 LOAD TRANSLATION ACCESS:     807756  HIT:     275144  MISS:     532612  HIT %:    34.0628  MISS %:    65.9372   MPKI: 5.32612
PSCL2 TRANSLATION FROM L1D PREFETCHER ACCESS:         74  HIT:         74  MISS:          0  HIT %:        100  MISS %:          0   MPKI: 0
PSCL2 PREFETCH  REQUESTED:          0  ISSUED:          0  USEFUL:          0  USELESS:          0
PSCL2 USEFUL LOAD PREFETCHES:          0 PREFETCH ISSUED TO LOWER LEVEL:          0  ACCURACY: -nan
PSCL2 TIMELY PREFETCHES:          0 LATE PREFETCHES: 0 DROPPED PREFETCHES: 0
PSCL2 PREFETCHES SAME FILL-ORIGIN LEVEL: 0 DIFFERENT FILL-ORIGIN LEVEL: 0

LLC TOTAL     ACCESS:    5561507  HIT:    1402728  MISS:    4158779  HIT %:    25.2221  MISS %:    74.7779   MPKI: 41.5878
LLC LOAD      ACCESS:    2208556  HIT:     638317  MISS:    1570239  HIT %:     28.902  MISS %:     71.098   MPKI: 15.7024
LLC RFO       ACCESS:       2844  HIT:       1802  MISS:       1042  HIT %:    63.3615  MISS %:    36.6385   MPKI: 0.01042
LLC PREFETCH  ACCESS:    2857433  HIT:     535097  MISS:    2322336  HIT %:    18.7265  MISS %:    81.2735   MPKI: 23.2234
LLC WRITEBACK ACCESS:     150704  HIT:     132008  MISS:      18696  HIT %:    87.5942  MISS %:    12.4058   MPKI: 0.18696
LLC LOAD TRANSLATION ACCESS:     341712  HIT:      95285  MISS:     246427  HIT %:    27.8846  MISS %:    72.1154   MPKI: 2.46427
LLC TRANSLATION FROM L1D PREFETCHER ACCESS:        258  HIT:        219  MISS:         39  HIT %:    84.8837  MISS %:    15.1163   MPKI: 0.00039
LLC PREFETCH  REQUESTED:          0  ISSUED:          0  USEFUL:      29677  USELESS:    2284545
LLC USEFUL LOAD PREFETCHES:      29677 PREFETCH ISSUED TO LOWER LEVEL:    2322336  ACCURACY: 1.27789
LLC TIMELY PREFETCHES:      29677 LATE PREFETCHES: 0 DROPPED PREFETCHES: 0
LLC PREFETCHES SAME FILL-ORIGIN LEVEL: 0 DIFFERENT FILL-ORIGIN LEVEL: 0
LLC AVERAGE MISS LATENCY: 179.798 cycles
LLC RQ	ACCESS:    2553370	FORWARD:          0	MERGED:          0	TO_CACHE:    2553370
LLC WQ	ACCESS:     150704	FORWARD:          3	MERGED:          0	TO_CACHE:     150704
LLC PQ	ACCESS:    2857436	FORWARD:          0	MERGED:          0	TO_CACHE:    2857433

LLC Dense regions hint to LLC: 0

RAW hits: 855752
Loads Generated: 34697014
Loads sent to L1D: 33841259
Stores Generated: 10094507
Stores sent to L1D: 10094511
Major fault: 0 Minor fault: 167017
Allocated PAGES: 167017

stream: 
stream:times selected: 12743556
stream:pref_filled: 3290392
stream:pref_useful: 498881
stream:pref_late: 343432
stream:misses: 1208725
stream:misses_by_poll: 0

CS: 
CS:times selected: 534976
CS:pref_filled: 294736
CS:pref_useful: 286084
CS:pref_late: 81
CS:misses: 1453
CS:misses_by_poll: 171

CPLX: 
CPLX:times selected: 12094217
CPLX:pref_filled: 1311109
CPLX:pref_useful: 59955
CPLX:pref_late: 4005
CPLX:misses: 3656620
CPLX:misses_by_poll: 9100

NL_L1: 
NL:times selected: 124811
NL:pref_filled: 43266
NL:pref_useful: 9427
NL:pref_late: 4840
NL:misses: 48732
NL:misses_by_poll: 4

total selections: 25497560
total_filled: 3486824
total_useful: 463420
total_late: 387996
total_polluted: 9275
total_misses_after_warmup: 3522353
conflicts: 454244
Degree Incremented Times: 157200
Degree Decremented Times: 513897

L1 IP Table Write Accesses: 25393237
L1 IP Table Read Accesses: 24938993
L1 RST Write Accesses: 8694549
L1 RST Read Accesses: 17389098
L1 CSPT Write Accesses: 8694549
L1 CSPT Read Accesses: 16942767
L1 RR Filter Tag Write Accesses: 7949766
L1 RR Filter Tag Read Accesses: 316225382
L1 IP Table Tag Write Accesses: 28500106
L1 IP Table Tag Read Accesses: 28500106
L1 RST Tag Write Accesses: 0
L1 RST Tag Read Accesses: 80858870
L1 RR Filter Write Accesses: 0
L1 RR Filter Read Accesses: 11267957
test: 7749917

DRAM Statistics
 CHANNEL 0
 RQ ROW_BUFFER_HIT:     258720  ROW_BUFFER_MISS:    3881351
 DBUS_CONGESTED:        302
 WQ ROW_BUFFER_HIT:      39246  ROW_BUFFER_MISS:      77759  FULL:          0

 AVG_CONGESTED_CYCLE: 4
 All warmup complete: 2
Channel 0 Bank busy for read cycles: 0
Channel 0 Bank busy for write cycles: 0
Channel 0
Rank 0
0banks busy for read cycles: 150982281
0banks busy for write cycles: 84047
1banks busy for read cycles: 93949111
1banks busy for write cycles: 18350037
2banks busy for read cycles: 76152121
2banks busy for write cycles: 4149482
3banks busy for read cycles: 52426292
3banks busy for write cycles: 1032493
4banks busy for read cycles: 23505155
4banks busy for write cycles: 249789
5banks busy for read cycles: 10854726
5banks busy for write cycles: 80143
6banks busy for read cycles: 5057807
6banks busy for write cycles: 24072
7banks busy for read cycles: 1495992
7banks busy for write cycles: 12388
8banks busy for read cycles: 312045
8banks busy for write cycles: 5988

CPU 0 Branch Prediction Accuracy: 94.6877% MPKI: 13.1818 Average ROB Occupancy at Mispredict: 23.4779
Branch types
NOT_BRANCH: 75185764 75.1858%
BRANCH_DIRECT_JUMP: 2277732 2.27773%
BRANCH_INDIRECT: 0 0%
BRANCH_CONDITIONAL: 16248591 16.2486%
BRANCH_DIRECT_CALL: 3040680 3.04068%
BRANCH_INDIRECT_CALL: 103096 0.103096%
BRANCH_RETURN: 3143767 3.14377%
BRANCH_OTHER: 0 0%

DRAM PAGES: 1048576
Allocated PAGES: 167017
