Initialize SIGNATURE TABLE
ST_SET: 1
ST_WAY: 256
ST_TAG_BIT: 16
ST_TAG_MASK: ffff

Initialize PATTERN TABLE
PT_SET: 512
PT_WAY: 4
SIG_DELTA_BIT: 7
C_SIG_BIT: 4
C_DELTA_BIT: 4

Initialize PREFETCH FILTER
FILTER_SET: 1024

Initialize PERCEPTRON
PERC_ENTRIES: 4096
PERC_FEATURES: 9

*** ChampSim Multicore Out-of-Order Simulator ***

Warmup Instructions: 50000000
Simulation Instructions: 100000000
Number of CPUs: 1
LLC sets: 2048
LLC ways: 16
Off-chip DRAM Size: 4096 MB Channels: 1 Width: 64-bit Data Rate: 6400 MT/s
CPU 0 runs ../SPEC2017//607.cactuBSSN_s-4004B.champsimtrace.xz
.xz
NUM_OF_IPS_IN_CRITICAL_IP_TRAINING: 64
NUM_OF_CRITICAL_IP_TRAINING_TABLE_WAYS: 2
NUM_OF_CRITICAL_IP_TRAINING_TABLE_SETS: 32
WOBBLY_CRITICAL_IP_CACHE_SETS: 32
WOBBLY_CRITICAL_IP_CACHE_WAYS: 4
BTB has LRU replacement policy
ITLB has LRU replacement policy
DTLB has LRU replacement policy
STLB has LRU replacement policy
L1I has LRU replacement policy
L1D has LRU replacement policy
Initialize SRRIP state for L2C
Initialize DRRIP state for LLC
Heartbeat CPU 0 instructions: 10000001 cycles: 3596307 heartbeat IPC: 2.78063 cumulative IPC: 2.78063 (Simulation time: 0 hr 5 min 53 sec) 
Heartbeat CPU 0 instructions: 20000001 cycles: 7192897 heartbeat IPC: 2.78041 cumulative IPC: 2.78052 (Simulation time: 0 hr 11 min 7 sec) 
Heartbeat CPU 0 instructions: 30000003 cycles: 10789140 heartbeat IPC: 2.78068 cumulative IPC: 2.78057 (Simulation time: 0 hr 16 min 0 sec) 
Heartbeat CPU 0 instructions: 40000002 cycles: 14386136 heartbeat IPC: 2.7801 cumulative IPC: 2.78045 (Simulation time: 0 hr 20 min 36 sec) 
Heartbeat CPU 0 instructions: 50000002 cycles: 17981546 heartbeat IPC: 2.78132 cumulative IPC: 2.78063 (Simulation time: 0 hr 24 min 44 sec) 

Warmup complete CPU 0 instructions: 50000002 cycles: 17981546 (Simulation time: 0 hr 24 min 44 sec) 

% increase in all ip prefetch 200.992
% increase in all ip prefetch 4.09832
% increase in all ip prefetch 1.89427
Heartbeat CPU 0 instructions: 60000002 cycles: 29249169 heartbeat IPC: 0.887499 cumulative IPC: 0.887499 (Simulation time: 0 hr 28 min 57 sec) 
Heartbeat CPU 0 instructions: 70000003 cycles: 40910837 heartbeat IPC: 0.85751 cumulative IPC: 0.872247 (Simulation time: 0 hr 32 min 57 sec) 
Heartbeat CPU 0 instructions: 80000002 cycles: 52801774 heartbeat IPC: 0.840977 cumulative IPC: 0.861568 (Simulation time: 0 hr 36 min 35 sec) 
Heartbeat CPU 0 instructions: 90000003 cycles: 64438390 heartbeat IPC: 0.859356 cumulative IPC: 0.861014 (Simulation time: 0 hr 40 min 1 sec) 
Heartbeat CPU 0 instructions: 100000000 cycles: 76106898 heartbeat IPC: 0.857007 cumulative IPC: 0.86021 (Simulation time: 0 hr 43 min 17 sec) 
Heartbeat CPU 0 instructions: 110000000 cycles: 87798248 heartbeat IPC: 0.855333 cumulative IPC: 0.859393 (Simulation time: 0 hr 46 min 25 sec) 
Heartbeat CPU 0 instructions: 120000001 cycles: 99480794 heartbeat IPC: 0.855978 cumulative IPC: 0.858904 (Simulation time: 0 hr 50 min 49 sec) 
Heartbeat CPU 0 instructions: 130000000 cycles: 111154743 heartbeat IPC: 0.856608 cumulative IPC: 0.858616 (Simulation time: 0 hr 57 min 25 sec) 
Heartbeat CPU 0 instructions: 140000002 cycles: 122877604 heartbeat IPC: 0.853034 cumulative IPC: 0.857992 (Simulation time: 1 hr 3 min 12 sec) 
Heartbeat CPU 0 instructions: 150000002 cycles: 134593275 heartbeat IPC: 0.853558 cumulative IPC: 0.857547 (Simulation time: 1 hr 8 min 36 sec) 
Finished CPU 0 instructions: 100000000 cycles: 116611729 cumulative IPC: 0.857547 (Simulation time: 1 hr 8 min 36 sec) 

ChampSim completed all CPUs

Region of Interest Statistics

CPU 0 cumulative IPC: 0.857547 instructions: 100000000 cycles: 116611729

CPU 0 Average Load ROB stall cycles: 2.55192e+07
CPU 0 Fraction of times ROB stalled by Loads: 33.5622
CPU 0 Percentage of Load stall cycles in Total stall cycles: 4.18048e+08
Issued all: 61316635
Issued LT all: 48153499
rob_not_full_when_issued_lt_all: 33036616
Issued LT one: 41704734
rob_not_full_when_issued_lt_one: 27750710
 Total stall cycles: 93644378
 Total load stall cycles: 391478751042322
CPU 0 NUM of IPS identified critical: 0
CPU 0 Num of Load IPs stalling ROB: 2065
Threshold modification factor: -2
Max PIST entries: 64
Min PIST entries: 0
Avg PIST entries: 42.6667
Trouble in retire width: 0.93099
MaC = Marked as critical.
lt_50_percent_before_Mac: 0
gt_90_percent_before_Mac: 0
gt_75_percent_before_Mac: 0
gt_50_percent_before_Mac: 0
stall_proportion_bin_same_before_after: 0
stall_proportion_bin_lower_before_after: 0
stall_proportion_bin_upper_before_after: 0
average_stall_proportion_before: -nan
average_stall_proportion_after: -nan
Critical IP stalls, total frequency: 0
Non-critical IP stalls, total frequency: 5148621
Total Freq all stalling IPs: 5148621
stat_90_percent_critical_ip_stalls_freq: 4634220
stat_90_percent_non_critical_ip_stalls_freq: 514401
Critical_IP_ROB_Stalls_Bucket_0: 0
Non-critical_IP_ROB_Stalls_Bucket_0: 2691395
Critical_IP_ROB_Stalls_Bucket_1: 0
Non-critical_IP_ROB_Stalls_Bucket_1: 1154748
Critical_IP_ROB_Stalls_Bucket_2: 0
Non-critical_IP_ROB_Stalls_Bucket_2: 337019
Critical_IP_ROB_Stalls_Bucket_3: 0
Non-critical_IP_ROB_Stalls_Bucket_3: 205372
Critical_IP_ROB_Stalls_Bucket_4: 0
Non-critical_IP_ROB_Stalls_Bucket_4: 109815
Critical_IP_ROB_Stalls_Bucket_5: 0
Non-critical_IP_ROB_Stalls_Bucket_5: 171060
Critical_IP_ROB_Stalls_Bucket_6: 0
Non-critical_IP_ROB_Stalls_Bucket_6: 479212
0 => IPs accounting for >50 percent of stalls, 1 => 55, 2 => 60, 3 => 65 and so on till 90.
percent50: 50.2793 num IPs:  144
percent55: 55.2562 num IPs: 161
percent60: 60.0093 num IPs: 178
percent65: 65.0029 num IPs: 197
percent70: 70.0925 num IPs: 218
percent75: 75.056 num IPs: 243
percent80: 80.0488 num IPs: 280
percent85: 85.0348 num IPs: 341
percent90: 90.0089 num IPs: 443
Critical_ROB_Stalls_Percent_0_Bucket_0: 1577993
Non-critical_ROB_Stalls_Percent_0_Bucket_0: 1113402
Critical_ROB_Stalls_Percent_0_Bucket_1: 699258
Non-critical_ROB_Stalls_Percent_0_Bucket_1: 455490
Critical_ROB_Stalls_Percent_0_Bucket_2: 104412
Non-critical_ROB_Stalls_Percent_0_Bucket_2: 232607
Critical_ROB_Stalls_Percent_0_Bucket_3: 57833
Non-critical_ROB_Stalls_Percent_0_Bucket_3: 147539
Critical_ROB_Stalls_Percent_0_Bucket_4: 24542
Non-critical_ROB_Stalls_Percent_0_Bucket_4: 85273
Critical_ROB_Stalls_Percent_0_Bucket_5: 20752
Non-critical_ROB_Stalls_Percent_0_Bucket_5: 150308
Critical_ROB_Stalls_Percent_0_Bucket_6: 103900
Non-critical_ROB_Stalls_Percent_0_Bucket_6: 375312
Critical_ROB_Stalls_Percent_1_Bucket_0: 1710927
Non-critical_ROB_Stalls_Percent_1_Bucket_0: 980468
Critical_ROB_Stalls_Percent_1_Bucket_1: 718970
Non-critical_ROB_Stalls_Percent_1_Bucket_1: 435778
Critical_ROB_Stalls_Percent_1_Bucket_2: 128234
Non-critical_ROB_Stalls_Percent_1_Bucket_2: 208785
Critical_ROB_Stalls_Percent_1_Bucket_3: 78854
Non-critical_ROB_Stalls_Percent_1_Bucket_3: 126518
Critical_ROB_Stalls_Percent_1_Bucket_4: 33329
Non-critical_ROB_Stalls_Percent_1_Bucket_4: 76486
Critical_ROB_Stalls_Percent_1_Bucket_5: 32047
Non-critical_ROB_Stalls_Percent_1_Bucket_5: 139013
Critical_ROB_Stalls_Percent_1_Bucket_6: 142571
Non-critical_ROB_Stalls_Percent_1_Bucket_6: 336641
Critical_ROB_Stalls_Percent_2_Bucket_0: 1879517
Non-critical_ROB_Stalls_Percent_2_Bucket_0: 811878
Critical_ROB_Stalls_Percent_2_Bucket_1: 730355
Non-critical_ROB_Stalls_Percent_2_Bucket_1: 424393
Critical_ROB_Stalls_Percent_2_Bucket_2: 149968
Non-critical_ROB_Stalls_Percent_2_Bucket_2: 187051
Critical_ROB_Stalls_Percent_2_Bucket_3: 94702
Non-critical_ROB_Stalls_Percent_2_Bucket_3: 110670
Critical_ROB_Stalls_Percent_2_Bucket_4: 39620
Non-critical_ROB_Stalls_Percent_2_Bucket_4: 70195
Critical_ROB_Stalls_Percent_2_Bucket_5: 36697
Non-critical_ROB_Stalls_Percent_2_Bucket_5: 134363
Critical_ROB_Stalls_Percent_2_Bucket_6: 158795
Non-critical_ROB_Stalls_Percent_2_Bucket_6: 320417
Critical_ROB_Stalls_Percent_3_Bucket_0: 2078848
Non-critical_ROB_Stalls_Percent_3_Bucket_0: 612547
Critical_ROB_Stalls_Percent_3_Bucket_1: 764728
Non-critical_ROB_Stalls_Percent_3_Bucket_1: 390020
Critical_ROB_Stalls_Percent_3_Bucket_2: 160968
Non-critical_ROB_Stalls_Percent_3_Bucket_2: 176051
Critical_ROB_Stalls_Percent_3_Bucket_3: 97323
Non-critical_ROB_Stalls_Percent_3_Bucket_3: 108049
Critical_ROB_Stalls_Percent_3_Bucket_4: 40738
Non-critical_ROB_Stalls_Percent_3_Bucket_4: 69077
Critical_ROB_Stalls_Percent_3_Bucket_5: 39137
Non-critical_ROB_Stalls_Percent_3_Bucket_5: 131923
Critical_ROB_Stalls_Percent_3_Bucket_6: 165010
Non-critical_ROB_Stalls_Percent_3_Bucket_6: 314202
Critical_ROB_Stalls_Percent_4_Bucket_0: 2276455
Non-critical_ROB_Stalls_Percent_4_Bucket_0: 414940
Critical_ROB_Stalls_Percent_4_Bucket_1: 779144
Non-critical_ROB_Stalls_Percent_4_Bucket_1: 375604
Critical_ROB_Stalls_Percent_4_Bucket_2: 175652
Non-critical_ROB_Stalls_Percent_4_Bucket_2: 161367
Critical_ROB_Stalls_Percent_4_Bucket_3: 107615
Non-critical_ROB_Stalls_Percent_4_Bucket_3: 97757
Critical_ROB_Stalls_Percent_4_Bucket_4: 43311
Non-critical_ROB_Stalls_Percent_4_Bucket_4: 66504
Critical_ROB_Stalls_Percent_4_Bucket_5: 46791
Non-critical_ROB_Stalls_Percent_4_Bucket_5: 124269
Critical_ROB_Stalls_Percent_4_Bucket_6: 179832
Non-critical_ROB_Stalls_Percent_4_Bucket_6: 299380
Critical_ROB_Stalls_Percent_5_Bucket_0: 2357626
Non-critical_ROB_Stalls_Percent_5_Bucket_0: 333769
Critical_ROB_Stalls_Percent_5_Bucket_1: 856829
Non-critical_ROB_Stalls_Percent_5_Bucket_1: 297919
Critical_ROB_Stalls_Percent_5_Bucket_2: 208903
Non-critical_ROB_Stalls_Percent_5_Bucket_2: 128116
Critical_ROB_Stalls_Percent_5_Bucket_3: 123650
Non-critical_ROB_Stalls_Percent_5_Bucket_3: 81722
Critical_ROB_Stalls_Percent_5_Bucket_4: 53054
Non-critical_ROB_Stalls_Percent_5_Bucket_4: 56761
Critical_ROB_Stalls_Percent_5_Bucket_5: 65093
Non-critical_ROB_Stalls_Percent_5_Bucket_5: 105967
Critical_ROB_Stalls_Percent_5_Bucket_6: 199195
Non-critical_ROB_Stalls_Percent_5_Bucket_6: 280017
Critical_ROB_Stalls_Percent_6_Bucket_0: 2445734
Non-critical_ROB_Stalls_Percent_6_Bucket_0: 245661
Critical_ROB_Stalls_Percent_6_Bucket_1: 929660
Non-critical_ROB_Stalls_Percent_6_Bucket_1: 225088
Critical_ROB_Stalls_Percent_6_Bucket_2: 234572
Non-critical_ROB_Stalls_Percent_6_Bucket_2: 102447
Critical_ROB_Stalls_Percent_6_Bucket_3: 137168
Non-critical_ROB_Stalls_Percent_6_Bucket_3: 68204
Critical_ROB_Stalls_Percent_6_Bucket_4: 62158
Non-critical_ROB_Stalls_Percent_6_Bucket_4: 47657
Critical_ROB_Stalls_Percent_6_Bucket_5: 94248
Non-critical_ROB_Stalls_Percent_6_Bucket_5: 76812
Critical_ROB_Stalls_Percent_6_Bucket_6: 217868
Non-critical_ROB_Stalls_Percent_6_Bucket_6: 261344
Critical_ROB_Stalls_Percent_7_Bucket_0: 2514230
Non-critical_ROB_Stalls_Percent_7_Bucket_0: 177165
Critical_ROB_Stalls_Percent_7_Bucket_1: 989662
Non-critical_ROB_Stalls_Percent_7_Bucket_1: 165086
Critical_ROB_Stalls_Percent_7_Bucket_2: 258532
Non-critical_ROB_Stalls_Percent_7_Bucket_2: 78487
Critical_ROB_Stalls_Percent_7_Bucket_3: 157548
Non-critical_ROB_Stalls_Percent_7_Bucket_3: 47824
Critical_ROB_Stalls_Percent_7_Bucket_4: 74926
Non-critical_ROB_Stalls_Percent_7_Bucket_4: 34889
Critical_ROB_Stalls_Percent_7_Bucket_5: 114214
Non-critical_ROB_Stalls_Percent_7_Bucket_5: 56846
Critical_ROB_Stalls_Percent_7_Bucket_6: 269007
Non-critical_ROB_Stalls_Percent_7_Bucket_6: 210205
Critical_ROB_Stalls_Percent_8_Bucket_0: 2561969
Non-critical_ROB_Stalls_Percent_8_Bucket_0: 129426
Critical_ROB_Stalls_Percent_8_Bucket_1: 1026158
Non-critical_ROB_Stalls_Percent_8_Bucket_1: 128590
Critical_ROB_Stalls_Percent_8_Bucket_2: 280798
Non-critical_ROB_Stalls_Percent_8_Bucket_2: 56221
Critical_ROB_Stalls_Percent_8_Bucket_3: 173219
Non-critical_ROB_Stalls_Percent_8_Bucket_3: 32153
Critical_ROB_Stalls_Percent_8_Bucket_4: 90391
Non-critical_ROB_Stalls_Percent_8_Bucket_4: 19424
Critical_ROB_Stalls_Percent_8_Bucket_5: 131304
Non-critical_ROB_Stalls_Percent_8_Bucket_5: 39756
Critical_ROB_Stalls_Percent_8_Bucket_6: 370381
Non-critical_ROB_Stalls_Percent_8_Bucket_6: 108831
Average ROB occupancy Load Stall Begin: 81.9068
Average ROB occupancy Load Stall End: 92.213
Min ROB occupancy Load Stall Begin: 1
Max ROB occupancy Load Stall Begin: 352
Min ROB occupancy Load Stall End: 1
Max ROB occupancy Load Stall End: 352
Average ROB occupancy Critical Load Stall Begin: -nan
Average ROB occupancy Critical Load Stall End: -nan
Min ROB occupancy Critical Load Stall Begin: 400
Max ROB occupancy Critical Load Stall Begin: 0
Min ROB occupancy Critical Load Stall End: 400
Max ROB occupancy Critical Load Stall End: 0
 ROB Load Stall Begin Bucket Count 0: 3142129
 ROB Load Stall End Bucket Count 0: 2691395
 ROB Critical Load Stall Begin Bucket Count 0: 0
 ROB Critical Load Stall End Bucket Count 0: 0
 ROB Load Stall Begin Bucket Count 1: 826653
 ROB Load Stall End Bucket Count 1: 1154748
 ROB Critical Load Stall Begin Bucket Count 1: 0
 ROB Critical Load Stall End Bucket Count 1: 0
 ROB Load Stall Begin Bucket Count 2: 302881
 ROB Load Stall End Bucket Count 2: 337019
 ROB Critical Load Stall Begin Bucket Count 2: 0
 ROB Critical Load Stall End Bucket Count 2: 0
 ROB Load Stall Begin Bucket Count 3: 164492
 ROB Load Stall End Bucket Count 3: 205372
 ROB Critical Load Stall Begin Bucket Count 3: 0
 ROB Critical Load Stall End Bucket Count 3: 0
 ROB Load Stall Begin Bucket Count 4: 98949
 ROB Load Stall End Bucket Count 4: 109815
 ROB Critical Load Stall Begin Bucket Count 4: 0
 ROB Critical Load Stall End Bucket Count 4: 0
 ROB Load Stall Begin Bucket Count 5: 218292
 ROB Load Stall End Bucket Count 5: 171060
 ROB Critical Load Stall Begin Bucket Count 5: 0
 ROB Critical Load Stall End Bucket Count 5: 0
 ROB Load Stall Begin Bucket Count 6: 395225
 ROB Load Stall End Bucket Count 6: 479212
 ROB Critical Load Stall Begin Bucket Count 6: 0
 ROB Critical Load Stall End Bucket Count 6: 0
PIST Tag Read Accesses: 7794424
PIST Read Accesses: 3897212
PIST Tag Write Accesses: 7794424
PIST Write Accesses: 3897212
Criticality detector called times: 5148621
Max global_stall_cycles_count: 4771435
Threshold Modified: 2 times, factor: -2
Sturdy critical IP cache stats: 
 Unused entries: 0
CIC Tag Read Accesses: 0
CIC Read Accesses: 0
CIC Tag Write Accesses: 0
CIC Write Accesses: 0
Wobbly critical IP cache stats: 
 Unused entries: 128
CIC Tag Read Accesses: 227648332
CIC Read Accesses: 0
CIC Tag Write Accesses: 0
CIC Write Accesses: 0
ITLB TOTAL     ACCESS:   13994482  HIT:   13994482  MISS:          0  HIT %:        100  MISS %:          0   MPKI: 0
ITLB LOAD TRANSLATION ACCESS:   13994482  HIT:   13994482  MISS:          0  HIT %:        100  MISS %:          0   MPKI: 0
ITLB PREFETCH  REQUESTED:          0  ISSUED:          0  USEFUL:          0  USELESS:          0
ITLB USEFUL LOAD PREFETCHES:          0 PREFETCH ISSUED TO LOWER LEVEL:          0  ACCURACY: -nan
ITLB TIMELY PREFETCHES:          0 LATE PREFETCHES: 0 DROPPED PREFETCHES: 0
ITLB PREFETCHES SAME FILL-ORIGIN LEVEL: 0 DIFFERENT FILL-ORIGIN LEVEL: 0
ITLB AVERAGE MISS LATENCY: -nan cycles
ITLB RQ	ACCESS:   16991164	FORWARD:          0	MERGED:    2996682	TO_CACHE:   13994482

DTLB TOTAL     ACCESS:   28290844  HIT:   24424669  MISS:    3866175  HIT %:    86.3342  MISS %:    13.6658   MPKI: 38.6617
DTLB LOAD TRANSLATION ACCESS:   28290844  HIT:   24424669  MISS:    3866175  HIT %:    86.3342  MISS %:    13.6658   MPKI: 38.6617
DTLB PREFETCH  REQUESTED:          0  ISSUED:          0  USEFUL:          0  USELESS:          0
DTLB USEFUL LOAD PREFETCHES:          0 PREFETCH ISSUED TO LOWER LEVEL:          0  ACCURACY: -nan
DTLB TIMELY PREFETCHES:          0 LATE PREFETCHES: 0 DROPPED PREFETCHES: 0
DTLB PREFETCHES SAME FILL-ORIGIN LEVEL: 0 DIFFERENT FILL-ORIGIN LEVEL: 0
DTLB AVERAGE MISS LATENCY: 9.9616 cycles
DTLB RQ	ACCESS:   39583809	FORWARD:          0	MERGED:   10865884	TO_CACHE:   28717925

STLB TOTAL     ACCESS:    3866175  HIT:    3861917  MISS:       4258  HIT %:    99.8899  MISS %:   0.110135   MPKI: 0.04258
STLB LOAD TRANSLATION ACCESS:    3866175  HIT:    3861917  MISS:       4258  HIT %:    99.8899  MISS %:   0.110135   MPKI: 0.04258
STLB PREFETCH  REQUESTED:          0  ISSUED:          0  USEFUL:          0  USELESS:          0
STLB USEFUL LOAD PREFETCHES:          0 PREFETCH ISSUED TO LOWER LEVEL:          0  ACCURACY: -nan
STLB TIMELY PREFETCHES:          0 LATE PREFETCHES: 0 DROPPED PREFETCHES: 0
STLB PREFETCHES SAME FILL-ORIGIN LEVEL: 0 DIFFERENT FILL-ORIGIN LEVEL: 0
STLB AVERAGE MISS LATENCY: 584.53 cycles
STLB RQ	ACCESS:    3866175	FORWARD:          0	MERGED:          0	TO_CACHE:    3866175

STLB Hit, L1D data hit: 0
STLB Hit, L2C data hit: 0
STLB Hit, LLC data hit: 0
STLB Hit, LLC data miss: 0
STLB STLB hints to L2: 0
L1D TOTAL     ACCESS:   39377135  HIT:   32029397  MISS:    7347738  HIT %:    81.3401  MISS %:    18.6599   MPKI: 73.4774
L1D LOAD      ACCESS:   31365170  HIT:   24623982  MISS:    6741188  HIT %:    78.5074  MISS %:    21.4926   MPKI: 67.4119
L1D RFO       ACCESS:    8011965  HIT:    7405415  MISS:     606550  HIT %:    92.4294  MISS %:    7.57055   MPKI: 6.0655
L1D PREFETCH  REQUESTED:          0  ISSUED:          0  USEFUL:          0  USELESS:          0
L1D USEFUL LOAD PREFETCHES:          0 PREFETCH ISSUED TO LOWER LEVEL:          0  ACCURACY: -nan
L1D TIMELY PREFETCHES:          0 LATE PREFETCHES: 0 DROPPED PREFETCHES: 0
L1D PREFETCHES SAME FILL-ORIGIN LEVEL: 0 DIFFERENT FILL-ORIGIN LEVEL: 0
L1D AVERAGE MISS LATENCY: 28.9731 cycles
L1D RQ	ACCESS:   38923582	FORWARD:          0	MERGED:    7365190	TO_CACHE:   31532491
L1D WQ	ACCESS:    8105841	FORWARD:      25901	MERGED:      54523	TO_CACHE:    8051318

L1D UNIQUE REGIONS ACCESSED: 0
L1D REGIONS CONFLICTS: 0
L1D Cross Page Prefetch Requests: 0
L1D Same Page Prefetch Requests: 0
L1D ROI Sum of L1D PQ occupancy: 0
L1D PREFETCHES PUSHED FROM L2C: 0
L1I TOTAL     ACCESS:   15665892  HIT:   13065887  MISS:    2600005  HIT %:    83.4034  MISS %:    16.5966   MPKI: 26.0001
L1I LOAD      ACCESS:   15665892  HIT:   13065887  MISS:    2600005  HIT %:    83.4034  MISS %:    16.5966   MPKI: 26.0001
L1I PREFETCH  REQUESTED:          0  ISSUED:          0  USEFUL:          0  USELESS:          0
L1I USEFUL LOAD PREFETCHES:          0 PREFETCH ISSUED TO LOWER LEVEL:          0  ACCURACY: -nan
L1I TIMELY PREFETCHES:          0 LATE PREFETCHES: 0 DROPPED PREFETCHES: 0
L1I PREFETCHES SAME FILL-ORIGIN LEVEL: 0 DIFFERENT FILL-ORIGIN LEVEL: 0
L1I AVERAGE MISS LATENCY: 14.0749 cycles
L1I RQ	ACCESS:   23877682	FORWARD:          0	MERGED:    6886518	TO_CACHE:   16991164

BTB TOTAL     ACCESS:     563528  HIT:     527153  MISS:      36375  HIT %:    93.5451  MISS %:    6.45487   MPKI: 0.36375
BTB BRANCH_DIRECT_JUMP	ACCESS:     109049  HIT:     109044  MISS:          5
BTB BRANCH_INDIRECT	ACCESS:      18175  HIT:      18174  MISS:          1
BTB BRANCH_CONDITIONAL	ACCESS:     218208  HIT:     218196  MISS:         12
BTB BRANCH_DIRECT_CALL	ACCESS:     109048  HIT:     109043  MISS:          5
BTB BRANCH_INDIRECT_CALL	ACCESS:          0  HIT:          0  MISS:          0
BTB BRANCH_RETURN	ACCESS:     109048  HIT:      72696  MISS:      36352
BTB BRANCH_OTHER ACCESS:          0  HIT:          0  MISS:          0

L2C TOTAL     ACCESS:   10790945  HIT:   10243510  MISS:     547435  HIT %:    94.9269  MISS %:     5.0731   MPKI: 5.47435
L2C LOAD      ACCESS:    9340393  HIT:    8884945  MISS:     455448  HIT %:    95.1239  MISS %:    4.87611   MPKI: 4.55448
L2C DATA LOAD MPKI: 4.54598
L2C INSTRUCTION LOAD MPKI: 0.0085
L2C RFO       ACCESS:     606396  HIT:     547544  MISS:      58852  HIT %:    90.2948  MISS %:    9.70521   MPKI: 0.58852
L2C PREFETCH  ACCESS:     189204  HIT:     163529  MISS:      25675  HIT %:      86.43  MISS %:      13.57   MPKI: 0.25675
L2C DATA PREFETCH MPKI: 0.25675
L2C INSTRUCTION PREFETCH MPKI: 0
L2C WRITEBACK ACCESS:     648553  HIT:     647307  MISS:       1246  HIT %:    99.8079  MISS %:    0.19212   MPKI: 0.01246
L2C LOAD TRANSLATION ACCESS:       6399  HIT:        185  MISS:       6214  HIT %:    2.89108  MISS %:    97.1089   MPKI: 0.06214
L2C PREFETCH  REQUESTED:     194436  ISSUED:     192550  USEFUL:      16696  USELESS:      10857
L2C USEFUL LOAD PREFETCHES:      16696 PREFETCH ISSUED TO LOWER LEVEL:      28220  ACCURACY: 59.1637
L2C TIMELY PREFETCHES:      16696 LATE PREFETCHES: 174 DROPPED PREFETCHES: 0
L2C PREFETCHES SAME FILL-ORIGIN LEVEL: 25849 DIFFERENT FILL-ORIGIN LEVEL: 2371
L2C AVERAGE MISS LATENCY: 185.303 cycles
L2C RQ	ACCESS:    9954141	FORWARD:          0	MERGED:          0	TO_CACHE:    9953188
L2C WQ	ACCESS:     648553	FORWARD:        955	MERGED:          0	TO_CACHE:     648553
L2C PQ	ACCESS:     192550	FORWARD:          0	MERGED:        304	TO_CACHE:     192244

L2C Instructions Evicting Data 765
L2C Translations Evicting Data 6167
L2C Data Evicting Data 532224
L2C Instructions Evicting Instructions 77
L2C Translations Evicting Instructions 7
L2C Data Evicting Instructions 758
L2C Instructions Evicting Translations 8
L2C Translations Evicting Translations 40
L2C Data Evicting Translations 6143
L2C Dense regions hint from L2: 0
PSCL5 TOTAL     ACCESS:       4258  HIT:       4258  MISS:          0  HIT %:        100  MISS %:          0   MPKI: 0
PSCL5 LOAD TRANSLATION ACCESS:       4258  HIT:       4258  MISS:          0  HIT %:        100  MISS %:          0   MPKI: 0
PSCL5 PREFETCH  REQUESTED:          0  ISSUED:          0  USEFUL:          0  USELESS:          0
PSCL5 USEFUL LOAD PREFETCHES:          0 PREFETCH ISSUED TO LOWER LEVEL:          0  ACCURACY: -nan
PSCL5 TIMELY PREFETCHES:          0 LATE PREFETCHES: 0 DROPPED PREFETCHES: 0
PSCL5 PREFETCHES SAME FILL-ORIGIN LEVEL: 0 DIFFERENT FILL-ORIGIN LEVEL: 0

PSCL4 TOTAL     ACCESS:       4258  HIT:       4258  MISS:          0  HIT %:        100  MISS %:          0   MPKI: 0
PSCL4 LOAD TRANSLATION ACCESS:       4258  HIT:       4258  MISS:          0  HIT %:        100  MISS %:          0   MPKI: 0
PSCL4 PREFETCH  REQUESTED:          0  ISSUED:          0  USEFUL:          0  USELESS:          0
PSCL4 USEFUL LOAD PREFETCHES:          0 PREFETCH ISSUED TO LOWER LEVEL:          0  ACCURACY: -nan
PSCL4 TIMELY PREFETCHES:          0 LATE PREFETCHES: 0 DROPPED PREFETCHES: 0
PSCL4 PREFETCHES SAME FILL-ORIGIN LEVEL: 0 DIFFERENT FILL-ORIGIN LEVEL: 0

PSCL3 TOTAL     ACCESS:       4258  HIT:       4258  MISS:          0  HIT %:        100  MISS %:          0   MPKI: 0
PSCL3 LOAD TRANSLATION ACCESS:       4258  HIT:       4258  MISS:          0  HIT %:        100  MISS %:          0   MPKI: 0
PSCL3 PREFETCH  REQUESTED:          0  ISSUED:          0  USEFUL:          0  USELESS:          0
PSCL3 USEFUL LOAD PREFETCHES:          0 PREFETCH ISSUED TO LOWER LEVEL:          0  ACCURACY: -nan
PSCL3 TIMELY PREFETCHES:          0 LATE PREFETCHES: 0 DROPPED PREFETCHES: 0
PSCL3 PREFETCHES SAME FILL-ORIGIN LEVEL: 0 DIFFERENT FILL-ORIGIN LEVEL: 0

PSCL2 TOTAL     ACCESS:       4258  HIT:       2112  MISS:       2146  HIT %:    49.6008  MISS %:    50.3992   MPKI: 0.02146
PSCL2 LOAD TRANSLATION ACCESS:       4258  HIT:       2112  MISS:       2146  HIT %:    49.6008  MISS %:    50.3992   MPKI: 0.02146
PSCL2 PREFETCH  REQUESTED:          0  ISSUED:          0  USEFUL:          0  USELESS:          0
PSCL2 USEFUL LOAD PREFETCHES:          0 PREFETCH ISSUED TO LOWER LEVEL:          0  ACCURACY: -nan
PSCL2 TIMELY PREFETCHES:          0 LATE PREFETCHES: 0 DROPPED PREFETCHES: 0
PSCL2 PREFETCHES SAME FILL-ORIGIN LEVEL: 0 DIFFERENT FILL-ORIGIN LEVEL: 0

LLC TOTAL     ACCESS:     607040  HIT:     335555  MISS:     271485  HIT %:    55.2772  MISS %:    44.7228   MPKI: 2.71485
LLC LOAD      ACCESS:     455274  HIT:     252144  MISS:     203130  HIT %:    55.3829  MISS %:    44.6171   MPKI: 2.0313
LLC RFO       ACCESS:      58852  HIT:          2  MISS:      58850  HIT %: 0.00339836  MISS %:    99.9966   MPKI: 0.5885
LLC PREFETCH  ACCESS:      28220  HIT:      20341  MISS:       7879  HIT %:    72.0801  MISS %:    27.9199   MPKI: 0.07879
LLC WRITEBACK ACCESS:      58480  HIT:      57490  MISS:        990  HIT %:    98.3071  MISS %:    1.69289   MPKI: 0.0099
LLC LOAD TRANSLATION ACCESS:       6214  HIT:       5578  MISS:        636  HIT %:     89.765  MISS %:     10.235   MPKI: 0.00636
LLC PREFETCH  REQUESTED:          0  ISSUED:          0  USEFUL:       8199  USELESS:      20200
LLC USEFUL LOAD PREFETCHES:       8199 PREFETCH ISSUED TO LOWER LEVEL:       7879  ACCURACY: 104.061
LLC TIMELY PREFETCHES:       8199 LATE PREFETCHES: 0 DROPPED PREFETCHES: 0
LLC PREFETCHES SAME FILL-ORIGIN LEVEL: 713 DIFFERENT FILL-ORIGIN LEVEL: 0
LLC AVERAGE MISS LATENCY: 312.627 cycles
LLC RQ	ACCESS:     520340	FORWARD:          0	MERGED:          0	TO_CACHE:     520340
LLC WQ	ACCESS:      58480	FORWARD:          0	MERGED:          0	TO_CACHE:      58480
LLC PQ	ACCESS:      28220	FORWARD:          0	MERGED:          0	TO_CACHE:      28220

LLC Dense regions hint to LLC: 0

RAW hits: 262442
Loads Generated: 39186024
Loads sent to L1D: 38923582
Stores Generated: 8106290
Stores sent to L1D: 8106279
Major fault: 0 Minor fault: 6506
Allocated PAGES: 6506
------------------
Depth Distribution
------------------
depth 0: 536158
depth 1: 6601406
depth 2: 1236071
depth 3: 1644103
depth 4: 96982
depth 5: 460
depth 6: 4
depth 7: 0
depth 8: 0
depth 9: 0
depth 10: 0
depth 11: 0
depth 12: 0
depth 13: 0
depth 14: 0
depth 15: 0
depth 16: 0
depth 17: 0
depth 18: 0
depth 19: 0
depth 20: 0
depth 21: 0
depth 22: 0
depth 23: 0
depth 24: 0
depth 25: 0
depth 26: 0
depth 27: 0
depth 28: 0
depth 29: 0
Total: 10115184
------------------
ST read accesses: 6737073
ST write accesses: 3316
PT read accesses: 75742707
PT write accesses: 7952667
FILTER read accesses: 26207645
FILTER write accesses: 1422526
GHR read accesses: 21508846
GHR write accesses: 3053384
PERC read accesses: 494335089
PERC write accesses: 950641
GHR counter read accesses: 13480778
GHR counter write accesses: 18454970
GHR ip read accesses: 20977503
GHR ip write accesses: 26961556
ST tag read accesses: 2587900996
ST tag write accesses: 539173311

DRAM Statistics
 CHANNEL 0
 RQ ROW_BUFFER_HIT:     142573  ROW_BUFFER_MISS:     127922
 DBUS_CONGESTED:        152
 WQ ROW_BUFFER_HIT:      17280  ROW_BUFFER_MISS:      40040  FULL:          0

 AVG_CONGESTED_CYCLE: 5
 All warmup complete: 2
Channel 0 Bank busy for read cycles: 0
Channel 0 Bank busy for write cycles: 0
Channel 0
Rank 0
0banks busy for read cycles: 90918880
0banks busy for write cycles: 26240
1banks busy for read cycles: 13250542
1banks busy for write cycles: 4948645
2banks busy for read cycles: 2569959
2banks busy for write cycles: 1186742
3banks busy for read cycles: 1334425
3banks busy for write cycles: 969432
4banks busy for read cycles: 285457
4banks busy for write cycles: 260713
5banks busy for read cycles: 277717
5banks busy for write cycles: 170517
6banks busy for read cycles: 164813
6banks busy for write cycles: 129734
7banks busy for read cycles: 56155
7banks busy for write cycles: 57157
8banks busy for read cycles: 1502
8banks busy for write cycles: 3100

CPU 0 Branch Prediction Accuracy: 99.9874% MPKI: 0.00112 Average ROB Occupancy at Mispredict: 38.1161
Branch types
NOT_BRANCH: 99108924 99.1089%
BRANCH_DIRECT_JUMP: 109049 0.109049%
BRANCH_INDIRECT: 18175 0.018175%
BRANCH_CONDITIONAL: 545463 0.545463%
BRANCH_DIRECT_CALL: 109048 0.109048%
BRANCH_INDIRECT_CALL: 0 0%
BRANCH_RETURN: 109048 0.109048%
BRANCH_OTHER: 0 0%

DRAM PAGES: 1048576
Allocated PAGES: 6506
