
*** ChampSim Multicore Out-of-Order Simulator ***

Warmup Instructions: 50000000
Simulation Instructions: 100000000
Number of CPUs: 1
LLC sets: 2048
LLC ways: 16
Off-chip DRAM Size: 4096 MB Channels: 1 Width: 64-bit Data Rate: 6400 MT/s
CPU 0 runs ../SPEC2017//607.cactuBSSN_s-4004B.champsimtrace.xz
.xz
NUM_OF_IPS_IN_CRITICAL_IP_TRAINING: 64
NUM_OF_CRITICAL_IP_TRAINING_TABLE_WAYS: 2
NUM_OF_CRITICAL_IP_TRAINING_TABLE_SETS: 32
WOBBLY_CRITICAL_IP_CACHE_SETS: 32
WOBBLY_CRITICAL_IP_CACHE_WAYS: 4
BTB has LRU replacement policy
ITLB has LRU replacement policy
DTLB has LRU replacement policy
STLB has LRU replacement policy
L1I has LRU replacement policy
L1D has LRU replacement policy
Bingo PHT WAYS: 16 and PHT_SIZE: 16384
Initialize SRRIP state for L2C
Initialize DRRIP state for LLC
Heartbeat CPU 0 instructions: 10000001 cycles: 3597415 heartbeat IPC: 2.77977 cumulative IPC: 2.77977 (Simulation time: 0 hr 6 min 32 sec) 
Heartbeat CPU 0 instructions: 20000001 cycles: 7194429 heartbeat IPC: 2.78008 cumulative IPC: 2.77993 (Simulation time: 0 hr 12 min 24 sec) 
Heartbeat CPU 0 instructions: 30000003 cycles: 10791084 heartbeat IPC: 2.78036 cumulative IPC: 2.78007 (Simulation time: 0 hr 17 min 26 sec) 
Heartbeat CPU 0 instructions: 40000000 cycles: 14388453 heartbeat IPC: 2.77981 cumulative IPC: 2.78001 (Simulation time: 0 hr 22 min 6 sec) 
Heartbeat CPU 0 instructions: 50000002 cycles: 17984320 heartbeat IPC: 2.78097 cumulative IPC: 2.7802 (Simulation time: 0 hr 26 min 39 sec) 

Warmup complete CPU 0 instructions: 50000002 cycles: 17984320 (Simulation time: 0 hr 26 min 39 sec) 

% increase in all ip prefetch 204.324
% increase in all ip prefetch 0.758089
Heartbeat CPU 0 instructions: 60000002 cycles: 29365751 heartbeat IPC: 0.878624 cumulative IPC: 0.878624 (Simulation time: 0 hr 31 min 1 sec) 
Heartbeat CPU 0 instructions: 70000003 cycles: 40743469 heartbeat IPC: 0.878911 cumulative IPC: 0.878768 (Simulation time: 0 hr 35 min 6 sec) 
Heartbeat CPU 0 instructions: 80000002 cycles: 52291823 heartbeat IPC: 0.865924 cumulative IPC: 0.874444 (Simulation time: 0 hr 38 min 55 sec) 
Heartbeat CPU 0 instructions: 90000003 cycles: 63640651 heartbeat IPC: 0.881148 cumulative IPC: 0.876111 (Simulation time: 0 hr 42 min 10 sec) 
Heartbeat CPU 0 instructions: 100000000 cycles: 75009080 heartbeat IPC: 0.879629 cumulative IPC: 0.876812 (Simulation time: 0 hr 45 min 8 sec) 
Heartbeat CPU 0 instructions: 110000000 cycles: 86417870 heartbeat IPC: 0.876517 cumulative IPC: 0.876763 (Simulation time: 0 hr 47 min 52 sec) 
Heartbeat CPU 0 instructions: 120000001 cycles: 97774737 heartbeat IPC: 0.880525 cumulative IPC: 0.877298 (Simulation time: 0 hr 50 min 21 sec) 
Heartbeat CPU 0 instructions: 130000000 cycles: 109151194 heartbeat IPC: 0.879008 cumulative IPC: 0.877512 (Simulation time: 0 hr 52 min 20 sec) 
Heartbeat CPU 0 instructions: 140000002 cycles: 120545696 heartbeat IPC: 0.877616 cumulative IPC: 0.877523 (Simulation time: 0 hr 53 min 52 sec) 
Heartbeat CPU 0 instructions: 150000002 cycles: 131957835 heartbeat IPC: 0.87626 cumulative IPC: 0.877397 (Simulation time: 0 hr 54 min 59 sec) 
Finished CPU 0 instructions: 100000000 cycles: 113973515 cumulative IPC: 0.877397 (Simulation time: 0 hr 54 min 59 sec) 

ChampSim completed all CPUs

Region of Interest Statistics

CPU 0 cumulative IPC: 0.877397 instructions: 100000000 cycles: 113973515

CPU 0 Average Load ROB stall cycles: 9.73608e+06
CPU 0 Fraction of times ROB stalled by Loads: 12.9868
CPU 0 Percentage of Load stall cycles in Total stall cycles: 1.74949e+08
 Total stall cycles: 71776894
 Total load stall cycles: 125572792589322
CPU 0 NUM of IPS identified critical: 0

Threshold modification factor: -1
Max PIST entries: 64
Min PIST entries: 0
Avg PIST entries: 42.6667
Average ROB occupancy Load Stall Begin: 66.0795
Average ROB occupancy Load Stall End: 71.0217
Min ROB occupancy Load Stall Begin: 1
Max ROB occupancy Load Stall Begin: 351
Min ROB occupancy Load Stall End: 1
Max ROB occupancy Load Stall End: 352
Average ROB occupancy Critical Load Stall Begin: -nan
Average ROB occupancy Critical Load Stall End: -nan
Min ROB occupancy Critical Load Stall Begin: 400
Max ROB occupancy Critical Load Stall Begin: 0
Min ROB occupancy Critical Load Stall End: 400
Max ROB occupancy Critical Load Stall End: 0
 ROB Load Stall Begin Bucket Count 0: 1184683
 ROB Load Stall End Bucket Count 0: 1140906
 ROB Critical Load Stall Begin Bucket Count 0: 0
 ROB Critical Load Stall End Bucket Count 0: 0
 ROB Load Stall Begin Bucket Count 1: 218941
 ROB Load Stall End Bucket Count 1: 248412
 ROB Critical Load Stall Begin Bucket Count 1: 0
 ROB Critical Load Stall End Bucket Count 1: 0
 ROB Load Stall Begin Bucket Count 2: 72517
 ROB Load Stall End Bucket Count 2: 76900
 ROB Critical Load Stall Begin Bucket Count 2: 0
 ROB Critical Load Stall End Bucket Count 2: 0
 ROB Load Stall Begin Bucket Count 3: 37580
 ROB Load Stall End Bucket Count 3: 41919
 ROB Critical Load Stall Begin Bucket Count 3: 0
 ROB Critical Load Stall End Bucket Count 3: 0
 ROB Load Stall Begin Bucket Count 4: 23166
 ROB Load Stall End Bucket Count 4: 24849
 ROB Critical Load Stall Begin Bucket Count 4: 0
 ROB Critical Load Stall End Bucket Count 4: 0
 ROB Load Stall Begin Bucket Count 5: 45681
 ROB Load Stall End Bucket Count 5: 39384
 ROB Critical Load Stall Begin Bucket Count 5: 0
 ROB Critical Load Stall End Bucket Count 5: 0
 ROB Load Stall Begin Bucket Count 6: 92424
 ROB Load Stall End Bucket Count 6: 102622
 ROB Critical Load Stall Begin Bucket Count 6: 0
 ROB Critical Load Stall End Bucket Count 6: 0
PIST Tag Read Accesses: 834686
PIST Read Accesses: 417343
PIST Tag Write Accesses: 834686
PIST Write Accesses: 417343
Criticality detector called times: 842244
Max global_stall_cycles_count: 789919
Threshold Modified: 1 times, factor: -1
Sturdy critical IP cache stats: 
 Unused entries: 0
CIC Tag Read Accesses: 0
CIC Read Accesses: 0
CIC Tag Write Accesses: 0
CIC Write Accesses: 0
Wobbly critical IP cache stats: 
 Unused entries: 128
CIC Tag Read Accesses: 213022180
CIC Read Accesses: 0
CIC Tag Write Accesses: 0
CIC Write Accesses: 0
ITLB TOTAL     ACCESS:   13964655  HIT:   13964655  MISS:          0  HIT %:        100  MISS %:          0   MPKI: 0
ITLB LOAD TRANSLATION ACCESS:   13964655  HIT:   13964655  MISS:          0  HIT %:        100  MISS %:          0   MPKI: 0
ITLB PREFETCHES SAME FILL-ORIGIN LEVEL: 0 DIFFERENT FILL-ORIGIN LEVEL: 0
ITLB AVERAGE MISS LATENCY: -nan cycles
ITLB RQ	ACCESS:   16967218	FORWARD:          0	MERGED:    3002563	TO_CACHE:   13964655

DTLB TOTAL     ACCESS:   28382842  HIT:   24516812  MISS:    3866030  HIT %:     86.379  MISS %:     13.621   MPKI: 38.6603
DTLB LOAD TRANSLATION ACCESS:   28382842  HIT:   24516812  MISS:    3866030  HIT %:     86.379  MISS %:     13.621   MPKI: 38.6603
DTLB PREFETCHES SAME FILL-ORIGIN LEVEL: 0 DIFFERENT FILL-ORIGIN LEVEL: 0
DTLB AVERAGE MISS LATENCY: 9.96259 cycles
DTLB RQ	ACCESS:   39665341	FORWARD:          0	MERGED:   10855278	TO_CACHE:   28810063

STLB TOTAL     ACCESS:    3866030  HIT:    3861772  MISS:       4258  HIT %:    99.8899  MISS %:   0.110139   MPKI: 0.04258
STLB LOAD TRANSLATION ACCESS:    3866030  HIT:    3861772  MISS:       4258  HIT %:    99.8899  MISS %:   0.110139   MPKI: 0.04258
STLB PREFETCHES SAME FILL-ORIGIN LEVEL: 0 DIFFERENT FILL-ORIGIN LEVEL: 0
STLB AVERAGE MISS LATENCY: 586.437 cycles
STLB RQ	ACCESS:    3866030	FORWARD:          0	MERGED:          0	TO_CACHE:    3866030

STLB Hit, L1D data hit: 0
STLB Hit, L2C data hit: 0
STLB Hit, LLC data hit: 0
STLB Hit, LLC data miss: 0
STLB STLB hints to L2: 0
L1D TOTAL     ACCESS:   39459194  HIT:   32110722  MISS:    7348472  HIT %:     81.377  MISS %:     18.623   MPKI: 73.4847
L1D LOAD      ACCESS:   31444011  HIT:   24702044  MISS:    6741967  HIT %:    78.5588  MISS %:    21.4412   MPKI: 67.4197
L1D RFO       ACCESS:    8015183  HIT:    7408678  MISS:     606505  HIT %:     92.433  MISS %:    7.56695   MPKI: 6.06505
L1D PREFETCHES SAME FILL-ORIGIN LEVEL: 0 DIFFERENT FILL-ORIGIN LEVEL: 0
L1D AVERAGE MISS LATENCY: 27.2411 cycles
L1D RQ	ACCESS:   38931853	FORWARD:          0	MERGED:    7296350	TO_CACHE:   31614006
L1D WQ	ACCESS:    8105861	FORWARD:      21497	MERGED:      54526	TO_CACHE:    8051335

L1D UNIQUE REGIONS ACCESSED: 0
L1D REGIONS CONFLICTS: 0
L1D Cross Page Prefetch Requests: 0
L1D Same Page Prefetch Requests: 0
L1D ROI Sum of L1D PQ occupancy: 0
L1D PREFETCHES PUSHED FROM L2C: 0
L1I TOTAL     ACCESS:   15639237  HIT:   13039232  MISS:    2600005  HIT %:    83.3751  MISS %:    16.6249   MPKI: 26.0001
L1I LOAD      ACCESS:   15639237  HIT:   13039232  MISS:    2600005  HIT %:    83.3751  MISS %:    16.6249   MPKI: 26.0001
L1I PREFETCHES SAME FILL-ORIGIN LEVEL: 0 DIFFERENT FILL-ORIGIN LEVEL: 0
L1I AVERAGE MISS LATENCY: 14.0744 cycles
L1I RQ	ACCESS:   23796496	FORWARD:          0	MERGED:    6829278	TO_CACHE:   16967218

BTB TOTAL     ACCESS:     563528  HIT:     527153  MISS:      36375  HIT %:    93.5451  MISS %:    6.45487   MPKI: 0.36375
BTB BRANCH_DIRECT_JUMP	ACCESS:     109049  HIT:     109044  MISS:          5
BTB BRANCH_INDIRECT	ACCESS:      18175  HIT:      18174  MISS:          1
BTB BRANCH_CONDITIONAL	ACCESS:     218208  HIT:     218196  MISS:         12
BTB BRANCH_DIRECT_CALL	ACCESS:     109048  HIT:     109043  MISS:          5
BTB BRANCH_INDIRECT_CALL	ACCESS:          0  HIT:          0  MISS:          0
BTB BRANCH_RETURN	ACCESS:     109048  HIT:      72696  MISS:      36352
BTB BRANCH_OTHER ACCESS:          0  HIT:          0  MISS:          0

L2C TOTAL     ACCESS:   11995280  HIT:   11467685  MISS:     527595  HIT %:    95.6016  MISS %:    4.39836   MPKI: 5.27595
L2C LOAD      ACCESS:    9341084  HIT:    9070319  MISS:     270765  HIT %:    97.1014  MISS %:    2.89865   MPKI: 2.70765
L2C DATA LOAD MPKI: 2.69928
L2C INSTRUCTION LOAD MPKI: 0.00837
L2C RFO       ACCESS:     606331  HIT:     547479  MISS:      58852  HIT %:    90.2938  MISS %:    9.70625   MPKI: 0.58852
L2C PREFETCH  ACCESS:    1392829  HIT:    1202431  MISS:     190398  HIT %:    86.3301  MISS %:    13.6699   MPKI: 1.90398
L2C DATA PREFETCH MPKI: 1.90398
L2C INSTRUCTION PREFETCH MPKI: 0
L2C WRITEBACK ACCESS:     648637  HIT:     647287  MISS:       1350  HIT %:    99.7919  MISS %:   0.208129   MPKI: 0.0135
L2C LOAD TRANSLATION ACCESS:       6399  HIT:        169  MISS:       6230  HIT %:    2.64104  MISS %:     97.359   MPKI: 0.0623
L2C PREFETCH  REQUESTED:    1396108  ISSUED:    1396108  USEFUL:     173133  USELESS:      17318
L2C USEFUL LOAD PREFETCHES:     173133 PREFETCH ISSUED TO LOWER LEVEL:     191841  ACCURACY: 90.2482
L2C TIMELY PREFETCHES:     173133 LATE PREFETCHES: 1443 DROPPED PREFETCHES: 0
L2C PREFETCHES SAME FILL-ORIGIN LEVEL: 191841 DIFFERENT FILL-ORIGIN LEVEL: 0
L2C AVERAGE MISS LATENCY: 191.828 cycles
L2C RQ	ACCESS:    9954876	FORWARD:          0	MERGED:          0	TO_CACHE:    9953815
L2C WQ	ACCESS:     648637	FORWARD:       1079	MERGED:          0	TO_CACHE:     648637
L2C PQ	ACCESS:    1396108	FORWARD:          0	MERGED:          8	TO_CACHE:    1396082

L2C Instructions Evicting Data758
L2C Translations Evicting Data6185
L2C Data Evicting Data512246
L2C Instructions Evicting Instructions71
L2C Translations Evicting Instructions2
L2C Data Evicting Instructions758
L2C Instructions Evicting Translations8
L2C Translations Evicting Translations43
L2C Data Evicting Translations6174
L2C Dense regions hint from L2: 0
PSCL5 TOTAL     ACCESS:       4258  HIT:       4258  MISS:          0  HIT %:        100  MISS %:          0   MPKI: 0
PSCL5 LOAD TRANSLATION ACCESS:       4258  HIT:       4258  MISS:          0  HIT %:        100  MISS %:          0   MPKI: 0
PSCL5 PREFETCHES SAME FILL-ORIGIN LEVEL: 0 DIFFERENT FILL-ORIGIN LEVEL: 0

PSCL4 TOTAL     ACCESS:       4258  HIT:       4258  MISS:          0  HIT %:        100  MISS %:          0   MPKI: 0
PSCL4 LOAD TRANSLATION ACCESS:       4258  HIT:       4258  MISS:          0  HIT %:        100  MISS %:          0   MPKI: 0
PSCL4 PREFETCHES SAME FILL-ORIGIN LEVEL: 0 DIFFERENT FILL-ORIGIN LEVEL: 0

PSCL3 TOTAL     ACCESS:       4258  HIT:       4258  MISS:          0  HIT %:        100  MISS %:          0   MPKI: 0
PSCL3 LOAD TRANSLATION ACCESS:       4258  HIT:       4258  MISS:          0  HIT %:        100  MISS %:          0   MPKI: 0
PSCL3 PREFETCHES SAME FILL-ORIGIN LEVEL: 0 DIFFERENT FILL-ORIGIN LEVEL: 0

PSCL2 TOTAL     ACCESS:       4258  HIT:       2112  MISS:       2146  HIT %:    49.6008  MISS %:    50.3992   MPKI: 0.02146
PSCL2 LOAD TRANSLATION ACCESS:       4258  HIT:       2112  MISS:       2146  HIT %:    49.6008  MISS %:    50.3992   MPKI: 0.02146
PSCL2 PREFETCHES SAME FILL-ORIGIN LEVEL: 0 DIFFERENT FILL-ORIGIN LEVEL: 0

LLC TOTAL     ACCESS:     584989  HIT:     312385  MISS:     272604  HIT %:    53.4001  MISS %:    46.5999   MPKI: 2.72604
LLC LOAD      ACCESS:     269322  HIT:     111001  MISS:     158321  HIT %:     41.215  MISS %:     58.785   MPKI: 1.58321
LLC RFO       ACCESS:      58852  HIT:          2  MISS:      58850  HIT %: 0.00339836  MISS %:    99.9966   MPKI: 0.5885
LLC PREFETCH  ACCESS:     191841  HIT:     137966  MISS:      53875  HIT %:    71.9168  MISS %:    28.0832   MPKI: 0.53875
LLC WRITEBACK ACCESS:      58744  HIT:      57785  MISS:        959  HIT %:    98.3675  MISS %:    1.63251   MPKI: 0.00959
LLC LOAD TRANSLATION ACCESS:       6230  HIT:       5631  MISS:        599  HIT %:    90.3852  MISS %:    9.61477   MPKI: 0.00599
LLC PREFETCHES SAME FILL-ORIGIN LEVEL: 0 DIFFERENT FILL-ORIGIN LEVEL: 0
LLC AVERAGE MISS LATENCY: 312.242 cycles
LLC RQ	ACCESS:     334404	FORWARD:          0	MERGED:          0	TO_CACHE:     334404
LLC WQ	ACCESS:      58744	FORWARD:          0	MERGED:          0	TO_CACHE:      58744
LLC PQ	ACCESS:     191841	FORWARD:          0	MERGED:          0	TO_CACHE:     191841

LLC Dense regions hint to LLC: 0

RAW hits: 254166
Loads Generated: 39186020
Loads sent to L1D: 38931853
Stores Generated: 8106277
Stores sent to L1D: 8106279
Major fault: 0 Minor fault: 6506
Allocated PAGES: 6506
[Bingo] PHT Access: 2473797
[Bingo] PHT Hit PC+Addr: 128676
[Bingo] PHT Hit PC+Offs: 296238
[Bingo] PHT Miss: 2048883
[Bingo] Prefetch PC+Addr: 0
[Bingo] Prefetch PC+Offs: 0
[Bingo] Useful PC+Addr: 0
[Bingo] Useful PC+Offs: 0
[Bingo] Useless PC+Addr: 0
[Bingo] Useless PC+Offs: 0
[Bingo] L1 Prefetch per Region: 0
[Bingo] L2 Prefetch per Region: 4.42046
[Bingo] L3 Prefetch per Region: 0
[Bingo] No Prefetch per Region: 27.5795
[Bingo] Number of Voters Mean: 3.49036
[Bingo] Number of Voters SD: 3.63047
PHT read accesses: 38080883
PHT write accesses: 247808
AT read accesses: 4383676
AT write accesses: 4505688
FT read accesses: 836007
FT write accesses: 2473797
PS read accesses: 866380
PS write accesses: 424914
PHT tag read accesses: 45252442
PHT tag write accesses: 376484
AT tag read accesses: 127208942
AT tag write accesses: 4631488
FT tag read accesses: 132852548
FT tag write accesses: 3052585
PS tag read accesses: 121786383
PS tag write accesses: 1283575

DRAM Statistics
 CHANNEL 0
 RQ ROW_BUFFER_HIT:     146026  ROW_BUFFER_MISS:     125619
 DBUS_CONGESTED:        168
 WQ ROW_BUFFER_HIT:      17313  ROW_BUFFER_MISS:      41456  FULL:          0

 AVG_CONGESTED_CYCLE: 4
 All warmup complete: 2
Channel 0 Bank busy for read cycles: 0
Channel 0 Bank busy for write cycles: 0
Channel 0
Rank 0
0banks busy for read cycles: 91441335
0banks busy for write cycles: 25218
1banks busy for read cycles: 11049012
1banks busy for write cycles: 3926735
2banks busy for read cycles: 2277275
2banks busy for write cycles: 1260715
3banks busy for read cycles: 1287087
3banks busy for write cycles: 721677
4banks busy for read cycles: 516770
4banks busy for write cycles: 314099
5banks busy for read cycles: 361712
5banks busy for write cycles: 191458
6banks busy for read cycles: 186085
6banks busy for write cycles: 110724
7banks busy for read cycles: 109142
7banks busy for write cycles: 53158
8banks busy for read cycles: 115797
8banks busy for write cycles: 25517

CPU 0 Branch Prediction Accuracy: 99.9874% MPKI: 0.00112 Average ROB Occupancy at Mispredict: 38.1161
Branch types
NOT_BRANCH: 99108870 99.1089%
BRANCH_DIRECT_JUMP: 109049 0.109049%
BRANCH_INDIRECT: 18175 0.018175%
BRANCH_CONDITIONAL: 545463 0.545463%
BRANCH_DIRECT_CALL: 109048 0.109048%
BRANCH_INDIRECT_CALL: 0 0%
BRANCH_RETURN: 109048 0.109048%
BRANCH_OTHER: 0 0%

DRAM PAGES: 1048576
Allocated PAGES: 6506
