
*** ChampSim Multicore Out-of-Order Simulator ***

Warmup Instructions: 50000000
Simulation Instructions: 100000000
Number of CPUs: 1
LLC sets: 2048
LLC ways: 16
Off-chip DRAM Size: 4096 MB Channels: 1 Width: 64-bit Data Rate: 6400 MT/s
CPU 0 runs ../SPEC2017//607.cactuBSSN_s-2421B.champsimtrace.xz
.xz
NUM_OF_IPS_IN_CRITICAL_IP_TRAINING: 64
NUM_OF_CRITICAL_IP_TRAINING_TABLE_WAYS: 2
NUM_OF_CRITICAL_IP_TRAINING_TABLE_SETS: 32
WOBBLY_CRITICAL_IP_CACHE_SETS: 32
WOBBLY_CRITICAL_IP_CACHE_WAYS: 4
BTB has LRU replacement policy
ITLB has LRU replacement policy
DTLB has LRU replacement policy
STLB has LRU replacement policy
L1I has LRU replacement policy
IP Table Entries: 256
L1D has LRU replacement policy
Initialize SRRIP state for L2C
Initialize DRRIP state for LLC
Heartbeat CPU 0 instructions: 10000002 cycles: 3586605 heartbeat IPC: 2.78815 cumulative IPC: 2.78815 (Simulation time: 0 hr 7 min 9 sec) 
Heartbeat CPU 0 instructions: 20000001 cycles: 7169735 heartbeat IPC: 2.79086 cumulative IPC: 2.7895 (Simulation time: 0 hr 13 min 51 sec) 
Heartbeat CPU 0 instructions: 30000002 cycles: 10756370 heartbeat IPC: 2.78813 cumulative IPC: 2.78905 (Simulation time: 0 hr 19 min 36 sec) 
Heartbeat CPU 0 instructions: 40000003 cycles: 14342595 heartbeat IPC: 2.78845 cumulative IPC: 2.7889 (Simulation time: 0 hr 25 min 7 sec) 
Heartbeat CPU 0 instructions: 50000003 cycles: 17927731 heartbeat IPC: 2.78929 cumulative IPC: 2.78898 (Simulation time: 0 hr 30 min 4 sec) 

Warmup complete CPU 0 instructions: 50000003 cycles: 17927731 (Simulation time: 0 hr 30 min 4 sec) 

% increase in all ip prefetch 317.896
% increase in all ip prefetch 14.5788
% increase in all ip prefetch 18.06
% increase in all ip prefetch 18.8946
% increase in all ip prefetch 18.0539
Heartbeat CPU 0 instructions: 60000003 cycles: 29830249 heartbeat IPC: 0.840158 cumulative IPC: 0.840158 (Simulation time: 0 hr 33 min 28 sec) 
Heartbeat CPU 0 instructions: 70000000 cycles: 41859429 heartbeat IPC: 0.831312 cumulative IPC: 0.835712 (Simulation time: 0 hr 36 min 35 sec) 
Heartbeat CPU 0 instructions: 80000001 cycles: 53842023 heartbeat IPC: 0.834544 cumulative IPC: 0.835322 (Simulation time: 0 hr 39 min 43 sec) 
Heartbeat CPU 0 instructions: 90000000 cycles: 65821707 heartbeat IPC: 0.834746 cumulative IPC: 0.835178 (Simulation time: 0 hr 42 min 42 sec) 
Heartbeat CPU 0 instructions: 100000000 cycles: 77845268 heartbeat IPC: 0.8317 cumulative IPC: 0.83448 (Simulation time: 0 hr 45 min 37 sec) 
Heartbeat CPU 0 instructions: 110000000 cycles: 89859771 heartbeat IPC: 0.832327 cumulative IPC: 0.834121 (Simulation time: 0 hr 48 min 25 sec) 
Heartbeat CPU 0 instructions: 120000000 cycles: 101784462 heartbeat IPC: 0.838596 cumulative IPC: 0.834757 (Simulation time: 0 hr 51 min 6 sec) 
Heartbeat CPU 0 instructions: 130000002 cycles: 113734320 heartbeat IPC: 0.83683 cumulative IPC: 0.835016 (Simulation time: 0 hr 55 min 2 sec) 
Heartbeat CPU 0 instructions: 140000003 cycles: 125709071 heartbeat IPC: 0.835091 cumulative IPC: 0.835024 (Simulation time: 1 hr 0 min 49 sec) 
Heartbeat CPU 0 instructions: 150000001 cycles: 137726705 heartbeat IPC: 0.83211 cumulative IPC: 0.834732 (Simulation time: 1 hr 6 min 6 sec) 
Finished CPU 0 instructions: 100000002 cycles: 119798981 cumulative IPC: 0.834732 (Simulation time: 1 hr 6 min 6 sec) 

ChampSim completed all CPUs

Region of Interest Statistics

CPU 0 cumulative IPC: 0.834732 instructions: 100000002 cycles: 119798981

CPU 0 Average Load ROB stall cycles: 2.19765e+07
CPU 0 Fraction of times ROB stalled by Loads: 28.2972
CPU 0 Percentage of Load stall cycles in Total stall cycles: 3.95866e+08
Issued all: 74707992
Issued LT all: 61127267
rob_not_full_when_issued_lt_all: 38641080
Issued LT one: 53640668
rob_not_full_when_issued_lt_one: 32611533
 Total stall cycles: 97959793
 Total load stall cycles: 387789932526757
CPU 0 NUM of IPS identified critical: 0
CPU 0 Num of Load IPs stalling ROB: 3900
Threshold modification factor: 0
Max PIST entries: 64
Min PIST entries: 0
Avg PIST entries: 42.6667
Trouble in retire width: 0.966499
MaC = Marked as critical.
lt_50_percent_before_Mac: 0
gt_90_percent_before_Mac: 0
gt_75_percent_before_Mac: 0
gt_50_percent_before_Mac: 0
stall_proportion_bin_same_before_after: 0
stall_proportion_bin_lower_before_after: 0
stall_proportion_bin_upper_before_after: 0
average_stall_proportion_before: -nan
average_stall_proportion_after: -nan
Critical IP stalls, total frequency: 0
Non-critical IP stalls, total frequency: 4993238
Total Freq all stalling IPs: 4993238
stat_90_percent_critical_ip_stalls_freq: 4495191
stat_90_percent_non_critical_ip_stalls_freq: 498047
Critical_IP_ROB_Stalls_Bucket_0: 0
Non-critical_IP_ROB_Stalls_Bucket_0: 3761826
Critical_IP_ROB_Stalls_Bucket_1: 0
Non-critical_IP_ROB_Stalls_Bucket_1: 746847
Critical_IP_ROB_Stalls_Bucket_2: 0
Non-critical_IP_ROB_Stalls_Bucket_2: 103974
Critical_IP_ROB_Stalls_Bucket_3: 0
Non-critical_IP_ROB_Stalls_Bucket_3: 34769
Critical_IP_ROB_Stalls_Bucket_4: 0
Non-critical_IP_ROB_Stalls_Bucket_4: 25270
Critical_IP_ROB_Stalls_Bucket_5: 0
Non-critical_IP_ROB_Stalls_Bucket_5: 34302
Critical_IP_ROB_Stalls_Bucket_6: 0
Non-critical_IP_ROB_Stalls_Bucket_6: 286250
0 => IPs accounting for >50 percent of stalls, 1 => 55, 2 => 60, 3 => 65 and so on till 90.
percent50: 50.0369 num IPs:  122
percent55: 55.1904 num IPs: 137
percent60: 60.234 num IPs: 153
percent65: 65.0746 num IPs: 170
percent70: 70.2233 num IPs: 190
percent75: 75.0859 num IPs: 211
percent80: 80.1444 num IPs: 239
percent85: 85.0963 num IPs: 272
percent90: 90.0255 num IPs: 330
Critical_ROB_Stalls_Percent_0_Bucket_0: 2018316
Non-critical_ROB_Stalls_Percent_0_Bucket_0: 1743510
Critical_ROB_Stalls_Percent_0_Bucket_1: 367769
Non-critical_ROB_Stalls_Percent_0_Bucket_1: 379078
Critical_ROB_Stalls_Percent_0_Bucket_2: 24476
Non-critical_ROB_Stalls_Percent_0_Bucket_2: 79498
Critical_ROB_Stalls_Percent_0_Bucket_3: 6407
Non-critical_ROB_Stalls_Percent_0_Bucket_3: 28362
Critical_ROB_Stalls_Percent_0_Bucket_4: 5035
Non-critical_ROB_Stalls_Percent_0_Bucket_4: 20235
Critical_ROB_Stalls_Percent_0_Bucket_5: 6358
Non-critical_ROB_Stalls_Percent_0_Bucket_5: 27944
Critical_ROB_Stalls_Percent_0_Bucket_6: 70100
Non-critical_ROB_Stalls_Percent_0_Bucket_6: 216150
Critical_ROB_Stalls_Percent_1_Bucket_0: 2241987
Non-critical_ROB_Stalls_Percent_1_Bucket_0: 1519839
Critical_ROB_Stalls_Percent_1_Bucket_1: 378885
Non-critical_ROB_Stalls_Percent_1_Bucket_1: 367962
Critical_ROB_Stalls_Percent_1_Bucket_2: 38246
Non-critical_ROB_Stalls_Percent_1_Bucket_2: 65728
Critical_ROB_Stalls_Percent_1_Bucket_3: 7258
Non-critical_ROB_Stalls_Percent_1_Bucket_3: 27511
Critical_ROB_Stalls_Percent_1_Bucket_4: 5314
Non-critical_ROB_Stalls_Percent_1_Bucket_4: 19956
Critical_ROB_Stalls_Percent_1_Bucket_5: 7680
Non-critical_ROB_Stalls_Percent_1_Bucket_5: 26622
Critical_ROB_Stalls_Percent_1_Bucket_6: 76420
Non-critical_ROB_Stalls_Percent_1_Bucket_6: 209830
Critical_ROB_Stalls_Percent_2_Bucket_0: 2463098
Non-critical_ROB_Stalls_Percent_2_Bucket_0: 1298728
Critical_ROB_Stalls_Percent_2_Bucket_1: 399308
Non-critical_ROB_Stalls_Percent_2_Bucket_1: 347539
Critical_ROB_Stalls_Percent_2_Bucket_2: 39593
Non-critical_ROB_Stalls_Percent_2_Bucket_2: 64381
Critical_ROB_Stalls_Percent_2_Bucket_3: 7873
Non-critical_ROB_Stalls_Percent_2_Bucket_3: 26896
Critical_ROB_Stalls_Percent_2_Bucket_4: 5919
Non-critical_ROB_Stalls_Percent_2_Bucket_4: 19351
Critical_ROB_Stalls_Percent_2_Bucket_5: 8589
Non-critical_ROB_Stalls_Percent_2_Bucket_5: 25713
Critical_ROB_Stalls_Percent_2_Bucket_6: 83245
Non-critical_ROB_Stalls_Percent_2_Bucket_6: 203005
Critical_ROB_Stalls_Percent_3_Bucket_0: 2650366
Non-critical_ROB_Stalls_Percent_3_Bucket_0: 1111460
Critical_ROB_Stalls_Percent_3_Bucket_1: 419266
Non-critical_ROB_Stalls_Percent_3_Bucket_1: 327581
Critical_ROB_Stalls_Percent_3_Bucket_2: 55792
Non-critical_ROB_Stalls_Percent_3_Bucket_2: 48182
Critical_ROB_Stalls_Percent_3_Bucket_3: 10058
Non-critical_ROB_Stalls_Percent_3_Bucket_3: 24711
Critical_ROB_Stalls_Percent_3_Bucket_4: 7535
Non-critical_ROB_Stalls_Percent_3_Bucket_4: 17735
Critical_ROB_Stalls_Percent_3_Bucket_5: 9870
Non-critical_ROB_Stalls_Percent_3_Bucket_5: 24432
Critical_ROB_Stalls_Percent_3_Bucket_6: 96442
Non-critical_ROB_Stalls_Percent_3_Bucket_6: 189808
Critical_ROB_Stalls_Percent_4_Bucket_0: 2881320
Non-critical_ROB_Stalls_Percent_4_Bucket_0: 880506
Critical_ROB_Stalls_Percent_4_Bucket_1: 430508
Non-critical_ROB_Stalls_Percent_4_Bucket_1: 316339
Critical_ROB_Stalls_Percent_4_Bucket_2: 56540
Non-critical_ROB_Stalls_Percent_4_Bucket_2: 47434
Critical_ROB_Stalls_Percent_4_Bucket_3: 10809
Non-critical_ROB_Stalls_Percent_4_Bucket_3: 23960
Critical_ROB_Stalls_Percent_4_Bucket_4: 8260
Non-critical_ROB_Stalls_Percent_4_Bucket_4: 17010
Critical_ROB_Stalls_Percent_4_Bucket_5: 11231
Non-critical_ROB_Stalls_Percent_4_Bucket_5: 23071
Critical_ROB_Stalls_Percent_4_Bucket_6: 107752
Non-critical_ROB_Stalls_Percent_4_Bucket_6: 178498
Critical_ROB_Stalls_Percent_5_Bucket_0: 3111985
Non-critical_ROB_Stalls_Percent_5_Bucket_0: 649841
Critical_ROB_Stalls_Percent_5_Bucket_1: 437437
Non-critical_ROB_Stalls_Percent_5_Bucket_1: 309410
Critical_ROB_Stalls_Percent_5_Bucket_2: 56924
Non-critical_ROB_Stalls_Percent_5_Bucket_2: 47050
Critical_ROB_Stalls_Percent_5_Bucket_3: 10999
Non-critical_ROB_Stalls_Percent_5_Bucket_3: 23770
Critical_ROB_Stalls_Percent_5_Bucket_4: 8650
Non-critical_ROB_Stalls_Percent_5_Bucket_4: 16620
Critical_ROB_Stalls_Percent_5_Bucket_5: 12030
Non-critical_ROB_Stalls_Percent_5_Bucket_5: 22272
Critical_ROB_Stalls_Percent_5_Bucket_6: 111194
Non-critical_ROB_Stalls_Percent_5_Bucket_6: 175056
Critical_ROB_Stalls_Percent_6_Bucket_0: 3306303
Non-critical_ROB_Stalls_Percent_6_Bucket_0: 455523
Critical_ROB_Stalls_Percent_6_Bucket_1: 461891
Non-critical_ROB_Stalls_Percent_6_Bucket_1: 284956
Critical_ROB_Stalls_Percent_6_Bucket_2: 60967
Non-critical_ROB_Stalls_Percent_6_Bucket_2: 43007
Critical_ROB_Stalls_Percent_6_Bucket_3: 15096
Non-critical_ROB_Stalls_Percent_6_Bucket_3: 19673
Critical_ROB_Stalls_Percent_6_Bucket_4: 14187
Non-critical_ROB_Stalls_Percent_6_Bucket_4: 11083
Critical_ROB_Stalls_Percent_6_Bucket_5: 14839
Non-critical_ROB_Stalls_Percent_6_Bucket_5: 19463
Critical_ROB_Stalls_Percent_6_Bucket_6: 128518
Non-critical_ROB_Stalls_Percent_6_Bucket_6: 157732
Critical_ROB_Stalls_Percent_7_Bucket_0: 3473683
Non-critical_ROB_Stalls_Percent_7_Bucket_0: 288143
Critical_ROB_Stalls_Percent_7_Bucket_1: 508596
Non-critical_ROB_Stalls_Percent_7_Bucket_1: 238251
Critical_ROB_Stalls_Percent_7_Bucket_2: 71737
Non-critical_ROB_Stalls_Percent_7_Bucket_2: 32237
Critical_ROB_Stalls_Percent_7_Bucket_3: 18151
Non-critical_ROB_Stalls_Percent_7_Bucket_3: 16618
Critical_ROB_Stalls_Percent_7_Bucket_4: 17253
Non-critical_ROB_Stalls_Percent_7_Bucket_4: 8017
Critical_ROB_Stalls_Percent_7_Bucket_5: 19692
Non-critical_ROB_Stalls_Percent_7_Bucket_5: 14610
Critical_ROB_Stalls_Percent_7_Bucket_6: 139947
Non-critical_ROB_Stalls_Percent_7_Bucket_6: 146303
Critical_ROB_Stalls_Percent_8_Bucket_0: 3623691
Non-critical_ROB_Stalls_Percent_8_Bucket_0: 138135
Critical_ROB_Stalls_Percent_8_Bucket_1: 568942
Non-critical_ROB_Stalls_Percent_8_Bucket_1: 177905
Critical_ROB_Stalls_Percent_8_Bucket_2: 77283
Non-critical_ROB_Stalls_Percent_8_Bucket_2: 26691
Critical_ROB_Stalls_Percent_8_Bucket_3: 20116
Non-critical_ROB_Stalls_Percent_8_Bucket_3: 14653
Critical_ROB_Stalls_Percent_8_Bucket_4: 18049
Non-critical_ROB_Stalls_Percent_8_Bucket_4: 7221
Critical_ROB_Stalls_Percent_8_Bucket_5: 24007
Non-critical_ROB_Stalls_Percent_8_Bucket_5: 10295
Critical_ROB_Stalls_Percent_8_Bucket_6: 163103
Non-critical_ROB_Stalls_Percent_8_Bucket_6: 123147
Average ROB occupancy Load Stall Begin: 53.8523
Average ROB occupancy Load Stall End: 62.6757
Min ROB occupancy Load Stall Begin: 1
Max ROB occupancy Load Stall Begin: 352
Min ROB occupancy Load Stall End: 1
Max ROB occupancy Load Stall End: 352
Average ROB occupancy Critical Load Stall Begin: -nan
Average ROB occupancy Critical Load Stall End: -nan
Min ROB occupancy Critical Load Stall Begin: 400
Max ROB occupancy Critical Load Stall Begin: 0
Min ROB occupancy Critical Load Stall End: 400
Max ROB occupancy Critical Load Stall End: 0
 ROB Load Stall Begin Bucket Count 0: 4233353
 ROB Load Stall End Bucket Count 0: 3761826
 ROB Critical Load Stall Begin Bucket Count 0: 0
 ROB Critical Load Stall End Bucket Count 0: 0
 ROB Load Stall Begin Bucket Count 1: 332666
 ROB Load Stall End Bucket Count 1: 746847
 ROB Critical Load Stall Begin Bucket Count 1: 0
 ROB Critical Load Stall End Bucket Count 1: 0
 ROB Load Stall Begin Bucket Count 2: 77145
 ROB Load Stall End Bucket Count 2: 103974
 ROB Critical Load Stall Begin Bucket Count 2: 0
 ROB Critical Load Stall End Bucket Count 2: 0
 ROB Load Stall Begin Bucket Count 3: 28478
 ROB Load Stall End Bucket Count 3: 34769
 ROB Critical Load Stall Begin Bucket Count 3: 0
 ROB Critical Load Stall End Bucket Count 3: 0
 ROB Load Stall Begin Bucket Count 4: 20155
 ROB Load Stall End Bucket Count 4: 25270
 ROB Critical Load Stall Begin Bucket Count 4: 0
 ROB Critical Load Stall End Bucket Count 4: 0
 ROB Load Stall Begin Bucket Count 5: 64972
 ROB Load Stall End Bucket Count 5: 34302
 ROB Critical Load Stall Begin Bucket Count 5: 0
 ROB Critical Load Stall End Bucket Count 5: 0
 ROB Load Stall Begin Bucket Count 6: 236469
 ROB Load Stall End Bucket Count 6: 286250
 ROB Critical Load Stall Begin Bucket Count 6: 0
 ROB Critical Load Stall End Bucket Count 6: 0
PIST Tag Read Accesses: 7019656
PIST Read Accesses: 3509828
PIST Tag Write Accesses: 7019656
PIST Write Accesses: 3509828
Criticality detector called times: 3643142
Max global_stall_cycles_count: 4199222
Threshold Modified: 5 times, factor: 0
Sturdy critical IP cache stats: 
 Unused entries: 0
CIC Tag Read Accesses: 0
CIC Read Accesses: 0
CIC Tag Write Accesses: 0
CIC Write Accesses: 0
Wobbly critical IP cache stats: 
 Unused entries: 0
CIC Tag Read Accesses: 190799598
CIC Read Accesses: 0
CIC Tag Write Accesses: 10139934
CIC Write Accesses: 0
ITLB TOTAL     ACCESS:   13347138  HIT:   13347088  MISS:         50  HIT %:    99.9996  MISS %: 0.000374612   MPKI: 0.0005
ITLB LOAD TRANSLATION ACCESS:   13347138  HIT:   13347088  MISS:         50  HIT %:    99.9996  MISS %: 0.000374612   MPKI: 0.0005
ITLB PREFETCH  REQUESTED:          0  ISSUED:          0  USEFUL:          0  USELESS:          0
ITLB USEFUL LOAD PREFETCHES:          0 PREFETCH ISSUED TO LOWER LEVEL:          0  ACCURACY: -nan
ITLB TIMELY PREFETCHES:          0 LATE PREFETCHES: 0 DROPPED PREFETCHES: 0
ITLB PREFETCHES SAME FILL-ORIGIN LEVEL: 0 DIFFERENT FILL-ORIGIN LEVEL: 0
ITLB AVERAGE MISS LATENCY: 377.86 cycles
ITLB RQ	ACCESS:   17498033	FORWARD:          0	MERGED:    4150887	TO_CACHE:   13347146

DTLB TOTAL     ACCESS:   20979850  HIT:   13515204  MISS:    7464646  HIT %:    64.4199  MISS %:    35.5801   MPKI: 74.6465
DTLB LOAD TRANSLATION ACCESS:   20979850  HIT:   13515204  MISS:    7464646  HIT %:    64.4199  MISS %:    35.5801   MPKI: 74.6465
DTLB PREFETCH  REQUESTED:          0  ISSUED:          0  USEFUL:          0  USELESS:          0
DTLB USEFUL LOAD PREFETCHES:          0 PREFETCH ISSUED TO LOWER LEVEL:          0  ACCURACY: -nan
DTLB TIMELY PREFETCHES:          0 LATE PREFETCHES: 0 DROPPED PREFETCHES: 0
DTLB PREFETCHES SAME FILL-ORIGIN LEVEL: 0 DIFFERENT FILL-ORIGIN LEVEL: 0
DTLB AVERAGE MISS LATENCY: 10.0565 cycles
DTLB RQ	ACCESS:   29210798	FORWARD:          0	MERGED:    7711154	TO_CACHE:   21499644

STLB TOTAL     ACCESS:    7550185  HIT:    7537811  MISS:      12374  HIT %:    99.8361  MISS %:    0.16389   MPKI: 0.12374
STLB LOAD TRANSLATION ACCESS:    7464696  HIT:    7452322  MISS:      12374  HIT %:    99.8342  MISS %:   0.165767   MPKI: 0.12374
STLB TRANSLATION FROM L1D PREFETCHER ACCESS:      85489  HIT:      85489  MISS:          0  HIT %:        100  MISS %:          0   MPKI: 0
STLB PREFETCH  REQUESTED:          0  ISSUED:          0  USEFUL:          0  USELESS:          0
STLB USEFUL LOAD PREFETCHES:          0 PREFETCH ISSUED TO LOWER LEVEL:          0  ACCURACY: -nan
STLB TIMELY PREFETCHES:          0 LATE PREFETCHES: 0 DROPPED PREFETCHES: 0
STLB PREFETCHES SAME FILL-ORIGIN LEVEL: 0 DIFFERENT FILL-ORIGIN LEVEL: 0
STLB AVERAGE MISS LATENCY: 410.038 cycles
STLB RQ	ACCESS:    7551050	FORWARD:          0	MERGED:        865	TO_CACHE:    7550185

STLB Hit, L1D data hit: 0
STLB Hit, L2C data hit: 0
STLB Hit, LLC data hit: 0
STLB Hit, LLC data miss: 0
STLB STLB hints to L2: 0
L1D TOTAL     ACCESS:   28965784  HIT:   17313869  MISS:   11651915  HIT %:    59.7735  MISS %:    40.2265   MPKI: 116.519
L1D LOAD      ACCESS:   17582942  HIT:    6819231  MISS:   10763711  HIT %:    38.7832  MISS %:    61.2168   MPKI: 107.637
L1D RFO       ACCESS:   11296516  HIT:   10494419  MISS:     802097  HIT %:    92.8996  MISS %:    7.10039   MPKI: 8.02097
L1D PREFETCH  ACCESS:      86326  HIT:        219  MISS:      86107  HIT %:    0.25369  MISS %:    99.7463   MPKI: 0.86107
L1D PREFETCH  REQUESTED:     172708  ISSUED:     172708  USEFUL:      13282  USELESS:      72809
L1D USEFUL LOAD PREFETCHES:      13282 PREFETCH ISSUED TO LOWER LEVEL:      86829  ACCURACY: 15.2967
L1D TIMELY PREFETCHES:      13282 LATE PREFETCHES: 1 DROPPED PREFETCHES: 0
L1D PREFETCHES SAME FILL-ORIGIN LEVEL: 86829 DIFFERENT FILL-ORIGIN LEVEL: 0
L1D AVERAGE MISS LATENCY: 38.1367 cycles
L1D RQ	ACCESS:   28702417	FORWARD:          0	MERGED:   10842158	TO_CACHE:   17852050
L1D WQ	ACCESS:   11359802	FORWARD:       8209	MERGED:       1054	TO_CACHE:   11358748
L1D PQ	ACCESS:      86354	FORWARD:          0	MERGED:          0	TO_CACHE:      86354

L1D UNIQUE REGIONS ACCESSED: 0
L1D REGIONS CONFLICTS: 0
L1D Cross Page Prefetch Requests: 0
L1D Same Page Prefetch Requests: 91430
L1D ROI Sum of L1D PQ occupancy: 1777971
L1D PREFETCHES PUSHED FROM L2C: 0
L1I TOTAL     ACCESS:   17472862  HIT:   17423205  MISS:      49657  HIT %:    99.7158  MISS %:   0.284195   MPKI: 0.49657
L1I LOAD      ACCESS:   17472862  HIT:   17423205  MISS:      49657  HIT %:    99.7158  MISS %:   0.284195   MPKI: 0.49657
L1I PREFETCH  REQUESTED:          0  ISSUED:          0  USEFUL:          0  USELESS:          0
L1I USEFUL LOAD PREFETCHES:          0 PREFETCH ISSUED TO LOWER LEVEL:          0  ACCURACY: -nan
L1I TIMELY PREFETCHES:          0 LATE PREFETCHES: 0 DROPPED PREFETCHES: 0
L1I PREFETCHES SAME FILL-ORIGIN LEVEL: 0 DIFFERENT FILL-ORIGIN LEVEL: 0
L1I AVERAGE MISS LATENCY: 17.1516 cycles
L1I RQ	ACCESS:   25843833	FORWARD:          0	MERGED:    8345800	TO_CACHE:   17498033

BTB TOTAL     ACCESS:     118409  HIT:     115197  MISS:       3212  HIT %:    97.2874  MISS %:    2.71263   MPKI: 0.03212
BTB BRANCH_DIRECT_JUMP	ACCESS:      31767  HIT:      31732  MISS:         35
BTB BRANCH_INDIRECT	ACCESS:      29385  HIT:      29307  MISS:         78
BTB BRANCH_CONDITIONAL	ACCESS:      45223  HIT:      44824  MISS:        399
BTB BRANCH_DIRECT_CALL	ACCESS:       6013  HIT:       5388  MISS:        625
BTB BRANCH_INDIRECT_CALL	ACCESS:          3  HIT:          0  MISS:          3
BTB BRANCH_RETURN	ACCESS:       6018  HIT:       3946  MISS:       2072
BTB BRANCH_OTHER ACCESS:          0  HIT:          0  MISS:          0

L2C TOTAL     ACCESS:   14513567  HIT:   13475154  MISS:    1038413  HIT %:    92.8452  MISS %:    7.15477   MPKI: 10.3841
L2C LOAD      ACCESS:   10605621  HIT:    9850994  MISS:     754627  HIT %:    92.8847  MISS %:    7.11535   MPKI: 7.54627
L2C DATA LOAD MPKI: 7.53781
L2C INSTRUCTION LOAD MPKI: 0.00846
L2C RFO       ACCESS:     800764  HIT:     793019  MISS:       7745  HIT %:    99.0328  MISS %:   0.967201   MPKI: 0.07745
L2C PREFETCH  ACCESS:    2193144  HIT:    1934303  MISS:     258841  HIT %:    88.1977  MISS %:    11.8023   MPKI: 2.58841
L2C DATA PREFETCH MPKI: 2.58841
L2C INSTRUCTION PREFETCH MPKI: 0
L2C WRITEBACK ACCESS:     894436  HIT:     894349  MISS:         87  HIT %:    99.9903  MISS %:  0.0097268   MPKI: 0.00087
L2C LOAD TRANSLATION ACCESS:      19602  HIT:       2489  MISS:      17113  HIT %:    12.6977  MISS %:    87.3023   MPKI: 0.17113
L2C PREFETCH  REQUESTED:    2124642  ISSUED:    2123209  USEFUL:     234187  USELESS:      24746
L2C USEFUL LOAD PREFETCHES:     234187 PREFETCH ISSUED TO LOWER LEVEL:     258891  ACCURACY: 90.4578
L2C TIMELY PREFETCHES:     234187 LATE PREFETCHES: 50 DROPPED PREFETCHES: 0
L2C PREFETCHES SAME FILL-ORIGIN LEVEL: 202607 DIFFERENT FILL-ORIGIN LEVEL: 0
L2C AVERAGE MISS LATENCY: 213.71 cycles
L2C RQ	ACCESS:   11635066	FORWARD:          0	MERGED:          0	TO_CACHE:   11425987
L2C WQ	ACCESS:     894436	FORWARD:     209080	MERGED:          0	TO_CACHE:     894436
L2C PQ	ACCESS:    2209317	FORWARD:          0	MERGED:      13548	TO_CACHE:    2195768

L2C Instructions Evicting Data 788
L2C Translations Evicting Data 16777
L2C Data Evicting Data 1002644
L2C Instructions Evicting Instructions 35
L2C Translations Evicting Instructions 35
L2C Data Evicting Instructions 919
L2C Instructions Evicting Translations 23
L2C Translations Evicting Translations 301
L2C Data Evicting Translations 16804
L2C Dense regions hint from L2: 0
PSCL5 TOTAL     ACCESS:      12374  HIT:      12374  MISS:          0  HIT %:        100  MISS %:          0   MPKI: 0
PSCL5 LOAD TRANSLATION ACCESS:      12374  HIT:      12374  MISS:          0  HIT %:        100  MISS %:          0   MPKI: 0
PSCL5 PREFETCH  REQUESTED:          0  ISSUED:          0  USEFUL:          0  USELESS:          0
PSCL5 USEFUL LOAD PREFETCHES:          0 PREFETCH ISSUED TO LOWER LEVEL:          0  ACCURACY: -nan
PSCL5 TIMELY PREFETCHES:          0 LATE PREFETCHES: 0 DROPPED PREFETCHES: 0
PSCL5 PREFETCHES SAME FILL-ORIGIN LEVEL: 0 DIFFERENT FILL-ORIGIN LEVEL: 0

PSCL4 TOTAL     ACCESS:      12374  HIT:      12374  MISS:          0  HIT %:        100  MISS %:          0   MPKI: 0
PSCL4 LOAD TRANSLATION ACCESS:      12374  HIT:      12374  MISS:          0  HIT %:        100  MISS %:          0   MPKI: 0
PSCL4 PREFETCH  REQUESTED:          0  ISSUED:          0  USEFUL:          0  USELESS:          0
PSCL4 USEFUL LOAD PREFETCHES:          0 PREFETCH ISSUED TO LOWER LEVEL:          0  ACCURACY: -nan
PSCL4 TIMELY PREFETCHES:          0 LATE PREFETCHES: 0 DROPPED PREFETCHES: 0
PSCL4 PREFETCHES SAME FILL-ORIGIN LEVEL: 0 DIFFERENT FILL-ORIGIN LEVEL: 0

PSCL3 TOTAL     ACCESS:      12374  HIT:      12370  MISS:          4  HIT %:    99.9677  MISS %:  0.0323258   MPKI: 4e-05
PSCL3 LOAD TRANSLATION ACCESS:      12374  HIT:      12370  MISS:          4  HIT %:    99.9677  MISS %:  0.0323258   MPKI: 4e-05
PSCL3 PREFETCH  REQUESTED:          0  ISSUED:          0  USEFUL:          0  USELESS:          0
PSCL3 USEFUL LOAD PREFETCHES:          0 PREFETCH ISSUED TO LOWER LEVEL:          0  ACCURACY: -nan
PSCL3 TIMELY PREFETCHES:          0 LATE PREFETCHES: 0 DROPPED PREFETCHES: 0
PSCL3 PREFETCHES SAME FILL-ORIGIN LEVEL: 0 DIFFERENT FILL-ORIGIN LEVEL: 0

PSCL2 TOTAL     ACCESS:      12374  HIT:       5083  MISS:       7291  HIT %:    41.0781  MISS %:    58.9219   MPKI: 0.07291
PSCL2 LOAD TRANSLATION ACCESS:      12374  HIT:       5083  MISS:       7291  HIT %:    41.0781  MISS %:    58.9219   MPKI: 0.07291
PSCL2 PREFETCH  REQUESTED:          0  ISSUED:          0  USEFUL:          0  USELESS:          0
PSCL2 USEFUL LOAD PREFETCHES:          0 PREFETCH ISSUED TO LOWER LEVEL:          0  ACCURACY: -nan
PSCL2 TIMELY PREFETCHES:          0 LATE PREFETCHES: 0 DROPPED PREFETCHES: 0
PSCL2 PREFETCHES SAME FILL-ORIGIN LEVEL: 0 DIFFERENT FILL-ORIGIN LEVEL: 0

LLC TOTAL     ACCESS:    1133633  HIT:     361789  MISS:     771844  HIT %:    31.9141  MISS %:    68.0859   MPKI: 7.71844
LLC LOAD      ACCESS:     754577  HIT:     212858  MISS:     541719  HIT %:    28.2089  MISS %:    71.7911   MPKI: 5.41719
LLC RFO       ACCESS:       7740  HIT:       6629  MISS:       1111  HIT %:     85.646  MISS %:     14.354   MPKI: 0.01111
LLC PREFETCH  ACCESS:     258891  HIT:      33231  MISS:     225660  HIT %:    12.8359  MISS %:    87.1641   MPKI: 2.2566
LLC WRITEBACK ACCESS:      95312  HIT:      93938  MISS:       1374  HIT %:    98.5584  MISS %:    1.44158   MPKI: 0.01374
LLC LOAD TRANSLATION ACCESS:      17113  HIT:      15133  MISS:       1980  HIT %:    88.4298  MISS %:    11.5702   MPKI: 0.0198
LLC PREFETCH  REQUESTED:          0  ISSUED:          0  USEFUL:      36936  USELESS:     199166
LLC USEFUL LOAD PREFETCHES:      36936 PREFETCH ISSUED TO LOWER LEVEL:     225660  ACCURACY: 16.368
LLC TIMELY PREFETCHES:      36936 LATE PREFETCHES: 0 DROPPED PREFETCHES: 0
LLC PREFETCHES SAME FILL-ORIGIN LEVEL: 0 DIFFERENT FILL-ORIGIN LEVEL: 0
LLC AVERAGE MISS LATENCY: 245.583 cycles
LLC RQ	ACCESS:     779435	FORWARD:          0	MERGED:          0	TO_CACHE:     779430
LLC WQ	ACCESS:      95312	FORWARD:          5	MERGED:          0	TO_CACHE:      95312
LLC PQ	ACCESS:     258891	FORWARD:          0	MERGED:          0	TO_CACHE:     258891

LLC Dense regions hint to LLC: 0

RAW hits: 43777
Loads Generated: 28746197
Loads sent to L1D: 28702417
Stores Generated: 11359949
Stores sent to L1D: 11359949
Major fault: 0 Minor fault: 14219
Allocated PAGES: 14219

stream: 
stream:times selected: 316243
stream:pref_filled: 75096
stream:pref_useful: 11702
stream:pref_late: 10
stream:misses: 599
stream:misses_by_poll: 0

CS: 
CS:times selected: 195336
CS:pref_filled: 500
CS:pref_useful: 30
CS:pref_late: 0
CS:misses: 2923
CS:misses_by_poll: 0

CPLX: 
CPLX:times selected: 314079
CPLX:pref_filled: 949
CPLX:pref_useful: 223
CPLX:pref_late: 0
CPLX:misses: 1610546
CPLX:misses_by_poll: 0

NL_L1: 
NL:times selected: 6
NL:pref_filled: 5
NL:pref_useful: 1
NL:pref_late: 0
NL:misses: 22
NL:misses_by_poll: 0

total selections: 825664
total_filled: 86107
total_useful: 13282
total_late: 10
total_polluted: 0
total_misses_after_warmup: 11032817
conflicts: 6245014
Degree Incremented Times: 0
Degree Decremented Times: 404447

L1 IP Table Write Accesses: 9603799
L1 IP Table Read Accesses: 3358785
L1 RST Write Accesses: 305161
L1 RST Read Accesses: 610322
L1 CSPT Write Accesses: 305161
L1 CSPT Read Accesses: 610278
L1 RR Filter Tag Write Accesses: 86354
L1 RR Filter Tag Read Accesses: 7313302
L1 IP Table Tag Write Accesses: 17852048
L1 IP Table Tag Read Accesses: 17852048
L1 RST Tag Write Accesses: 0
L1 RST Tag Read Accesses: 2738655
L1 RR Filter Write Accesses: 0
L1 RR Filter Read Accesses: 229958
test: 10667
L2 IP Table Read Accesses: 13896978
L2 IP Table Write Accesses: 17212035
L2 IP Table Tag Read Accesses: 10627996
L2 IP Table Tag Write Accesses: 10627996

DRAM Statistics
 CHANNEL 0
 RQ ROW_BUFFER_HIT:     330572  ROW_BUFFER_MISS:     439898
 DBUS_CONGESTED:        549
 WQ ROW_BUFFER_HIT:      45582  ROW_BUFFER_MISS:      50270  FULL:          0

 AVG_CONGESTED_CYCLE: 4
 All warmup complete: 2
Channel 0 Bank busy for read cycles: 0
Channel 0 Bank busy for write cycles: 0
Channel 0
Rank 0
0banks busy for read cycles: 77235579
0banks busy for write cycles: 19046
1banks busy for read cycles: 11495639
1banks busy for write cycles: 3614461
2banks busy for read cycles: 6641584
2banks busy for write cycles: 1861927
3banks busy for read cycles: 7559108
3banks busy for write cycles: 1286954
4banks busy for read cycles: 3890127
4banks busy for write cycles: 1087118
5banks busy for read cycles: 2445480
5banks busy for write cycles: 841008
6banks busy for read cycles: 1082433
6banks busy for write cycles: 445148
7banks busy for read cycles: 99945
7banks busy for write cycles: 153364
8banks busy for read cycles: 10058
8banks busy for write cycles: 30003

CPU 0 Branch Prediction Accuracy: 99.2948% MPKI: 0.01128 Average ROB Occupancy at Mispredict: 27
Branch types
NOT_BRANCH: 99839730 99.8397%
BRANCH_DIRECT_JUMP: 31767 0.031767%
BRANCH_INDIRECT: 29385 0.029385%
BRANCH_CONDITIONAL: 86766 0.086766%
BRANCH_DIRECT_CALL: 6013 0.006013%
BRANCH_INDIRECT_CALL: 3 3e-06%
BRANCH_RETURN: 6018 0.006018%
BRANCH_OTHER: 0 0%

DRAM PAGES: 1048576
Allocated PAGES: 14219
