Initialize SIGNATURE TABLE
ST_SET: 1
ST_WAY: 256
ST_TAG_BIT: 16
ST_TAG_MASK: ffff

Initialize PATTERN TABLE
PT_SET: 512
PT_WAY: 4
SIG_DELTA_BIT: 7
C_SIG_BIT: 4
C_DELTA_BIT: 4

Initialize PREFETCH FILTER
FILTER_SET: 1024

*** ChampSim Multicore Out-of-Order Simulator ***

Warmup Instructions: 50000000
Simulation Instructions: 100000000
Number of CPUs: 1
LLC sets: 2048
LLC ways: 16
Off-chip DRAM Size: 4096 MB Channels: 1 Width: 64-bit Data Rate: 6400 MT/s
CPU 0 runs ../SPEC2017//607.cactuBSSN_s-4004B.champsimtrace.xz
.xz
NUM_OF_IPS_IN_CRITICAL_IP_TRAINING: 64
NUM_OF_CRITICAL_IP_TRAINING_TABLE_WAYS: 2
NUM_OF_CRITICAL_IP_TRAINING_TABLE_SETS: 32
WOBBLY_CRITICAL_IP_CACHE_SETS: 32
WOBBLY_CRITICAL_IP_CACHE_WAYS: 4
BTB has LRU replacement policy
ITLB has LRU replacement policy
DTLB has LRU replacement policy
STLB has LRU replacement policy
L1I has LRU replacement policy
L1D has LRU replacement policy
Initialize SRRIP state for L2C
Initialize DRRIP state for LLC
Heartbeat CPU 0 instructions: 10000001 cycles: 3597627 heartbeat IPC: 2.77961 cumulative IPC: 2.77961 (Simulation time: 0 hr 5 min 44 sec) 
Heartbeat CPU 0 instructions: 20000001 cycles: 7194866 heartbeat IPC: 2.77991 cumulative IPC: 2.77976 (Simulation time: 0 hr 11 min 2 sec) 
Heartbeat CPU 0 instructions: 30000003 cycles: 10791751 heartbeat IPC: 2.78018 cumulative IPC: 2.7799 (Simulation time: 0 hr 15 min 55 sec) 
Heartbeat CPU 0 instructions: 40000002 cycles: 14389333 heartbeat IPC: 2.77964 cumulative IPC: 2.77984 (Simulation time: 0 hr 20 min 28 sec) 
Heartbeat CPU 0 instructions: 50000002 cycles: 17985321 heartbeat IPC: 2.78088 cumulative IPC: 2.78005 (Simulation time: 0 hr 24 min 28 sec) 

Warmup complete CPU 0 instructions: 50000002 cycles: 17985321 (Simulation time: 0 hr 24 min 28 sec) 

% increase in all ip prefetch 200.476
% increase in all ip prefetch 2.75482
Heartbeat CPU 0 instructions: 60000002 cycles: 29432914 heartbeat IPC: 0.873546 cumulative IPC: 0.873546 (Simulation time: 0 hr 28 min 34 sec) 
Heartbeat CPU 0 instructions: 70000003 cycles: 41095703 heartbeat IPC: 0.857428 cumulative IPC: 0.865412 (Simulation time: 0 hr 32 min 32 sec) 
Heartbeat CPU 0 instructions: 80000002 cycles: 52987796 heartbeat IPC: 0.840895 cumulative IPC: 0.857082 (Simulation time: 0 hr 36 min 19 sec) 
Heartbeat CPU 0 instructions: 90000003 cycles: 64636519 heartbeat IPC: 0.858463 cumulative IPC: 0.857427 (Simulation time: 0 hr 40 min 1 sec) 
Heartbeat CPU 0 instructions: 100000000 cycles: 76311001 heartbeat IPC: 0.856569 cumulative IPC: 0.857255 (Simulation time: 0 hr 43 min 17 sec) 
Heartbeat CPU 0 instructions: 110000000 cycles: 88002808 heartbeat IPC: 0.8553 cumulative IPC: 0.856929 (Simulation time: 0 hr 46 min 20 sec) 
Heartbeat CPU 0 instructions: 120000001 cycles: 99679105 heartbeat IPC: 0.856436 cumulative IPC: 0.856858 (Simulation time: 0 hr 49 min 7 sec) 
Heartbeat CPU 0 instructions: 130000000 cycles: 111346294 heartbeat IPC: 0.857104 cumulative IPC: 0.856889 (Simulation time: 0 hr 55 min 32 sec) 
Heartbeat CPU 0 instructions: 140000002 cycles: 123068046 heartbeat IPC: 0.853115 cumulative IPC: 0.856468 (Simulation time: 1 hr 2 min 22 sec) 
Heartbeat CPU 0 instructions: 150000002 cycles: 134783063 heartbeat IPC: 0.853605 cumulative IPC: 0.856181 (Simulation time: 1 hr 9 min 16 sec) 
Finished CPU 0 instructions: 100000000 cycles: 116797742 cumulative IPC: 0.856181 (Simulation time: 1 hr 9 min 16 sec) 

ChampSim completed all CPUs

Region of Interest Statistics

CPU 0 cumulative IPC: 0.856181 instructions: 100000000 cycles: 116797742

CPU 0 Average Load ROB stall cycles: 2.5595e+07
CPU 0 Fraction of times ROB stalled by Loads: 33.5691
CPU 0 Percentage of Load stall cycles in Total stall cycles: 4.18157e+08
Issued all: 61527846
Issued LT all: 48370015
rob_not_full_when_issued_lt_all: 33026691
Issued LT one: 41911718
rob_not_full_when_issued_lt_one: 27742379
 Total stall cycles: 93833284
 Total load stall cycles: 392370058058991
CPU 0 NUM of IPS identified critical: 0
CPU 0 Num of Load IPs stalling ROB: 2064
Threshold modification factor: -1
Max PIST entries: 64
Min PIST entries: 0
Avg PIST entries: 42.6667
Trouble in retire width: 0.930649
MaC = Marked as critical.
lt_50_percent_before_Mac: 0
gt_90_percent_before_Mac: 0
gt_75_percent_before_Mac: 0
gt_50_percent_before_Mac: 0
stall_proportion_bin_same_before_after: 0
stall_proportion_bin_lower_before_after: 0
stall_proportion_bin_upper_before_after: 0
average_stall_proportion_before: -nan
average_stall_proportion_after: -nan
Critical IP stalls, total frequency: 0
Non-critical IP stalls, total frequency: 5146119
Total Freq all stalling IPs: 5146119
stat_90_percent_critical_ip_stalls_freq: 4631651
stat_90_percent_non_critical_ip_stalls_freq: 514468
Critical_IP_ROB_Stalls_Bucket_0: 0
Non-critical_IP_ROB_Stalls_Bucket_0: 2690490
Critical_IP_ROB_Stalls_Bucket_1: 0
Non-critical_IP_ROB_Stalls_Bucket_1: 1151769
Critical_IP_ROB_Stalls_Bucket_2: 0
Non-critical_IP_ROB_Stalls_Bucket_2: 334618
Critical_IP_ROB_Stalls_Bucket_3: 0
Non-critical_IP_ROB_Stalls_Bucket_3: 205437
Critical_IP_ROB_Stalls_Bucket_4: 0
Non-critical_IP_ROB_Stalls_Bucket_4: 110470
Critical_IP_ROB_Stalls_Bucket_5: 0
Non-critical_IP_ROB_Stalls_Bucket_5: 171055
Critical_IP_ROB_Stalls_Bucket_6: 0
Non-critical_IP_ROB_Stalls_Bucket_6: 482280
0 => IPs accounting for >50 percent of stalls, 1 => 55, 2 => 60, 3 => 65 and so on till 90.
percent50: 50.2912 num IPs:  144
percent55: 55.262 num IPs: 161
percent60: 60.0125 num IPs: 178
percent65: 65.0065 num IPs: 197
percent70: 70.094 num IPs: 218
percent75: 75.041 num IPs: 243
percent80: 80.0143 num IPs: 280
percent85: 85.002 num IPs: 341
percent90: 90.0028 num IPs: 443
Critical_ROB_Stalls_Percent_0_Bucket_0: 1592046
Non-critical_ROB_Stalls_Percent_0_Bucket_0: 1098444
Critical_ROB_Stalls_Percent_0_Bucket_1: 698717
Non-critical_ROB_Stalls_Percent_0_Bucket_1: 453052
Critical_ROB_Stalls_Percent_0_Bucket_2: 100597
Non-critical_ROB_Stalls_Percent_0_Bucket_2: 234021
Critical_ROB_Stalls_Percent_0_Bucket_3: 55494
Non-critical_ROB_Stalls_Percent_0_Bucket_3: 149943
Critical_ROB_Stalls_Percent_0_Bucket_4: 23523
Non-critical_ROB_Stalls_Percent_0_Bucket_4: 86947
Critical_ROB_Stalls_Percent_0_Bucket_5: 19876
Non-critical_ROB_Stalls_Percent_0_Bucket_5: 151179
Critical_ROB_Stalls_Percent_0_Bucket_6: 97794
Non-critical_ROB_Stalls_Percent_0_Bucket_6: 384486
Critical_ROB_Stalls_Percent_1_Bucket_0: 1710992
Non-critical_ROB_Stalls_Percent_1_Bucket_0: 979498
Critical_ROB_Stalls_Percent_1_Bucket_1: 718595
Non-critical_ROB_Stalls_Percent_1_Bucket_1: 433174
Critical_ROB_Stalls_Percent_1_Bucket_2: 127283
Non-critical_ROB_Stalls_Percent_1_Bucket_2: 207335
Critical_ROB_Stalls_Percent_1_Bucket_3: 78359
Non-critical_ROB_Stalls_Percent_1_Bucket_3: 127078
Critical_ROB_Stalls_Percent_1_Bucket_4: 33532
Non-critical_ROB_Stalls_Percent_1_Bucket_4: 76938
Critical_ROB_Stalls_Percent_1_Bucket_5: 32148
Non-critical_ROB_Stalls_Percent_1_Bucket_5: 138907
Critical_ROB_Stalls_Percent_1_Bucket_6: 142941
Non-critical_ROB_Stalls_Percent_1_Bucket_6: 339339
Critical_ROB_Stalls_Percent_2_Bucket_0: 1893283
Non-critical_ROB_Stalls_Percent_2_Bucket_0: 797207
Critical_ROB_Stalls_Percent_2_Bucket_1: 728075
Non-critical_ROB_Stalls_Percent_2_Bucket_1: 423694
Critical_ROB_Stalls_Percent_2_Bucket_2: 141489
Non-critical_ROB_Stalls_Percent_2_Bucket_2: 193129
Critical_ROB_Stalls_Percent_2_Bucket_3: 92690
Non-critical_ROB_Stalls_Percent_2_Bucket_3: 112747
Critical_ROB_Stalls_Percent_2_Bucket_4: 39696
Non-critical_ROB_Stalls_Percent_2_Bucket_4: 70774
Critical_ROB_Stalls_Percent_2_Bucket_5: 36515
Non-critical_ROB_Stalls_Percent_2_Bucket_5: 134540
Critical_ROB_Stalls_Percent_2_Bucket_6: 156568
Non-critical_ROB_Stalls_Percent_2_Bucket_6: 325712
Critical_ROB_Stalls_Percent_3_Bucket_0: 2078948
Non-critical_ROB_Stalls_Percent_3_Bucket_0: 611542
Critical_ROB_Stalls_Percent_3_Bucket_1: 764205
Non-critical_ROB_Stalls_Percent_3_Bucket_1: 387564
Critical_ROB_Stalls_Percent_3_Bucket_2: 159784
Non-critical_ROB_Stalls_Percent_3_Bucket_2: 174834
Critical_ROB_Stalls_Percent_3_Bucket_3: 96821
Non-critical_ROB_Stalls_Percent_3_Bucket_3: 108616
Critical_ROB_Stalls_Percent_3_Bucket_4: 40937
Non-critical_ROB_Stalls_Percent_3_Bucket_4: 69533
Critical_ROB_Stalls_Percent_3_Bucket_5: 39197
Non-critical_ROB_Stalls_Percent_3_Bucket_5: 131858
Critical_ROB_Stalls_Percent_3_Bucket_6: 165418
Non-critical_ROB_Stalls_Percent_3_Bucket_6: 316862
Critical_ROB_Stalls_Percent_4_Bucket_0: 2276549
Non-critical_ROB_Stalls_Percent_4_Bucket_0: 413941
Critical_ROB_Stalls_Percent_4_Bucket_1: 778480
Non-critical_ROB_Stalls_Percent_4_Bucket_1: 373289
Critical_ROB_Stalls_Percent_4_Bucket_2: 174297
Non-critical_ROB_Stalls_Percent_4_Bucket_2: 160321
Critical_ROB_Stalls_Percent_4_Bucket_3: 107081
Non-critical_ROB_Stalls_Percent_4_Bucket_3: 98356
Critical_ROB_Stalls_Percent_4_Bucket_4: 43529
Non-critical_ROB_Stalls_Percent_4_Bucket_4: 66941
Critical_ROB_Stalls_Percent_4_Bucket_5: 46878
Non-critical_ROB_Stalls_Percent_4_Bucket_5: 124177
Critical_ROB_Stalls_Percent_4_Bucket_6: 180309
Non-critical_ROB_Stalls_Percent_4_Bucket_6: 301971
Critical_ROB_Stalls_Percent_5_Bucket_0: 2357583
Non-critical_ROB_Stalls_Percent_5_Bucket_0: 332907
Critical_ROB_Stalls_Percent_5_Bucket_1: 855618
Non-critical_ROB_Stalls_Percent_5_Bucket_1: 296151
Critical_ROB_Stalls_Percent_5_Bucket_2: 207311
Non-critical_ROB_Stalls_Percent_5_Bucket_2: 127307
Critical_ROB_Stalls_Percent_5_Bucket_3: 123237
Non-critical_ROB_Stalls_Percent_5_Bucket_3: 82200
Critical_ROB_Stalls_Percent_5_Bucket_4: 53225
Non-critical_ROB_Stalls_Percent_5_Bucket_4: 57245
Critical_ROB_Stalls_Percent_5_Bucket_5: 65062
Non-critical_ROB_Stalls_Percent_5_Bucket_5: 105993
Critical_ROB_Stalls_Percent_5_Bucket_6: 199663
Non-critical_ROB_Stalls_Percent_5_Bucket_6: 282617
Critical_ROB_Stalls_Percent_6_Bucket_0: 2449985
Non-critical_ROB_Stalls_Percent_6_Bucket_0: 240505
Critical_ROB_Stalls_Percent_6_Bucket_1: 924393
Non-critical_ROB_Stalls_Percent_6_Bucket_1: 227376
Critical_ROB_Stalls_Percent_6_Bucket_2: 232188
Non-critical_ROB_Stalls_Percent_6_Bucket_2: 102430
Critical_ROB_Stalls_Percent_6_Bucket_3: 136623
Non-critical_ROB_Stalls_Percent_6_Bucket_3: 68814
Critical_ROB_Stalls_Percent_6_Bucket_4: 62416
Non-critical_ROB_Stalls_Percent_6_Bucket_4: 48054
Critical_ROB_Stalls_Percent_6_Bucket_5: 94037
Non-critical_ROB_Stalls_Percent_6_Bucket_5: 77018
Critical_ROB_Stalls_Percent_6_Bucket_6: 217988
Non-critical_ROB_Stalls_Percent_6_Bucket_6: 264292
Critical_ROB_Stalls_Percent_7_Bucket_0: 2513564
Non-critical_ROB_Stalls_Percent_7_Bucket_0: 176926
Critical_ROB_Stalls_Percent_7_Bucket_1: 984306
Non-critical_ROB_Stalls_Percent_7_Bucket_1: 167463
Critical_ROB_Stalls_Percent_7_Bucket_2: 257091
Non-critical_ROB_Stalls_Percent_7_Bucket_2: 77527
Critical_ROB_Stalls_Percent_7_Bucket_3: 158440
Non-critical_ROB_Stalls_Percent_7_Bucket_3: 46997
Critical_ROB_Stalls_Percent_7_Bucket_4: 75629
Non-critical_ROB_Stalls_Percent_7_Bucket_4: 34841
Critical_ROB_Stalls_Percent_7_Bucket_5: 114513
Non-critical_ROB_Stalls_Percent_7_Bucket_5: 56542
Critical_ROB_Stalls_Percent_7_Bucket_6: 270763
Non-critical_ROB_Stalls_Percent_7_Bucket_6: 211517
Critical_ROB_Stalls_Percent_8_Bucket_0: 2561244
Non-critical_ROB_Stalls_Percent_8_Bucket_0: 129246
Critical_ROB_Stalls_Percent_8_Bucket_1: 1023498
Non-critical_ROB_Stalls_Percent_8_Bucket_1: 128271
Critical_ROB_Stalls_Percent_8_Bucket_2: 278703
Non-critical_ROB_Stalls_Percent_8_Bucket_2: 55915
Critical_ROB_Stalls_Percent_8_Bucket_3: 173123
Non-critical_ROB_Stalls_Percent_8_Bucket_3: 32314
Critical_ROB_Stalls_Percent_8_Bucket_4: 91016
Non-critical_ROB_Stalls_Percent_8_Bucket_4: 19454
Critical_ROB_Stalls_Percent_8_Bucket_5: 131256
Non-critical_ROB_Stalls_Percent_8_Bucket_5: 39799
Critical_ROB_Stalls_Percent_8_Bucket_6: 372811
Non-critical_ROB_Stalls_Percent_8_Bucket_6: 109469
Average ROB occupancy Load Stall Begin: 82.0836
Average ROB occupancy Load Stall End: 92.393
Min ROB occupancy Load Stall Begin: 1
Max ROB occupancy Load Stall Begin: 352
Min ROB occupancy Load Stall End: 1
Max ROB occupancy Load Stall End: 352
Average ROB occupancy Critical Load Stall Begin: -nan
Average ROB occupancy Critical Load Stall End: -nan
Min ROB occupancy Critical Load Stall Begin: 400
Max ROB occupancy Critical Load Stall Begin: 0
Min ROB occupancy Critical Load Stall End: 400
Max ROB occupancy Critical Load Stall End: 0
 ROB Load Stall Begin Bucket Count 0: 3140873
 ROB Load Stall End Bucket Count 0: 2690490
 ROB Critical Load Stall Begin Bucket Count 0: 0
 ROB Critical Load Stall End Bucket Count 0: 0
 ROB Load Stall Begin Bucket Count 1: 823303
 ROB Load Stall End Bucket Count 1: 1151769
 ROB Critical Load Stall Begin Bucket Count 1: 0
 ROB Critical Load Stall End Bucket Count 1: 0
 ROB Load Stall Begin Bucket Count 2: 301037
 ROB Load Stall End Bucket Count 2: 334618
 ROB Critical Load Stall Begin Bucket Count 2: 0
 ROB Critical Load Stall End Bucket Count 2: 0
 ROB Load Stall Begin Bucket Count 3: 165079
 ROB Load Stall End Bucket Count 3: 205437
 ROB Critical Load Stall Begin Bucket Count 3: 0
 ROB Critical Load Stall End Bucket Count 3: 0
 ROB Load Stall Begin Bucket Count 4: 99274
 ROB Load Stall End Bucket Count 4: 110470
 ROB Critical Load Stall Begin Bucket Count 4: 0
 ROB Critical Load Stall End Bucket Count 4: 0
 ROB Load Stall Begin Bucket Count 5: 218577
 ROB Load Stall End Bucket Count 5: 171055
 ROB Critical Load Stall Begin Bucket Count 5: 0
 ROB Critical Load Stall End Bucket Count 5: 0
 ROB Load Stall Begin Bucket Count 6: 397976
 ROB Load Stall End Bucket Count 6: 482280
 ROB Critical Load Stall Begin Bucket Count 6: 0
 ROB Critical Load Stall End Bucket Count 6: 0
PIST Tag Read Accesses: 5973476
PIST Read Accesses: 2986738
PIST Tag Write Accesses: 5973476
PIST Write Accesses: 2986738
Criticality detector called times: 5146119
Max global_stall_cycles_count: 4474696
Threshold Modified: 1 times, factor: -1
Sturdy critical IP cache stats: 
 Unused entries: 0
CIC Tag Read Accesses: 0
CIC Read Accesses: 0
CIC Tag Write Accesses: 0
CIC Write Accesses: 0
Wobbly critical IP cache stats: 
 Unused entries: 128
CIC Tag Read Accesses: 229410540
CIC Read Accesses: 0
CIC Tag Write Accesses: 0
CIC Write Accesses: 0
ITLB TOTAL     ACCESS:   13995721  HIT:   13995721  MISS:          0  HIT %:        100  MISS %:          0   MPKI: 0
ITLB LOAD TRANSLATION ACCESS:   13995721  HIT:   13995721  MISS:          0  HIT %:        100  MISS %:          0   MPKI: 0
ITLB PREFETCH  REQUESTED:          0  ISSUED:          0  USEFUL:          0  USELESS:          0
ITLB USEFUL LOAD PREFETCHES:          0 PREFETCH ISSUED TO LOWER LEVEL:          0  ACCURACY: -nan
ITLB TIMELY PREFETCHES:          0 LATE PREFETCHES: 0 DROPPED PREFETCHES: 0
ITLB PREFETCHES SAME FILL-ORIGIN LEVEL: 0 DIFFERENT FILL-ORIGIN LEVEL: 0
ITLB AVERAGE MISS LATENCY: -nan cycles
ITLB RQ	ACCESS:   16992392	FORWARD:          0	MERGED:    2996671	TO_CACHE:   13995721

DTLB TOTAL     ACCESS:   28288400  HIT:   24422237  MISS:    3866163  HIT %:     86.333  MISS %:     13.667   MPKI: 38.6616
DTLB LOAD TRANSLATION ACCESS:   28288400  HIT:   24422237  MISS:    3866163  HIT %:     86.333  MISS %:     13.667   MPKI: 38.6616
DTLB PREFETCH  REQUESTED:          0  ISSUED:          0  USEFUL:          0  USELESS:          0
DTLB USEFUL LOAD PREFETCHES:          0 PREFETCH ISSUED TO LOWER LEVEL:          0  ACCURACY: -nan
DTLB TIMELY PREFETCHES:          0 LATE PREFETCHES: 0 DROPPED PREFETCHES: 0
DTLB PREFETCHES SAME FILL-ORIGIN LEVEL: 0 DIFFERENT FILL-ORIGIN LEVEL: 0
DTLB AVERAGE MISS LATENCY: 9.95961 cycles
DTLB RQ	ACCESS:   39581429	FORWARD:          0	MERGED:   10866007	TO_CACHE:   28715422

STLB TOTAL     ACCESS:    3866163  HIT:    3861905  MISS:       4258  HIT %:    99.8899  MISS %:   0.110135   MPKI: 0.04258
STLB LOAD TRANSLATION ACCESS:    3866163  HIT:    3861905  MISS:       4258  HIT %:    99.8899  MISS %:   0.110135   MPKI: 0.04258
STLB PREFETCH  REQUESTED:          0  ISSUED:          0  USEFUL:          0  USELESS:          0
STLB USEFUL LOAD PREFETCHES:          0 PREFETCH ISSUED TO LOWER LEVEL:          0  ACCURACY: -nan
STLB TIMELY PREFETCHES:          0 LATE PREFETCHES: 0 DROPPED PREFETCHES: 0
STLB PREFETCHES SAME FILL-ORIGIN LEVEL: 0 DIFFERENT FILL-ORIGIN LEVEL: 0
STLB AVERAGE MISS LATENCY: 582.826 cycles
STLB RQ	ACCESS:    3866163	FORWARD:          0	MERGED:          0	TO_CACHE:    3866163

STLB Hit, L1D data hit: 0
STLB Hit, L2C data hit: 0
STLB Hit, LLC data hit: 0
STLB Hit, LLC data miss: 0
STLB STLB hints to L2: 0
L1D TOTAL     ACCESS:   39374991  HIT:   32027465  MISS:    7347526  HIT %:    81.3396  MISS %:    18.6604   MPKI: 73.4753
L1D LOAD      ACCESS:   31363091  HIT:   24622113  MISS:    6740978  HIT %:    78.5067  MISS %:    21.4933   MPKI: 67.4098
L1D RFO       ACCESS:    8011900  HIT:    7405352  MISS:     606548  HIT %:    92.4294  MISS %:    7.57059   MPKI: 6.06548
L1D PREFETCH  REQUESTED:          0  ISSUED:          0  USEFUL:          0  USELESS:          0
L1D USEFUL LOAD PREFETCHES:          0 PREFETCH ISSUED TO LOWER LEVEL:          0  ACCURACY: -nan
L1D TIMELY PREFETCHES:          0 LATE PREFETCHES: 0 DROPPED PREFETCHES: 0
L1D PREFETCHES SAME FILL-ORIGIN LEVEL: 0 DIFFERENT FILL-ORIGIN LEVEL: 0
L1D AVERAGE MISS LATENCY: 29.1326 cycles
L1D RQ	ACCESS:   38923377	FORWARD:          0	MERGED:    7367324	TO_CACHE:   31530104
L1D WQ	ACCESS:    8105849	FORWARD:      25949	MERGED:      54524	TO_CACHE:    8051325

L1D UNIQUE REGIONS ACCESSED: 0
L1D REGIONS CONFLICTS: 0
L1D Cross Page Prefetch Requests: 0
L1D Same Page Prefetch Requests: 0
L1D ROI Sum of L1D PQ occupancy: 0
L1D PREFETCHES PUSHED FROM L2C: 0
L1I TOTAL     ACCESS:   15666988  HIT:   13066983  MISS:    2600005  HIT %:    83.4046  MISS %:    16.5954   MPKI: 26.0001
L1I LOAD      ACCESS:   15666988  HIT:   13066983  MISS:    2600005  HIT %:    83.4046  MISS %:    16.5954   MPKI: 26.0001
L1I PREFETCH  REQUESTED:          0  ISSUED:          0  USEFUL:          0  USELESS:          0
L1I USEFUL LOAD PREFETCHES:          0 PREFETCH ISSUED TO LOWER LEVEL:          0  ACCURACY: -nan
L1I TIMELY PREFETCHES:          0 LATE PREFETCHES: 0 DROPPED PREFETCHES: 0
L1I PREFETCHES SAME FILL-ORIGIN LEVEL: 0 DIFFERENT FILL-ORIGIN LEVEL: 0
L1I AVERAGE MISS LATENCY: 14.0723 cycles
L1I RQ	ACCESS:   23880279	FORWARD:          0	MERGED:    6887887	TO_CACHE:   16992392

BTB TOTAL     ACCESS:     563528  HIT:     527153  MISS:      36375  HIT %:    93.5451  MISS %:    6.45487   MPKI: 0.36375
BTB BRANCH_DIRECT_JUMP	ACCESS:     109049  HIT:     109044  MISS:          5
BTB BRANCH_INDIRECT	ACCESS:      18175  HIT:      18174  MISS:          1
BTB BRANCH_CONDITIONAL	ACCESS:     218208  HIT:     218196  MISS:         12
BTB BRANCH_DIRECT_CALL	ACCESS:     109048  HIT:     109043  MISS:          5
BTB BRANCH_INDIRECT_CALL	ACCESS:          0  HIT:          0  MISS:          0
BTB BRANCH_RETURN	ACCESS:     109048  HIT:      72696  MISS:      36352
BTB BRANCH_OTHER ACCESS:          0  HIT:          0  MISS:          0

L2C TOTAL     ACCESS:   10712720  HIT:   10179321  MISS:     533399  HIT %:    95.0209  MISS %:    4.97912   MPKI: 5.33399
L2C LOAD      ACCESS:    9340186  HIT:    8873558  MISS:     466628  HIT %:    95.0041  MISS %:    4.99592   MPKI: 4.66628
L2C DATA LOAD MPKI: 4.65802
L2C INSTRUCTION LOAD MPKI: 0.00826
L2C RFO       ACCESS:     606409  HIT:     547557  MISS:      58852  HIT %:     90.295  MISS %:      9.705   MPKI: 0.58852
L2C PREFETCH  ACCESS:     111195  HIT:     110772  MISS:        423  HIT %:    99.6196  MISS %:   0.380413   MPKI: 0.00423
L2C DATA PREFETCH MPKI: 0.00423
L2C INSTRUCTION PREFETCH MPKI: 0
L2C WRITEBACK ACCESS:     648531  HIT:     647247  MISS:       1284  HIT %:     99.802  MISS %:   0.197986   MPKI: 0.01284
L2C LOAD TRANSLATION ACCESS:       6399  HIT:        187  MISS:       6212  HIT %:    2.92233  MISS %:    97.0777   MPKI: 0.06212
L2C PREFETCH  REQUESTED:     168455  ISSUED:     157738  USEFUL:        402  USELESS:         58
L2C USEFUL LOAD PREFETCHES:        402 PREFETCH ISSUED TO LOWER LEVEL:      26938  ACCURACY: 1.49232
L2C TIMELY PREFETCHES:        402 LATE PREFETCHES: 12 DROPPED PREFETCHES: 0
L2C PREFETCHES SAME FILL-ORIGIN LEVEL: 435 DIFFERENT FILL-ORIGIN LEVEL: 26503
L2C AVERAGE MISS LATENCY: 188.488 cycles
L2C RQ	ACCESS:    9953929	FORWARD:          0	MERGED:          0	TO_CACHE:    9952994
L2C WQ	ACCESS:     648531	FORWARD:        937	MERGED:          0	TO_CACHE:     648531
L2C PQ	ACCESS:     157738	FORWARD:          0	MERGED:      17634	TO_CACHE:     140102

L2C Instructions Evicting Data 741
L2C Translations Evicting Data 6158
L2C Data Evicting Data 518194
L2C Instructions Evicting Instructions 78
L2C Translations Evicting Instructions 7
L2C Data Evicting Instructions 736
L2C Instructions Evicting Translations 7
L2C Translations Evicting Translations 47
L2C Data Evicting Translations 6147
L2C Dense regions hint from L2: 0
PSCL5 TOTAL     ACCESS:       4258  HIT:       4258  MISS:          0  HIT %:        100  MISS %:          0   MPKI: 0
PSCL5 LOAD TRANSLATION ACCESS:       4258  HIT:       4258  MISS:          0  HIT %:        100  MISS %:          0   MPKI: 0
PSCL5 PREFETCH  REQUESTED:          0  ISSUED:          0  USEFUL:          0  USELESS:          0
PSCL5 USEFUL LOAD PREFETCHES:          0 PREFETCH ISSUED TO LOWER LEVEL:          0  ACCURACY: -nan
PSCL5 TIMELY PREFETCHES:          0 LATE PREFETCHES: 0 DROPPED PREFETCHES: 0
PSCL5 PREFETCHES SAME FILL-ORIGIN LEVEL: 0 DIFFERENT FILL-ORIGIN LEVEL: 0

PSCL4 TOTAL     ACCESS:       4258  HIT:       4258  MISS:          0  HIT %:        100  MISS %:          0   MPKI: 0
PSCL4 LOAD TRANSLATION ACCESS:       4258  HIT:       4258  MISS:          0  HIT %:        100  MISS %:          0   MPKI: 0
PSCL4 PREFETCH  REQUESTED:          0  ISSUED:          0  USEFUL:          0  USELESS:          0
PSCL4 USEFUL LOAD PREFETCHES:          0 PREFETCH ISSUED TO LOWER LEVEL:          0  ACCURACY: -nan
PSCL4 TIMELY PREFETCHES:          0 LATE PREFETCHES: 0 DROPPED PREFETCHES: 0
PSCL4 PREFETCHES SAME FILL-ORIGIN LEVEL: 0 DIFFERENT FILL-ORIGIN LEVEL: 0

PSCL3 TOTAL     ACCESS:       4258  HIT:       4258  MISS:          0  HIT %:        100  MISS %:          0   MPKI: 0
PSCL3 LOAD TRANSLATION ACCESS:       4258  HIT:       4258  MISS:          0  HIT %:        100  MISS %:          0   MPKI: 0
PSCL3 PREFETCH  REQUESTED:          0  ISSUED:          0  USEFUL:          0  USELESS:          0
PSCL3 USEFUL LOAD PREFETCHES:          0 PREFETCH ISSUED TO LOWER LEVEL:          0  ACCURACY: -nan
PSCL3 TIMELY PREFETCHES:          0 LATE PREFETCHES: 0 DROPPED PREFETCHES: 0
PSCL3 PREFETCHES SAME FILL-ORIGIN LEVEL: 0 DIFFERENT FILL-ORIGIN LEVEL: 0

PSCL2 TOTAL     ACCESS:       4258  HIT:       2112  MISS:       2146  HIT %:    49.6008  MISS %:    50.3992   MPKI: 0.02146
PSCL2 LOAD TRANSLATION ACCESS:       4258  HIT:       2112  MISS:       2146  HIT %:    49.6008  MISS %:    50.3992   MPKI: 0.02146
PSCL2 PREFETCH  REQUESTED:          0  ISSUED:          0  USEFUL:          0  USELESS:          0
PSCL2 USEFUL LOAD PREFETCHES:          0 PREFETCH ISSUED TO LOWER LEVEL:          0  ACCURACY: -nan
PSCL2 TIMELY PREFETCHES:          0 LATE PREFETCHES: 0 DROPPED PREFETCHES: 0
PSCL2 PREFETCHES SAME FILL-ORIGIN LEVEL: 0 DIFFERENT FILL-ORIGIN LEVEL: 0

LLC TOTAL     ACCESS:     616928  HIT:     345672  MISS:     271256  HIT %:    56.0312  MISS %:    43.9688   MPKI: 2.71256
LLC LOAD      ACCESS:     466616  HIT:     260292  MISS:     206324  HIT %:    55.7829  MISS %:    44.2171   MPKI: 2.06324
LLC RFO       ACCESS:      58852  HIT:          2  MISS:      58850  HIT %: 0.00339836  MISS %:    99.9966   MPKI: 0.5885
LLC PREFETCH  ACCESS:      26484  HIT:      22073  MISS:       4411  HIT %:    83.3447  MISS %:    16.6553   MPKI: 0.04411
LLC WRITEBACK ACCESS:      58764  HIT:      57706  MISS:       1058  HIT %:    98.1996  MISS %:    1.80042   MPKI: 0.01058
LLC LOAD TRANSLATION ACCESS:       6212  HIT:       5599  MISS:        613  HIT %:     90.132  MISS %:      9.868   MPKI: 0.00613
LLC PREFETCH  REQUESTED:          0  ISSUED:          0  USEFUL:       5448  USELESS:        870
LLC USEFUL LOAD PREFETCHES:       5448 PREFETCH ISSUED TO LOWER LEVEL:       4566  ACCURACY: 119.317
LLC TIMELY PREFETCHES:       5448 LATE PREFETCHES: 155 DROPPED PREFETCHES: 0
LLC PREFETCHES SAME FILL-ORIGIN LEVEL: 4485 DIFFERENT FILL-ORIGIN LEVEL: 0
LLC AVERAGE MISS LATENCY: 313.562 cycles
LLC RQ	ACCESS:     531680	FORWARD:          0	MERGED:          0	TO_CACHE:     531680
LLC WQ	ACCESS:      58764	FORWARD:          0	MERGED:          0	TO_CACHE:      58764
LLC PQ	ACCESS:      26938	FORWARD:          0	MERGED:        207	TO_CACHE:      26731

LLC Dense regions hint to LLC: 0

RAW hits: 262647
Loads Generated: 39186024
Loads sent to L1D: 38923377
Stores Generated: 8106290
Stores sent to L1D: 8106279
Major fault: 0 Minor fault: 6506
Allocated PAGES: 6506
 All Calls: 10114972
 Critical Calls: 10114972
------------------
Depth Distribution
------------------
depth 0: 0
depth 1: 2510413
depth 2: 1014721
depth 3: 204236
depth 4: 37293
depth 5: 1790
depth 6: 73
depth 7: 8
depth 8: 2
depth 9: 0
depth 10: 0
depth 11: 0
depth 12: 0
depth 13: 0
depth 14: 0
depth 15: 0
depth 16: 0
depth 17: 0
depth 18: 0
depth 19: 0
depth 20: 0
depth 21: 0
depth 22: 0
depth 23: 0
depth 24: 0
depth 25: 0
depth 26: 0
depth 27: 0
depth 28: 0
depth 29: 0
Total: 3768536
-----------------------------
-----------------------------
	Captured at Filter
-----------------------------
depth 0: 0
depth 1: 800349
depth 2: 387901
depth 3: 148378
depth 4: 32123
depth 5: 5241
depth 6: 156
depth 7: 3
depth 8: 0
depth 9: 0
depth 10: 0
depth 11: 0
depth 12: 0
depth 13: 0
depth 14: 0
depth 15: 0
depth 16: 0
depth 17: 0
depth 18: 0
depth 19: 0
depth 20: 0
depth 21: 0
depth 22: 0
depth 23: 0
depth 24: 0
depth 25: 0
depth 26: 0
depth 27: 0
depth 28: 0
depth 29: 0
-----------------------------
-----------------------------
		Lost at Page
-----------------------------
depth 0: 0
depth 1: 2101018
depth 2: 133129
depth 3: 24919
depth 4: 2660
depth 5: 273
depth 6: 7
depth 7: 0
depth 8: 0
depth 9: 0
depth 10: 0
depth 11: 0
depth 12: 0
depth 13: 0
depth 14: 0
depth 15: 0
depth 16: 0
depth 17: 0
depth 18: 0
depth 19: 0
depth 20: 0
depth 21: 0
depth 22: 0
depth 23: 0
depth 24: 0
depth 25: 0
depth 26: 0
depth 27: 0
depth 28: 0
depth 29: 0
-----------------------------
-----------------------------
	Lost due to PQ Size
-----------------------------
6884940
-----------------------------
ST read accesses: 6736866
ST write accesses: 3316
PT read accesses: 73898414
PT write accesses: 7952028
FILTER read accesses: 13855240
FILTER write accesses: 560284
GHR read accesses: 10861382
GHR write accesses: 1566136
GHR counter read accesses: 67053400
GHR counter write accesses: 7138289
ST tag read accesses: 2587169770
ST tag write accesses: 539171233

DRAM Statistics
 CHANNEL 0
 RQ ROW_BUFFER_HIT:     141909  ROW_BUFFER_MISS:     128289
 DBUS_CONGESTED:        139
 WQ ROW_BUFFER_HIT:      17788  ROW_BUFFER_MISS:      39948  FULL:          0

 AVG_CONGESTED_CYCLE: 5
 All warmup complete: 2
Channel 0 Bank busy for read cycles: 0
Channel 0 Bank busy for write cycles: 0
Channel 0
Rank 0
0banks busy for read cycles: 91043360
0banks busy for write cycles: 26317
1banks busy for read cycles: 13263632
1banks busy for write cycles: 4941196
2banks busy for read cycles: 2559147
2banks busy for write cycles: 1190325
3banks busy for read cycles: 1351616
3banks busy for write cycles: 1001233
4banks busy for read cycles: 281384
4banks busy for write cycles: 275839
5banks busy for read cycles: 278007
5banks busy for write cycles: 173046
6banks busy for read cycles: 166591
6banks busy for write cycles: 132112
7banks busy for read cycles: 54659
7banks busy for write cycles: 55784
8banks busy for read cycles: 687
8banks busy for write cycles: 2808

CPU 0 Branch Prediction Accuracy: 99.9874% MPKI: 0.00112 Average ROB Occupancy at Mispredict: 38.1161
Branch types
NOT_BRANCH: 99108924 99.1089%
BRANCH_DIRECT_JUMP: 109049 0.109049%
BRANCH_INDIRECT: 18175 0.018175%
BRANCH_CONDITIONAL: 545463 0.545463%
BRANCH_DIRECT_CALL: 109048 0.109048%
BRANCH_INDIRECT_CALL: 0 0%
BRANCH_RETURN: 109048 0.109048%
BRANCH_OTHER: 0 0%

DRAM PAGES: 1048576
Allocated PAGES: 6506
