
*** ChampSim Multicore Out-of-Order Simulator ***

Warmup Instructions: 50000000
Simulation Instructions: 100000000
Number of CPUs: 1
LLC sets: 2048
LLC ways: 16
Off-chip DRAM Size: 4096 MB Channels: 1 Width: 64-bit Data Rate: 6400 MT/s
CPU 0 runs ../SPEC2017//607.cactuBSSN_s-4004B.champsimtrace.xz
.xz
NUM_OF_IPS_IN_CRITICAL_IP_TRAINING: 64
NUM_OF_CRITICAL_IP_TRAINING_TABLE_WAYS: 2
NUM_OF_CRITICAL_IP_TRAINING_TABLE_SETS: 32
WOBBLY_CRITICAL_IP_CACHE_SETS: 32
WOBBLY_CRITICAL_IP_CACHE_WAYS: 4
BTB has LRU replacement policy
ITLB has LRU replacement policy
DTLB has LRU replacement policy
STLB has LRU replacement policy
L1I has LRU replacement policy
IP Table Entries: 256
L1D has LRU replacement policy
Initialize SRRIP state for L2C
Initialize DRRIP state for LLC
Heartbeat CPU 0 instructions: 10000001 cycles: 3596282 heartbeat IPC: 2.78065 cumulative IPC: 2.78065 (Simulation time: 0 hr 7 min 12 sec) 
Heartbeat CPU 0 instructions: 20000001 cycles: 7192790 heartbeat IPC: 2.78047 cumulative IPC: 2.78056 (Simulation time: 0 hr 13 min 47 sec) 
Heartbeat CPU 0 instructions: 30000003 cycles: 10788810 heartbeat IPC: 2.78085 cumulative IPC: 2.78066 (Simulation time: 0 hr 19 min 31 sec) 
Heartbeat CPU 0 instructions: 40000000 cycles: 14385758 heartbeat IPC: 2.78013 cumulative IPC: 2.78053 (Simulation time: 0 hr 25 min 1 sec) 
Heartbeat CPU 0 instructions: 50000002 cycles: 17981069 heartbeat IPC: 2.7814 cumulative IPC: 2.7807 (Simulation time: 0 hr 30 min 0 sec) 

Warmup complete CPU 0 instructions: 50000002 cycles: 17981069 (Simulation time: 0 hr 30 min 0 sec) 

% increase in all ip prefetch 211.817
% increase in all ip prefetch 7.77317
% increase in all ip prefetch 6.68979
% increase in all ip prefetch 5.55879
% increase in all ip prefetch 6.4477
Heartbeat CPU 0 instructions: 60000002 cycles: 29281462 heartbeat IPC: 0.884925 cumulative IPC: 0.884925 (Simulation time: 0 hr 33 min 42 sec) 
Heartbeat CPU 0 instructions: 70000003 cycles: 40786887 heartbeat IPC: 0.869155 cumulative IPC: 0.876969 (Simulation time: 0 hr 37 min 9 sec) 
Heartbeat CPU 0 instructions: 80000002 cycles: 52561118 heartbeat IPC: 0.849312 cumulative IPC: 0.867552 (Simulation time: 0 hr 40 min 39 sec) 
Heartbeat CPU 0 instructions: 90000003 cycles: 64085806 heartbeat IPC: 0.867703 cumulative IPC: 0.86759 (Simulation time: 0 hr 43 min 54 sec) 
Heartbeat CPU 0 instructions: 100000000 cycles: 75631828 heartbeat IPC: 0.866099 cumulative IPC: 0.867291 (Simulation time: 0 hr 46 min 59 sec) 
Heartbeat CPU 0 instructions: 110000000 cycles: 87152437 heartbeat IPC: 0.86801 cumulative IPC: 0.867411 (Simulation time: 0 hr 49 min 51 sec) 
Heartbeat CPU 0 instructions: 120000001 cycles: 98618306 heartbeat IPC: 0.872154 cumulative IPC: 0.868085 (Simulation time: 0 hr 52 min 59 sec) 
Heartbeat CPU 0 instructions: 130000000 cycles: 110078432 heartbeat IPC: 0.872591 cumulative IPC: 0.868646 (Simulation time: 0 hr 59 min 12 sec) 
Heartbeat CPU 0 instructions: 140000002 cycles: 121618278 heartbeat IPC: 0.866563 cumulative IPC: 0.868414 (Simulation time: 1 hr 5 min 7 sec) 
Heartbeat CPU 0 instructions: 150000002 cycles: 133171292 heartbeat IPC: 0.865575 cumulative IPC: 0.868129 (Simulation time: 1 hr 9 min 59 sec) 
Finished CPU 0 instructions: 100000000 cycles: 115190223 cumulative IPC: 0.868129 (Simulation time: 1 hr 9 min 59 sec) 

ChampSim completed all CPUs

Region of Interest Statistics

CPU 0 cumulative IPC: 0.868129 instructions: 100000000 cycles: 115190223

CPU 0 Average Load ROB stall cycles: 2.52604e+07
CPU 0 Fraction of times ROB stalled by Loads: 33.4682
CPU 0 Percentage of Load stall cycles in Total stall cycles: 4.21572e+08
Issued all: 59682145
Issued LT all: 46461533
rob_not_full_when_issued_lt_all: 33155142
Issued LT one: 40136630
rob_not_full_when_issued_lt_one: 27852732
 Total stall cycles: 92234451
 Total load stall cycles: 388834280382315
CPU 0 NUM of IPS identified critical: 0
CPU 0 Num of Load IPs stalling ROB: 2064
Threshold modification factor: 0
Max PIST entries: 64
Min PIST entries: 0
Avg PIST entries: 42.6667
Trouble in retire width: 0.931705
MaC = Marked as critical.
lt_50_percent_before_Mac: 0
gt_90_percent_before_Mac: 0
gt_75_percent_before_Mac: 0
gt_50_percent_before_Mac: 0
stall_proportion_bin_same_before_after: 0
stall_proportion_bin_lower_before_after: 0
stall_proportion_bin_upper_before_after: 0
average_stall_proportion_before: -nan
average_stall_proportion_after: -nan
Critical IP stalls, total frequency: 0
Non-critical IP stalls, total frequency: 5151767
Total Freq all stalling IPs: 5151767
stat_90_percent_critical_ip_stalls_freq: 4636872
stat_90_percent_non_critical_ip_stalls_freq: 514895
Critical_IP_ROB_Stalls_Bucket_0: 0
Non-critical_IP_ROB_Stalls_Bucket_0: 2697870
Critical_IP_ROB_Stalls_Bucket_1: 0
Non-critical_IP_ROB_Stalls_Bucket_1: 1167543
Critical_IP_ROB_Stalls_Bucket_2: 0
Non-critical_IP_ROB_Stalls_Bucket_2: 356035
Critical_IP_ROB_Stalls_Bucket_3: 0
Non-critical_IP_ROB_Stalls_Bucket_3: 224588
Critical_IP_ROB_Stalls_Bucket_4: 0
Non-critical_IP_ROB_Stalls_Bucket_4: 115736
Critical_IP_ROB_Stalls_Bucket_5: 0
Non-critical_IP_ROB_Stalls_Bucket_5: 164943
Critical_IP_ROB_Stalls_Bucket_6: 0
Non-critical_IP_ROB_Stalls_Bucket_6: 425052
0 => IPs accounting for >50 percent of stalls, 1 => 55, 2 => 60, 3 => 65 and so on till 90.
percent50: 50.2885 num IPs:  144
percent55: 55.2682 num IPs: 161
percent60: 60.0212 num IPs: 178
percent65: 65.0183 num IPs: 197
percent70: 70.1106 num IPs: 218
percent75: 75.1403 num IPs: 243
percent80: 80.0355 num IPs: 278
percent85: 85.0336 num IPs: 338
percent90: 90.0055 num IPs: 442
Critical_ROB_Stalls_Percent_0_Bucket_0: 1563596
Non-critical_ROB_Stalls_Percent_0_Bucket_0: 1134274
Critical_ROB_Stalls_Percent_0_Bucket_1: 700363
Non-critical_ROB_Stalls_Percent_0_Bucket_1: 467180
Critical_ROB_Stalls_Percent_0_Bucket_2: 110930
Non-critical_ROB_Stalls_Percent_0_Bucket_2: 245105
Critical_ROB_Stalls_Percent_0_Bucket_3: 69633
Non-critical_ROB_Stalls_Percent_0_Bucket_3: 154955
Critical_ROB_Stalls_Percent_0_Bucket_4: 28128
Non-critical_ROB_Stalls_Percent_0_Bucket_4: 87608
Critical_ROB_Stalls_Percent_0_Bucket_5: 22561
Non-critical_ROB_Stalls_Percent_0_Bucket_5: 142382
Critical_ROB_Stalls_Percent_0_Bucket_6: 95537
Non-critical_ROB_Stalls_Percent_0_Bucket_6: 329515
Critical_ROB_Stalls_Percent_1_Bucket_0: 1711116
Non-critical_ROB_Stalls_Percent_1_Bucket_0: 986754
Critical_ROB_Stalls_Percent_1_Bucket_1: 710180
Non-critical_ROB_Stalls_Percent_1_Bucket_1: 457363
Critical_ROB_Stalls_Percent_1_Bucket_2: 135200
Non-critical_ROB_Stalls_Percent_1_Bucket_2: 220835
Critical_ROB_Stalls_Percent_1_Bucket_3: 94386
Non-critical_ROB_Stalls_Percent_1_Bucket_3: 130202
Critical_ROB_Stalls_Percent_1_Bucket_4: 37636
Non-critical_ROB_Stalls_Percent_1_Bucket_4: 78100
Critical_ROB_Stalls_Percent_1_Bucket_5: 32800
Non-critical_ROB_Stalls_Percent_1_Bucket_5: 132143
Critical_ROB_Stalls_Percent_1_Bucket_6: 125969
Non-critical_ROB_Stalls_Percent_1_Bucket_6: 299083
Critical_ROB_Stalls_Percent_2_Bucket_0: 1879702
Non-critical_ROB_Stalls_Percent_2_Bucket_0: 818168
Critical_ROB_Stalls_Percent_2_Bucket_1: 732917
Non-critical_ROB_Stalls_Percent_2_Bucket_1: 434626
Critical_ROB_Stalls_Percent_2_Bucket_2: 156121
Non-critical_ROB_Stalls_Percent_2_Bucket_2: 199914
Critical_ROB_Stalls_Percent_2_Bucket_3: 104791
Non-critical_ROB_Stalls_Percent_2_Bucket_3: 119797
Critical_ROB_Stalls_Percent_2_Bucket_4: 41560
Non-critical_ROB_Stalls_Percent_2_Bucket_4: 74176
Critical_ROB_Stalls_Percent_2_Bucket_5: 37152
Non-critical_ROB_Stalls_Percent_2_Bucket_5: 127791
Critical_ROB_Stalls_Percent_2_Bucket_6: 139911
Non-critical_ROB_Stalls_Percent_2_Bucket_6: 285141
Critical_ROB_Stalls_Percent_3_Bucket_0: 2079039
Non-critical_ROB_Stalls_Percent_3_Bucket_0: 618831
Critical_ROB_Stalls_Percent_3_Bucket_1: 767586
Non-critical_ROB_Stalls_Percent_3_Bucket_1: 399957
Critical_ROB_Stalls_Percent_3_Bucket_2: 167373
Non-critical_ROB_Stalls_Percent_3_Bucket_2: 188662
Critical_ROB_Stalls_Percent_3_Bucket_3: 107834
Non-critical_ROB_Stalls_Percent_3_Bucket_3: 116754
Critical_ROB_Stalls_Percent_3_Bucket_4: 43057
Non-critical_ROB_Stalls_Percent_3_Bucket_4: 72679
Critical_ROB_Stalls_Percent_3_Bucket_5: 39569
Non-critical_ROB_Stalls_Percent_3_Bucket_5: 125374
Critical_ROB_Stalls_Percent_3_Bucket_6: 145134
Non-critical_ROB_Stalls_Percent_3_Bucket_6: 279918
Critical_ROB_Stalls_Percent_4_Bucket_0: 2276723
Non-critical_ROB_Stalls_Percent_4_Bucket_0: 421147
Critical_ROB_Stalls_Percent_4_Bucket_1: 782597
Non-critical_ROB_Stalls_Percent_4_Bucket_1: 384946
Critical_ROB_Stalls_Percent_4_Bucket_2: 183112
Non-critical_ROB_Stalls_Percent_4_Bucket_2: 172923
Critical_ROB_Stalls_Percent_4_Bucket_3: 119191
Non-critical_ROB_Stalls_Percent_4_Bucket_3: 105397
Critical_ROB_Stalls_Percent_4_Bucket_4: 45825
Non-critical_ROB_Stalls_Percent_4_Bucket_4: 69911
Critical_ROB_Stalls_Percent_4_Bucket_5: 46577
Non-critical_ROB_Stalls_Percent_4_Bucket_5: 118366
Critical_ROB_Stalls_Percent_4_Bucket_6: 157913
Non-critical_ROB_Stalls_Percent_4_Bucket_6: 267139
Critical_ROB_Stalls_Percent_5_Bucket_0: 2351603
Non-critical_ROB_Stalls_Percent_5_Bucket_0: 346267
Critical_ROB_Stalls_Percent_5_Bucket_1: 864668
Non-critical_ROB_Stalls_Percent_5_Bucket_1: 302875
Critical_ROB_Stalls_Percent_5_Bucket_2: 219594
Non-critical_ROB_Stalls_Percent_5_Bucket_2: 136441
Critical_ROB_Stalls_Percent_5_Bucket_3: 136359
Non-critical_ROB_Stalls_Percent_5_Bucket_3: 88229
Critical_ROB_Stalls_Percent_5_Bucket_4: 57327
Non-critical_ROB_Stalls_Percent_5_Bucket_4: 58409
Critical_ROB_Stalls_Percent_5_Bucket_5: 66577
Non-critical_ROB_Stalls_Percent_5_Bucket_5: 98366
Critical_ROB_Stalls_Percent_5_Bucket_6: 174928
Non-critical_ROB_Stalls_Percent_5_Bucket_6: 250124
Critical_ROB_Stalls_Percent_6_Bucket_0: 2446220
Non-critical_ROB_Stalls_Percent_6_Bucket_0: 251650
Critical_ROB_Stalls_Percent_6_Bucket_1: 937880
Non-critical_ROB_Stalls_Percent_6_Bucket_1: 229663
Critical_ROB_Stalls_Percent_6_Bucket_2: 245559
Non-critical_ROB_Stalls_Percent_6_Bucket_2: 110476
Critical_ROB_Stalls_Percent_6_Bucket_3: 149649
Non-critical_ROB_Stalls_Percent_6_Bucket_3: 74939
Critical_ROB_Stalls_Percent_6_Bucket_4: 66051
Non-critical_ROB_Stalls_Percent_6_Bucket_4: 49685
Critical_ROB_Stalls_Percent_6_Bucket_5: 88539
Non-critical_ROB_Stalls_Percent_6_Bucket_5: 76404
Critical_ROB_Stalls_Percent_6_Bucket_6: 189348
Non-critical_ROB_Stalls_Percent_6_Bucket_6: 235704
Critical_ROB_Stalls_Percent_7_Bucket_0: 2520439
Non-critical_ROB_Stalls_Percent_7_Bucket_0: 177431
Critical_ROB_Stalls_Percent_7_Bucket_1: 997625
Non-critical_ROB_Stalls_Percent_7_Bucket_1: 169918
Critical_ROB_Stalls_Percent_7_Bucket_2: 271020
Non-critical_ROB_Stalls_Percent_7_Bucket_2: 85015
Critical_ROB_Stalls_Percent_7_Bucket_3: 171934
Non-critical_ROB_Stalls_Percent_7_Bucket_3: 52654
Critical_ROB_Stalls_Percent_7_Bucket_4: 79034
Non-critical_ROB_Stalls_Percent_7_Bucket_4: 36702
Critical_ROB_Stalls_Percent_7_Bucket_5: 107438
Non-critical_ROB_Stalls_Percent_7_Bucket_5: 57505
Critical_ROB_Stalls_Percent_7_Bucket_6: 233245
Non-critical_ROB_Stalls_Percent_7_Bucket_6: 191807
Critical_ROB_Stalls_Percent_8_Bucket_0: 2571461
Non-critical_ROB_Stalls_Percent_8_Bucket_0: 126409
Critical_ROB_Stalls_Percent_8_Bucket_1: 1039432
Non-critical_ROB_Stalls_Percent_8_Bucket_1: 128111
Critical_ROB_Stalls_Percent_8_Bucket_2: 298657
Non-critical_ROB_Stalls_Percent_8_Bucket_2: 57378
Critical_ROB_Stalls_Percent_8_Bucket_3: 190408
Non-critical_ROB_Stalls_Percent_8_Bucket_3: 34180
Critical_ROB_Stalls_Percent_8_Bucket_4: 94467
Non-critical_ROB_Stalls_Percent_8_Bucket_4: 21269
Critical_ROB_Stalls_Percent_8_Bucket_5: 127650
Non-critical_ROB_Stalls_Percent_8_Bucket_5: 37293
Critical_ROB_Stalls_Percent_8_Bucket_6: 314797
Non-critical_ROB_Stalls_Percent_8_Bucket_6: 110255
Average ROB occupancy Load Stall Begin: 79.4703
Average ROB occupancy Load Stall End: 89.7951
Min ROB occupancy Load Stall Begin: 1
Max ROB occupancy Load Stall Begin: 352
Min ROB occupancy Load Stall End: 1
Max ROB occupancy Load Stall End: 352
Average ROB occupancy Critical Load Stall Begin: -nan
Average ROB occupancy Critical Load Stall End: -nan
Min ROB occupancy Critical Load Stall Begin: 400
Max ROB occupancy Critical Load Stall Begin: 0
Min ROB occupancy Critical Load Stall End: 400
Max ROB occupancy Critical Load Stall End: 0
 ROB Load Stall Begin Bucket Count 0: 3149287
 ROB Load Stall End Bucket Count 0: 2697870
 ROB Critical Load Stall Begin Bucket Count 0: 0
 ROB Critical Load Stall End Bucket Count 0: 0
 ROB Load Stall Begin Bucket Count 1: 843741
 ROB Load Stall End Bucket Count 1: 1167543
 ROB Critical Load Stall Begin Bucket Count 1: 0
 ROB Critical Load Stall End Bucket Count 1: 0
 ROB Load Stall Begin Bucket Count 2: 322517
 ROB Load Stall End Bucket Count 2: 356035
 ROB Critical Load Stall Begin Bucket Count 2: 0
 ROB Critical Load Stall End Bucket Count 2: 0
 ROB Load Stall Begin Bucket Count 3: 180257
 ROB Load Stall End Bucket Count 3: 224588
 ROB Critical Load Stall Begin Bucket Count 3: 0
 ROB Critical Load Stall End Bucket Count 3: 0
 ROB Load Stall Begin Bucket Count 4: 102913
 ROB Load Stall End Bucket Count 4: 115736
 ROB Critical Load Stall Begin Bucket Count 4: 0
 ROB Critical Load Stall End Bucket Count 4: 0
 ROB Load Stall Begin Bucket Count 5: 207386
 ROB Load Stall End Bucket Count 5: 164943
 ROB Critical Load Stall Begin Bucket Count 5: 0
 ROB Critical Load Stall End Bucket Count 5: 0
 ROB Load Stall Begin Bucket Count 6: 345666
 ROB Load Stall End Bucket Count 6: 425052
 ROB Critical Load Stall Begin Bucket Count 6: 0
 ROB Critical Load Stall End Bucket Count 6: 0
PIST Tag Read Accesses: 7543236
PIST Read Accesses: 3771618
PIST Tag Write Accesses: 7543236
PIST Write Accesses: 3771618
Criticality detector called times: 3902870
Max global_stall_cycles_count: 4669894
Threshold Modified: 5 times, factor: 0
Sturdy critical IP cache stats: 
 Unused entries: 0
CIC Tag Read Accesses: 0
CIC Read Accesses: 0
CIC Tag Write Accesses: 0
CIC Write Accesses: 0
Wobbly critical IP cache stats: 
 Unused entries: 0
CIC Tag Read Accesses: 235737213
CIC Read Accesses: 0
CIC Tag Write Accesses: 6241942
CIC Write Accesses: 0
ITLB TOTAL     ACCESS:   13978964  HIT:   13978964  MISS:          0  HIT %:        100  MISS %:          0   MPKI: 0
ITLB LOAD TRANSLATION ACCESS:   13978964  HIT:   13978964  MISS:          0  HIT %:        100  MISS %:          0   MPKI: 0
ITLB PREFETCH  REQUESTED:          0  ISSUED:          0  USEFUL:          0  USELESS:          0
ITLB USEFUL LOAD PREFETCHES:          0 PREFETCH ISSUED TO LOWER LEVEL:          0  ACCURACY: -nan
ITLB TIMELY PREFETCHES:          0 LATE PREFETCHES: 0 DROPPED PREFETCHES: 0
ITLB PREFETCHES SAME FILL-ORIGIN LEVEL: 0 DIFFERENT FILL-ORIGIN LEVEL: 0
ITLB AVERAGE MISS LATENCY: -nan cycles
ITLB RQ	ACCESS:   16977494	FORWARD:          0	MERGED:    2998530	TO_CACHE:   13978964

DTLB TOTAL     ACCESS:   28306048  HIT:   24439922  MISS:    3866126  HIT %:    86.3417  MISS %:    13.6583   MPKI: 38.6613
DTLB LOAD TRANSLATION ACCESS:   28306048  HIT:   24439922  MISS:    3866126  HIT %:    86.3417  MISS %:    13.6583   MPKI: 38.6613
DTLB PREFETCH  REQUESTED:          0  ISSUED:          0  USEFUL:          0  USELESS:          0
DTLB USEFUL LOAD PREFETCHES:          0 PREFETCH ISSUED TO LOWER LEVEL:          0  ACCURACY: -nan
DTLB TIMELY PREFETCHES:          0 LATE PREFETCHES: 0 DROPPED PREFETCHES: 0
DTLB PREFETCHES SAME FILL-ORIGIN LEVEL: 0 DIFFERENT FILL-ORIGIN LEVEL: 0
DTLB AVERAGE MISS LATENCY: 9.96082 cycles
DTLB RQ	ACCESS:   39597442	FORWARD:          0	MERGED:   10864558	TO_CACHE:   28732884

STLB TOTAL     ACCESS:    3867994  HIT:    3863736  MISS:       4258  HIT %:    99.8899  MISS %:   0.110083   MPKI: 0.04258
STLB LOAD TRANSLATION ACCESS:    3866126  HIT:    3861868  MISS:       4258  HIT %:    99.8899  MISS %:   0.110136   MPKI: 0.04258
STLB TRANSLATION FROM L1D PREFETCHER ACCESS:       1868  HIT:       1868  MISS:          0  HIT %:        100  MISS %:          0   MPKI: 0
STLB PREFETCH  REQUESTED:          0  ISSUED:          0  USEFUL:          0  USELESS:          0
STLB USEFUL LOAD PREFETCHES:          0 PREFETCH ISSUED TO LOWER LEVEL:          0  ACCURACY: -nan
STLB TIMELY PREFETCHES:          0 LATE PREFETCHES: 0 DROPPED PREFETCHES: 0
STLB PREFETCHES SAME FILL-ORIGIN LEVEL: 0 DIFFERENT FILL-ORIGIN LEVEL: 0
STLB AVERAGE MISS LATENCY: 583.106 cycles
STLB RQ	ACCESS:    3868005	FORWARD:          0	MERGED:         11	TO_CACHE:    3867994

STLB Hit, L1D data hit: 0
STLB Hit, L2C data hit: 0
STLB Hit, LLC data hit: 0
STLB Hit, LLC data miss: 0
STLB STLB hints to L2: 0
L1D TOTAL     ACCESS:   39393699  HIT:   32042025  MISS:    7351674  HIT %:    81.3379  MISS %:    18.6621   MPKI: 73.5167
L1D LOAD      ACCESS:   31379001  HIT:   24635811  MISS:    6743190  HIT %:    78.5105  MISS %:    21.4895   MPKI: 67.4319
L1D RFO       ACCESS:    8012819  HIT:    7406214  MISS:     606605  HIT %:    92.4296  MISS %:    7.57043   MPKI: 6.06605
L1D PREFETCH  ACCESS:       1879  HIT:          0  MISS:       1879  HIT %:          0  MISS %:        100   MPKI: 0.01879
L1D PREFETCH  REQUESTED:       3758  ISSUED:       3758  USEFUL:        758  USELESS:       1126
L1D USEFUL LOAD PREFETCHES:        758 PREFETCH ISSUED TO LOWER LEVEL:       2188  ACCURACY: 34.6435
L1D TIMELY PREFETCHES:        758 LATE PREFETCHES: 0 DROPPED PREFETCHES: 0
L1D PREFETCHES SAME FILL-ORIGIN LEVEL: 2188 DIFFERENT FILL-ORIGIN LEVEL: 0
L1D AVERAGE MISS LATENCY: 27.9223 cycles
L1D RQ	ACCESS:   38925828	FORWARD:          0	MERGED:    7355012	TO_CACHE:   31546122
L1D WQ	ACCESS:    8105844	FORWARD:      24694	MERGED:      54524	TO_CACHE:    8051320
L1D PQ	ACCESS:       1879	FORWARD:          0	MERGED:          0	TO_CACHE:       1879

L1D UNIQUE REGIONS ACCESSED: 0
L1D REGIONS CONFLICTS: 0
L1D Cross Page Prefetch Requests: 0
L1D Same Page Prefetch Requests: 10330
L1D ROI Sum of L1D PQ occupancy: 39631
L1D PREFETCHES PUSHED FROM L2C: 0
L1I TOTAL     ACCESS:   15649812  HIT:   13049807  MISS:    2600005  HIT %:    83.3863  MISS %:    16.6137   MPKI: 26.0001
L1I LOAD      ACCESS:   15649812  HIT:   13049807  MISS:    2600005  HIT %:    83.3863  MISS %:    16.6137   MPKI: 26.0001
L1I PREFETCH  REQUESTED:          0  ISSUED:          0  USEFUL:          0  USELESS:          0
L1I USEFUL LOAD PREFETCHES:          0 PREFETCH ISSUED TO LOWER LEVEL:          0  ACCURACY: -nan
L1I TIMELY PREFETCHES:          0 LATE PREFETCHES: 0 DROPPED PREFETCHES: 0
L1I PREFETCHES SAME FILL-ORIGIN LEVEL: 0 DIFFERENT FILL-ORIGIN LEVEL: 0
L1I AVERAGE MISS LATENCY: 14.0734 cycles
L1I RQ	ACCESS:   23836548	FORWARD:          0	MERGED:    6859054	TO_CACHE:   16977494

BTB TOTAL     ACCESS:     563528  HIT:     527153  MISS:      36375  HIT %:    93.5451  MISS %:    6.45487   MPKI: 0.36375
BTB BRANCH_DIRECT_JUMP	ACCESS:     109049  HIT:     109044  MISS:          5
BTB BRANCH_INDIRECT	ACCESS:      18175  HIT:      18174  MISS:          1
BTB BRANCH_CONDITIONAL	ACCESS:     218208  HIT:     218196  MISS:         12
BTB BRANCH_DIRECT_CALL	ACCESS:     109048  HIT:     109043  MISS:          5
BTB BRANCH_INDIRECT_CALL	ACCESS:          0  HIT:          0  MISS:          0
BTB BRANCH_RETURN	ACCESS:     109048  HIT:      72696  MISS:      36352
BTB BRANCH_OTHER ACCESS:          0  HIT:          0  MISS:          0

L2C TOTAL     ACCESS:   11206124  HIT:   10677938  MISS:     528186  HIT %:    95.2866  MISS %:    4.71337   MPKI: 5.28186
L2C LOAD      ACCESS:    9342374  HIT:    8937007  MISS:     405367  HIT %:     95.661  MISS %:    4.33901   MPKI: 4.05367
L2C DATA LOAD MPKI: 4.04569
L2C INSTRUCTION LOAD MPKI: 0.00798
L2C RFO       ACCESS:     606426  HIT:     547576  MISS:      58850  HIT %:    90.2956  MISS %:     9.7044   MPKI: 0.5885
L2C PREFETCH  ACCESS:     602304  HIT:     545326  MISS:      56978  HIT %:      90.54  MISS %:    9.46001   MPKI: 0.56978
L2C DATA PREFETCH MPKI: 0.56978
L2C INSTRUCTION PREFETCH MPKI: 0
L2C WRITEBACK ACCESS:     648621  HIT:     647826  MISS:        795  HIT %:    99.8774  MISS %:   0.122568   MPKI: 0.00795
L2C LOAD TRANSLATION ACCESS:       6399  HIT:        203  MISS:       6196  HIT %:    3.17237  MISS %:    96.8276   MPKI: 0.06196
L2C PREFETCH  REQUESTED:     603965  ISSUED:     600526  USEFUL:      53651  USELESS:       3469
L2C USEFUL LOAD PREFETCHES:      53651 PREFETCH ISSUED TO LOWER LEVEL:      56987  ACCURACY: 94.146
L2C TIMELY PREFETCHES:      53651 LATE PREFETCHES: 9 DROPPED PREFETCHES: 0
L2C PREFETCHES SAME FILL-ORIGIN LEVEL: 55914 DIFFERENT FILL-ORIGIN LEVEL: 0
L2C AVERAGE MISS LATENCY: 186.597 cycles
L2C RQ	ACCESS:    9956198	FORWARD:          0	MERGED:          0	TO_CACHE:    9955199
L2C WQ	ACCESS:     648621	FORWARD:       1003	MERGED:          0	TO_CACHE:     648621
L2C PQ	ACCESS:     602405	FORWARD:          0	MERGED:         61	TO_CACHE:     602340

L2C Instructions Evicting Data 752
L2C Translations Evicting Data 6148
L2C Data Evicting Data 513508
L2C Instructions Evicting Instructions 39
L2C Translations Evicting Instructions 5
L2C Data Evicting Instructions 749
L2C Instructions Evicting Translations 7
L2C Translations Evicting Translations 43
L2C Data Evicting Translations 6140
L2C Dense regions hint from L2: 0
PSCL5 TOTAL     ACCESS:       4258  HIT:       4258  MISS:          0  HIT %:        100  MISS %:          0   MPKI: 0
PSCL5 LOAD TRANSLATION ACCESS:       4258  HIT:       4258  MISS:          0  HIT %:        100  MISS %:          0   MPKI: 0
PSCL5 PREFETCH  REQUESTED:          0  ISSUED:          0  USEFUL:          0  USELESS:          0
PSCL5 USEFUL LOAD PREFETCHES:          0 PREFETCH ISSUED TO LOWER LEVEL:          0  ACCURACY: -nan
PSCL5 TIMELY PREFETCHES:          0 LATE PREFETCHES: 0 DROPPED PREFETCHES: 0
PSCL5 PREFETCHES SAME FILL-ORIGIN LEVEL: 0 DIFFERENT FILL-ORIGIN LEVEL: 0

PSCL4 TOTAL     ACCESS:       4258  HIT:       4258  MISS:          0  HIT %:        100  MISS %:          0   MPKI: 0
PSCL4 LOAD TRANSLATION ACCESS:       4258  HIT:       4258  MISS:          0  HIT %:        100  MISS %:          0   MPKI: 0
PSCL4 PREFETCH  REQUESTED:          0  ISSUED:          0  USEFUL:          0  USELESS:          0
PSCL4 USEFUL LOAD PREFETCHES:          0 PREFETCH ISSUED TO LOWER LEVEL:          0  ACCURACY: -nan
PSCL4 TIMELY PREFETCHES:          0 LATE PREFETCHES: 0 DROPPED PREFETCHES: 0
PSCL4 PREFETCHES SAME FILL-ORIGIN LEVEL: 0 DIFFERENT FILL-ORIGIN LEVEL: 0

PSCL3 TOTAL     ACCESS:       4258  HIT:       4258  MISS:          0  HIT %:        100  MISS %:          0   MPKI: 0
PSCL3 LOAD TRANSLATION ACCESS:       4258  HIT:       4258  MISS:          0  HIT %:        100  MISS %:          0   MPKI: 0
PSCL3 PREFETCH  REQUESTED:          0  ISSUED:          0  USEFUL:          0  USELESS:          0
PSCL3 USEFUL LOAD PREFETCHES:          0 PREFETCH ISSUED TO LOWER LEVEL:          0  ACCURACY: -nan
PSCL3 TIMELY PREFETCHES:          0 LATE PREFETCHES: 0 DROPPED PREFETCHES: 0
PSCL3 PREFETCHES SAME FILL-ORIGIN LEVEL: 0 DIFFERENT FILL-ORIGIN LEVEL: 0

PSCL2 TOTAL     ACCESS:       4258  HIT:       2112  MISS:       2146  HIT %:    49.6008  MISS %:    50.3992   MPKI: 0.02146
PSCL2 LOAD TRANSLATION ACCESS:       4258  HIT:       2112  MISS:       2146  HIT %:    49.6008  MISS %:    50.3992   MPKI: 0.02146
PSCL2 PREFETCH  REQUESTED:          0  ISSUED:          0  USEFUL:          0  USELESS:          0
PSCL2 USEFUL LOAD PREFETCHES:          0 PREFETCH ISSUED TO LOWER LEVEL:          0  ACCURACY: -nan
PSCL2 TIMELY PREFETCHES:          0 LATE PREFETCHES: 0 DROPPED PREFETCHES: 0
PSCL2 PREFETCHES SAME FILL-ORIGIN LEVEL: 0 DIFFERENT FILL-ORIGIN LEVEL: 0

LLC TOTAL     ACCESS:     586122  HIT:     313440  MISS:     272682  HIT %:    53.4769  MISS %:    46.5231   MPKI: 2.72682
LLC LOAD      ACCESS:     405358  HIT:     222746  MISS:     182612  HIT %:    54.9504  MISS %:    45.0496   MPKI: 1.82612
LLC RFO       ACCESS:      58850  HIT:          0  MISS:      58850  HIT %:          0  MISS %:        100   MPKI: 0.5885
LLC PREFETCH  ACCESS:      56987  HIT:      27297  MISS:      29690  HIT %:    47.9004  MISS %:    52.0996   MPKI: 0.2969
LLC WRITEBACK ACCESS:      58731  HIT:      57797  MISS:        934  HIT %:    98.4097  MISS %:     1.5903   MPKI: 0.00934
LLC LOAD TRANSLATION ACCESS:       6196  HIT:       5600  MISS:        596  HIT %:    90.3809  MISS %:    9.61911   MPKI: 0.00596
LLC PREFETCH  REQUESTED:          0  ISSUED:          0  USEFUL:      14953  USELESS:      29440
LLC USEFUL LOAD PREFETCHES:      14953 PREFETCH ISSUED TO LOWER LEVEL:      29690  ACCURACY: 50.3638
LLC TIMELY PREFETCHES:      14953 LATE PREFETCHES: 0 DROPPED PREFETCHES: 0
LLC PREFETCHES SAME FILL-ORIGIN LEVEL: 0 DIFFERENT FILL-ORIGIN LEVEL: 0
LLC AVERAGE MISS LATENCY: 302.167 cycles
LLC RQ	ACCESS:     470404	FORWARD:          0	MERGED:          0	TO_CACHE:     470404
LLC WQ	ACCESS:      58731	FORWARD:          0	MERGED:          0	TO_CACHE:      58731
LLC PQ	ACCESS:      56987	FORWARD:          0	MERGED:          0	TO_CACHE:      56987

LLC Dense regions hint to LLC: 0

RAW hits: 260196
Loads Generated: 39186024
Loads sent to L1D: 38925828
Stores Generated: 8106290
Stores sent to L1D: 8106279
Major fault: 0 Minor fault: 6506
Allocated PAGES: 6506

stream: 
stream:times selected: 26721
stream:pref_filled: 8119
stream:pref_useful: 2723
stream:pref_late: 7
stream:misses: 120
stream:misses_by_poll: 0

CS: 
CS:times selected: 11259
CS:pref_filled: 707
CS:pref_useful: 247
CS:pref_late: 0
CS:misses: 2077
CS:misses_by_poll: 0

CPLX: 
CPLX:times selected: 19315
CPLX:pref_filled: 756
CPLX:pref_useful: 160
CPLX:pref_late: 0
CPLX:misses: 92426
CPLX:misses_by_poll: 0

NL_L1: 
NL:times selected: 9
NL:pref_filled: 8
NL:pref_useful: 2
NL:pref_late: 0
NL:misses: 26
NL:misses_by_poll: 0

total selections: 57304
total_filled: 1879
total_useful: 758
total_late: 7
total_polluted: 0
total_misses_after_warmup: 6910310
conflicts: 15531898
Degree Incremented Times: 0
Degree Decremented Times: 218557

L1 IP Table Write Accesses: 15799907
L1 IP Table Read Accesses: 268009
L1 RST Write Accesses: 12281
L1 RST Read Accesses: 24562
L1 CSPT Write Accesses: 12281
L1 CSPT Read Accesses: 24120
L1 RR Filter Tag Write Accesses: 1879
L1 RR Filter Tag Read Accesses: 150032
L1 IP Table Tag Write Accesses: 31546121
L1 IP Table Tag Read Accesses: 31546121
L1 RST Tag Write Accesses: 0
L1 RST Tag Read Accesses: 108047
L1 RR Filter Write Accesses: 0
L1 RR Filter Read Accesses: 4740
test: 4805
L2 IP Table Read Accesses: 8791875
L2 IP Table Write Accesses: 10848559
L2 IP Table Tag Read Accesses: 6744172
L2 IP Table Tag Write Accesses: 6744172

DRAM Statistics
 CHANNEL 0
 RQ ROW_BUFFER_HIT:     140689  ROW_BUFFER_MISS:     131059
 DBUS_CONGESTED:        191
 WQ ROW_BUFFER_HIT:      17995  ROW_BUFFER_MISS:      40525  FULL:          0

 AVG_CONGESTED_CYCLE: 5
 All warmup complete: 2
Channel 0 Bank busy for read cycles: 0
Channel 0 Bank busy for write cycles: 0
Channel 0
Rank 0
0banks busy for read cycles: 90566063
0banks busy for write cycles: 25404
1banks busy for read cycles: 11970245
1banks busy for write cycles: 4397548
2banks busy for read cycles: 3040568
2banks busy for write cycles: 1218687
3banks busy for read cycles: 1425794
3banks busy for write cycles: 902419
4banks busy for read cycles: 403352
4banks busy for write cycles: 349787
5banks busy for read cycles: 274197
5banks busy for write cycles: 185822
6banks busy for read cycles: 148685
6banks busy for write cycles: 139906
7banks busy for read cycles: 64745
7banks busy for write cycles: 62165
8banks busy for read cycles: 4547
8banks busy for write cycles: 10290

CPU 0 Branch Prediction Accuracy: 99.9874% MPKI: 0.00112 Average ROB Occupancy at Mispredict: 38.1161
Branch types
NOT_BRANCH: 99108924 99.1089%
BRANCH_DIRECT_JUMP: 109049 0.109049%
BRANCH_INDIRECT: 18175 0.018175%
BRANCH_CONDITIONAL: 545463 0.545463%
BRANCH_DIRECT_CALL: 109048 0.109048%
BRANCH_INDIRECT_CALL: 0 0%
BRANCH_RETURN: 109048 0.109048%
BRANCH_OTHER: 0 0%

DRAM PAGES: 1048576
Allocated PAGES: 6506
