Initialize SIGNATURE TABLE
ST_SET: 1
ST_WAY: 16
ST_TAG_BIT: 16
ST_TAG_MASK: ffff

Initialize PATTERN TABLE
PT_SET: 16
PT_WAY: 4
SIG_DELTA_BIT: 7
C_SIG_BIT: 4
C_DELTA_BIT: 4

Initialize PREFETCH FILTER
FILTER_SET: 1024

Initialize PERCEPTRON
PERC_ENTRIES: 4096
PERC_FEATURES: 9

*** ChampSim Multicore Out-of-Order Simulator ***

Warmup Instructions: 50000000
Simulation Instructions: 100000000
Number of CPUs: 1
LLC sets: 2048
LLC ways: 16
Off-chip DRAM Size: 4096 MB Channels: 1 Width: 64-bit Data Rate: 6400 MT/s
CPU 0 runs ../SPEC2017//607.cactuBSSN_s-3477B.champsimtrace.xz
.xz
BTB has LRU replacement policy
ITLB has LRU replacement policy
DTLB has LRU replacement policy
STLB has LRU replacement policy
L1I has LRU replacement policy
L1D has LRU replacement policy
Initialize SRRIP state for L2C
Initialize DRRIP state for LLC
Heartbeat CPU 0 instructions: 10000000 cycles: 3671691 heartbeat IPC: 2.72354 cumulative IPC: 2.72354 (Simulation time: 0 hr 8 min 1 sec) 
Heartbeat CPU 0 instructions: 20000003 cycles: 7342299 heartbeat IPC: 2.72435 cumulative IPC: 2.72394 (Simulation time: 0 hr 15 min 10 sec) 
Heartbeat CPU 0 instructions: 30000000 cycles: 11012479 heartbeat IPC: 2.72466 cumulative IPC: 2.72418 (Simulation time: 0 hr 21 min 29 sec) 
Heartbeat CPU 0 instructions: 40000003 cycles: 14682912 heartbeat IPC: 2.72447 cumulative IPC: 2.72426 (Simulation time: 0 hr 27 min 19 sec) 
Heartbeat CPU 0 instructions: 50000000 cycles: 18355121 heartbeat IPC: 2.72316 cumulative IPC: 2.72404 (Simulation time: 0 hr 32 min 24 sec) 

Warmup complete CPU 0 instructions: 50000004 cycles: 18355122 (Simulation time: 0 hr 32 min 24 sec) 

Heartbeat CPU 0 instructions: 60000000 cycles: 30123223 heartbeat IPC: 0.849755 cumulative IPC: 0.849754 (Simulation time: 0 hr 37 min 47 sec) 
Heartbeat CPU 0 instructions: 70000001 cycles: 41998402 heartbeat IPC: 0.842093 cumulative IPC: 0.845906 (Simulation time: 0 hr 43 min 1 sec) 
Heartbeat CPU 0 instructions: 80000001 cycles: 53926791 heartbeat IPC: 0.838336 cumulative IPC: 0.843368 (Simulation time: 0 hr 48 min 7 sec) 
Heartbeat CPU 0 instructions: 90000002 cycles: 65824743 heartbeat IPC: 0.840481 cumulative IPC: 0.842644 (Simulation time: 0 hr 52 min 34 sec) 
Heartbeat CPU 0 instructions: 100000000 cycles: 77672062 heartbeat IPC: 0.844073 cumulative IPC: 0.842929 (Simulation time: 0 hr 56 min 48 sec) 
Heartbeat CPU 0 instructions: 110000000 cycles: 89543760 heartbeat IPC: 0.84234 cumulative IPC: 0.842831 (Simulation time: 1 hr 1 min 14 sec) 
Heartbeat CPU 0 instructions: 120000002 cycles: 101418188 heartbeat IPC: 0.842146 cumulative IPC: 0.842733 (Simulation time: 1 hr 5 min 10 sec) 
Heartbeat CPU 0 instructions: 130000002 cycles: 113300685 heartbeat IPC: 0.841574 cumulative IPC: 0.842588 (Simulation time: 1 hr 10 min 50 sec) 
Heartbeat CPU 0 instructions: 140000000 cycles: 125153811 heartbeat IPC: 0.843659 cumulative IPC: 0.842707 (Simulation time: 1 hr 20 min 39 sec) 
Heartbeat CPU 0 instructions: 150000000 cycles: 137025494 heartbeat IPC: 0.842341 cumulative IPC: 0.84267 (Simulation time: 1 hr 30 min 29 sec) 
Finished CPU 0 instructions: 100000002 cycles: 118670391 cumulative IPC: 0.84267 (Simulation time: 1 hr 30 min 29 sec) 

ChampSim completed all CPUs

Region of Interest Statistics

CPU 0 cumulative IPC: 0.84267 instructions: 100000002 cycles: 118670391

CPU 0 Average Load ROB stall cycles: 2.54352e+07
CPU 0 Fraction of times ROB stalled by Loads: 32.7497
CPU 0 Percentage of Load stall cycles in Total stall cycles: 4.23023e+08
Issued all: 61078858
Issued LT all: 47735433
rob_not_full_when_issued_lt_all: 33183457
Issued LT one: 41593220
rob_not_full_when_issued_lt_one: 28148920
 Total stall cycles: 95954867
 Total load stall cycles: 405910935705998
Unique Load IPs: 2309
CPU 0 NUM of IPS identified critical: 346
CPU 0 Num of Load IPs stalling ROB: 0
Threshold modification factor: 0
Trouble in retire width: -nan
MaC = Marked as critical.
lt_50_percent_before_Mac: 138
gt_90_percent_before_Mac: 33
gt_75_percent_before_Mac: 53
gt_50_percent_before_Mac: 22
stall_proportion_bin_same_before_after: 0
stall_proportion_bin_lower_before_after: 0
stall_proportion_bin_upper_before_after: 0
average_stall_proportion_before: 0.0230169
average_stall_proportion_after: 0.0222394
Critical_IP_Detector_Accuracy_70: 0
Critical_IP_Detector_Accuracy_80: 0
Critical_IP_Detector_Accuracy_90: 0
Critical_IP_Detector_Coverage_70: 0
Critical_IP_Detector_Coverage_80: 0
Critical_IP_Detector_Coverage_90: 0
stat_90_percent_critical_ip_stalls_freq: 36148
stat_90_percent_non_critical_ip_stalls_freq: 18446744073709515468
AVERAGE_ROB_Occupancy_90_Percent_Critical_IP_Stalls: 26.1564
AVERAGE_ROB_Occupancy_90_Percent_Non_Critical_IP_Stalls: 2.44708e-11
Critical_IP_ROB_Stalls_Bucket_0: 94445
Non-critical_IP_ROB_Stalls_Bucket_0: 2783048
Critical_IP_ROB_Stalls_Bucket_1: 64718
Non-critical_IP_ROB_Stalls_Bucket_1: 1072740
Critical_IP_ROB_Stalls_Bucket_2: 55745
Non-critical_IP_ROB_Stalls_Bucket_2: 273002
Critical_IP_ROB_Stalls_Bucket_3: 30692
Non-critical_IP_ROB_Stalls_Bucket_3: 150372
Critical_IP_ROB_Stalls_Bucket_4: 16429
Non-critical_IP_ROB_Stalls_Bucket_4: 75585
Critical_IP_ROB_Stalls_Bucket_5: 27039
Non-critical_IP_ROB_Stalls_Bucket_5: 133757
Critical_IP_ROB_Stalls_Bucket_6: 72665
Non-critical_IP_ROB_Stalls_Bucket_6: 376173
0 => IPs accounting for >50 percent of stalls, 1 => 55, 2 => 60, 3 => 65 and so on till 90.
percent50: inf num IPs:  1
percent55: inf num IPs: 1
percent60: inf num IPs: 1
percent65: inf num IPs: 1
percent70: inf num IPs: 1
percent75: inf num IPs: 1
percent80: inf num IPs: 1
percent85: inf num IPs: 1
percent90: inf num IPs: 1
Critical_ROB_Stalls_Percent_0_Bucket_0: 35321
Non-critical_ROB_Stalls_Percent_0_Bucket_0: 2842172
Critical_ROB_Stalls_Percent_0_Bucket_1: 766
Non-critical_ROB_Stalls_Percent_0_Bucket_1: 1136692
Critical_ROB_Stalls_Percent_0_Bucket_2: 29
Non-critical_ROB_Stalls_Percent_0_Bucket_2: 328718
Critical_ROB_Stalls_Percent_0_Bucket_3: 30
Non-critical_ROB_Stalls_Percent_0_Bucket_3: 181034
Critical_ROB_Stalls_Percent_0_Bucket_4: 2
Non-critical_ROB_Stalls_Percent_0_Bucket_4: 92012
Critical_ROB_Stalls_Percent_0_Bucket_5: 0
Non-critical_ROB_Stalls_Percent_0_Bucket_5: 160796
Critical_ROB_Stalls_Percent_0_Bucket_6: 0
Non-critical_ROB_Stalls_Percent_0_Bucket_6: 448838
Critical_ROB_Stalls_Percent_1_Bucket_0: 35321
Non-critical_ROB_Stalls_Percent_1_Bucket_0: 2842172
Critical_ROB_Stalls_Percent_1_Bucket_1: 766
Non-critical_ROB_Stalls_Percent_1_Bucket_1: 1136692
Critical_ROB_Stalls_Percent_1_Bucket_2: 29
Non-critical_ROB_Stalls_Percent_1_Bucket_2: 328718
Critical_ROB_Stalls_Percent_1_Bucket_3: 30
Non-critical_ROB_Stalls_Percent_1_Bucket_3: 181034
Critical_ROB_Stalls_Percent_1_Bucket_4: 2
Non-critical_ROB_Stalls_Percent_1_Bucket_4: 92012
Critical_ROB_Stalls_Percent_1_Bucket_5: 0
Non-critical_ROB_Stalls_Percent_1_Bucket_5: 160796
Critical_ROB_Stalls_Percent_1_Bucket_6: 0
Non-critical_ROB_Stalls_Percent_1_Bucket_6: 448838
Critical_ROB_Stalls_Percent_2_Bucket_0: 35321
Non-critical_ROB_Stalls_Percent_2_Bucket_0: 2842172
Critical_ROB_Stalls_Percent_2_Bucket_1: 766
Non-critical_ROB_Stalls_Percent_2_Bucket_1: 1136692
Critical_ROB_Stalls_Percent_2_Bucket_2: 29
Non-critical_ROB_Stalls_Percent_2_Bucket_2: 328718
Critical_ROB_Stalls_Percent_2_Bucket_3: 30
Non-critical_ROB_Stalls_Percent_2_Bucket_3: 181034
Critical_ROB_Stalls_Percent_2_Bucket_4: 2
Non-critical_ROB_Stalls_Percent_2_Bucket_4: 92012
Critical_ROB_Stalls_Percent_2_Bucket_5: 0
Non-critical_ROB_Stalls_Percent_2_Bucket_5: 160796
Critical_ROB_Stalls_Percent_2_Bucket_6: 0
Non-critical_ROB_Stalls_Percent_2_Bucket_6: 448838
Critical_ROB_Stalls_Percent_3_Bucket_0: 35321
Non-critical_ROB_Stalls_Percent_3_Bucket_0: 2842172
Critical_ROB_Stalls_Percent_3_Bucket_1: 766
Non-critical_ROB_Stalls_Percent_3_Bucket_1: 1136692
Critical_ROB_Stalls_Percent_3_Bucket_2: 29
Non-critical_ROB_Stalls_Percent_3_Bucket_2: 328718
Critical_ROB_Stalls_Percent_3_Bucket_3: 30
Non-critical_ROB_Stalls_Percent_3_Bucket_3: 181034
Critical_ROB_Stalls_Percent_3_Bucket_4: 2
Non-critical_ROB_Stalls_Percent_3_Bucket_4: 92012
Critical_ROB_Stalls_Percent_3_Bucket_5: 0
Non-critical_ROB_Stalls_Percent_3_Bucket_5: 160796
Critical_ROB_Stalls_Percent_3_Bucket_6: 0
Non-critical_ROB_Stalls_Percent_3_Bucket_6: 448838
Critical_ROB_Stalls_Percent_4_Bucket_0: 35321
Non-critical_ROB_Stalls_Percent_4_Bucket_0: 2842172
Critical_ROB_Stalls_Percent_4_Bucket_1: 766
Non-critical_ROB_Stalls_Percent_4_Bucket_1: 1136692
Critical_ROB_Stalls_Percent_4_Bucket_2: 29
Non-critical_ROB_Stalls_Percent_4_Bucket_2: 328718
Critical_ROB_Stalls_Percent_4_Bucket_3: 30
Non-critical_ROB_Stalls_Percent_4_Bucket_3: 181034
Critical_ROB_Stalls_Percent_4_Bucket_4: 2
Non-critical_ROB_Stalls_Percent_4_Bucket_4: 92012
Critical_ROB_Stalls_Percent_4_Bucket_5: 0
Non-critical_ROB_Stalls_Percent_4_Bucket_5: 160796
Critical_ROB_Stalls_Percent_4_Bucket_6: 0
Non-critical_ROB_Stalls_Percent_4_Bucket_6: 448838
Critical_ROB_Stalls_Percent_5_Bucket_0: 35321
Non-critical_ROB_Stalls_Percent_5_Bucket_0: 2842172
Critical_ROB_Stalls_Percent_5_Bucket_1: 766
Non-critical_ROB_Stalls_Percent_5_Bucket_1: 1136692
Critical_ROB_Stalls_Percent_5_Bucket_2: 29
Non-critical_ROB_Stalls_Percent_5_Bucket_2: 328718
Critical_ROB_Stalls_Percent_5_Bucket_3: 30
Non-critical_ROB_Stalls_Percent_5_Bucket_3: 181034
Critical_ROB_Stalls_Percent_5_Bucket_4: 2
Non-critical_ROB_Stalls_Percent_5_Bucket_4: 92012
Critical_ROB_Stalls_Percent_5_Bucket_5: 0
Non-critical_ROB_Stalls_Percent_5_Bucket_5: 160796
Critical_ROB_Stalls_Percent_5_Bucket_6: 0
Non-critical_ROB_Stalls_Percent_5_Bucket_6: 448838
Critical_ROB_Stalls_Percent_6_Bucket_0: 35321
Non-critical_ROB_Stalls_Percent_6_Bucket_0: 2842172
Critical_ROB_Stalls_Percent_6_Bucket_1: 766
Non-critical_ROB_Stalls_Percent_6_Bucket_1: 1136692
Critical_ROB_Stalls_Percent_6_Bucket_2: 29
Non-critical_ROB_Stalls_Percent_6_Bucket_2: 328718
Critical_ROB_Stalls_Percent_6_Bucket_3: 30
Non-critical_ROB_Stalls_Percent_6_Bucket_3: 181034
Critical_ROB_Stalls_Percent_6_Bucket_4: 2
Non-critical_ROB_Stalls_Percent_6_Bucket_4: 92012
Critical_ROB_Stalls_Percent_6_Bucket_5: 0
Non-critical_ROB_Stalls_Percent_6_Bucket_5: 160796
Critical_ROB_Stalls_Percent_6_Bucket_6: 0
Non-critical_ROB_Stalls_Percent_6_Bucket_6: 448838
Critical_ROB_Stalls_Percent_7_Bucket_0: 35321
Non-critical_ROB_Stalls_Percent_7_Bucket_0: 2842172
Critical_ROB_Stalls_Percent_7_Bucket_1: 766
Non-critical_ROB_Stalls_Percent_7_Bucket_1: 1136692
Critical_ROB_Stalls_Percent_7_Bucket_2: 29
Non-critical_ROB_Stalls_Percent_7_Bucket_2: 328718
Critical_ROB_Stalls_Percent_7_Bucket_3: 30
Non-critical_ROB_Stalls_Percent_7_Bucket_3: 181034
Critical_ROB_Stalls_Percent_7_Bucket_4: 2
Non-critical_ROB_Stalls_Percent_7_Bucket_4: 92012
Critical_ROB_Stalls_Percent_7_Bucket_5: 0
Non-critical_ROB_Stalls_Percent_7_Bucket_5: 160796
Critical_ROB_Stalls_Percent_7_Bucket_6: 0
Non-critical_ROB_Stalls_Percent_7_Bucket_6: 448838
Critical_ROB_Stalls_Percent_8_Bucket_0: 35321
Non-critical_ROB_Stalls_Percent_8_Bucket_0: 2842172
Critical_ROB_Stalls_Percent_8_Bucket_1: 766
Non-critical_ROB_Stalls_Percent_8_Bucket_1: 1136692
Critical_ROB_Stalls_Percent_8_Bucket_2: 29
Non-critical_ROB_Stalls_Percent_8_Bucket_2: 328718
Critical_ROB_Stalls_Percent_8_Bucket_3: 30
Non-critical_ROB_Stalls_Percent_8_Bucket_3: 181034
Critical_ROB_Stalls_Percent_8_Bucket_4: 2
Non-critical_ROB_Stalls_Percent_8_Bucket_4: 92012
Critical_ROB_Stalls_Percent_8_Bucket_5: 0
Non-critical_ROB_Stalls_Percent_8_Bucket_5: 160796
Critical_ROB_Stalls_Percent_8_Bucket_6: 0
Non-critical_ROB_Stalls_Percent_8_Bucket_6: 448838
Average ROB occupancy Load Stall Begin: 76.5841
Average ROB occupancy Load Stall End: 86.5512
Min ROB occupancy Load Stall Begin: 1
Max ROB occupancy Load Stall Begin: 352
Min ROB occupancy Load Stall End: 1
Max ROB occupancy Load Stall End: 352
Average ROB occupancy Critical Load Stall Begin: 134.496
Average ROB occupancy Critical Load Stall End: 145.139
Min ROB occupancy Critical Load Stall Begin: 1
Max ROB occupancy Critical Load Stall Begin: 352
Min ROB occupancy Critical Load Stall End: 1
Max ROB occupancy Critical Load Stall End: 352
 ROB Load Stall Begin Bucket Count 0: 3316746
 ROB Load Stall End Bucket Count 0: 2877493
 ROB Critical Load Stall Begin Bucket Count 0: 59569
 ROB Critical Load Stall End Bucket Count 0: 55133
 ROB Load Stall Begin Bucket Count 1: 820343
 ROB Load Stall End Bucket Count 1: 1137458
 ROB Critical Load Stall Begin Bucket Count 1: 31621
 ROB Critical Load Stall End Bucket Count 1: 27991
 ROB Load Stall Begin Bucket Count 2: 288656
 ROB Load Stall End Bucket Count 2: 328747
 ROB Critical Load Stall Begin Bucket Count 2: 25287
 ROB Critical Load Stall End Bucket Count 2: 27305
 ROB Load Stall Begin Bucket Count 3: 141966
 ROB Load Stall End Bucket Count 3: 181064
 ROB Critical Load Stall Begin Bucket Count 3: 12048
 ROB Critical Load Stall End Bucket Count 3: 14864
 ROB Load Stall Begin Bucket Count 4: 81546
 ROB Load Stall End Bucket Count 4: 92014
 ROB Critical Load Stall Begin Bucket Count 4: 8140
 ROB Critical Load Stall End Bucket Count 4: 8915
 ROB Load Stall Begin Bucket Count 5: 211781
 ROB Load Stall End Bucket Count 5: 160796
 ROB Critical Load Stall Begin Bucket Count 5: 16113
 ROB Critical Load Stall End Bucket Count 5: 13216
 ROB Load Stall Begin Bucket Count 6: 365372
 ROB Load Stall End Bucket Count 6: 448838
 ROB Critical Load Stall Begin Bucket Count 6: 27923
 ROB Critical Load Stall End Bucket Count 6: 33283
PIST Tag Read Accesses: 0
PIST Read Accesses: 0
PIST Tag Write Accesses: 0
PIST Write Accesses: 0
Criticality detector called times: 0
Max global_stall_cycles_count: 0
Threshold Modified: 0 times, factor: 0
Sturdy critical IP cache stats: 
 Unused entries: 0
CIC Tag Read Accesses: 0
CIC Read Accesses: 0
CIC Tag Write Accesses: 0
CIC Write Accesses: 0
Wobbly critical IP cache stats: 
 Unused entries: 0
CIC Tag Read Accesses: 408458289
CIC Read Accesses: 0
CIC Tag Write Accesses: 3943167
CIC Write Accesses: 0
ITLB TOTAL     ACCESS:   14007196  HIT:   14007196  MISS:          0  HIT %:        100  MISS %:          0   MPKI: 0
ITLB LOAD TRANSLATION ACCESS:   14007196  HIT:   14007196  MISS:          0  HIT %:        100  MISS %:          0   MPKI: 0
ITLB PREFETCH  REQUESTED:          0  ISSUED:          0  USEFUL:          0  USELESS:          0
ITLB USEFUL LOAD PREFETCHES:          0 PREFETCH ISSUED TO LOWER LEVEL:          0  ACCURACY: -nan
ITLB TIMELY PREFETCHES:          0 LATE PREFETCHES: 0 DROPPED PREFETCHES: 0
ITLB PREFETCHES SAME FILL-ORIGIN LEVEL: 0 DIFFERENT FILL-ORIGIN LEVEL: 0
ITLB AVERAGE MISS LATENCY: -nan cycles
ITLB RQ	ACCESS:   17133342	FORWARD:          0	MERGED:    3126146	TO_CACHE:   14007196

DTLB TOTAL     ACCESS:   29990602  HIT:   26205246  MISS:    3785356  HIT %:    87.3782  MISS %:    12.6218   MPKI: 37.8536
DTLB LOAD TRANSLATION ACCESS:   29990602  HIT:   26205246  MISS:    3785356  HIT %:    87.3782  MISS %:    12.6218   MPKI: 37.8536
DTLB PREFETCH  REQUESTED:          0  ISSUED:          0  USEFUL:          0  USELESS:          0
DTLB USEFUL LOAD PREFETCHES:          0 PREFETCH ISSUED TO LOWER LEVEL:          0  ACCURACY: -nan
DTLB TIMELY PREFETCHES:          0 LATE PREFETCHES: 0 DROPPED PREFETCHES: 0
DTLB PREFETCHES SAME FILL-ORIGIN LEVEL: 0 DIFFERENT FILL-ORIGIN LEVEL: 0
DTLB AVERAGE MISS LATENCY: 9.98535 cycles
DTLB RQ	ACCESS:   39375158	FORWARD:          0	MERGED:    8994594	TO_CACHE:   30380564

STLB TOTAL     ACCESS:    3785356  HIT:    3781304  MISS:       4052  HIT %:     99.893  MISS %:   0.107044   MPKI: 0.04052
STLB LOAD TRANSLATION ACCESS:    3785356  HIT:    3781304  MISS:       4052  HIT %:     99.893  MISS %:   0.107044   MPKI: 0.04052
STLB PREFETCH  REQUESTED:          0  ISSUED:          0  USEFUL:          0  USELESS:          0
STLB USEFUL LOAD PREFETCHES:          0 PREFETCH ISSUED TO LOWER LEVEL:          0  ACCURACY: -nan
STLB TIMELY PREFETCHES:          0 LATE PREFETCHES: 0 DROPPED PREFETCHES: 0
STLB PREFETCHES SAME FILL-ORIGIN LEVEL: 0 DIFFERENT FILL-ORIGIN LEVEL: 0
STLB AVERAGE MISS LATENCY: 572.388 cycles
STLB RQ	ACCESS:    3785357	FORWARD:          0	MERGED:          0	TO_CACHE:    3785357

STLB Hit, L1D data hit: 0
STLB Hit, L2C data hit: 0
STLB Hit, LLC data hit: 0
STLB Hit, LLC data miss: 0
STLB STLB hints to L2: 0
L1D TOTAL     ACCESS:   39170474  HIT:   31842849  MISS:    7327625  HIT %:     81.293  MISS %:     18.707   MPKI: 73.2762
L1D LOAD      ACCESS:   31265782  HIT:   24540773  MISS:    6725009  HIT %:    78.4908  MISS %:    21.5092   MPKI: 67.2501
L1D RFO       ACCESS:    7904692  HIT:    7302076  MISS:     602616  HIT %:    92.3765  MISS %:    7.62352   MPKI: 6.02616
L1D PREFETCH  REQUESTED:          0  ISSUED:          0  USEFUL:          0  USELESS:          0
L1D USEFUL LOAD PREFETCHES:          0 PREFETCH ISSUED TO LOWER LEVEL:          0  ACCURACY: -nan
L1D TIMELY PREFETCHES:          0 LATE PREFETCHES: 0 DROPPED PREFETCHES: 0
L1D PREFETCHES SAME FILL-ORIGIN LEVEL: 0 DIFFERENT FILL-ORIGIN LEVEL: 0
L1D AVERAGE MISS LATENCY: 28.9353 cycles
L1D RQ	ACCESS:   38689710	FORWARD:          0	MERGED:    7237650	TO_CACHE:   31421445
L1D WQ	ACCESS:    8007907	FORWARD:      30615	MERGED:      54194	TO_CACHE:    7953713

L1D UNIQUE REGIONS ACCESSED: 0
L1D REGIONS CONFLICTS: 0
L1D Cross Page Prefetch Requests: 0
L1D Same Page Prefetch Requests: 0
L1D ROI Sum of L1D PQ occupancy: 0
L1D PREFETCHES PUSHED FROM L2C: 0
L1I TOTAL     ACCESS:   15671891  HIT:   12779678  MISS:    2892213  HIT %:    81.5452  MISS %:    18.4548   MPKI: 28.9221
L1I LOAD      ACCESS:   15671891  HIT:   12779678  MISS:    2892213  HIT %:    81.5452  MISS %:    18.4548   MPKI: 28.9221
L1I PREFETCH  REQUESTED:          0  ISSUED:          0  USEFUL:          0  USELESS:          0
L1I USEFUL LOAD PREFETCHES:          0 PREFETCH ISSUED TO LOWER LEVEL:          0  ACCURACY: -nan
L1I TIMELY PREFETCHES:          0 LATE PREFETCHES: 0 DROPPED PREFETCHES: 0
L1I PREFETCHES SAME FILL-ORIGIN LEVEL: 0 DIFFERENT FILL-ORIGIN LEVEL: 0
L1I AVERAGE MISS LATENCY: 14.0898 cycles
L1I RQ	ACCESS:   23887931	FORWARD:          0	MERGED:    6754589	TO_CACHE:   17133342

BTB TOTAL     ACCESS:     572857  HIT:     536484  MISS:      36373  HIT %:    93.6506  MISS %:     6.3494   MPKI: 0.36373
BTB BRANCH_DIRECT_JUMP	ACCESS:     108646  HIT:     108615  MISS:         31
BTB BRANCH_INDIRECT	ACCESS:      18082  HIT:      18080  MISS:          2
BTB BRANCH_CONDITIONAL	ACCESS:     229079  HIT:     228994  MISS:         85
BTB BRANCH_DIRECT_CALL	ACCESS:     108525  HIT:     108481  MISS:         44
BTB BRANCH_INDIRECT_CALL	ACCESS:          0  HIT:          0  MISS:          0
BTB BRANCH_RETURN	ACCESS:     108525  HIT:      72314  MISS:      36211
BTB BRANCH_OTHER ACCESS:          0  HIT:          0  MISS:          0

L2C TOTAL     ACCESS:   10927998  HIT:   10403349  MISS:     524649  HIT %:     95.199  MISS %:    4.80096   MPKI: 5.24649
L2C LOAD      ACCESS:    9616328  HIT:    9171983  MISS:     444345  HIT %:    95.3793  MISS %:    4.62073   MPKI: 4.44345
L2C DATA LOAD MPKI: 4.43905
L2C INSTRUCTION LOAD MPKI: 0.0044
L2C RFO       ACCESS:     602148  HIT:     543583  MISS:      58565  HIT %:     90.274  MISS %:    9.72601   MPKI: 0.58565
L2C PREFETCH  ACCESS:      53838  HIT:      40673  MISS:      13165  HIT %:     75.547  MISS %:     24.453   MPKI: 0.13165
L2C DATA PREFETCH MPKI: 0.13165
L2C INSTRUCTION PREFETCH MPKI: 0
L2C WRITEBACK ACCESS:     649575  HIT:     647044  MISS:       2531  HIT %:    99.6104  MISS %:   0.389639   MPKI: 0.02531
L2C LOAD TRANSLATION ACCESS:       6109  HIT:         66  MISS:       6043  HIT %:    1.08037  MISS %:    98.9196   MPKI: 0.06043
L2C PREFETCH  REQUESTED:      54991  ISSUED:      54991  USEFUL:      12253  USELESS:       2321
L2C USEFUL LOAD PREFETCHES:      12253 PREFETCH ISSUED TO LOWER LEVEL:      14226  ACCURACY: 86.131
L2C TIMELY PREFETCHES:      12253 LATE PREFETCHES: 15 DROPPED PREFETCHES: 0
L2C PREFETCHES SAME FILL-ORIGIN LEVEL: 13180 DIFFERENT FILL-ORIGIN LEVEL: 1046
L2C AVERAGE MISS LATENCY: 189.842 cycles
L2C RQ	ACCESS:   10225955	FORWARD:          0	MERGED:          0	TO_CACHE:   10224592
L2C WQ	ACCESS:     649575	FORWARD:       1363	MERGED:          0	TO_CACHE:     649575
L2C PQ	ACCESS:      54991	FORWARD:          0	MERGED:         12	TO_CACHE:      54979

L2C Instructions Evicting Data 431
L2C Translations Evicting Data 5986
L2C Data Evicting Data 509196
L2C Instructions Evicting Instructions 8
L2C Translations Evicting Instructions 5
L2C Data Evicting Instructions 424
L2C Instructions Evicting Translations 1
L2C Translations Evicting Translations 52
L2C Data Evicting Translations 6015
L2C Dense regions hint from L2: 0
PSCL5 TOTAL     ACCESS:       4052  HIT:       4052  MISS:          0  HIT %:        100  MISS %:          0   MPKI: 0
PSCL5 LOAD TRANSLATION ACCESS:       4052  HIT:       4052  MISS:          0  HIT %:        100  MISS %:          0   MPKI: 0
PSCL5 PREFETCH  REQUESTED:          0  ISSUED:          0  USEFUL:          0  USELESS:          0
PSCL5 USEFUL LOAD PREFETCHES:          0 PREFETCH ISSUED TO LOWER LEVEL:          0  ACCURACY: -nan
PSCL5 TIMELY PREFETCHES:          0 LATE PREFETCHES: 0 DROPPED PREFETCHES: 0
PSCL5 PREFETCHES SAME FILL-ORIGIN LEVEL: 0 DIFFERENT FILL-ORIGIN LEVEL: 0

PSCL4 TOTAL     ACCESS:       4052  HIT:       4052  MISS:          0  HIT %:        100  MISS %:          0   MPKI: 0
PSCL4 LOAD TRANSLATION ACCESS:       4052  HIT:       4052  MISS:          0  HIT %:        100  MISS %:          0   MPKI: 0
PSCL4 PREFETCH  REQUESTED:          0  ISSUED:          0  USEFUL:          0  USELESS:          0
PSCL4 USEFUL LOAD PREFETCHES:          0 PREFETCH ISSUED TO LOWER LEVEL:          0  ACCURACY: -nan
PSCL4 TIMELY PREFETCHES:          0 LATE PREFETCHES: 0 DROPPED PREFETCHES: 0
PSCL4 PREFETCHES SAME FILL-ORIGIN LEVEL: 0 DIFFERENT FILL-ORIGIN LEVEL: 0

PSCL3 TOTAL     ACCESS:       4040  HIT:       4038  MISS:          2  HIT %:    99.9505  MISS %:   0.049505   MPKI: 2e-05
PSCL3 LOAD TRANSLATION ACCESS:       4040  HIT:       4038  MISS:          2  HIT %:    99.9505  MISS %:   0.049505   MPKI: 2e-05
PSCL3 PREFETCH  REQUESTED:          0  ISSUED:          0  USEFUL:          0  USELESS:          0
PSCL3 USEFUL LOAD PREFETCHES:          0 PREFETCH ISSUED TO LOWER LEVEL:          0  ACCURACY: -nan
PSCL3 TIMELY PREFETCHES:          0 LATE PREFETCHES: 0 DROPPED PREFETCHES: 0
PSCL3 PREFETCHES SAME FILL-ORIGIN LEVEL: 0 DIFFERENT FILL-ORIGIN LEVEL: 0

PSCL2 TOTAL     ACCESS:       4052  HIT:       1992  MISS:       2060  HIT %:    49.1609  MISS %:    50.8391   MPKI: 0.0206
PSCL2 LOAD TRANSLATION ACCESS:       4052  HIT:       1992  MISS:       2060  HIT %:    49.1609  MISS %:    50.8391   MPKI: 0.0206
PSCL2 PREFETCH  REQUESTED:          0  ISSUED:          0  USEFUL:          0  USELESS:          0
PSCL2 USEFUL LOAD PREFETCHES:          0 PREFETCH ISSUED TO LOWER LEVEL:          0  ACCURACY: -nan
PSCL2 TIMELY PREFETCHES:          0 LATE PREFETCHES: 0 DROPPED PREFETCHES: 0
PSCL2 PREFETCHES SAME FILL-ORIGIN LEVEL: 0 DIFFERENT FILL-ORIGIN LEVEL: 0

LLC TOTAL     ACCESS:     581450  HIT:     316579  MISS:     264871  HIT %:    54.4465  MISS %:    45.5535   MPKI: 2.64871
LLC LOAD      ACCESS:     444330  HIT:     242859  MISS:     201471  HIT %:    54.6573  MISS %:    45.3427   MPKI: 2.01471
LLC RFO       ACCESS:      58564  HIT:          2  MISS:      58562  HIT %: 0.00341507  MISS %:    99.9966   MPKI: 0.58562
LLC PREFETCH  ACCESS:      14226  HIT:      10853  MISS:       3373  HIT %:    76.2899  MISS %:    23.7101   MPKI: 0.03373
LLC WRITEBACK ACCESS:      58287  HIT:      57382  MISS:        905  HIT %:    98.4473  MISS %:    1.55266   MPKI: 0.00905
LLC LOAD TRANSLATION ACCESS:       6043  HIT:       5483  MISS:        560  HIT %:    90.7331  MISS %:    9.26692   MPKI: 0.0056
LLC PREFETCH  REQUESTED:          0  ISSUED:          0  USEFUL:       5084  USELESS:      15830
LLC USEFUL LOAD PREFETCHES:       5084 PREFETCH ISSUED TO LOWER LEVEL:       3373  ACCURACY: 150.726
LLC TIMELY PREFETCHES:       5084 LATE PREFETCHES: 0 DROPPED PREFETCHES: 0
LLC PREFETCHES SAME FILL-ORIGIN LEVEL: 182 DIFFERENT FILL-ORIGIN LEVEL: 0
LLC AVERAGE MISS LATENCY: 315.878 cycles
LLC RQ	ACCESS:     508938	FORWARD:          0	MERGED:          0	TO_CACHE:     508937
LLC WQ	ACCESS:      58287	FORWARD:          1	MERGED:          0	TO_CACHE:      58287
LLC PQ	ACCESS:      14226	FORWARD:          0	MERGED:          0	TO_CACHE:      14226

LLC Dense regions hint to LLC: 0

RAW hits: 226801
Loads Generated: 38916518
Loads sent to L1D: 38689710
Stores Generated: 8008083
Stores sent to L1D: 8008082
Major fault: 0 Minor fault: 6510
Allocated PAGES: 6510
------------------
Depth Distribution
------------------
depth 0: 70686
depth 1: 1374538
depth 2: 356042
depth 3: 19414
depth 4: 0
depth 5: 0
depth 6: 0
depth 7: 0
depth 8: 0
depth 9: 0
depth 10: 0
depth 11: 0
depth 12: 0
depth 13: 0
depth 14: 0
depth 15: 0
depth 16: 0
depth 17: 0
depth 18: 0
depth 19: 0
depth 20: 0
depth 21: 0
depth 22: 0
depth 23: 0
depth 24: 0
depth 25: 0
depth 26: 0
depth 27: 0
depth 28: 0
depth 29: 0
Total: 1820680
------------------
ST read accesses: 127925
ST write accesses: 3992
PT read accesses: 1970733
PT write accesses: 46563
FILTER read accesses: 975295
FILTER write accesses: 1136255
GHR read accesses: 161004
GHR write accesses: 20017
PERC read accesses: 14736762
PERC write accesses: 784149
GHR counter read accesses: 263834
GHR counter write accesses: 229992
GHR ip read accesses: 578181
GHR ip write accesses: 527668
ST tag read accesses: 3359954
ST tag write accesses: 1131318

DRAM Statistics
 CHANNEL 0
 RQ ROW_BUFFER_HIT:     138888  ROW_BUFFER_MISS:     125078
 DBUS_CONGESTED:        101
 WQ ROW_BUFFER_HIT:      18495  ROW_BUFFER_MISS:      38225  FULL:          0

 AVG_CONGESTED_CYCLE: 4
 All warmup complete: 2
Channel 0 Bank busy for read cycles: 0
Channel 0 Bank busy for write cycles: 0
Channel 0
Rank 0
0banks busy for read cycles: 93412109
0banks busy for write cycles: 25159
1banks busy for read cycles: 13100581
1banks busy for write cycles: 4746705
2banks busy for read cycles: 2529678
2banks busy for write cycles: 1153912
3banks busy for read cycles: 1322686
3banks busy for write cycles: 1020327
4banks busy for read cycles: 265381
4banks busy for write cycles: 307348
5banks busy for read cycles: 216235
5banks busy for write cycles: 156951
6banks busy for read cycles: 151750
6banks busy for write cycles: 126671
7banks busy for read cycles: 74277
7banks busy for write cycles: 58718
8banks busy for read cycles: 731
8banks busy for write cycles: 1173

CPU 0 Branch Prediction Accuracy: 99.9863% MPKI: 0.00122 Average ROB Occupancy at Mispredict: 28.7377
Branch types
NOT_BRANCH: 99111781 99.1118%
BRANCH_DIRECT_JUMP: 108646 0.108646%
BRANCH_INDIRECT: 18082 0.018082%
BRANCH_CONDITIONAL: 544219 0.544219%
BRANCH_DIRECT_CALL: 108525 0.108525%
BRANCH_INDIRECT_CALL: 0 0%
BRANCH_RETURN: 108525 0.108525%
BRANCH_OTHER: 0 0%

DRAM PAGES: 1048576
Allocated PAGES: 6510
