
*** ChampSim Multicore Out-of-Order Simulator ***

Warmup Instructions: 50000000
Simulation Instructions: 100000000
Number of CPUs: 1
LLC sets: 2048
LLC ways: 16
Off-chip DRAM Size: 4096 MB Channels: 1 Width: 64-bit Data Rate: 6400 MT/s
CPU 0 runs ../SPEC2017//607.cactuBSSN_s-4004B.champsimtrace.xz
.xz
BTB has LRU replacement policy
ITLB has LRU replacement policy
DTLB has LRU replacement policy
STLB has LRU replacement policy
L1I has LRU replacement policy
L1D has LRU replacement policy
Bingo PHT WAYS: 16 and PHT_SIZE: 16384
Initialize SRRIP state for L2C
Initialize DRRIP state for LLC
Heartbeat CPU 0 instructions: 10000001 cycles: 3597816 heartbeat IPC: 2.77946 cumulative IPC: 2.77946 (Simulation time: 0 hr 8 min 5 sec) 
Heartbeat CPU 0 instructions: 20000001 cycles: 7195354 heartbeat IPC: 2.77968 cumulative IPC: 2.77957 (Simulation time: 0 hr 15 min 17 sec) 
Heartbeat CPU 0 instructions: 30000003 cycles: 10792542 heartbeat IPC: 2.77995 cumulative IPC: 2.7797 (Simulation time: 0 hr 21 min 32 sec) 
Heartbeat CPU 0 instructions: 40000000 cycles: 14390343 heartbeat IPC: 2.77947 cumulative IPC: 2.77964 (Simulation time: 0 hr 27 min 9 sec) 
Heartbeat CPU 0 instructions: 50000002 cycles: 17986620 heartbeat IPC: 2.78065 cumulative IPC: 2.77984 (Simulation time: 0 hr 32 min 31 sec) 

Warmup complete CPU 0 instructions: 50000002 cycles: 17986620 (Simulation time: 0 hr 32 min 31 sec) 

Heartbeat CPU 0 instructions: 60000002 cycles: 29577169 heartbeat IPC: 0.862772 cumulative IPC: 0.862772 (Simulation time: 0 hr 38 min 3 sec) 
Heartbeat CPU 0 instructions: 70000003 cycles: 41100514 heartbeat IPC: 0.867804 cumulative IPC: 0.86528 (Simulation time: 0 hr 43 min 4 sec) 
Heartbeat CPU 0 instructions: 80000002 cycles: 52846325 heartbeat IPC: 0.851367 cumulative IPC: 0.860592 (Simulation time: 0 hr 47 min 47 sec) 
Heartbeat CPU 0 instructions: 90000003 cycles: 64336529 heartbeat IPC: 0.870307 cumulative IPC: 0.863001 (Simulation time: 0 hr 52 min 20 sec) 
Heartbeat CPU 0 instructions: 100000000 cycles: 75853700 heartbeat IPC: 0.868268 cumulative IPC: 0.864049 (Simulation time: 0 hr 56 min 28 sec) 
Heartbeat CPU 0 instructions: 110000000 cycles: 87382284 heartbeat IPC: 0.867409 cumulative IPC: 0.864607 (Simulation time: 1 hr 0 min 1 sec) 
Heartbeat CPU 0 instructions: 120000001 cycles: 98884974 heartbeat IPC: 0.869362 cumulative IPC: 0.865283 (Simulation time: 1 hr 3 min 23 sec) 
Heartbeat CPU 0 instructions: 130000000 cycles: 110386682 heartbeat IPC: 0.869436 cumulative IPC: 0.8658 (Simulation time: 1 hr 6 min 38 sec) 
Heartbeat CPU 0 instructions: 140000002 cycles: 121928176 heartbeat IPC: 0.866439 cumulative IPC: 0.865871 (Simulation time: 1 hr 9 min 31 sec) 
Heartbeat CPU 0 instructions: 150000002 cycles: 133495341 heartbeat IPC: 0.864516 cumulative IPC: 0.865735 (Simulation time: 1 hr 11 min 55 sec) 
Finished CPU 0 instructions: 100000000 cycles: 115508721 cumulative IPC: 0.865736 (Simulation time: 1 hr 11 min 55 sec) 

ChampSim completed all CPUs

Region of Interest Statistics

CPU 0 cumulative IPC: 0.865736 instructions: 100000000 cycles: 115508721

CPU 0 Average Load ROB stall cycles: 2.54031e+07
CPU 0 Fraction of times ROB stalled by Loads: 33.5254
CPU 0 Percentage of Load stall cycles in Total stall cycles: 4.21072e+08
Issued all: 60095686
Issued LT all: 46898280
rob_not_full_when_issued_lt_all: 33104888
Issued LT one: 40526967
rob_not_full_when_issued_lt_one: 27807254
FVP critical_dynamic_instances_0: 1163391
FVP unique_critical_ips_0: 1339
 Total stall cycles: 92545712
 Total load stall cycles: 389684464713753
Unique Load IPs: 2150
CPU 0 NUM of IPS identified critical: 0
CPU 0 Num of Load IPs stalling ROB: 0
Threshold modification factor: 0
Trouble in retire width: -nan
MaC = Marked as critical.
lt_50_percent_before_Mac: 0
gt_90_percent_before_Mac: 0
gt_75_percent_before_Mac: 0
gt_50_percent_before_Mac: 0
stall_proportion_bin_same_before_after: 0
stall_proportion_bin_lower_before_after: 0
stall_proportion_bin_upper_before_after: 0
average_stall_proportion_before: -nan
average_stall_proportion_after: -nan
Critical IP stalls, total frequency: 0
Non-critical IP stalls, total frequency: 0
Total Freq all stalling IPs: 0
Critical_IP_Detector_Accuracy_70: 0.000746826
Critical_IP_Detector_Accuracy_80: 0.000746826
Critical_IP_Detector_Accuracy_90: 0.000746826
Critical_IP_Detector_Coverage_70: 1
Critical_IP_Detector_Coverage_80: 1
Critical_IP_Detector_Coverage_90: 1
stat_90_percent_critical_ip_stalls_freq: 36349
stat_90_percent_non_critical_ip_stalls_freq: 18446744073709515267
AVERAGE_ROB_Occupancy_90_Percent_Critical_IP_Stalls: 72.0234
AVERAGE_ROB_Occupancy_90_Percent_Non_Critical_IP_Stalls: 2.53818e-11
Critical_IP_ROB_Stalls_Bucket_0: 0
Non-critical_IP_ROB_Stalls_Bucket_0: 2691254
Critical_IP_ROB_Stalls_Bucket_1: 0
Non-critical_IP_ROB_Stalls_Bucket_1: 1150221
Critical_IP_ROB_Stalls_Bucket_2: 0
Non-critical_IP_ROB_Stalls_Bucket_2: 338229
Critical_IP_ROB_Stalls_Bucket_3: 0
Non-critical_IP_ROB_Stalls_Bucket_3: 213131
Critical_IP_ROB_Stalls_Bucket_4: 0
Non-critical_IP_ROB_Stalls_Bucket_4: 118805
Critical_IP_ROB_Stalls_Bucket_5: 0
Non-critical_IP_ROB_Stalls_Bucket_5: 177484
Critical_IP_ROB_Stalls_Bucket_6: 0
Non-critical_IP_ROB_Stalls_Bucket_6: 453688
0 => IPs accounting for >50 percent of stalls, 1 => 55, 2 => 60, 3 => 65 and so on till 90.
percent50: inf num IPs:  1
percent55: inf num IPs: 1
percent60: inf num IPs: 1
percent65: inf num IPs: 1
percent70: inf num IPs: 1
percent75: inf num IPs: 1
percent80: inf num IPs: 1
percent85: inf num IPs: 1
percent90: inf num IPs: 1
Critical_ROB_Stalls_Percent_0_Bucket_0: 10256
Non-critical_ROB_Stalls_Percent_0_Bucket_0: 2680998
Critical_ROB_Stalls_Percent_0_Bucket_1: 26092
Non-critical_ROB_Stalls_Percent_0_Bucket_1: 1124129
Critical_ROB_Stalls_Percent_0_Bucket_2: 0
Non-critical_ROB_Stalls_Percent_0_Bucket_2: 338229
Critical_ROB_Stalls_Percent_0_Bucket_3: 0
Non-critical_ROB_Stalls_Percent_0_Bucket_3: 213131
Critical_ROB_Stalls_Percent_0_Bucket_4: 1
Non-critical_ROB_Stalls_Percent_0_Bucket_4: 118804
Critical_ROB_Stalls_Percent_0_Bucket_5: 0
Non-critical_ROB_Stalls_Percent_0_Bucket_5: 177484
Critical_ROB_Stalls_Percent_0_Bucket_6: 0
Non-critical_ROB_Stalls_Percent_0_Bucket_6: 453688
Critical_ROB_Stalls_Percent_1_Bucket_0: 10256
Non-critical_ROB_Stalls_Percent_1_Bucket_0: 2680998
Critical_ROB_Stalls_Percent_1_Bucket_1: 26092
Non-critical_ROB_Stalls_Percent_1_Bucket_1: 1124129
Critical_ROB_Stalls_Percent_1_Bucket_2: 0
Non-critical_ROB_Stalls_Percent_1_Bucket_2: 338229
Critical_ROB_Stalls_Percent_1_Bucket_3: 0
Non-critical_ROB_Stalls_Percent_1_Bucket_3: 213131
Critical_ROB_Stalls_Percent_1_Bucket_4: 1
Non-critical_ROB_Stalls_Percent_1_Bucket_4: 118804
Critical_ROB_Stalls_Percent_1_Bucket_5: 0
Non-critical_ROB_Stalls_Percent_1_Bucket_5: 177484
Critical_ROB_Stalls_Percent_1_Bucket_6: 0
Non-critical_ROB_Stalls_Percent_1_Bucket_6: 453688
Critical_ROB_Stalls_Percent_2_Bucket_0: 10256
Non-critical_ROB_Stalls_Percent_2_Bucket_0: 2680998
Critical_ROB_Stalls_Percent_2_Bucket_1: 26092
Non-critical_ROB_Stalls_Percent_2_Bucket_1: 1124129
Critical_ROB_Stalls_Percent_2_Bucket_2: 0
Non-critical_ROB_Stalls_Percent_2_Bucket_2: 338229
Critical_ROB_Stalls_Percent_2_Bucket_3: 0
Non-critical_ROB_Stalls_Percent_2_Bucket_3: 213131
Critical_ROB_Stalls_Percent_2_Bucket_4: 1
Non-critical_ROB_Stalls_Percent_2_Bucket_4: 118804
Critical_ROB_Stalls_Percent_2_Bucket_5: 0
Non-critical_ROB_Stalls_Percent_2_Bucket_5: 177484
Critical_ROB_Stalls_Percent_2_Bucket_6: 0
Non-critical_ROB_Stalls_Percent_2_Bucket_6: 453688
Critical_ROB_Stalls_Percent_3_Bucket_0: 10256
Non-critical_ROB_Stalls_Percent_3_Bucket_0: 2680998
Critical_ROB_Stalls_Percent_3_Bucket_1: 26092
Non-critical_ROB_Stalls_Percent_3_Bucket_1: 1124129
Critical_ROB_Stalls_Percent_3_Bucket_2: 0
Non-critical_ROB_Stalls_Percent_3_Bucket_2: 338229
Critical_ROB_Stalls_Percent_3_Bucket_3: 0
Non-critical_ROB_Stalls_Percent_3_Bucket_3: 213131
Critical_ROB_Stalls_Percent_3_Bucket_4: 1
Non-critical_ROB_Stalls_Percent_3_Bucket_4: 118804
Critical_ROB_Stalls_Percent_3_Bucket_5: 0
Non-critical_ROB_Stalls_Percent_3_Bucket_5: 177484
Critical_ROB_Stalls_Percent_3_Bucket_6: 0
Non-critical_ROB_Stalls_Percent_3_Bucket_6: 453688
Critical_ROB_Stalls_Percent_4_Bucket_0: 10256
Non-critical_ROB_Stalls_Percent_4_Bucket_0: 2680998
Critical_ROB_Stalls_Percent_4_Bucket_1: 26092
Non-critical_ROB_Stalls_Percent_4_Bucket_1: 1124129
Critical_ROB_Stalls_Percent_4_Bucket_2: 0
Non-critical_ROB_Stalls_Percent_4_Bucket_2: 338229
Critical_ROB_Stalls_Percent_4_Bucket_3: 0
Non-critical_ROB_Stalls_Percent_4_Bucket_3: 213131
Critical_ROB_Stalls_Percent_4_Bucket_4: 1
Non-critical_ROB_Stalls_Percent_4_Bucket_4: 118804
Critical_ROB_Stalls_Percent_4_Bucket_5: 0
Non-critical_ROB_Stalls_Percent_4_Bucket_5: 177484
Critical_ROB_Stalls_Percent_4_Bucket_6: 0
Non-critical_ROB_Stalls_Percent_4_Bucket_6: 453688
Critical_ROB_Stalls_Percent_5_Bucket_0: 10256
Non-critical_ROB_Stalls_Percent_5_Bucket_0: 2680998
Critical_ROB_Stalls_Percent_5_Bucket_1: 26092
Non-critical_ROB_Stalls_Percent_5_Bucket_1: 1124129
Critical_ROB_Stalls_Percent_5_Bucket_2: 0
Non-critical_ROB_Stalls_Percent_5_Bucket_2: 338229
Critical_ROB_Stalls_Percent_5_Bucket_3: 0
Non-critical_ROB_Stalls_Percent_5_Bucket_3: 213131
Critical_ROB_Stalls_Percent_5_Bucket_4: 1
Non-critical_ROB_Stalls_Percent_5_Bucket_4: 118804
Critical_ROB_Stalls_Percent_5_Bucket_5: 0
Non-critical_ROB_Stalls_Percent_5_Bucket_5: 177484
Critical_ROB_Stalls_Percent_5_Bucket_6: 0
Non-critical_ROB_Stalls_Percent_5_Bucket_6: 453688
Critical_ROB_Stalls_Percent_6_Bucket_0: 10256
Non-critical_ROB_Stalls_Percent_6_Bucket_0: 2680998
Critical_ROB_Stalls_Percent_6_Bucket_1: 26092
Non-critical_ROB_Stalls_Percent_6_Bucket_1: 1124129
Critical_ROB_Stalls_Percent_6_Bucket_2: 0
Non-critical_ROB_Stalls_Percent_6_Bucket_2: 338229
Critical_ROB_Stalls_Percent_6_Bucket_3: 0
Non-critical_ROB_Stalls_Percent_6_Bucket_3: 213131
Critical_ROB_Stalls_Percent_6_Bucket_4: 1
Non-critical_ROB_Stalls_Percent_6_Bucket_4: 118804
Critical_ROB_Stalls_Percent_6_Bucket_5: 0
Non-critical_ROB_Stalls_Percent_6_Bucket_5: 177484
Critical_ROB_Stalls_Percent_6_Bucket_6: 0
Non-critical_ROB_Stalls_Percent_6_Bucket_6: 453688
Critical_ROB_Stalls_Percent_7_Bucket_0: 10256
Non-critical_ROB_Stalls_Percent_7_Bucket_0: 2680998
Critical_ROB_Stalls_Percent_7_Bucket_1: 26092
Non-critical_ROB_Stalls_Percent_7_Bucket_1: 1124129
Critical_ROB_Stalls_Percent_7_Bucket_2: 0
Non-critical_ROB_Stalls_Percent_7_Bucket_2: 338229
Critical_ROB_Stalls_Percent_7_Bucket_3: 0
Non-critical_ROB_Stalls_Percent_7_Bucket_3: 213131
Critical_ROB_Stalls_Percent_7_Bucket_4: 1
Non-critical_ROB_Stalls_Percent_7_Bucket_4: 118804
Critical_ROB_Stalls_Percent_7_Bucket_5: 0
Non-critical_ROB_Stalls_Percent_7_Bucket_5: 177484
Critical_ROB_Stalls_Percent_7_Bucket_6: 0
Non-critical_ROB_Stalls_Percent_7_Bucket_6: 453688
Critical_ROB_Stalls_Percent_8_Bucket_0: 10256
Non-critical_ROB_Stalls_Percent_8_Bucket_0: 2680998
Critical_ROB_Stalls_Percent_8_Bucket_1: 26092
Non-critical_ROB_Stalls_Percent_8_Bucket_1: 1124129
Critical_ROB_Stalls_Percent_8_Bucket_2: 0
Non-critical_ROB_Stalls_Percent_8_Bucket_2: 338229
Critical_ROB_Stalls_Percent_8_Bucket_3: 0
Non-critical_ROB_Stalls_Percent_8_Bucket_3: 213131
Critical_ROB_Stalls_Percent_8_Bucket_4: 1
Non-critical_ROB_Stalls_Percent_8_Bucket_4: 118804
Critical_ROB_Stalls_Percent_8_Bucket_5: 0
Non-critical_ROB_Stalls_Percent_8_Bucket_5: 177484
Critical_ROB_Stalls_Percent_8_Bucket_6: 0
Non-critical_ROB_Stalls_Percent_8_Bucket_6: 453688
Average ROB occupancy Load Stall Begin: 81.2039
Average ROB occupancy Load Stall End: 91.551
Min ROB occupancy Load Stall Begin: 1
Max ROB occupancy Load Stall Begin: 352
Min ROB occupancy Load Stall End: 1
Max ROB occupancy Load Stall End: 352
Average ROB occupancy Critical Load Stall Begin: -nan
Average ROB occupancy Critical Load Stall End: -nan
Min ROB occupancy Critical Load Stall Begin: 400
Max ROB occupancy Critical Load Stall Begin: 0
Min ROB occupancy Critical Load Stall End: 400
Max ROB occupancy Critical Load Stall End: 0
 ROB Load Stall Begin Bucket Count 0: 3141515
 ROB Load Stall End Bucket Count 0: 2691254
 ROB Critical Load Stall Begin Bucket Count 0: 0
 ROB Critical Load Stall End Bucket Count 0: 0
 ROB Load Stall Begin Bucket Count 1: 822349
 ROB Load Stall End Bucket Count 1: 1150221
 ROB Critical Load Stall Begin Bucket Count 1: 0
 ROB Critical Load Stall End Bucket Count 1: 0
 ROB Load Stall Begin Bucket Count 2: 305742
 ROB Load Stall End Bucket Count 2: 338229
 ROB Critical Load Stall Begin Bucket Count 2: 0
 ROB Critical Load Stall End Bucket Count 2: 0
 ROB Load Stall Begin Bucket Count 3: 173557
 ROB Load Stall End Bucket Count 3: 213131
 ROB Critical Load Stall Begin Bucket Count 3: 0
 ROB Critical Load Stall End Bucket Count 3: 0
 ROB Load Stall Begin Bucket Count 4: 107767
 ROB Load Stall End Bucket Count 4: 118805
 ROB Critical Load Stall Begin Bucket Count 4: 0
 ROB Critical Load Stall End Bucket Count 4: 0
 ROB Load Stall Begin Bucket Count 5: 223295
 ROB Load Stall End Bucket Count 5: 177484
 ROB Critical Load Stall Begin Bucket Count 5: 0
 ROB Critical Load Stall End Bucket Count 5: 0
 ROB Load Stall Begin Bucket Count 6: 368587
 ROB Load Stall End Bucket Count 6: 453688
 ROB Critical Load Stall Begin Bucket Count 6: 0
 ROB Critical Load Stall End Bucket Count 6: 0
PIST Tag Read Accesses: 0
PIST Read Accesses: 0
PIST Tag Write Accesses: 0
PIST Write Accesses: 0
Criticality detector called times: 0
Max global_stall_cycles_count: 0
Threshold Modified: 0 times, factor: 0
ITLB TOTAL     ACCESS:   13984886  HIT:   13984886  MISS:          0  HIT %:        100  MISS %:          0   MPKI: 0
ITLB LOAD TRANSLATION ACCESS:   13984886  HIT:   13984886  MISS:          0  HIT %:        100  MISS %:          0   MPKI: 0
ITLB PREFETCH  REQUESTED:          0  ISSUED:          0  USEFUL:          0  USELESS:          0
ITLB USEFUL LOAD PREFETCHES:          0 PREFETCH ISSUED TO LOWER LEVEL:          0  ACCURACY: -nan
ITLB TIMELY PREFETCHES:          0 LATE PREFETCHES: 0 DROPPED PREFETCHES: 0
ITLB PREFETCHES SAME FILL-ORIGIN LEVEL: 0 DIFFERENT FILL-ORIGIN LEVEL: 0
ITLB AVERAGE MISS LATENCY: -nan cycles
ITLB RQ	ACCESS:   16982342	FORWARD:          0	MERGED:    2997456	TO_CACHE:   13984886

DTLB TOTAL     ACCESS:   28282454  HIT:   24416333  MISS:    3866121  HIT %:    86.3303  MISS %:    13.6697   MPKI: 38.6612
DTLB LOAD TRANSLATION ACCESS:   28282454  HIT:   24416333  MISS:    3866121  HIT %:    86.3303  MISS %:    13.6697   MPKI: 38.6612
DTLB PREFETCH  REQUESTED:          0  ISSUED:          0  USEFUL:          0  USELESS:          0
DTLB USEFUL LOAD PREFETCHES:          0 PREFETCH ISSUED TO LOWER LEVEL:          0  ACCURACY: -nan
DTLB TIMELY PREFETCHES:          0 LATE PREFETCHES: 0 DROPPED PREFETCHES: 0
DTLB PREFETCHES SAME FILL-ORIGIN LEVEL: 0 DIFFERENT FILL-ORIGIN LEVEL: 0
DTLB AVERAGE MISS LATENCY: 9.96021 cycles
DTLB RQ	ACCESS:   39578122	FORWARD:          0	MERGED:   10867301	TO_CACHE:   28710821

STLB TOTAL     ACCESS:    3866121  HIT:    3861863  MISS:       4258  HIT %:    99.8899  MISS %:   0.110136   MPKI: 0.04258
STLB LOAD TRANSLATION ACCESS:    3866121  HIT:    3861863  MISS:       4258  HIT %:    99.8899  MISS %:   0.110136   MPKI: 0.04258
STLB PREFETCH  REQUESTED:          0  ISSUED:          0  USEFUL:          0  USELESS:          0
STLB USEFUL LOAD PREFETCHES:          0 PREFETCH ISSUED TO LOWER LEVEL:          0  ACCURACY: -nan
STLB TIMELY PREFETCHES:          0 LATE PREFETCHES: 0 DROPPED PREFETCHES: 0
STLB PREFETCHES SAME FILL-ORIGIN LEVEL: 0 DIFFERENT FILL-ORIGIN LEVEL: 0
STLB AVERAGE MISS LATENCY: 583.205 cycles
STLB RQ	ACCESS:    3866121	FORWARD:          0	MERGED:          0	TO_CACHE:    3866121

STLB Hit, L1D data hit: 0
STLB Hit, L2C data hit: 0
STLB Hit, LLC data hit: 0
STLB Hit, LLC data miss: 0
STLB STLB hints to L2: 0
L1D TOTAL     ACCESS:   39371226  HIT:   32022679  MISS:    7348547  HIT %:    81.3352  MISS %:    18.6648   MPKI: 73.4855
L1D LOAD      ACCESS:   31359057  HIT:   24617053  MISS:    6742004  HIT %:    78.5006  MISS %:    21.4994   MPKI: 67.42
L1D RFO       ACCESS:    8012169  HIT:    7405626  MISS:     606543  HIT %:    92.4297  MISS %:    7.57027   MPKI: 6.06543
L1D PREFETCH  REQUESTED:          0  ISSUED:          0  USEFUL:          0  USELESS:          0
L1D USEFUL LOAD PREFETCHES:          0 PREFETCH ISSUED TO LOWER LEVEL:          0  ACCURACY: -nan
L1D TIMELY PREFETCHES:          0 LATE PREFETCHES: 0 DROPPED PREFETCHES: 0
L1D PREFETCHES SAME FILL-ORIGIN LEVEL: 0 DIFFERENT FILL-ORIGIN LEVEL: 0
L1D AVERAGE MISS LATENCY: 28.4866 cycles
L1D RQ	ACCESS:   38923869	FORWARD:          0	MERGED:    7371477	TO_CACHE:   31526803
L1D WQ	ACCESS:    8105843	FORWARD:      25589	MERGED:      54524	TO_CACHE:    8051319

L1D UNIQUE REGIONS ACCESSED: 0
L1D REGIONS CONFLICTS: 0
L1D Cross Page Prefetch Requests: 0
L1D Same Page Prefetch Requests: 0
L1D ROI Sum of L1D PQ occupancy: 0
L1D PREFETCHES PUSHED FROM L2C: 0
L1I TOTAL     ACCESS:   15656833  HIT:   13056828  MISS:    2600005  HIT %:    83.3938  MISS %:    16.6062   MPKI: 26.0001
L1I LOAD      ACCESS:   15656833  HIT:   13056828  MISS:    2600005  HIT %:    83.3938  MISS %:    16.6062   MPKI: 26.0001
L1I PREFETCH  REQUESTED:          0  ISSUED:          0  USEFUL:          0  USELESS:          0
L1I USEFUL LOAD PREFETCHES:          0 PREFETCH ISSUED TO LOWER LEVEL:          0  ACCURACY: -nan
L1I TIMELY PREFETCHES:          0 LATE PREFETCHES: 0 DROPPED PREFETCHES: 0
L1I PREFETCHES SAME FILL-ORIGIN LEVEL: 0 DIFFERENT FILL-ORIGIN LEVEL: 0
L1I AVERAGE MISS LATENCY: 14.072 cycles
L1I RQ	ACCESS:   23848555	FORWARD:          0	MERGED:    6866213	TO_CACHE:   16982342

BTB TOTAL     ACCESS:     563528  HIT:     527153  MISS:      36375  HIT %:    93.5451  MISS %:    6.45487   MPKI: 0.36375
BTB BRANCH_DIRECT_JUMP	ACCESS:     109049  HIT:     109044  MISS:          5
BTB BRANCH_INDIRECT	ACCESS:      18175  HIT:      18174  MISS:          1
BTB BRANCH_CONDITIONAL	ACCESS:     218208  HIT:     218196  MISS:         12
BTB BRANCH_DIRECT_CALL	ACCESS:     109048  HIT:     109043  MISS:          5
BTB BRANCH_INDIRECT_CALL	ACCESS:          0  HIT:          0  MISS:          0
BTB BRANCH_RETURN	ACCESS:     109048  HIT:      72696  MISS:      36352
BTB BRANCH_OTHER ACCESS:          0  HIT:          0  MISS:          0

L2C TOTAL     ACCESS:   10705873  HIT:   10171068  MISS:     534805  HIT %:    95.0046  MISS %:    4.99544   MPKI: 5.34805
L2C LOAD      ACCESS:    9341218  HIT:    8909540  MISS:     431678  HIT %:    95.3788  MISS %:    4.62122   MPKI: 4.31678
L2C DATA LOAD MPKI: 4.30858
L2C INSTRUCTION LOAD MPKI: 0.0082
L2C RFO       ACCESS:     606390  HIT:     547540  MISS:      58850  HIT %:     90.295  MISS %:    9.70498   MPKI: 0.5885
L2C PREFETCH  ACCESS:     103332  HIT:      66339  MISS:      36993  HIT %:    64.1999  MISS %:    35.8001   MPKI: 0.36993
L2C DATA PREFETCH MPKI: 0.36993
L2C INSTRUCTION PREFETCH MPKI: 0
L2C WRITEBACK ACCESS:     648534  HIT:     647466  MISS:       1068  HIT %:    99.8353  MISS %:   0.164679   MPKI: 0.01068
L2C LOAD TRANSLATION ACCESS:       6399  HIT:        183  MISS:       6216  HIT %:    2.85982  MISS %:    97.1402   MPKI: 0.06216
L2C PREFETCH  REQUESTED:     103582  ISSUED:     103582  USEFUL:      30172  USELESS:       6827
L2C USEFUL LOAD PREFETCHES:      30172 PREFETCH ISSUED TO LOWER LEVEL:      37089  ACCURACY: 81.3503
L2C TIMELY PREFETCHES:      30172 LATE PREFETCHES: 96 DROPPED PREFETCHES: 0
L2C PREFETCHES SAME FILL-ORIGIN LEVEL: 37089 DIFFERENT FILL-ORIGIN LEVEL: 0
L2C AVERAGE MISS LATENCY: 187.487 cycles
L2C RQ	ACCESS:    9954950	FORWARD:          0	MERGED:          0	TO_CACHE:    9954007
L2C WQ	ACCESS:     648534	FORWARD:        943	MERGED:          0	TO_CACHE:     648534
L2C PQ	ACCESS:     103582	FORWARD:          0	MERGED:          0	TO_CACHE:     103582

L2C Instructions Evicting Data 748
L2C Translations Evicting Data 6168
L2C Data Evicting Data 519806
L2C Instructions Evicting Instructions 65
L2C Translations Evicting Instructions 5
L2C Data Evicting Instructions 740
L2C Instructions Evicting Translations 7
L2C Translations Evicting Translations 43
L2C Data Evicting Translations 6155
L2C Dense regions hint from L2: 0
PSCL5 TOTAL     ACCESS:       4258  HIT:       4258  MISS:          0  HIT %:        100  MISS %:          0   MPKI: 0
PSCL5 LOAD TRANSLATION ACCESS:       4258  HIT:       4258  MISS:          0  HIT %:        100  MISS %:          0   MPKI: 0
PSCL5 PREFETCH  REQUESTED:          0  ISSUED:          0  USEFUL:          0  USELESS:          0
PSCL5 USEFUL LOAD PREFETCHES:          0 PREFETCH ISSUED TO LOWER LEVEL:          0  ACCURACY: -nan
PSCL5 TIMELY PREFETCHES:          0 LATE PREFETCHES: 0 DROPPED PREFETCHES: 0
PSCL5 PREFETCHES SAME FILL-ORIGIN LEVEL: 0 DIFFERENT FILL-ORIGIN LEVEL: 0

PSCL4 TOTAL     ACCESS:       4258  HIT:       4258  MISS:          0  HIT %:        100  MISS %:          0   MPKI: 0
PSCL4 LOAD TRANSLATION ACCESS:       4258  HIT:       4258  MISS:          0  HIT %:        100  MISS %:          0   MPKI: 0
PSCL4 PREFETCH  REQUESTED:          0  ISSUED:          0  USEFUL:          0  USELESS:          0
PSCL4 USEFUL LOAD PREFETCHES:          0 PREFETCH ISSUED TO LOWER LEVEL:          0  ACCURACY: -nan
PSCL4 TIMELY PREFETCHES:          0 LATE PREFETCHES: 0 DROPPED PREFETCHES: 0
PSCL4 PREFETCHES SAME FILL-ORIGIN LEVEL: 0 DIFFERENT FILL-ORIGIN LEVEL: 0

PSCL3 TOTAL     ACCESS:       4258  HIT:       4258  MISS:          0  HIT %:        100  MISS %:          0   MPKI: 0
PSCL3 LOAD TRANSLATION ACCESS:       4258  HIT:       4258  MISS:          0  HIT %:        100  MISS %:          0   MPKI: 0
PSCL3 PREFETCH  REQUESTED:          0  ISSUED:          0  USEFUL:          0  USELESS:          0
PSCL3 USEFUL LOAD PREFETCHES:          0 PREFETCH ISSUED TO LOWER LEVEL:          0  ACCURACY: -nan
PSCL3 TIMELY PREFETCHES:          0 LATE PREFETCHES: 0 DROPPED PREFETCHES: 0
PSCL3 PREFETCHES SAME FILL-ORIGIN LEVEL: 0 DIFFERENT FILL-ORIGIN LEVEL: 0

PSCL2 TOTAL     ACCESS:       4258  HIT:       2112  MISS:       2146  HIT %:    49.6008  MISS %:    50.3992   MPKI: 0.02146
PSCL2 LOAD TRANSLATION ACCESS:       4258  HIT:       2112  MISS:       2146  HIT %:    49.6008  MISS %:    50.3992   MPKI: 0.02146
PSCL2 PREFETCH  REQUESTED:          0  ISSUED:          0  USEFUL:          0  USELESS:          0
PSCL2 USEFUL LOAD PREFETCHES:          0 PREFETCH ISSUED TO LOWER LEVEL:          0  ACCURACY: -nan
PSCL2 TIMELY PREFETCHES:          0 LATE PREFETCHES: 0 DROPPED PREFETCHES: 0
PSCL2 PREFETCHES SAME FILL-ORIGIN LEVEL: 0 DIFFERENT FILL-ORIGIN LEVEL: 0

LLC TOTAL     ACCESS:     592548  HIT:     319714  MISS:     272834  HIT %:    53.9558  MISS %:    46.0442   MPKI: 2.72834
LLC LOAD      ACCESS:     431582  HIT:     238483  MISS:     193099  HIT %:    55.2579  MISS %:    44.7421   MPKI: 1.93099
LLC RFO       ACCESS:      58850  HIT:          0  MISS:      58850  HIT %:          0  MISS %:        100   MPKI: 0.5885
LLC PREFETCH  ACCESS:      37089  HIT:      17808  MISS:      19281  HIT %:    48.0142  MISS %:    51.9858   MPKI: 0.19281
LLC WRITEBACK ACCESS:      58811  HIT:      57807  MISS:       1004  HIT %:    98.2928  MISS %:    1.70716   MPKI: 0.01004
LLC LOAD TRANSLATION ACCESS:       6216  HIT:       5616  MISS:        600  HIT %:    90.3475  MISS %:    9.65251   MPKI: 0.006
LLC PREFETCH  REQUESTED:          0  ISSUED:          0  USEFUL:      12980  USELESS:       6544
LLC USEFUL LOAD PREFETCHES:      12980 PREFETCH ISSUED TO LOWER LEVEL:      19281  ACCURACY: 67.3202
LLC TIMELY PREFETCHES:      12980 LATE PREFETCHES: 0 DROPPED PREFETCHES: 0
LLC PREFETCHES SAME FILL-ORIGIN LEVEL: 0 DIFFERENT FILL-ORIGIN LEVEL: 0
LLC AVERAGE MISS LATENCY: 307.602 cycles
LLC RQ	ACCESS:     496648	FORWARD:          0	MERGED:          0	TO_CACHE:     496648
LLC WQ	ACCESS:      58811	FORWARD:          0	MERGED:          0	TO_CACHE:      58811
LLC PQ	ACCESS:      37089	FORWARD:          0	MERGED:          0	TO_CACHE:      37089

LLC Dense regions hint to LLC: 0

RAW hits: 262155
Loads Generated: 39186024
Loads sent to L1D: 38923869
Stores Generated: 8106290
Stores sent to L1D: 8106279
Major fault: 0 Minor fault: 6506
Allocated PAGES: 6506
[Bingo] PHT Access: 42517
[Bingo] PHT Hit PC+Addr: 397
[Bingo] PHT Hit PC+Offs: 30021
[Bingo] PHT Miss: 12099
[Bingo] Prefetch PC+Addr: 0
[Bingo] Prefetch PC+Offs: 0
[Bingo] Useful PC+Addr: 0
[Bingo] Useful PC+Offs: 0
[Bingo] Useless PC+Addr: 0
[Bingo] Useless PC+Offs: 0
[Bingo] L1 Prefetch per Region: 0
[Bingo] L2 Prefetch per Region: 4.44641
[Bingo] L3 Prefetch per Region: 0
[Bingo] No Prefetch per Region: 27.5536
[Bingo] Number of Voters Mean: 5.15096
[Bingo] Number of Voters SD: 4.39387
PHT read accesses: 501436
PHT write accesses: 14002
AT read accesses: 100755
AT write accesses: 100751
FT read accesses: 120394
FT write accesses: 42517
PS read accesses: 61415
PS write accesses: 30418
PHT tag read accesses: 1080020
PHT tag write accesses: 14399
AT tag read accesses: 11519958
AT tag write accesses: 114753
FT tag read accesses: 11003337
FT tag write accesses: 123929
PS tag read accesses: 3493280
PS tag write accesses: 91621

DRAM Statistics
 CHANNEL 0
 RQ ROW_BUFFER_HIT:     143831  ROW_BUFFER_MISS:     127999
 DBUS_CONGESTED:        121
 WQ ROW_BUFFER_HIT:      16948  ROW_BUFFER_MISS:      41743  FULL:          0

 AVG_CONGESTED_CYCLE: 5
 All warmup complete: 2
Channel 0 Bank busy for read cycles: 0
Channel 0 Bank busy for write cycles: 0
Channel 0
Rank 0
0banks busy for read cycles: 91444301
0banks busy for write cycles: 26480
1banks busy for read cycles: 12014242
1banks busy for write cycles: 4204552
2banks busy for read cycles: 2620779
2banks busy for write cycles: 1265517
3banks busy for read cycles: 1347537
3banks busy for write cycles: 958175
4banks busy for read cycles: 363741
4banks busy for write cycles: 269305
5banks busy for read cycles: 298857
5banks busy for write cycles: 173977
6banks busy for read cycles: 188755
6banks busy for write cycles: 132978
7banks busy for read cycles: 94094
7banks busy for write cycles: 57558
8banks busy for read cycles: 44201
8banks busy for write cycles: 3673

CPU 0 Branch Prediction Accuracy: 99.9874% MPKI: 0.00112 Average ROB Occupancy at Mispredict: 38.1161
Branch types
NOT_BRANCH: 99108924 99.1089%
BRANCH_DIRECT_JUMP: 109049 0.109049%
BRANCH_INDIRECT: 18175 0.018175%
BRANCH_CONDITIONAL: 545463 0.545463%
BRANCH_DIRECT_CALL: 109048 0.109048%
BRANCH_INDIRECT_CALL: 0 0%
BRANCH_RETURN: 109048 0.109048%
BRANCH_OTHER: 0 0%

DRAM PAGES: 1048576
Allocated PAGES: 6506
