
*** ChampSim Multicore Out-of-Order Simulator ***

Warmup Instructions: 50000000
Simulation Instructions: 100000000
Number of CPUs: 1
LLC sets: 2048
LLC ways: 16
Off-chip DRAM Size: 4096 MB Channels: 1 Width: 64-bit Data Rate: 6400 MT/s
CPU 0 runs ../SPEC2017//607.cactuBSSN_s-2421B.champsimtrace.xz
.xz
NUM_OF_IPS_IN_CRITICAL_IP_TRAINING: 64
NUM_OF_CRITICAL_IP_TRAINING_TABLE_WAYS: 2
NUM_OF_CRITICAL_IP_TRAINING_TABLE_SETS: 32
WOBBLY_CRITICAL_IP_CACHE_SETS: 32
WOBBLY_CRITICAL_IP_CACHE_WAYS: 4
BTB has LRU replacement policy
ITLB has LRU replacement policy
DTLB has LRU replacement policy
STLB has LRU replacement policy
L1I has LRU replacement policy
L1D has LRU replacement policy
Bingo PHT WAYS: 16 and PHT_SIZE: 16384
Initialize SRRIP state for L2C
Initialize DRRIP state for LLC
Heartbeat CPU 0 instructions: 10000002 cycles: 3587818 heartbeat IPC: 2.78721 cumulative IPC: 2.78721 (Simulation time: 0 hr 6 min 4 sec) 
Heartbeat CPU 0 instructions: 20000001 cycles: 7171976 heartbeat IPC: 2.79006 cumulative IPC: 2.78863 (Simulation time: 0 hr 11 min 26 sec) 
Heartbeat CPU 0 instructions: 30000002 cycles: 10759505 heartbeat IPC: 2.78743 cumulative IPC: 2.78823 (Simulation time: 0 hr 16 min 15 sec) 
Heartbeat CPU 0 instructions: 40000003 cycles: 14346498 heartbeat IPC: 2.78785 cumulative IPC: 2.78814 (Simulation time: 0 hr 20 min 36 sec) 
Heartbeat CPU 0 instructions: 50000003 cycles: 17932661 heartbeat IPC: 2.7885 cumulative IPC: 2.78821 (Simulation time: 0 hr 24 min 36 sec) 

Warmup complete CPU 0 instructions: 50000003 cycles: 17932661 (Simulation time: 0 hr 24 min 36 sec) 

Heartbeat CPU 0 instructions: 60000003 cycles: 30755001 heartbeat IPC: 0.779889 cumulative IPC: 0.779889 (Simulation time: 0 hr 28 min 55 sec) 
Heartbeat CPU 0 instructions: 70000000 cycles: 43296664 heartbeat IPC: 0.797342 cumulative IPC: 0.788519 (Simulation time: 0 hr 32 min 46 sec) 
Heartbeat CPU 0 instructions: 80000001 cycles: 55886200 heartbeat IPC: 0.794311 cumulative IPC: 0.79044 (Simulation time: 0 hr 36 min 27 sec) 
Heartbeat CPU 0 instructions: 90000000 cycles: 68453418 heartbeat IPC: 0.795721 cumulative IPC: 0.791754 (Simulation time: 0 hr 39 min 58 sec) 
Heartbeat CPU 0 instructions: 100000000 cycles: 80983866 heartbeat IPC: 0.798056 cumulative IPC: 0.793006 (Simulation time: 0 hr 43 min 1 sec) 
Heartbeat CPU 0 instructions: 110000000 cycles: 93524903 heartbeat IPC: 0.797382 cumulative IPC: 0.793732 (Simulation time: 0 hr 45 min 42 sec) 
Heartbeat CPU 0 instructions: 120000000 cycles: 106016238 heartbeat IPC: 0.800555 cumulative IPC: 0.7947 (Simulation time: 0 hr 48 min 17 sec) 
Heartbeat CPU 0 instructions: 130000002 cycles: 118569505 heartbeat IPC: 0.796606 cumulative IPC: 0.794937 (Simulation time: 0 hr 50 min 44 sec) 
Heartbeat CPU 0 instructions: 140000002 cycles: 131159736 heartbeat IPC: 0.794267 cumulative IPC: 0.794863 (Simulation time: 0 hr 55 min 22 sec) 
Heartbeat CPU 0 instructions: 150000001 cycles: 143801816 heartbeat IPC: 0.791009 cumulative IPC: 0.794476 (Simulation time: 0 hr 59 min 14 sec) 
Finished CPU 0 instructions: 100000002 cycles: 125869162 cumulative IPC: 0.794476 (Simulation time: 0 hr 59 min 14 sec) 

ChampSim completed all CPUs

Region of Interest Statistics

CPU 0 cumulative IPC: 0.794476 instructions: 100000002 cycles: 125869162

CPU 0 Average Load ROB stall cycles: 2.29464e+07
CPU 0 Fraction of times ROB stalled by Loads: 28.3769
CPU 0 Percentage of Load stall cycles in Total stall cycles: 3.83321e+08
Issued all: 81120766
Issued LT all: 67664962
rob_not_full_when_issued_lt_all: 38320401
Issued LT one: 59900624
rob_not_full_when_issued_lt_one: 32347230
 Total stall cycles: 103984542
 Total load stall cycles: 398594073909685
CPU 0 NUM of IPS identified critical: 0
CPU 0 Num of Load IPs stalling ROB: 3895
Threshold modification factor: 0
Max PIST entries: 64
Min PIST entries: 0
Avg PIST entries: 42.6667
Trouble in retire width: 0.968056
MaC = Marked as critical.
lt_50_percent_before_Mac: 0
gt_90_percent_before_Mac: 0
gt_75_percent_before_Mac: 0
gt_50_percent_before_Mac: 0
stall_proportion_bin_same_before_after: 0
stall_proportion_bin_lower_before_after: 0
stall_proportion_bin_upper_before_after: 0
average_stall_proportion_before: -nan
average_stall_proportion_after: -nan
Critical IP stalls, total frequency: 0
Non-critical IP stalls, total frequency: 4929249
Total Freq all stalling IPs: 4929249
stat_90_percent_critical_ip_stalls_freq: 4438934
stat_90_percent_non_critical_ip_stalls_freq: 490315
Critical_IP_ROB_Stalls_Bucket_0: 0
Non-critical_IP_ROB_Stalls_Bucket_0: 3622710
Critical_IP_ROB_Stalls_Bucket_1: 0
Non-critical_IP_ROB_Stalls_Bucket_1: 748056
Critical_IP_ROB_Stalls_Bucket_2: 0
Non-critical_IP_ROB_Stalls_Bucket_2: 92097
Critical_IP_ROB_Stalls_Bucket_3: 0
Non-critical_IP_ROB_Stalls_Bucket_3: 32286
Critical_IP_ROB_Stalls_Bucket_4: 0
Non-critical_IP_ROB_Stalls_Bucket_4: 22472
Critical_IP_ROB_Stalls_Bucket_5: 0
Non-critical_IP_ROB_Stalls_Bucket_5: 35511
Critical_IP_ROB_Stalls_Bucket_6: 0
Non-critical_IP_ROB_Stalls_Bucket_6: 376117
0 => IPs accounting for >50 percent of stalls, 1 => 55, 2 => 60, 3 => 65 and so on till 90.
percent50: 50.1763 num IPs:  125
percent55: 55.1133 num IPs: 140
percent60: 60.1098 num IPs: 156
percent65: 65.0346 num IPs: 173
percent70: 70.1119 num IPs: 193
percent75: 75.1996 num IPs: 216
percent80: 80.084 num IPs: 242
percent85: 85.112 num IPs: 276
percent90: 90.0529 num IPs: 335
Critical_ROB_Stalls_Percent_0_Bucket_0: 1968001
Non-critical_ROB_Stalls_Percent_0_Bucket_0: 1654709
Critical_ROB_Stalls_Percent_0_Bucket_1: 363002
Non-critical_ROB_Stalls_Percent_0_Bucket_1: 385054
Critical_ROB_Stalls_Percent_0_Bucket_2: 32390
Non-critical_ROB_Stalls_Percent_0_Bucket_2: 59707
Critical_ROB_Stalls_Percent_0_Bucket_3: 5353
Non-critical_ROB_Stalls_Percent_0_Bucket_3: 26933
Critical_ROB_Stalls_Percent_0_Bucket_4: 3973
Non-critical_ROB_Stalls_Percent_0_Bucket_4: 18499
Critical_ROB_Stalls_Percent_0_Bucket_5: 6139
Non-critical_ROB_Stalls_Percent_0_Bucket_5: 29372
Critical_ROB_Stalls_Percent_0_Bucket_6: 94455
Non-critical_ROB_Stalls_Percent_0_Bucket_6: 281662
Critical_ROB_Stalls_Percent_1_Bucket_0: 2189588
Non-critical_ROB_Stalls_Percent_1_Bucket_0: 1433122
Critical_ROB_Stalls_Percent_1_Bucket_1: 374443
Non-critical_ROB_Stalls_Percent_1_Bucket_1: 373613
Critical_ROB_Stalls_Percent_1_Bucket_2: 32771
Non-critical_ROB_Stalls_Percent_1_Bucket_2: 59326
Critical_ROB_Stalls_Percent_1_Bucket_3: 5883
Non-critical_ROB_Stalls_Percent_1_Bucket_3: 26403
Critical_ROB_Stalls_Percent_1_Bucket_4: 4607
Non-critical_ROB_Stalls_Percent_1_Bucket_4: 17865
Critical_ROB_Stalls_Percent_1_Bucket_5: 8058
Non-critical_ROB_Stalls_Percent_1_Bucket_5: 27453
Critical_ROB_Stalls_Percent_1_Bucket_6: 101321
Non-critical_ROB_Stalls_Percent_1_Bucket_6: 274796
Critical_ROB_Stalls_Percent_2_Bucket_0: 2385306
Non-critical_ROB_Stalls_Percent_2_Bucket_0: 1237404
Critical_ROB_Stalls_Percent_2_Bucket_1: 397792
Non-critical_ROB_Stalls_Percent_2_Bucket_1: 350264
Critical_ROB_Stalls_Percent_2_Bucket_2: 34574
Non-critical_ROB_Stalls_Percent_2_Bucket_2: 57523
Critical_ROB_Stalls_Percent_2_Bucket_3: 7065
Non-critical_ROB_Stalls_Percent_2_Bucket_3: 25221
Critical_ROB_Stalls_Percent_2_Bucket_4: 5841
Non-critical_ROB_Stalls_Percent_2_Bucket_4: 16631
Critical_ROB_Stalls_Percent_2_Bucket_5: 9333
Non-critical_ROB_Stalls_Percent_2_Bucket_5: 26178
Critical_ROB_Stalls_Percent_2_Bucket_6: 123050
Non-critical_ROB_Stalls_Percent_2_Bucket_6: 253067
Critical_ROB_Stalls_Percent_3_Bucket_0: 2572594
Non-critical_ROB_Stalls_Percent_3_Bucket_0: 1050116
Critical_ROB_Stalls_Percent_3_Bucket_1: 416491
Non-critical_ROB_Stalls_Percent_3_Bucket_1: 331565
Critical_ROB_Stalls_Percent_3_Bucket_2: 49711
Non-critical_ROB_Stalls_Percent_3_Bucket_2: 42386
Critical_ROB_Stalls_Percent_3_Bucket_3: 7766
Non-critical_ROB_Stalls_Percent_3_Bucket_3: 24520
Critical_ROB_Stalls_Percent_3_Bucket_4: 6420
Non-critical_ROB_Stalls_Percent_3_Bucket_4: 16052
Critical_ROB_Stalls_Percent_3_Bucket_5: 10036
Non-critical_ROB_Stalls_Percent_3_Bucket_5: 25475
Critical_ROB_Stalls_Percent_3_Bucket_6: 142699
Non-critical_ROB_Stalls_Percent_3_Bucket_6: 233418
Critical_ROB_Stalls_Percent_4_Bucket_0: 2800991
Non-critical_ROB_Stalls_Percent_4_Bucket_0: 821719
Critical_ROB_Stalls_Percent_4_Bucket_1: 427046
Non-critical_ROB_Stalls_Percent_4_Bucket_1: 321010
Critical_ROB_Stalls_Percent_4_Bucket_2: 49945
Non-critical_ROB_Stalls_Percent_4_Bucket_2: 42152
Critical_ROB_Stalls_Percent_4_Bucket_3: 8114
Non-critical_ROB_Stalls_Percent_4_Bucket_3: 24172
Critical_ROB_Stalls_Percent_4_Bucket_4: 7044
Non-critical_ROB_Stalls_Percent_4_Bucket_4: 15428
Critical_ROB_Stalls_Percent_4_Bucket_5: 11408
Non-critical_ROB_Stalls_Percent_4_Bucket_5: 24103
Critical_ROB_Stalls_Percent_4_Bucket_6: 151444
Non-critical_ROB_Stalls_Percent_4_Bucket_6: 224673
Critical_ROB_Stalls_Percent_5_Bucket_0: 3027255
Non-critical_ROB_Stalls_Percent_5_Bucket_0: 595455
Critical_ROB_Stalls_Percent_5_Bucket_1: 436185
Non-critical_ROB_Stalls_Percent_5_Bucket_1: 311871
Critical_ROB_Stalls_Percent_5_Bucket_2: 50763
Non-critical_ROB_Stalls_Percent_5_Bucket_2: 41334
Critical_ROB_Stalls_Percent_5_Bucket_3: 11215
Non-critical_ROB_Stalls_Percent_5_Bucket_3: 21071
Critical_ROB_Stalls_Percent_5_Bucket_4: 8378
Non-critical_ROB_Stalls_Percent_5_Bucket_4: 14094
Critical_ROB_Stalls_Percent_5_Bucket_5: 13529
Non-critical_ROB_Stalls_Percent_5_Bucket_5: 21982
Critical_ROB_Stalls_Percent_5_Bucket_6: 159452
Non-critical_ROB_Stalls_Percent_5_Bucket_6: 216665
Critical_ROB_Stalls_Percent_6_Bucket_0: 3184138
Non-critical_ROB_Stalls_Percent_6_Bucket_0: 438572
Critical_ROB_Stalls_Percent_6_Bucket_1: 472799
Non-critical_ROB_Stalls_Percent_6_Bucket_1: 275257
Critical_ROB_Stalls_Percent_6_Bucket_2: 53812
Non-critical_ROB_Stalls_Percent_6_Bucket_2: 38285
Critical_ROB_Stalls_Percent_6_Bucket_3: 14978
Non-critical_ROB_Stalls_Percent_6_Bucket_3: 17308
Critical_ROB_Stalls_Percent_6_Bucket_4: 14157
Non-critical_ROB_Stalls_Percent_6_Bucket_4: 8315
Critical_ROB_Stalls_Percent_6_Bucket_5: 18425
Non-critical_ROB_Stalls_Percent_6_Bucket_5: 17086
Critical_ROB_Stalls_Percent_6_Bucket_6: 189229
Non-critical_ROB_Stalls_Percent_6_Bucket_6: 186888
Critical_ROB_Stalls_Percent_7_Bucket_0: 3361816
Non-critical_ROB_Stalls_Percent_7_Bucket_0: 260894
Critical_ROB_Stalls_Percent_7_Bucket_1: 509512
Non-critical_ROB_Stalls_Percent_7_Bucket_1: 238544
Critical_ROB_Stalls_Percent_7_Bucket_2: 63229
Non-critical_ROB_Stalls_Percent_7_Bucket_2: 28868
Critical_ROB_Stalls_Percent_7_Bucket_3: 17450
Non-critical_ROB_Stalls_Percent_7_Bucket_3: 14836
Critical_ROB_Stalls_Percent_7_Bucket_4: 15419
Non-critical_ROB_Stalls_Percent_7_Bucket_4: 7053
Critical_ROB_Stalls_Percent_7_Bucket_5: 23096
Non-critical_ROB_Stalls_Percent_7_Bucket_5: 12415
Critical_ROB_Stalls_Percent_7_Bucket_6: 204862
Non-critical_ROB_Stalls_Percent_7_Bucket_6: 171255
Critical_ROB_Stalls_Percent_8_Bucket_0: 3464632
Non-critical_ROB_Stalls_Percent_8_Bucket_0: 158078
Critical_ROB_Stalls_Percent_8_Bucket_1: 572217
Non-critical_ROB_Stalls_Percent_8_Bucket_1: 175839
Critical_ROB_Stalls_Percent_8_Bucket_2: 68822
Non-critical_ROB_Stalls_Percent_8_Bucket_2: 23275
Critical_ROB_Stalls_Percent_8_Bucket_3: 19741
Non-critical_ROB_Stalls_Percent_8_Bucket_3: 12545
Critical_ROB_Stalls_Percent_8_Bucket_4: 15721
Non-critical_ROB_Stalls_Percent_8_Bucket_4: 6751
Critical_ROB_Stalls_Percent_8_Bucket_5: 26128
Non-critical_ROB_Stalls_Percent_8_Bucket_5: 9383
Critical_ROB_Stalls_Percent_8_Bucket_6: 271673
Non-critical_ROB_Stalls_Percent_8_Bucket_6: 104444
Average ROB occupancy Load Stall Begin: 59.3703
Average ROB occupancy Load Stall End: 68.3098
Min ROB occupancy Load Stall Begin: 1
Max ROB occupancy Load Stall Begin: 352
Min ROB occupancy Load Stall End: 1
Max ROB occupancy Load Stall End: 352
Average ROB occupancy Critical Load Stall Begin: -nan
Average ROB occupancy Critical Load Stall End: -nan
Min ROB occupancy Critical Load Stall Begin: 400
Max ROB occupancy Critical Load Stall Begin: 0
Min ROB occupancy Critical Load Stall End: 400
Max ROB occupancy Critical Load Stall End: 0
 ROB Load Stall Begin Bucket Count 0: 4092950
 ROB Load Stall End Bucket Count 0: 3622710
 ROB Critical Load Stall Begin Bucket Count 0: 0
 ROB Critical Load Stall End Bucket Count 0: 0
 ROB Load Stall Begin Bucket Count 1: 327581
 ROB Load Stall End Bucket Count 1: 748056
 ROB Critical Load Stall Begin Bucket Count 1: 0
 ROB Critical Load Stall End Bucket Count 1: 0
 ROB Load Stall Begin Bucket Count 2: 67301
 ROB Load Stall End Bucket Count 2: 92097
 ROB Critical Load Stall Begin Bucket Count 2: 0
 ROB Critical Load Stall End Bucket Count 2: 0
 ROB Load Stall Begin Bucket Count 3: 31233
 ROB Load Stall End Bucket Count 3: 32286
 ROB Critical Load Stall Begin Bucket Count 3: 0
 ROB Critical Load Stall End Bucket Count 3: 0
 ROB Load Stall Begin Bucket Count 4: 18174
 ROB Load Stall End Bucket Count 4: 22472
 ROB Critical Load Stall Begin Bucket Count 4: 0
 ROB Critical Load Stall End Bucket Count 4: 0
 ROB Load Stall Begin Bucket Count 5: 73230
 ROB Load Stall End Bucket Count 5: 35511
 ROB Critical Load Stall Begin Bucket Count 5: 0
 ROB Critical Load Stall End Bucket Count 5: 0
 ROB Load Stall Begin Bucket Count 6: 318780
 ROB Load Stall End Bucket Count 6: 376117
 ROB Critical Load Stall Begin Bucket Count 6: 0
 ROB Critical Load Stall End Bucket Count 6: 0
PIST Tag Read Accesses: 2541338
PIST Read Accesses: 1270669
PIST Tag Write Accesses: 2541338
PIST Write Accesses: 1270669
Criticality detector called times: 4929166
Max global_stall_cycles_count: 4247219
Threshold Modified: 0 times, factor: 0
Sturdy critical IP cache stats: 
 Unused entries: 0
CIC Tag Read Accesses: 0
CIC Read Accesses: 0
CIC Tag Write Accesses: 0
CIC Write Accesses: 0
Wobbly critical IP cache stats: 
 Unused entries: 126
CIC Tag Read Accesses: 293695832
CIC Read Accesses: 0
CIC Tag Write Accesses: 2
CIC Write Accesses: 0
ITLB TOTAL     ACCESS:   13381670  HIT:   13381620  MISS:         50  HIT %:    99.9996  MISS %: 0.000373645   MPKI: 0.0005
ITLB LOAD TRANSLATION ACCESS:   13381670  HIT:   13381620  MISS:         50  HIT %:    99.9996  MISS %: 0.000373645   MPKI: 0.0005
ITLB PREFETCH  REQUESTED:          0  ISSUED:          0  USEFUL:          0  USELESS:          0
ITLB USEFUL LOAD PREFETCHES:          0 PREFETCH ISSUED TO LOWER LEVEL:          0  ACCURACY: -nan
ITLB TIMELY PREFETCHES:          0 LATE PREFETCHES: 0 DROPPED PREFETCHES: 0
ITLB PREFETCHES SAME FILL-ORIGIN LEVEL: 0 DIFFERENT FILL-ORIGIN LEVEL: 0
ITLB AVERAGE MISS LATENCY: 377.28 cycles
ITLB RQ	ACCESS:   17526824	FORWARD:          0	MERGED:    4145146	TO_CACHE:   13381678

DTLB TOTAL     ACCESS:   20986536  HIT:   13521952  MISS:    7464584  HIT %:    64.4316  MISS %:    35.5684   MPKI: 74.6458
DTLB LOAD TRANSLATION ACCESS:   20986536  HIT:   13521952  MISS:    7464584  HIT %:    64.4316  MISS %:    35.5684   MPKI: 74.6458
DTLB PREFETCH  REQUESTED:          0  ISSUED:          0  USEFUL:          0  USELESS:          0
DTLB USEFUL LOAD PREFETCHES:          0 PREFETCH ISSUED TO LOWER LEVEL:          0  ACCURACY: -nan
DTLB TIMELY PREFETCHES:          0 LATE PREFETCHES: 0 DROPPED PREFETCHES: 0
DTLB PREFETCHES SAME FILL-ORIGIN LEVEL: 0 DIFFERENT FILL-ORIGIN LEVEL: 0
DTLB AVERAGE MISS LATENCY: 10.0558 cycles
DTLB RQ	ACCESS:   29227312	FORWARD:          0	MERGED:    7714649	TO_CACHE:   21512663

STLB TOTAL     ACCESS:    7464634  HIT:    7452260  MISS:      12374  HIT %:    99.8342  MISS %:   0.165768   MPKI: 0.12374
STLB LOAD TRANSLATION ACCESS:    7464634  HIT:    7452260  MISS:      12374  HIT %:    99.8342  MISS %:   0.165768   MPKI: 0.12374
STLB PREFETCH  REQUESTED:          0  ISSUED:          0  USEFUL:          0  USELESS:          0
STLB USEFUL LOAD PREFETCHES:          0 PREFETCH ISSUED TO LOWER LEVEL:          0  ACCURACY: -nan
STLB TIMELY PREFETCHES:          0 LATE PREFETCHES: 0 DROPPED PREFETCHES: 0
STLB PREFETCHES SAME FILL-ORIGIN LEVEL: 0 DIFFERENT FILL-ORIGIN LEVEL: 0
STLB AVERAGE MISS LATENCY: 409.174 cycles
STLB RQ	ACCESS:    7464634	FORWARD:          0	MERGED:          0	TO_CACHE:    7464634

STLB Hit, L1D data hit: 0
STLB Hit, L2C data hit: 0
STLB Hit, LLC data hit: 0
STLB Hit, LLC data miss: 0
STLB STLB hints to L2: 0
L1D TOTAL     ACCESS:   28892806  HIT:   17319463  MISS:   11573343  HIT %:    59.9439  MISS %:    40.0561   MPKI: 115.733
L1D LOAD      ACCESS:   17596721  HIT:    6825207  MISS:   10771514  HIT %:    38.7868  MISS %:    61.2132   MPKI: 107.715
L1D RFO       ACCESS:   11296085  HIT:   10494256  MISS:     801829  HIT %:    92.9017  MISS %:    7.09829   MPKI: 8.01829
L1D PREFETCH  REQUESTED:          0  ISSUED:          0  USEFUL:          0  USELESS:          0
L1D USEFUL LOAD PREFETCHES:          0 PREFETCH ISSUED TO LOWER LEVEL:          0  ACCURACY: -nan
L1D TIMELY PREFETCHES:          0 LATE PREFETCHES: 0 DROPPED PREFETCHES: 0
L1D PREFETCHES SAME FILL-ORIGIN LEVEL: 0 DIFFERENT FILL-ORIGIN LEVEL: 0
L1D AVERAGE MISS LATENCY: 37.2077 cycles
L1D RQ	ACCESS:   28701824	FORWARD:          0	MERGED:   10824713	TO_CACHE:   17868566
L1D WQ	ACCESS:   11359800	FORWARD:       8545	MERGED:       1054	TO_CACHE:   11358746

L1D UNIQUE REGIONS ACCESSED: 0
L1D REGIONS CONFLICTS: 0
L1D Cross Page Prefetch Requests: 0
L1D Same Page Prefetch Requests: 0
L1D ROI Sum of L1D PQ occupancy: 0
L1D PREFETCHES PUSHED FROM L2C: 0
L1I TOTAL     ACCESS:   17501663  HIT:   17452006  MISS:      49657  HIT %:    99.7163  MISS %:   0.283727   MPKI: 0.49657
L1I LOAD      ACCESS:   17501663  HIT:   17452006  MISS:      49657  HIT %:    99.7163  MISS %:   0.283727   MPKI: 0.49657
L1I PREFETCH  REQUESTED:          0  ISSUED:          0  USEFUL:          0  USELESS:          0
L1I USEFUL LOAD PREFETCHES:          0 PREFETCH ISSUED TO LOWER LEVEL:          0  ACCURACY: -nan
L1I TIMELY PREFETCHES:          0 LATE PREFETCHES: 0 DROPPED PREFETCHES: 0
L1I PREFETCHES SAME FILL-ORIGIN LEVEL: 0 DIFFERENT FILL-ORIGIN LEVEL: 0
L1I AVERAGE MISS LATENCY: 17.111 cycles
L1I RQ	ACCESS:   25939360	FORWARD:          0	MERGED:    8412536	TO_CACHE:   17526824

BTB TOTAL     ACCESS:     118409  HIT:     115197  MISS:       3212  HIT %:    97.2874  MISS %:    2.71263   MPKI: 0.03212
BTB BRANCH_DIRECT_JUMP	ACCESS:      31767  HIT:      31732  MISS:         35
BTB BRANCH_INDIRECT	ACCESS:      29385  HIT:      29307  MISS:         78
BTB BRANCH_CONDITIONAL	ACCESS:      45223  HIT:      44824  MISS:        399
BTB BRANCH_DIRECT_CALL	ACCESS:       6013  HIT:       5388  MISS:        625
BTB BRANCH_INDIRECT_CALL	ACCESS:          3  HIT:          0  MISS:          3
BTB BRANCH_RETURN	ACCESS:       6018  HIT:       3946  MISS:       2072
BTB BRANCH_OTHER ACCESS:          0  HIT:          0  MISS:          0

L2C TOTAL     ACCESS:   12330701  HIT:   11224586  MISS:    1106115  HIT %:    91.0296  MISS %:    8.97041   MPKI: 11.0611
L2C LOAD      ACCESS:   10616468  HIT:    9541757  MISS:    1074711  HIT %:    89.8769  MISS %:    10.1231   MPKI: 10.7471
L2C DATA LOAD MPKI: 10.7386
L2C INSTRUCTION LOAD MPKI: 0.00846
L2C RFO       ACCESS:     800526  HIT:     786268  MISS:      14258  HIT %:    98.2189  MISS %:    1.78108   MPKI: 0.14258
L2C WRITEBACK ACCESS:     894105  HIT:     894029  MISS:         76  HIT %:    99.9915  MISS %: 0.00850012   MPKI: 0.00076
L2C LOAD TRANSLATION ACCESS:      19602  HIT:       2532  MISS:      17070  HIT %:     12.917  MISS %:     87.083   MPKI: 0.1707
L2C PREFETCH  REQUESTED:          0  ISSUED:          0  USEFUL:          0  USELESS:          0
L2C USEFUL LOAD PREFETCHES:          0 PREFETCH ISSUED TO LOWER LEVEL:          0  ACCURACY: -nan
L2C TIMELY PREFETCHES:          0 LATE PREFETCHES: 0 DROPPED PREFETCHES: 0
L2C PREFETCHES SAME FILL-ORIGIN LEVEL: 0 DIFFERENT FILL-ORIGIN LEVEL: 0
L2C AVERAGE MISS LATENCY: 231.27 cycles
L2C RQ	ACCESS:   11642602	FORWARD:          0	MERGED:          0	TO_CACHE:   11436596
L2C WQ	ACCESS:     894105	FORWARD:     206006	MERGED:          0	TO_CACHE:     894105

L2C Instructions Evicting Data 785
L2C Translations Evicting Data 16693
L2C Data Evicting Data 1070494
L2C Instructions Evicting Instructions 36
L2C Translations Evicting Instructions 37
L2C Data Evicting Instructions 918
L2C Instructions Evicting Translations 25
L2C Translations Evicting Translations 340
L2C Data Evicting Translations 16711
L2C Dense regions hint from L2: 0
PSCL5 TOTAL     ACCESS:      12374  HIT:      12374  MISS:          0  HIT %:        100  MISS %:          0   MPKI: 0
PSCL5 LOAD TRANSLATION ACCESS:      12374  HIT:      12374  MISS:          0  HIT %:        100  MISS %:          0   MPKI: 0
PSCL5 PREFETCH  REQUESTED:          0  ISSUED:          0  USEFUL:          0  USELESS:          0
PSCL5 USEFUL LOAD PREFETCHES:          0 PREFETCH ISSUED TO LOWER LEVEL:          0  ACCURACY: -nan
PSCL5 TIMELY PREFETCHES:          0 LATE PREFETCHES: 0 DROPPED PREFETCHES: 0
PSCL5 PREFETCHES SAME FILL-ORIGIN LEVEL: 0 DIFFERENT FILL-ORIGIN LEVEL: 0

PSCL4 TOTAL     ACCESS:      12374  HIT:      12374  MISS:          0  HIT %:        100  MISS %:          0   MPKI: 0
PSCL4 LOAD TRANSLATION ACCESS:      12374  HIT:      12374  MISS:          0  HIT %:        100  MISS %:          0   MPKI: 0
PSCL4 PREFETCH  REQUESTED:          0  ISSUED:          0  USEFUL:          0  USELESS:          0
PSCL4 USEFUL LOAD PREFETCHES:          0 PREFETCH ISSUED TO LOWER LEVEL:          0  ACCURACY: -nan
PSCL4 TIMELY PREFETCHES:          0 LATE PREFETCHES: 0 DROPPED PREFETCHES: 0
PSCL4 PREFETCHES SAME FILL-ORIGIN LEVEL: 0 DIFFERENT FILL-ORIGIN LEVEL: 0

PSCL3 TOTAL     ACCESS:      12374  HIT:      12370  MISS:          4  HIT %:    99.9677  MISS %:  0.0323258   MPKI: 4e-05
PSCL3 LOAD TRANSLATION ACCESS:      12374  HIT:      12370  MISS:          4  HIT %:    99.9677  MISS %:  0.0323258   MPKI: 4e-05
PSCL3 PREFETCH  REQUESTED:          0  ISSUED:          0  USEFUL:          0  USELESS:          0
PSCL3 USEFUL LOAD PREFETCHES:          0 PREFETCH ISSUED TO LOWER LEVEL:          0  ACCURACY: -nan
PSCL3 TIMELY PREFETCHES:          0 LATE PREFETCHES: 0 DROPPED PREFETCHES: 0
PSCL3 PREFETCHES SAME FILL-ORIGIN LEVEL: 0 DIFFERENT FILL-ORIGIN LEVEL: 0

PSCL2 TOTAL     ACCESS:      12374  HIT:       5083  MISS:       7291  HIT %:    41.0781  MISS %:    58.9219   MPKI: 0.07291
PSCL2 LOAD TRANSLATION ACCESS:      12374  HIT:       5083  MISS:       7291  HIT %:    41.0781  MISS %:    58.9219   MPKI: 0.07291
PSCL2 PREFETCH  REQUESTED:          0  ISSUED:          0  USEFUL:          0  USELESS:          0
PSCL2 USEFUL LOAD PREFETCHES:          0 PREFETCH ISSUED TO LOWER LEVEL:          0  ACCURACY: -nan
PSCL2 TIMELY PREFETCHES:          0 LATE PREFETCHES: 0 DROPPED PREFETCHES: 0
PSCL2 PREFETCHES SAME FILL-ORIGIN LEVEL: 0 DIFFERENT FILL-ORIGIN LEVEL: 0

LLC TOTAL     ACCESS:    1201224  HIT:     430169  MISS:     771055  HIT %:    35.8109  MISS %:    64.1891   MPKI: 7.71055
LLC LOAD      ACCESS:    1074710  HIT:     308123  MISS:     766587  HIT %:    28.6703  MISS %:    71.3297   MPKI: 7.66587
LLC RFO       ACCESS:      14257  HIT:      13132  MISS:       1125  HIT %:    92.1091  MISS %:    7.89086   MPKI: 0.01125
LLC WRITEBACK ACCESS:      95187  HIT:      93855  MISS:       1332  HIT %:    98.6006  MISS %:    1.39935   MPKI: 0.01332
LLC LOAD TRANSLATION ACCESS:      17070  HIT:      15059  MISS:       2011  HIT %:    88.2191  MISS %:    11.7809   MPKI: 0.02011
LLC PREFETCH  REQUESTED:          0  ISSUED:          0  USEFUL:          0  USELESS:          0
LLC USEFUL LOAD PREFETCHES:          0 PREFETCH ISSUED TO LOWER LEVEL:          0  ACCURACY: -nan
LLC TIMELY PREFETCHES:          0 LATE PREFETCHES: 0 DROPPED PREFETCHES: 0
LLC PREFETCHES SAME FILL-ORIGIN LEVEL: 0 DIFFERENT FILL-ORIGIN LEVEL: 0
LLC AVERAGE MISS LATENCY: 287.325 cycles
LLC RQ	ACCESS:    1106039	FORWARD:          0	MERGED:          0	TO_CACHE:    1106037
LLC WQ	ACCESS:      95187	FORWARD:          2	MERGED:          0	TO_CACHE:      95187

LLC Dense regions hint to LLC: 0

RAW hits: 44370
Loads Generated: 28746197
Loads sent to L1D: 28701824
Stores Generated: 11359949
Stores sent to L1D: 11359949
Major fault: 0 Minor fault: 14219
Allocated PAGES: 14219
[Bingo] PHT Access: 1
[Bingo] PHT Hit PC+Addr: 0
[Bingo] PHT Hit PC+Offs: 0
[Bingo] PHT Miss: 1
[Bingo] Prefetch PC+Addr: 0
[Bingo] Prefetch PC+Offs: 0
[Bingo] Useful PC+Addr: 0
[Bingo] Useful PC+Offs: 0
[Bingo] Useless PC+Addr: 0
[Bingo] Useless PC+Offs: 0
[Bingo] L1 Prefetch per Region: -nan
[Bingo] L2 Prefetch per Region: -nan
[Bingo] L3 Prefetch per Region: -nan
[Bingo] No Prefetch per Region: -nan
[Bingo] Number of Voters Mean: -nan
[Bingo] Number of Voters SD: -nan
PHT read accesses: 0
PHT write accesses: 0
AT read accesses: 0
AT write accesses: 0
FT read accesses: 1
FT write accesses: 1
PS read accesses: 0
PS write accesses: 0
PHT tag read accesses: 16
PHT tag write accesses: 0
AT tag read accesses: 17543136
AT tag write accesses: 0
FT tag read accesses: 17543153
FT tag write accesses: 2
PS tag read accesses: 16
PS tag write accesses: 0

DRAM Statistics
 CHANNEL 0
 RQ ROW_BUFFER_HIT:     371856  ROW_BUFFER_MISS:     397867
 DBUS_CONGESTED:        154
 WQ ROW_BUFFER_HIT:      49510  ROW_BUFFER_MISS:      46551  FULL:          0

 AVG_CONGESTED_CYCLE: 6
 All warmup complete: 2
Channel 0 Bank busy for read cycles: 0
Channel 0 Bank busy for write cycles: 0
Channel 0
Rank 0
0banks busy for read cycles: 77359099
0banks busy for write cycles: 23497
1banks busy for read cycles: 16484370
1banks busy for write cycles: 5494871
2banks busy for read cycles: 2495813
2banks busy for write cycles: 1417833
3banks busy for read cycles: 17574953
3banks busy for write cycles: 2956923
4banks busy for read cycles: 869662
4banks busy for write cycles: 971262
5banks busy for read cycles: 109067
5banks busy for write cycles: 75887
6banks busy for read cycles: 6567
6banks busy for write cycles: 24088
7banks busy for read cycles: 1415
7banks busy for write cycles: 3304
8banks busy for read cycles: 0
8banks busy for write cycles: 552

CPU 0 Branch Prediction Accuracy: 99.2948% MPKI: 0.01128 Average ROB Occupancy at Mispredict: 27.1374
Branch types
NOT_BRANCH: 99839730 99.8397%
BRANCH_DIRECT_JUMP: 31767 0.031767%
BRANCH_INDIRECT: 29385 0.029385%
BRANCH_CONDITIONAL: 86766 0.086766%
BRANCH_DIRECT_CALL: 6013 0.006013%
BRANCH_INDIRECT_CALL: 3 3e-06%
BRANCH_RETURN: 6018 0.006018%
BRANCH_OTHER: 0 0%

DRAM PAGES: 1048576
Allocated PAGES: 14219
