
*** ChampSim Multicore Out-of-Order Simulator ***

Warmup Instructions: 50000000
Simulation Instructions: 100000000
Number of CPUs: 1
LLC sets: 2048
LLC ways: 16
Off-chip DRAM Size: 4096 MB Channels: 1 Width: 64-bit Data Rate: 6400 MT/s
CPU 0 runs ../SPEC2017//607.cactuBSSN_s-2421B.champsimtrace.xz
.xz
NUM_OF_IPS_IN_CRITICAL_IP_TRAINING: 64
NUM_OF_CRITICAL_IP_TRAINING_TABLE_WAYS: 2
NUM_OF_CRITICAL_IP_TRAINING_TABLE_SETS: 32
WOBBLY_CRITICAL_IP_CACHE_SETS: 32
WOBBLY_CRITICAL_IP_CACHE_WAYS: 4
BTB has LRU replacement policy
ITLB has LRU replacement policy
DTLB has LRU replacement policy
STLB has LRU replacement policy
L1I has LRU replacement policy
L1D has LRU replacement policy
Bingo PHT WAYS: 16 and PHT_SIZE: 16384
Initialize SRRIP state for L2C
Initialize DRRIP state for LLC
Heartbeat CPU 0 instructions: 10000002 cycles: 3587516 heartbeat IPC: 2.78744 cumulative IPC: 2.78744 (Simulation time: 0 hr 5 min 41 sec) 
Heartbeat CPU 0 instructions: 20000001 cycles: 7170994 heartbeat IPC: 2.79058 cumulative IPC: 2.78901 (Simulation time: 0 hr 11 min 13 sec) 
Heartbeat CPU 0 instructions: 30000002 cycles: 10757999 heartbeat IPC: 2.78784 cumulative IPC: 2.78862 (Simulation time: 0 hr 15 min 48 sec) 
Heartbeat CPU 0 instructions: 40000003 cycles: 14344486 heartbeat IPC: 2.78824 cumulative IPC: 2.78853 (Simulation time: 0 hr 20 min 5 sec) 
Heartbeat CPU 0 instructions: 50000003 cycles: 17929838 heartbeat IPC: 2.78913 cumulative IPC: 2.78865 (Simulation time: 0 hr 24 min 1 sec) 

Warmup complete CPU 0 instructions: 50000003 cycles: 17929838 (Simulation time: 0 hr 24 min 1 sec) 

% increase in all ip prefetch 310.86
% increase in all ip prefetch -4.55333
Heartbeat CPU 0 instructions: 60000003 cycles: 30647361 heartbeat IPC: 0.786317 cumulative IPC: 0.786317 (Simulation time: 0 hr 28 min 2 sec) 
Heartbeat CPU 0 instructions: 70000000 cycles: 43109703 heartbeat IPC: 0.802417 cumulative IPC: 0.794285 (Simulation time: 0 hr 31 min 52 sec) 
Heartbeat CPU 0 instructions: 80000001 cycles: 55588462 heartbeat IPC: 0.801362 cumulative IPC: 0.79663 (Simulation time: 0 hr 35 min 20 sec) 
Heartbeat CPU 0 instructions: 90000000 cycles: 68049371 heartbeat IPC: 0.80251 cumulative IPC: 0.798092 (Simulation time: 0 hr 38 min 47 sec) 
Heartbeat CPU 0 instructions: 100000000 cycles: 80487776 heartbeat IPC: 0.803962 cumulative IPC: 0.799259 (Simulation time: 0 hr 41 min 56 sec) 
Heartbeat CPU 0 instructions: 110000000 cycles: 92937789 heartbeat IPC: 0.803212 cumulative IPC: 0.799915 (Simulation time: 0 hr 44 min 56 sec) 
Heartbeat CPU 0 instructions: 120000000 cycles: 105341115 heartbeat IPC: 0.806235 cumulative IPC: 0.800812 (Simulation time: 0 hr 47 min 46 sec) 
Heartbeat CPU 0 instructions: 130000002 cycles: 117806083 heartbeat IPC: 0.802249 cumulative IPC: 0.800991 (Simulation time: 0 hr 51 min 4 sec) 
Heartbeat CPU 0 instructions: 140000002 cycles: 130264326 heartbeat IPC: 0.802681 cumulative IPC: 0.801179 (Simulation time: 0 hr 57 min 0 sec) 
Heartbeat CPU 0 instructions: 150000001 cycles: 142780005 heartbeat IPC: 0.798998 cumulative IPC: 0.80096 (Simulation time: 1 hr 2 min 27 sec) 
Finished CPU 0 instructions: 100000002 cycles: 124850174 cumulative IPC: 0.80096 (Simulation time: 1 hr 2 min 27 sec) 

ChampSim completed all CPUs

Region of Interest Statistics

CPU 0 cumulative IPC: 0.80096 instructions: 100000002 cycles: 124850174

CPU 0 Average Load ROB stall cycles: 2.28049e+07
CPU 0 Fraction of times ROB stalled by Loads: 28.3723
CPU 0 Percentage of Load stall cycles in Total stall cycles: 3.90292e+08
Issued all: 79973302
Issued LT all: 66459024
rob_not_full_when_issued_lt_all: 38485103
Issued LT one: 58808048
rob_not_full_when_issued_lt_one: 32481909
 Total stall cycles: 103027751
 Total load stall cycles: 402108883362436
CPU 0 NUM of IPS identified critical: 0
CPU 0 Num of Load IPs stalling ROB: 3890
Threshold modification factor: -1
Max PIST entries: 64
Min PIST entries: 0
Avg PIST entries: 42.6667
Trouble in retire width: 0.967487
MaC = Marked as critical.
lt_50_percent_before_Mac: 0
gt_90_percent_before_Mac: 0
gt_75_percent_before_Mac: 0
gt_50_percent_before_Mac: 0
stall_proportion_bin_same_before_after: 0
stall_proportion_bin_lower_before_after: 0
stall_proportion_bin_upper_before_after: 0
average_stall_proportion_before: -nan
average_stall_proportion_after: -nan
Critical IP stalls, total frequency: 0
Non-critical IP stalls, total frequency: 5002767
Total Freq all stalling IPs: 5002767
stat_90_percent_critical_ip_stalls_freq: 4504467
stat_90_percent_non_critical_ip_stalls_freq: 498300
Critical_IP_ROB_Stalls_Bucket_0: 0
Non-critical_IP_ROB_Stalls_Bucket_0: 3731660
Critical_IP_ROB_Stalls_Bucket_1: 0
Non-critical_IP_ROB_Stalls_Bucket_1: 775572
Critical_IP_ROB_Stalls_Bucket_2: 0
Non-critical_IP_ROB_Stalls_Bucket_2: 92181
Critical_IP_ROB_Stalls_Bucket_3: 0
Non-critical_IP_ROB_Stalls_Bucket_3: 27125
Critical_IP_ROB_Stalls_Bucket_4: 0
Non-critical_IP_ROB_Stalls_Bucket_4: 18241
Critical_IP_ROB_Stalls_Bucket_5: 0
Non-critical_IP_ROB_Stalls_Bucket_5: 21278
Critical_IP_ROB_Stalls_Bucket_6: 0
Non-critical_IP_ROB_Stalls_Bucket_6: 336710
0 => IPs accounting for >50 percent of stalls, 1 => 55, 2 => 60, 3 => 65 and so on till 90.
percent50: 50.0179 num IPs:  123
percent55: 55.092 num IPs: 138
percent60: 60.0618 num IPs: 154
percent65: 65.2696 num IPs: 172
percent70: 70.1709 num IPs: 191
percent75: 75.1515 num IPs: 213
percent80: 80.0684 num IPs: 240
percent85: 85.0275 num IPs: 274
percent90: 90.0395 num IPs: 333
Critical_ROB_Stalls_Percent_0_Bucket_0: 1993928
Non-critical_ROB_Stalls_Percent_0_Bucket_0: 1737732
Critical_ROB_Stalls_Percent_0_Bucket_1: 375793
Non-critical_ROB_Stalls_Percent_0_Bucket_1: 399779
Critical_ROB_Stalls_Percent_0_Bucket_2: 32830
Non-critical_ROB_Stalls_Percent_0_Bucket_2: 59351
Critical_ROB_Stalls_Percent_0_Bucket_3: 4250
Non-critical_ROB_Stalls_Percent_0_Bucket_3: 22875
Critical_ROB_Stalls_Percent_0_Bucket_4: 3490
Non-critical_ROB_Stalls_Percent_0_Bucket_4: 14751
Critical_ROB_Stalls_Percent_0_Bucket_5: 3328
Non-critical_ROB_Stalls_Percent_0_Bucket_5: 17950
Critical_ROB_Stalls_Percent_0_Bucket_6: 88661
Non-critical_ROB_Stalls_Percent_0_Bucket_6: 248049
Critical_ROB_Stalls_Percent_1_Bucket_0: 2231242
Non-critical_ROB_Stalls_Percent_1_Bucket_0: 1500418
Critical_ROB_Stalls_Percent_1_Bucket_1: 386592
Non-critical_ROB_Stalls_Percent_1_Bucket_1: 388980
Critical_ROB_Stalls_Percent_1_Bucket_2: 33123
Non-critical_ROB_Stalls_Percent_1_Bucket_2: 59058
Critical_ROB_Stalls_Percent_1_Bucket_3: 4695
Non-critical_ROB_Stalls_Percent_1_Bucket_3: 22430
Critical_ROB_Stalls_Percent_1_Bucket_4: 3675
Non-critical_ROB_Stalls_Percent_1_Bucket_4: 14566
Critical_ROB_Stalls_Percent_1_Bucket_5: 3813
Non-critical_ROB_Stalls_Percent_1_Bucket_5: 17465
Critical_ROB_Stalls_Percent_1_Bucket_6: 92983
Non-critical_ROB_Stalls_Percent_1_Bucket_6: 243727
Critical_ROB_Stalls_Percent_2_Bucket_0: 2445899
Non-critical_ROB_Stalls_Percent_2_Bucket_0: 1285761
Critical_ROB_Stalls_Percent_2_Bucket_1: 410299
Non-critical_ROB_Stalls_Percent_2_Bucket_1: 365273
Critical_ROB_Stalls_Percent_2_Bucket_2: 34813
Non-critical_ROB_Stalls_Percent_2_Bucket_2: 57368
Critical_ROB_Stalls_Percent_2_Bucket_3: 5218
Non-critical_ROB_Stalls_Percent_2_Bucket_3: 21907
Critical_ROB_Stalls_Percent_2_Bucket_4: 4210
Non-critical_ROB_Stalls_Percent_2_Bucket_4: 14031
Critical_ROB_Stalls_Percent_2_Bucket_5: 4404
Non-critical_ROB_Stalls_Percent_2_Bucket_5: 16874
Critical_ROB_Stalls_Percent_2_Bucket_6: 99909
Non-critical_ROB_Stalls_Percent_2_Bucket_6: 236801
Critical_ROB_Stalls_Percent_3_Bucket_0: 2639219
Non-critical_ROB_Stalls_Percent_3_Bucket_0: 1092441
Critical_ROB_Stalls_Percent_3_Bucket_1: 432047
Non-critical_ROB_Stalls_Percent_3_Bucket_1: 343525
Critical_ROB_Stalls_Percent_3_Bucket_2: 49774
Non-critical_ROB_Stalls_Percent_3_Bucket_2: 42407
Critical_ROB_Stalls_Percent_3_Bucket_3: 6536
Non-critical_ROB_Stalls_Percent_3_Bucket_3: 20589
Critical_ROB_Stalls_Percent_3_Bucket_4: 5569
Non-critical_ROB_Stalls_Percent_3_Bucket_4: 12672
Critical_ROB_Stalls_Percent_3_Bucket_5: 5247
Non-critical_ROB_Stalls_Percent_3_Bucket_5: 16031
Critical_ROB_Stalls_Percent_3_Bucket_6: 126892
Non-critical_ROB_Stalls_Percent_3_Bucket_6: 209818
Critical_ROB_Stalls_Percent_4_Bucket_0: 2862604
Non-critical_ROB_Stalls_Percent_4_Bucket_0: 869056
Critical_ROB_Stalls_Percent_4_Bucket_1: 443861
Non-critical_ROB_Stalls_Percent_4_Bucket_1: 331711
Critical_ROB_Stalls_Percent_4_Bucket_2: 50376
Non-critical_ROB_Stalls_Percent_4_Bucket_2: 41805
Critical_ROB_Stalls_Percent_4_Bucket_3: 6954
Non-critical_ROB_Stalls_Percent_4_Bucket_3: 20171
Critical_ROB_Stalls_Percent_4_Bucket_4: 6007
Non-critical_ROB_Stalls_Percent_4_Bucket_4: 12234
Critical_ROB_Stalls_Percent_4_Bucket_5: 6069
Non-critical_ROB_Stalls_Percent_4_Bucket_5: 15209
Critical_ROB_Stalls_Percent_4_Bucket_6: 134614
Non-critical_ROB_Stalls_Percent_4_Bucket_6: 202096
Critical_ROB_Stalls_Percent_5_Bucket_0: 3102503
Non-critical_ROB_Stalls_Percent_5_Bucket_0: 629157
Critical_ROB_Stalls_Percent_5_Bucket_1: 449485
Non-critical_ROB_Stalls_Percent_5_Bucket_1: 326087
Critical_ROB_Stalls_Percent_5_Bucket_2: 50511
Non-critical_ROB_Stalls_Percent_5_Bucket_2: 41670
Critical_ROB_Stalls_Percent_5_Bucket_3: 7061
Non-critical_ROB_Stalls_Percent_5_Bucket_3: 20064
Critical_ROB_Stalls_Percent_5_Bucket_4: 6126
Non-critical_ROB_Stalls_Percent_5_Bucket_4: 12115
Critical_ROB_Stalls_Percent_5_Bucket_5: 6424
Non-critical_ROB_Stalls_Percent_5_Bucket_5: 14854
Critical_ROB_Stalls_Percent_5_Bucket_6: 137543
Non-critical_ROB_Stalls_Percent_5_Bucket_6: 199167
Critical_ROB_Stalls_Percent_6_Bucket_0: 3281294
Non-critical_ROB_Stalls_Percent_6_Bucket_0: 450366
Critical_ROB_Stalls_Percent_6_Bucket_1: 475336
Non-critical_ROB_Stalls_Percent_6_Bucket_1: 300236
Critical_ROB_Stalls_Percent_6_Bucket_2: 51855
Non-critical_ROB_Stalls_Percent_6_Bucket_2: 40326
Critical_ROB_Stalls_Percent_6_Bucket_3: 11513
Non-critical_ROB_Stalls_Percent_6_Bucket_3: 15612
Critical_ROB_Stalls_Percent_6_Bucket_4: 11309
Non-critical_ROB_Stalls_Percent_6_Bucket_4: 6932
Critical_ROB_Stalls_Percent_6_Bucket_5: 10600
Non-critical_ROB_Stalls_Percent_6_Bucket_5: 10678
Critical_ROB_Stalls_Percent_6_Bucket_6: 163731
Non-critical_ROB_Stalls_Percent_6_Bucket_6: 172979
Critical_ROB_Stalls_Percent_7_Bucket_0: 3455885
Non-critical_ROB_Stalls_Percent_7_Bucket_0: 275775
Critical_ROB_Stalls_Percent_7_Bucket_1: 525117
Non-critical_ROB_Stalls_Percent_7_Bucket_1: 250455
Critical_ROB_Stalls_Percent_7_Bucket_2: 62111
Non-critical_ROB_Stalls_Percent_7_Bucket_2: 30070
Critical_ROB_Stalls_Percent_7_Bucket_3: 13031
Non-critical_ROB_Stalls_Percent_7_Bucket_3: 14094
Critical_ROB_Stalls_Percent_7_Bucket_4: 11933
Non-critical_ROB_Stalls_Percent_7_Bucket_4: 6308
Critical_ROB_Stalls_Percent_7_Bucket_5: 11969
Non-critical_ROB_Stalls_Percent_7_Bucket_5: 9309
Critical_ROB_Stalls_Percent_7_Bucket_6: 173684
Non-critical_ROB_Stalls_Percent_7_Bucket_6: 163026
Critical_ROB_Stalls_Percent_8_Bucket_0: 3570656
Non-critical_ROB_Stalls_Percent_8_Bucket_0: 161004
Critical_ROB_Stalls_Percent_8_Bucket_1: 588420
Non-critical_ROB_Stalls_Percent_8_Bucket_1: 187152
Critical_ROB_Stalls_Percent_8_Bucket_2: 68057
Non-critical_ROB_Stalls_Percent_8_Bucket_2: 24124
Critical_ROB_Stalls_Percent_8_Bucket_3: 15396
Non-critical_ROB_Stalls_Percent_8_Bucket_3: 11729
Critical_ROB_Stalls_Percent_8_Bucket_4: 12251
Non-critical_ROB_Stalls_Percent_8_Bucket_4: 5990
Critical_ROB_Stalls_Percent_8_Bucket_5: 14623
Non-critical_ROB_Stalls_Percent_8_Bucket_5: 6655
Critical_ROB_Stalls_Percent_8_Bucket_6: 235064
Non-critical_ROB_Stalls_Percent_8_Bucket_6: 101646
Average ROB occupancy Load Stall Begin: 55.8584
Average ROB occupancy Load Stall End: 64.6238
Min ROB occupancy Load Stall Begin: 1
Max ROB occupancy Load Stall Begin: 352
Min ROB occupancy Load Stall End: 1
Max ROB occupancy Load Stall End: 352
Average ROB occupancy Critical Load Stall Begin: -nan
Average ROB occupancy Critical Load Stall End: -nan
Min ROB occupancy Critical Load Stall Begin: 400
Max ROB occupancy Critical Load Stall Begin: 0
Min ROB occupancy Critical Load Stall End: 400
Max ROB occupancy Critical Load Stall End: 0
 ROB Load Stall Begin Bucket Count 0: 4216570
 ROB Load Stall End Bucket Count 0: 3731660
 ROB Critical Load Stall Begin Bucket Count 0: 0
 ROB Critical Load Stall End Bucket Count 0: 0
 ROB Load Stall Begin Bucket Count 1: 341981
 ROB Load Stall End Bucket Count 1: 775572
 ROB Critical Load Stall Begin Bucket Count 1: 0
 ROB Critical Load Stall End Bucket Count 1: 0
 ROB Load Stall Begin Bucket Count 2: 64407
 ROB Load Stall End Bucket Count 2: 92181
 ROB Critical Load Stall Begin Bucket Count 2: 0
 ROB Critical Load Stall End Bucket Count 2: 0
 ROB Load Stall Begin Bucket Count 3: 23724
 ROB Load Stall End Bucket Count 3: 27125
 ROB Critical Load Stall Begin Bucket Count 3: 0
 ROB Critical Load Stall End Bucket Count 3: 0
 ROB Load Stall Begin Bucket Count 4: 13633
 ROB Load Stall End Bucket Count 4: 18241
 ROB Critical Load Stall Begin Bucket Count 4: 0
 ROB Critical Load Stall End Bucket Count 4: 0
 ROB Load Stall Begin Bucket Count 5: 55837
 ROB Load Stall End Bucket Count 5: 21278
 ROB Critical Load Stall Begin Bucket Count 5: 0
 ROB Critical Load Stall End Bucket Count 5: 0
 ROB Load Stall Begin Bucket Count 6: 286615
 ROB Load Stall End Bucket Count 6: 336710
 ROB Critical Load Stall Begin Bucket Count 6: 0
 ROB Critical Load Stall End Bucket Count 6: 0
PIST Tag Read Accesses: 4195096
PIST Read Accesses: 2097548
PIST Tag Write Accesses: 4195096
PIST Write Accesses: 2097548
Criticality detector called times: 5002573
Max global_stall_cycles_count: 3976933
Threshold Modified: 1 times, factor: -1
Sturdy critical IP cache stats: 
 Unused entries: 0
CIC Tag Read Accesses: 0
CIC Read Accesses: 0
CIC Tag Write Accesses: 0
CIC Write Accesses: 0
Wobbly critical IP cache stats: 
 Unused entries: 125
CIC Tag Read Accesses: 182973758
CIC Read Accesses: 0
CIC Tag Write Accesses: 3
CIC Write Accesses: 0
ITLB TOTAL     ACCESS:   13369389  HIT:   13369339  MISS:         50  HIT %:    99.9996  MISS %: 0.000373989   MPKI: 0.0005
ITLB LOAD TRANSLATION ACCESS:   13369389  HIT:   13369339  MISS:         50  HIT %:    99.9996  MISS %: 0.000373989   MPKI: 0.0005
ITLB PREFETCH  REQUESTED:          0  ISSUED:          0  USEFUL:          0  USELESS:          0
ITLB USEFUL LOAD PREFETCHES:          0 PREFETCH ISSUED TO LOWER LEVEL:          0  ACCURACY: -nan
ITLB TIMELY PREFETCHES:          0 LATE PREFETCHES: 0 DROPPED PREFETCHES: 0
ITLB PREFETCHES SAME FILL-ORIGIN LEVEL: 0 DIFFERENT FILL-ORIGIN LEVEL: 0
ITLB AVERAGE MISS LATENCY: 382.14 cycles
ITLB RQ	ACCESS:   17515405	FORWARD:          0	MERGED:    4146008	TO_CACHE:   13369397

DTLB TOTAL     ACCESS:   21035218  HIT:   13570542  MISS:    7464676  HIT %:    64.5134  MISS %:    35.4866   MPKI: 74.6468
DTLB LOAD TRANSLATION ACCESS:   21035218  HIT:   13570542  MISS:    7464676  HIT %:    64.5134  MISS %:    35.4866   MPKI: 74.6468
DTLB PREFETCH  REQUESTED:          0  ISSUED:          0  USEFUL:          0  USELESS:          0
DTLB USEFUL LOAD PREFETCHES:          0 PREFETCH ISSUED TO LOWER LEVEL:          0  ACCURACY: -nan
DTLB TIMELY PREFETCHES:          0 LATE PREFETCHES: 0 DROPPED PREFETCHES: 0
DTLB PREFETCHES SAME FILL-ORIGIN LEVEL: 0 DIFFERENT FILL-ORIGIN LEVEL: 0
DTLB AVERAGE MISS LATENCY: 10.0531 cycles
DTLB RQ	ACCESS:   29239388	FORWARD:          0	MERGED:    7691392	TO_CACHE:   21547996

STLB TOTAL     ACCESS:    7464726  HIT:    7452352  MISS:      12374  HIT %:    99.8342  MISS %:   0.165766   MPKI: 0.12374
STLB LOAD TRANSLATION ACCESS:    7464726  HIT:    7452352  MISS:      12374  HIT %:    99.8342  MISS %:   0.165766   MPKI: 0.12374
STLB PREFETCH  REQUESTED:          0  ISSUED:          0  USEFUL:          0  USELESS:          0
STLB USEFUL LOAD PREFETCHES:          0 PREFETCH ISSUED TO LOWER LEVEL:          0  ACCURACY: -nan
STLB TIMELY PREFETCHES:          0 LATE PREFETCHES: 0 DROPPED PREFETCHES: 0
STLB PREFETCHES SAME FILL-ORIGIN LEVEL: 0 DIFFERENT FILL-ORIGIN LEVEL: 0
STLB AVERAGE MISS LATENCY: 411.425 cycles
STLB RQ	ACCESS:    7464726	FORWARD:          0	MERGED:          0	TO_CACHE:    7464726

STLB Hit, L1D data hit: 0
STLB Hit, L2C data hit: 0
STLB Hit, LLC data hit: 0
STLB Hit, LLC data miss: 0
STLB STLB hints to L2: 0
L1D TOTAL     ACCESS:   28902568  HIT:   17328289  MISS:   11574279  HIT %:    59.9542  MISS %:    40.0458   MPKI: 115.743
L1D LOAD      ACCESS:   17605952  HIT:    6833607  MISS:   10772345  HIT %:    38.8142  MISS %:    61.1858   MPKI: 107.723
L1D RFO       ACCESS:   11296616  HIT:   10494682  MISS:     801934  HIT %:    92.9011  MISS %:    7.09889   MPKI: 8.01934
L1D PREFETCH  REQUESTED:          0  ISSUED:          0  USEFUL:          0  USELESS:          0
L1D USEFUL LOAD PREFETCHES:          0 PREFETCH ISSUED TO LOWER LEVEL:          0  ACCURACY: -nan
L1D TIMELY PREFETCHES:          0 LATE PREFETCHES: 0 DROPPED PREFETCHES: 0
L1D PREFETCHES SAME FILL-ORIGIN LEVEL: 0 DIFFERENT FILL-ORIGIN LEVEL: 0
L1D AVERAGE MISS LATENCY: 36.395 cycles
L1D RQ	ACCESS:   28703258	FORWARD:          0	MERGED:   10814898	TO_CACHE:   17880643
L1D WQ	ACCESS:   11359800	FORWARD:       7717	MERGED:       1055	TO_CACHE:   11358745

L1D UNIQUE REGIONS ACCESSED: 0
L1D REGIONS CONFLICTS: 0
L1D Cross Page Prefetch Requests: 0
L1D Same Page Prefetch Requests: 0
L1D ROI Sum of L1D PQ occupancy: 0
L1D PREFETCHES PUSHED FROM L2C: 0
L1I TOTAL     ACCESS:   17490208  HIT:   17440551  MISS:      49657  HIT %:    99.7161  MISS %:   0.283913   MPKI: 0.49657
L1I LOAD      ACCESS:   17490208  HIT:   17440551  MISS:      49657  HIT %:    99.7161  MISS %:   0.283913   MPKI: 0.49657
L1I PREFETCH  REQUESTED:          0  ISSUED:          0  USEFUL:          0  USELESS:          0
L1I USEFUL LOAD PREFETCHES:          0 PREFETCH ISSUED TO LOWER LEVEL:          0  ACCURACY: -nan
L1I TIMELY PREFETCHES:          0 LATE PREFETCHES: 0 DROPPED PREFETCHES: 0
L1I PREFETCHES SAME FILL-ORIGIN LEVEL: 0 DIFFERENT FILL-ORIGIN LEVEL: 0
L1I AVERAGE MISS LATENCY: 17.1263 cycles
L1I RQ	ACCESS:   25915733	FORWARD:          0	MERGED:    8400328	TO_CACHE:   17515405

BTB TOTAL     ACCESS:     118409  HIT:     115197  MISS:       3212  HIT %:    97.2874  MISS %:    2.71263   MPKI: 0.03212
BTB BRANCH_DIRECT_JUMP	ACCESS:      31767  HIT:      31732  MISS:         35
BTB BRANCH_INDIRECT	ACCESS:      29385  HIT:      29307  MISS:         78
BTB BRANCH_CONDITIONAL	ACCESS:      45223  HIT:      44824  MISS:        399
BTB BRANCH_DIRECT_CALL	ACCESS:       6013  HIT:       5388  MISS:        625
BTB BRANCH_INDIRECT_CALL	ACCESS:          3  HIT:          0  MISS:          3
BTB BRANCH_RETURN	ACCESS:       6018  HIT:       3946  MISS:       2072
BTB BRANCH_OTHER ACCESS:          0  HIT:          0  MISS:          0

L2C TOTAL     ACCESS:   13348642  HIT:   12271001  MISS:    1077641  HIT %:     91.927  MISS %:    8.07304   MPKI: 10.7764
L2C LOAD      ACCESS:   10617149  HIT:    9684699  MISS:     932450  HIT %:    91.2175  MISS %:    8.78249   MPKI: 9.3245
L2C DATA LOAD MPKI: 9.31605
L2C INSTRUCTION LOAD MPKI: 0.00845
L2C RFO       ACCESS:     800595  HIT:     787331  MISS:      13264  HIT %:    98.3432  MISS %:    1.65677   MPKI: 0.13264
L2C PREFETCH  ACCESS:    1017088  HIT:     902397  MISS:     114691  HIT %:    88.7236  MISS %:    11.2764   MPKI: 1.14691
L2C DATA PREFETCH MPKI: 1.14691
L2C INSTRUCTION PREFETCH MPKI: 0
L2C WRITEBACK ACCESS:     894208  HIT:     894117  MISS:         91  HIT %:    99.9898  MISS %:  0.0101766   MPKI: 0.00091
L2C LOAD TRANSLATION ACCESS:      19602  HIT:       2457  MISS:      17145  HIT %:    12.5344  MISS %:    87.4656   MPKI: 0.17145
L2C PREFETCH  REQUESTED:    1028806  ISSUED:    1028806  USEFUL:      90905  USELESS:      23811
L2C USEFUL LOAD PREFETCHES:      90905 PREFETCH ISSUED TO LOWER LEVEL:     116166  ACCURACY: 78.2544
L2C TIMELY PREFETCHES:      90905 LATE PREFETCHES: 1475 DROPPED PREFETCHES: 0
L2C PREFETCHES SAME FILL-ORIGIN LEVEL: 116166 DIFFERENT FILL-ORIGIN LEVEL: 0
L2C AVERAGE MISS LATENCY: 236.946 cycles
L2C RQ	ACCESS:   11643538	FORWARD:          0	MERGED:          0	TO_CACHE:   11437346
L2C WQ	ACCESS:     894208	FORWARD:     206192	MERGED:          0	TO_CACHE:     894208
L2C PQ	ACCESS:    1028806	FORWARD:          0	MERGED:          3	TO_CACHE:    1028803

L2C Instructions Evicting Data 782
L2C Translations Evicting Data 16774
L2C Data Evicting Data 1041846
L2C Instructions Evicting Instructions 36
L2C Translations Evicting Instructions 38
L2C Data Evicting Instructions 917
L2C Instructions Evicting Translations 27
L2C Translations Evicting Translations 333
L2C Data Evicting Translations 16797
L2C Dense regions hint from L2: 0
PSCL5 TOTAL     ACCESS:      12374  HIT:      12374  MISS:          0  HIT %:        100  MISS %:          0   MPKI: 0
PSCL5 LOAD TRANSLATION ACCESS:      12374  HIT:      12374  MISS:          0  HIT %:        100  MISS %:          0   MPKI: 0
PSCL5 PREFETCH  REQUESTED:          0  ISSUED:          0  USEFUL:          0  USELESS:          0
PSCL5 USEFUL LOAD PREFETCHES:          0 PREFETCH ISSUED TO LOWER LEVEL:          0  ACCURACY: -nan
PSCL5 TIMELY PREFETCHES:          0 LATE PREFETCHES: 0 DROPPED PREFETCHES: 0
PSCL5 PREFETCHES SAME FILL-ORIGIN LEVEL: 0 DIFFERENT FILL-ORIGIN LEVEL: 0

PSCL4 TOTAL     ACCESS:      12374  HIT:      12374  MISS:          0  HIT %:        100  MISS %:          0   MPKI: 0
PSCL4 LOAD TRANSLATION ACCESS:      12374  HIT:      12374  MISS:          0  HIT %:        100  MISS %:          0   MPKI: 0
PSCL4 PREFETCH  REQUESTED:          0  ISSUED:          0  USEFUL:          0  USELESS:          0
PSCL4 USEFUL LOAD PREFETCHES:          0 PREFETCH ISSUED TO LOWER LEVEL:          0  ACCURACY: -nan
PSCL4 TIMELY PREFETCHES:          0 LATE PREFETCHES: 0 DROPPED PREFETCHES: 0
PSCL4 PREFETCHES SAME FILL-ORIGIN LEVEL: 0 DIFFERENT FILL-ORIGIN LEVEL: 0

PSCL3 TOTAL     ACCESS:      12374  HIT:      12370  MISS:          4  HIT %:    99.9677  MISS %:  0.0323258   MPKI: 4e-05
PSCL3 LOAD TRANSLATION ACCESS:      12374  HIT:      12370  MISS:          4  HIT %:    99.9677  MISS %:  0.0323258   MPKI: 4e-05
PSCL3 PREFETCH  REQUESTED:          0  ISSUED:          0  USEFUL:          0  USELESS:          0
PSCL3 USEFUL LOAD PREFETCHES:          0 PREFETCH ISSUED TO LOWER LEVEL:          0  ACCURACY: -nan
PSCL3 TIMELY PREFETCHES:          0 LATE PREFETCHES: 0 DROPPED PREFETCHES: 0
PSCL3 PREFETCHES SAME FILL-ORIGIN LEVEL: 0 DIFFERENT FILL-ORIGIN LEVEL: 0

PSCL2 TOTAL     ACCESS:      12374  HIT:       5083  MISS:       7291  HIT %:    41.0781  MISS %:    58.9219   MPKI: 0.07291
PSCL2 LOAD TRANSLATION ACCESS:      12374  HIT:       5083  MISS:       7291  HIT %:    41.0781  MISS %:    58.9219   MPKI: 0.07291
PSCL2 PREFETCH  REQUESTED:          0  ISSUED:          0  USEFUL:          0  USELESS:          0
PSCL2 USEFUL LOAD PREFETCHES:          0 PREFETCH ISSUED TO LOWER LEVEL:          0  ACCURACY: -nan
PSCL2 TIMELY PREFETCHES:          0 LATE PREFETCHES: 0 DROPPED PREFETCHES: 0
PSCL2 PREFETCHES SAME FILL-ORIGIN LEVEL: 0 DIFFERENT FILL-ORIGIN LEVEL: 0

LLC TOTAL     ACCESS:    1172774  HIT:     401232  MISS:     771542  HIT %:    34.2122  MISS %:    65.7878   MPKI: 7.71542
LLC LOAD      ACCESS:     930975  HIT:     196524  MISS:     734451  HIT %:    21.1095  MISS %:    78.8905   MPKI: 7.34451
LLC RFO       ACCESS:      13257  HIT:      12130  MISS:       1127  HIT %:    91.4988  MISS %:    8.50117   MPKI: 0.01127
LLC PREFETCH  ACCESS:     116166  HIT:      83545  MISS:      32621  HIT %:    71.9186  MISS %:    28.0814   MPKI: 0.32621
LLC WRITEBACK ACCESS:      95231  HIT:      93873  MISS:       1358  HIT %:     98.574  MISS %:    1.42601   MPKI: 0.01358
LLC LOAD TRANSLATION ACCESS:      17145  HIT:      15160  MISS:       1985  HIT %:    88.4223  MISS %:    11.5777   MPKI: 0.01985
LLC PREFETCH  REQUESTED:          0  ISSUED:          0  USEFUL:      11305  USELESS:      23597
LLC USEFUL LOAD PREFETCHES:      11305 PREFETCH ISSUED TO LOWER LEVEL:      32621  ACCURACY: 34.6556
LLC TIMELY PREFETCHES:      11305 LATE PREFETCHES: 0 DROPPED PREFETCHES: 0
LLC PREFETCHES SAME FILL-ORIGIN LEVEL: 0 DIFFERENT FILL-ORIGIN LEVEL: 0
LLC AVERAGE MISS LATENCY: 287.561 cycles
LLC RQ	ACCESS:     961384	FORWARD:          0	MERGED:          0	TO_CACHE:     961377
LLC WQ	ACCESS:      95231	FORWARD:          7	MERGED:          0	TO_CACHE:      95231
LLC PQ	ACCESS:     116166	FORWARD:          0	MERGED:          0	TO_CACHE:     116166

LLC Dense regions hint to LLC: 0

RAW hits: 42936
Loads Generated: 28746197
Loads sent to L1D: 28703258
Stores Generated: 11359949
Stores sent to L1D: 11359949
Major fault: 0 Minor fault: 14219
Allocated PAGES: 14219
[Bingo] PHT Access: 6175466
[Bingo] PHT Hit PC+Addr: 17526
[Bingo] PHT Hit PC+Offs: 121885
[Bingo] PHT Miss: 6036055
[Bingo] Prefetch PC+Addr: 0
[Bingo] Prefetch PC+Offs: 0
[Bingo] Useful PC+Addr: 0
[Bingo] Useful PC+Offs: 0
[Bingo] Useless PC+Addr: 0
[Bingo] Useless PC+Offs: 0
[Bingo] L1 Prefetch per Region: 0
[Bingo] L2 Prefetch per Region: 9.38293
[Bingo] L3 Prefetch per Region: 0
[Bingo] No Prefetch per Region: 22.6171
[Bingo] Number of Voters Mean: 6.22618
[Bingo] Number of Voters SD: 5.95594
PHT read accesses: 98263461
PHT write accesses: 101692
AT read accesses: 4490207
AT write accesses: 4493565
FT read accesses: 391416
FT write accesses: 6175466
PS read accesses: 306381
PS write accesses: 139411
PHT tag read accesses: 101666956
PHT tag write accesses: 119218
AT tag read accesses: 190218048
AT tag write accesses: 4591959
FT tag read accesses: 315517165
FT tag write accesses: 6464917
PS tag read accesses: 173476770
PS tag write accesses: 432038

DRAM Statistics
 CHANNEL 0
 RQ ROW_BUFFER_HIT:     374203  ROW_BUFFER_MISS:     395981
 DBUS_CONGESTED:        234
 WQ ROW_BUFFER_HIT:      47866  ROW_BUFFER_MISS:      48228  FULL:          0

 AVG_CONGESTED_CYCLE: 5
 All warmup complete: 2
Channel 0 Bank busy for read cycles: 0
Channel 0 Bank busy for write cycles: 0
Channel 0
Rank 0
0banks busy for read cycles: 79175949
0banks busy for write cycles: 20263
1banks busy for read cycles: 14459433
1banks busy for write cycles: 4324988
2banks busy for read cycles: 2455218
2banks busy for write cycles: 1340515
3banks busy for read cycles: 17784021
3banks busy for write cycles: 3026485
4banks busy for read cycles: 718451
4banks busy for write cycles: 998216
5banks busy for read cycles: 119039
5banks busy for write cycles: 79304
6banks busy for read cycles: 43415
6banks busy for write cycles: 39499
7banks busy for read cycles: 48953
7banks busy for write cycles: 23290
8banks busy for read cycles: 164404
8banks busy for write cycles: 28732

CPU 0 Branch Prediction Accuracy: 99.2948% MPKI: 0.01128 Average ROB Occupancy at Mispredict: 27.125
Branch types
NOT_BRANCH: 99839730 99.8397%
BRANCH_DIRECT_JUMP: 31767 0.031767%
BRANCH_INDIRECT: 29385 0.029385%
BRANCH_CONDITIONAL: 86766 0.086766%
BRANCH_DIRECT_CALL: 6013 0.006013%
BRANCH_INDIRECT_CALL: 3 3e-06%
BRANCH_RETURN: 6018 0.006018%
BRANCH_OTHER: 0 0%

DRAM PAGES: 1048576
Allocated PAGES: 14219
