
*** ChampSim Multicore Out-of-Order Simulator ***

Warmup Instructions: 50000000
Simulation Instructions: 100000000
Number of CPUs: 1
LLC sets: 2048
LLC ways: 16
Off-chip DRAM Size: 4096 MB Channels: 1 Width: 64-bit Data Rate: 6400 MT/s
CPU 0 runs ../SPEC2017//607.cactuBSSN_s-3477B.champsimtrace.xz
.xz
NUM_OF_IPS_IN_CRITICAL_IP_TRAINING: 64
NUM_OF_CRITICAL_IP_TRAINING_TABLE_WAYS: 2
NUM_OF_CRITICAL_IP_TRAINING_TABLE_SETS: 32
WOBBLY_CRITICAL_IP_CACHE_SETS: 32
WOBBLY_CRITICAL_IP_CACHE_WAYS: 4
BTB has LRU replacement policy
ITLB has LRU replacement policy
DTLB has LRU replacement policy
STLB has LRU replacement policy
L1I has LRU replacement policy
IP Table Entries: 64
L1D has LRU replacement policy
Initialize SRRIP state for L2C
Initialize DRRIP state for LLC
Heartbeat CPU 0 instructions: 10000000 cycles: 3672578 heartbeat IPC: 2.72288 cumulative IPC: 2.72288 (Simulation time: 0 hr 4 min 6 sec) 
Heartbeat CPU 0 instructions: 20000003 cycles: 7343508 heartbeat IPC: 2.72411 cumulative IPC: 2.72349 (Simulation time: 0 hr 7 min 7 sec) 
Heartbeat CPU 0 instructions: 30000000 cycles: 11014426 heartbeat IPC: 2.72411 cumulative IPC: 2.7237 (Simulation time: 0 hr 10 min 17 sec) 
Heartbeat CPU 0 instructions: 40000003 cycles: 14685381 heartbeat IPC: 2.72409 cumulative IPC: 2.7238 (Simulation time: 0 hr 13 min 3 sec) 
Heartbeat CPU 0 instructions: 50000000 cycles: 18358713 heartbeat IPC: 2.72232 cumulative IPC: 2.7235 (Simulation time: 0 hr 15 min 26 sec) 

Warmup complete CPU 0 instructions: 50000004 cycles: 18358714 (Simulation time: 0 hr 15 min 26 sec) 

% increase in all ip prefetch 207.461
% increase in all ip prefetch 0.125248
Heartbeat CPU 0 instructions: 60000000 cycles: 30190277 heartbeat IPC: 0.845197 cumulative IPC: 0.845197 (Simulation time: 0 hr 18 min 11 sec) 
Heartbeat CPU 0 instructions: 70000001 cycles: 42097203 heartbeat IPC: 0.839847 cumulative IPC: 0.842514 (Simulation time: 0 hr 20 min 52 sec) 
Heartbeat CPU 0 instructions: 80000001 cycles: 54036939 heartbeat IPC: 0.837539 cumulative IPC: 0.840849 (Simulation time: 0 hr 23 min 33 sec) 
Heartbeat CPU 0 instructions: 90000002 cycles: 65953992 heartbeat IPC: 0.839134 cumulative IPC: 0.840419 (Simulation time: 0 hr 26 min 14 sec) 
Heartbeat CPU 0 instructions: 100000000 cycles: 77809879 heartbeat IPC: 0.843463 cumulative IPC: 0.841026 (Simulation time: 0 hr 28 min 53 sec) 
Heartbeat CPU 0 instructions: 110000000 cycles: 89686814 heartbeat IPC: 0.841968 cumulative IPC: 0.841183 (Simulation time: 0 hr 31 min 22 sec) 
Heartbeat CPU 0 instructions: 120000002 cycles: 101555784 heartbeat IPC: 0.842533 cumulative IPC: 0.841376 (Simulation time: 0 hr 33 min 46 sec) 
Heartbeat CPU 0 instructions: 130000002 cycles: 113456992 heartbeat IPC: 0.840251 cumulative IPC: 0.841235 (Simulation time: 0 hr 36 min 5 sec) 
Heartbeat CPU 0 instructions: 140000000 cycles: 125328630 heartbeat IPC: 0.842344 cumulative IPC: 0.841358 (Simulation time: 0 hr 38 min 24 sec) 
Heartbeat CPU 0 instructions: 150000000 cycles: 137232153 heartbeat IPC: 0.840087 cumulative IPC: 0.841231 (Simulation time: 0 hr 40 min 10 sec) 
Finished CPU 0 instructions: 100000002 cycles: 118873458 cumulative IPC: 0.841231 (Simulation time: 0 hr 40 min 10 sec) 

ChampSim completed all CPUs

Region of Interest Statistics

CPU 0 cumulative IPC: 0.841231 instructions: 100000002 cycles: 118873458

CPU 0 Average Load ROB stall cycles: 2.5487e+07
CPU 0 Fraction of times ROB stalled by Loads: 32.7613
CPU 0 Percentage of Load stall cycles in Total stall cycles: 4.22592e+08
Issued all: 61317168
Issued LT all: 47983021
rob_not_full_when_issued_lt_all: 33166352
Issued LT one: 41823018
rob_not_full_when_issued_lt_one: 28133814
 Total stall cycles: 96157970
 Total load stall cycles: 406356031072955
Unique Load IPs: 2309
CPU 0 NUM of IPS identified critical: 0
CPU 0 Num of Load IPs stalling ROB: 2103
Threshold modification factor: -1
Max PIST entries: 64
Min PIST entries: 0
Avg PIST entries: 42.6667
Trouble in retire width: 0.932937
MaC = Marked as critical.
lt_50_percent_before_Mac: 0
gt_90_percent_before_Mac: 0
gt_75_percent_before_Mac: 0
gt_50_percent_before_Mac: 0
stall_proportion_bin_same_before_after: 0
stall_proportion_bin_lower_before_after: 0
stall_proportion_bin_upper_before_after: 0
average_stall_proportion_before: -nan
average_stall_proportion_after: -nan
Critical IP stalls, total frequency: 0
Non-critical IP stalls, total frequency: 5223351
Total Freq all stalling IPs: 5223351
Critical_IP_Detector_Accuracy_70: -nan
Critical_IP_Detector_Accuracy_80: -nan
Critical_IP_Detector_Accuracy_90: -nan
Critical_IP_Detector_Coverage_70: 0
Critical_IP_Detector_Coverage_80: 0
Critical_IP_Detector_Coverage_90: 0
stat_90_percent_critical_ip_stalls_freq: 4703030
stat_90_percent_non_critical_ip_stalls_freq: 520321
AVERAGE_ROB_Occupancy_90_Percent_Critical_IP_Stalls: 79.5807
AVERAGE_ROB_Occupancy_90_Percent_Non_Critical_IP_Stalls: 152.528
Critical_IP_ROB_Stalls_Bucket_0: 0
Non-critical_IP_ROB_Stalls_Bucket_0: 2875634
Critical_IP_ROB_Stalls_Bucket_1: 0
Non-critical_IP_ROB_Stalls_Bucket_1: 1134633
Critical_IP_ROB_Stalls_Bucket_2: 0
Non-critical_IP_ROB_Stalls_Bucket_2: 325362
Critical_IP_ROB_Stalls_Bucket_3: 0
Non-critical_IP_ROB_Stalls_Bucket_3: 179342
Critical_IP_ROB_Stalls_Bucket_4: 0
Non-critical_IP_ROB_Stalls_Bucket_4: 91940
Critical_IP_ROB_Stalls_Bucket_5: 0
Non-critical_IP_ROB_Stalls_Bucket_5: 161276
Critical_IP_ROB_Stalls_Bucket_6: 0
Non-critical_IP_ROB_Stalls_Bucket_6: 455164
0 => IPs accounting for >50 percent of stalls, 1 => 55, 2 => 60, 3 => 65 and so on till 90.
percent50: 50.1401 num IPs:  147
percent55: 55.1069 num IPs: 164
percent60: 60.196 num IPs: 182
percent65: 65.0992 num IPs: 200
percent70: 70.0476 num IPs: 220
percent75: 75.0437 num IPs: 244
percent80: 80.041 num IPs: 278
percent85: 85.0682 num IPs: 335
percent90: 90.0385 num IPs: 430
Critical_ROB_Stalls_Percent_0_Bucket_0: 1834907
Non-critical_ROB_Stalls_Percent_0_Bucket_0: 1040727
Critical_ROB_Stalls_Percent_0_Bucket_1: 586077
Non-critical_ROB_Stalls_Percent_0_Bucket_1: 548556
Critical_ROB_Stalls_Percent_0_Bucket_2: 64857
Non-critical_ROB_Stalls_Percent_0_Bucket_2: 260505
Critical_ROB_Stalls_Percent_0_Bucket_3: 39551
Non-critical_ROB_Stalls_Percent_0_Bucket_3: 139791
Critical_ROB_Stalls_Percent_0_Bucket_4: 17417
Non-critical_ROB_Stalls_Percent_0_Bucket_4: 74523
Critical_ROB_Stalls_Percent_0_Bucket_5: 9184
Non-critical_ROB_Stalls_Percent_0_Bucket_5: 152092
Critical_ROB_Stalls_Percent_0_Bucket_6: 67002
Non-critical_ROB_Stalls_Percent_0_Bucket_6: 388162
Critical_ROB_Stalls_Percent_1_Bucket_0: 1941240
Non-critical_ROB_Stalls_Percent_1_Bucket_0: 934394
Critical_ROB_Stalls_Percent_1_Bucket_1: 626734
Non-critical_ROB_Stalls_Percent_1_Bucket_1: 507899
Critical_ROB_Stalls_Percent_1_Bucket_2: 97806
Non-critical_ROB_Stalls_Percent_1_Bucket_2: 227556
Critical_ROB_Stalls_Percent_1_Bucket_3: 61546
Non-critical_ROB_Stalls_Percent_1_Bucket_3: 117796
Critical_ROB_Stalls_Percent_1_Bucket_4: 26008
Non-critical_ROB_Stalls_Percent_1_Bucket_4: 65932
Critical_ROB_Stalls_Percent_1_Bucket_5: 19730
Non-critical_ROB_Stalls_Percent_1_Bucket_5: 141546
Critical_ROB_Stalls_Percent_1_Bucket_6: 105361
Non-critical_ROB_Stalls_Percent_1_Bucket_6: 349803
Critical_ROB_Stalls_Percent_2_Bucket_0: 2102969
Non-critical_ROB_Stalls_Percent_2_Bucket_0: 772665
Critical_ROB_Stalls_Percent_2_Bucket_1: 641807
Non-critical_ROB_Stalls_Percent_2_Bucket_1: 492826
Critical_ROB_Stalls_Percent_2_Bucket_2: 125099
Non-critical_ROB_Stalls_Percent_2_Bucket_2: 200263
Critical_ROB_Stalls_Percent_2_Bucket_3: 78336
Non-critical_ROB_Stalls_Percent_2_Bucket_3: 101006
Critical_ROB_Stalls_Percent_2_Bucket_4: 31335
Non-critical_ROB_Stalls_Percent_2_Bucket_4: 60605
Critical_ROB_Stalls_Percent_2_Bucket_5: 30407
Non-critical_ROB_Stalls_Percent_2_Bucket_5: 130869
Critical_ROB_Stalls_Percent_2_Bucket_6: 134293
Non-critical_ROB_Stalls_Percent_2_Bucket_6: 320871
Critical_ROB_Stalls_Percent_3_Bucket_0: 2315088
Non-critical_ROB_Stalls_Percent_3_Bucket_0: 560546
Critical_ROB_Stalls_Percent_3_Bucket_1: 660654
Non-critical_ROB_Stalls_Percent_3_Bucket_1: 473979
Critical_ROB_Stalls_Percent_3_Bucket_2: 135722
Non-critical_ROB_Stalls_Percent_3_Bucket_2: 189640
Critical_ROB_Stalls_Percent_3_Bucket_3: 83636
Non-critical_ROB_Stalls_Percent_3_Bucket_3: 95706
Critical_ROB_Stalls_Percent_3_Bucket_4: 32790
Non-critical_ROB_Stalls_Percent_3_Bucket_4: 59150
Critical_ROB_Stalls_Percent_3_Bucket_5: 31727
Non-critical_ROB_Stalls_Percent_3_Bucket_5: 129549
Critical_ROB_Stalls_Percent_3_Bucket_6: 140743
Non-critical_ROB_Stalls_Percent_3_Bucket_6: 314421
Critical_ROB_Stalls_Percent_4_Bucket_0: 2506134
Non-critical_ROB_Stalls_Percent_4_Bucket_0: 369500
Critical_ROB_Stalls_Percent_4_Bucket_1: 696717
Non-critical_ROB_Stalls_Percent_4_Bucket_1: 437916
Critical_ROB_Stalls_Percent_4_Bucket_2: 149494
Non-critical_ROB_Stalls_Percent_4_Bucket_2: 175868
Critical_ROB_Stalls_Percent_4_Bucket_3: 86978
Non-critical_ROB_Stalls_Percent_4_Bucket_3: 92364
Critical_ROB_Stalls_Percent_4_Bucket_4: 34021
Non-critical_ROB_Stalls_Percent_4_Bucket_4: 57919
Critical_ROB_Stalls_Percent_4_Bucket_5: 34541
Non-critical_ROB_Stalls_Percent_4_Bucket_5: 126735
Critical_ROB_Stalls_Percent_4_Bucket_6: 150947
Non-critical_ROB_Stalls_Percent_4_Bucket_6: 304217
Critical_ROB_Stalls_Percent_5_Bucket_0: 2586743
Non-critical_ROB_Stalls_Percent_5_Bucket_0: 288891
Critical_ROB_Stalls_Percent_5_Bucket_1: 778883
Non-critical_ROB_Stalls_Percent_5_Bucket_1: 355750
Critical_ROB_Stalls_Percent_5_Bucket_2: 185859
Non-critical_ROB_Stalls_Percent_5_Bucket_2: 139503
Critical_ROB_Stalls_Percent_5_Bucket_3: 100117
Non-critical_ROB_Stalls_Percent_5_Bucket_3: 79225
Critical_ROB_Stalls_Percent_5_Bucket_4: 39598
Non-critical_ROB_Stalls_Percent_5_Bucket_4: 52342
Critical_ROB_Stalls_Percent_5_Bucket_5: 52480
Non-critical_ROB_Stalls_Percent_5_Bucket_5: 108796
Critical_ROB_Stalls_Percent_5_Bucket_6: 176116
Non-critical_ROB_Stalls_Percent_5_Bucket_6: 279048
Critical_ROB_Stalls_Percent_6_Bucket_0: 2661410
Non-critical_ROB_Stalls_Percent_6_Bucket_0: 214224
Critical_ROB_Stalls_Percent_6_Bucket_1: 863090
Non-critical_ROB_Stalls_Percent_6_Bucket_1: 271543
Critical_ROB_Stalls_Percent_6_Bucket_2: 218494
Non-critical_ROB_Stalls_Percent_6_Bucket_2: 106868
Critical_ROB_Stalls_Percent_6_Bucket_3: 114455
Non-critical_ROB_Stalls_Percent_6_Bucket_3: 64887
Critical_ROB_Stalls_Percent_6_Bucket_4: 49716
Non-critical_ROB_Stalls_Percent_6_Bucket_4: 42224
Critical_ROB_Stalls_Percent_6_Bucket_5: 81392
Non-critical_ROB_Stalls_Percent_6_Bucket_5: 79884
Critical_ROB_Stalls_Percent_6_Bucket_6: 192268
Non-critical_ROB_Stalls_Percent_6_Bucket_6: 262896
Critical_ROB_Stalls_Percent_7_Bucket_0: 2714686
Non-critical_ROB_Stalls_Percent_7_Bucket_0: 160948
Critical_ROB_Stalls_Percent_7_Bucket_1: 941282
Non-critical_ROB_Stalls_Percent_7_Bucket_1: 193351
Critical_ROB_Stalls_Percent_7_Bucket_2: 245052
Non-critical_ROB_Stalls_Percent_7_Bucket_2: 80310
Critical_ROB_Stalls_Percent_7_Bucket_3: 131805
Non-critical_ROB_Stalls_Percent_7_Bucket_3: 47537
Critical_ROB_Stalls_Percent_7_Bucket_4: 61199
Non-critical_ROB_Stalls_Percent_7_Bucket_4: 30741
Critical_ROB_Stalls_Percent_7_Bucket_5: 104087
Non-critical_ROB_Stalls_Percent_7_Bucket_5: 57189
Critical_ROB_Stalls_Percent_7_Bucket_6: 245301
Non-critical_ROB_Stalls_Percent_7_Bucket_6: 209863
Critical_ROB_Stalls_Percent_8_Bucket_0: 2752984
Non-critical_ROB_Stalls_Percent_8_Bucket_0: 122650
Critical_ROB_Stalls_Percent_8_Bucket_1: 993845
Non-critical_ROB_Stalls_Percent_8_Bucket_1: 140788
Critical_ROB_Stalls_Percent_8_Bucket_2: 268145
Non-critical_ROB_Stalls_Percent_8_Bucket_2: 57217
Critical_ROB_Stalls_Percent_8_Bucket_3: 147977
Non-critical_ROB_Stalls_Percent_8_Bucket_3: 31365
Critical_ROB_Stalls_Percent_8_Bucket_4: 73718
Non-critical_ROB_Stalls_Percent_8_Bucket_4: 18222
Critical_ROB_Stalls_Percent_8_Bucket_5: 122343
Non-critical_ROB_Stalls_Percent_8_Bucket_5: 38933
Critical_ROB_Stalls_Percent_8_Bucket_6: 344018
Non-critical_ROB_Stalls_Percent_8_Bucket_6: 111146
Average ROB occupancy Load Stall Begin: 76.8772
Average ROB occupancy Load Stall End: 86.8473
Min ROB occupancy Load Stall Begin: 1
Max ROB occupancy Load Stall Begin: 352
Min ROB occupancy Load Stall End: 1
Max ROB occupancy Load Stall End: 352
Average ROB occupancy Critical Load Stall Begin: -nan
Average ROB occupancy Critical Load Stall End: -nan
Min ROB occupancy Critical Load Stall Begin: 400
Max ROB occupancy Critical Load Stall Begin: 0
Min ROB occupancy Critical Load Stall End: 400
Max ROB occupancy Critical Load Stall End: 0
 ROB Load Stall Begin Bucket Count 0: 3314747
 ROB Load Stall End Bucket Count 0: 2875634
 ROB Critical Load Stall Begin Bucket Count 0: 0
 ROB Critical Load Stall End Bucket Count 0: 0
 ROB Load Stall Begin Bucket Count 1: 816823
 ROB Load Stall End Bucket Count 1: 1134633
 ROB Critical Load Stall Begin Bucket Count 1: 0
 ROB Critical Load Stall End Bucket Count 1: 0
 ROB Load Stall Begin Bucket Count 2: 285562
 ROB Load Stall End Bucket Count 2: 325362
 ROB Critical Load Stall Begin Bucket Count 2: 0
 ROB Critical Load Stall End Bucket Count 2: 0
 ROB Load Stall Begin Bucket Count 3: 140725
 ROB Load Stall End Bucket Count 3: 179342
 ROB Critical Load Stall Begin Bucket Count 3: 0
 ROB Critical Load Stall End Bucket Count 3: 0
 ROB Load Stall Begin Bucket Count 4: 81730
 ROB Load Stall End Bucket Count 4: 91940
 ROB Critical Load Stall Begin Bucket Count 4: 0
 ROB Critical Load Stall End Bucket Count 4: 0
 ROB Load Stall Begin Bucket Count 5: 212954
 ROB Load Stall End Bucket Count 5: 161276
 ROB Critical Load Stall Begin Bucket Count 5: 0
 ROB Critical Load Stall End Bucket Count 5: 0
 ROB Load Stall Begin Bucket Count 6: 370810
 ROB Load Stall End Bucket Count 6: 455164
 ROB Critical Load Stall Begin Bucket Count 6: 0
 ROB Critical Load Stall End Bucket Count 6: 0
PIST Tag Read Accesses: 5673612
PIST Read Accesses: 2836806
PIST Tag Write Accesses: 5673612
PIST Write Accesses: 2836806
Criticality detector called times: 5223351
Max global_stall_cycles_count: 4111151
Threshold Modified: 1 times, factor: -1
Sturdy critical IP cache stats: 
 Unused entries: 0
CIC Tag Read Accesses: 0
CIC Read Accesses: 0
CIC Tag Write Accesses: 0
CIC Write Accesses: 0
Wobbly critical IP cache stats: 
 Unused entries: 128
CIC Tag Read Accesses: 218927068
CIC Read Accesses: 0
CIC Tag Write Accesses: 0
CIC Write Accesses: 0
ITLB TOTAL     ACCESS:   14010031  HIT:   14010031  MISS:          0  HIT %:        100  MISS %:          0   MPKI: 0
ITLB LOAD TRANSLATION ACCESS:   14010031  HIT:   14010031  MISS:          0  HIT %:        100  MISS %:          0   MPKI: 0
ITLB PREFETCH  REQUESTED:          0  ISSUED:          0  USEFUL:          0  USELESS:          0
ITLB USEFUL LOAD PREFETCHES:          0 PREFETCH ISSUED TO LOWER LEVEL:          0  ACCURACY: -nan
ITLB TIMELY PREFETCHES:          0 LATE PREFETCHES: 0 DROPPED PREFETCHES: 0
ITLB PREFETCHES SAME FILL-ORIGIN LEVEL: 0 DIFFERENT FILL-ORIGIN LEVEL: 0
ITLB AVERAGE MISS LATENCY: -nan cycles
ITLB RQ	ACCESS:   17136571	FORWARD:          0	MERGED:    3126540	TO_CACHE:   14010031

DTLB TOTAL     ACCESS:   29986264  HIT:   26200913  MISS:    3785351  HIT %:    87.3764  MISS %:    12.6236   MPKI: 37.8535
DTLB LOAD TRANSLATION ACCESS:   29986264  HIT:   26200913  MISS:    3785351  HIT %:    87.3764  MISS %:    12.6236   MPKI: 37.8535
DTLB PREFETCH  REQUESTED:          0  ISSUED:          0  USEFUL:          0  USELESS:          0
DTLB USEFUL LOAD PREFETCHES:          0 PREFETCH ISSUED TO LOWER LEVEL:          0  ACCURACY: -nan
DTLB TIMELY PREFETCHES:          0 LATE PREFETCHES: 0 DROPPED PREFETCHES: 0
DTLB PREFETCHES SAME FILL-ORIGIN LEVEL: 0 DIFFERENT FILL-ORIGIN LEVEL: 0
DTLB AVERAGE MISS LATENCY: 9.98345 cycles
DTLB RQ	ACCESS:   39371125	FORWARD:          0	MERGED:    8994874	TO_CACHE:   30376251

STLB TOTAL     ACCESS:    3785354  HIT:    3781302  MISS:       4052  HIT %:     99.893  MISS %:   0.107044   MPKI: 0.04052
STLB LOAD TRANSLATION ACCESS:    3785351  HIT:    3781299  MISS:       4052  HIT %:     99.893  MISS %:   0.107044   MPKI: 0.04052
STLB TRANSLATION FROM L1D PREFETCHER ACCESS:          3  HIT:          3  MISS:          0  HIT %:        100  MISS %:          0   MPKI: 0
STLB PREFETCH  REQUESTED:          0  ISSUED:          0  USEFUL:          0  USELESS:          0
STLB USEFUL LOAD PREFETCHES:          0 PREFETCH ISSUED TO LOWER LEVEL:          0  ACCURACY: -nan
STLB TIMELY PREFETCHES:          0 LATE PREFETCHES: 0 DROPPED PREFETCHES: 0
STLB PREFETCHES SAME FILL-ORIGIN LEVEL: 0 DIFFERENT FILL-ORIGIN LEVEL: 0
STLB AVERAGE MISS LATENCY: 570.64 cycles
STLB RQ	ACCESS:    3785355	FORWARD:          0	MERGED:          0	TO_CACHE:    3785355

STLB Hit, L1D data hit: 0
STLB Hit, L2C data hit: 0
STLB Hit, LLC data hit: 0
STLB Hit, LLC data miss: 0
STLB STLB hints to L2: 0
L1D TOTAL     ACCESS:   39166241  HIT:   31838684  MISS:    7327557  HIT %:    81.2911  MISS %:    18.7089   MPKI: 73.2756
L1D LOAD      ACCESS:   31261666  HIT:   24536713  MISS:    6724953  HIT %:    78.4882  MISS %:    21.5118   MPKI: 67.2495
L1D RFO       ACCESS:    7904572  HIT:    7301969  MISS:     602603  HIT %:    92.3765  MISS %:    7.62347   MPKI: 6.02603
L1D PREFETCH  ACCESS:          3  HIT:          2  MISS:          1  HIT %:    66.6667  MISS %:    33.3333   MPKI: 1e-05
L1D PREFETCH  REQUESTED:          6  ISSUED:          6  USEFUL:          3  USELESS:          0
L1D USEFUL LOAD PREFETCHES:          3 PREFETCH ISSUED TO LOWER LEVEL:          1  ACCURACY: 300
L1D TIMELY PREFETCHES:          3 LATE PREFETCHES: 0 DROPPED PREFETCHES: 0
L1D PREFETCHES SAME FILL-ORIGIN LEVEL: 1 DIFFERENT FILL-ORIGIN LEVEL: 0
L1D AVERAGE MISS LATENCY: 29.1101 cycles
L1D RQ	ACCESS:   38689307	FORWARD:          0	MERGED:    7241004	TO_CACHE:   31417427
L1D WQ	ACCESS:    8007893	FORWARD:      30876	MERGED:      54195	TO_CACHE:    7953698
L1D PQ	ACCESS:          3	FORWARD:          0	MERGED:          0	TO_CACHE:          3

L1D UNIQUE REGIONS ACCESSED: 0
L1D REGIONS CONFLICTS: 0
L1D Cross Page Prefetch Requests: 0
L1D Same Page Prefetch Requests: 9000
L1D ROI Sum of L1D PQ occupancy: 39
L1D PREFETCHES PUSHED FROM L2C: 0
L1I TOTAL     ACCESS:   15675452  HIT:   12783239  MISS:    2892213  HIT %:    81.5494  MISS %:    18.4506   MPKI: 28.9221
L1I LOAD      ACCESS:   15675452  HIT:   12783239  MISS:    2892213  HIT %:    81.5494  MISS %:    18.4506   MPKI: 28.9221
L1I PREFETCH  REQUESTED:          0  ISSUED:          0  USEFUL:          0  USELESS:          0
L1I USEFUL LOAD PREFETCHES:          0 PREFETCH ISSUED TO LOWER LEVEL:          0  ACCURACY: -nan
L1I TIMELY PREFETCHES:          0 LATE PREFETCHES: 0 DROPPED PREFETCHES: 0
L1I PREFETCHES SAME FILL-ORIGIN LEVEL: 0 DIFFERENT FILL-ORIGIN LEVEL: 0
L1I AVERAGE MISS LATENCY: 14.0891 cycles
L1I RQ	ACCESS:   23893527	FORWARD:          0	MERGED:    6756956	TO_CACHE:   17136571

BTB TOTAL     ACCESS:     572857  HIT:     536484  MISS:      36373  HIT %:    93.6506  MISS %:     6.3494   MPKI: 0.36373
BTB BRANCH_DIRECT_JUMP	ACCESS:     108646  HIT:     108615  MISS:         31
BTB BRANCH_INDIRECT	ACCESS:      18082  HIT:      18080  MISS:          2
BTB BRANCH_CONDITIONAL	ACCESS:     229079  HIT:     228994  MISS:         85
BTB BRANCH_DIRECT_CALL	ACCESS:     108525  HIT:     108481  MISS:         44
BTB BRANCH_INDIRECT_CALL	ACCESS:          0  HIT:          0  MISS:          0
BTB BRANCH_RETURN	ACCESS:     108525  HIT:      72314  MISS:      36211
BTB BRANCH_OTHER ACCESS:          0  HIT:          0  MISS:          0

L2C TOTAL     ACCESS:   10874083  HIT:   10346515  MISS:     527568  HIT %:    95.1484  MISS %:    4.85161   MPKI: 5.27568
L2C LOAD      ACCESS:    9616271  HIT:    9155889  MISS:     460382  HIT %:    95.2125  MISS %:    4.78753   MPKI: 4.60382
L2C DATA LOAD MPKI: 4.59956
L2C INSTRUCTION LOAD MPKI: 0.00426
L2C RFO       ACCESS:     602139  HIT:     543575  MISS:      58564  HIT %:     90.274  MISS %:    9.72599   MPKI: 0.58564
L2C PREFETCH  ACCESS:          1  HIT:          1  MISS:          0  HIT %:        100  MISS %:          0   MPKI: 0
L2C DATA PREFETCH MPKI: 0
L2C INSTRUCTION PREFETCH MPKI: 0
L2C WRITEBACK ACCESS:     649563  HIT:     646985  MISS:       2578  HIT %:    99.6031  MISS %:   0.396882   MPKI: 0.02578
L2C LOAD TRANSLATION ACCESS:       6109  HIT:         65  MISS:       6044  HIT %:      1.064  MISS %:     98.936   MPKI: 0.06044
L2C PREFETCH  REQUESTED:          0  ISSUED:          0  USEFUL:          0  USELESS:          1
L2C USEFUL LOAD PREFETCHES:          0 PREFETCH ISSUED TO LOWER LEVEL:          0  ACCURACY: -nan
L2C TIMELY PREFETCHES:          0 LATE PREFETCHES: 0 DROPPED PREFETCHES: 0
L2C PREFETCHES SAME FILL-ORIGIN LEVEL: 0 DIFFERENT FILL-ORIGIN LEVEL: 0
L2C AVERAGE MISS LATENCY: 189.288 cycles
L2C RQ	ACCESS:   10225886	FORWARD:          0	MERGED:          0	TO_CACHE:   10224526
L2C WQ	ACCESS:     649563	FORWARD:       1360	MERGED:          0	TO_CACHE:     649563
L2C PQ	ACCESS:          1	FORWARD:          0	MERGED:          0	TO_CACHE:          1

L2C Instructions Evicting Data 419
L2C Translations Evicting Data 5991
L2C Data Evicting Data 512074
L2C Instructions Evicting Instructions 6
L2C Translations Evicting Instructions 3
L2C Data Evicting Instructions 415
L2C Instructions Evicting Translations 1
L2C Translations Evicting Translations 50
L2C Data Evicting Translations 6031
L2C Dense regions hint from L2: 0
PSCL5 TOTAL     ACCESS:       4052  HIT:       4052  MISS:          0  HIT %:        100  MISS %:          0   MPKI: 0
PSCL5 LOAD TRANSLATION ACCESS:       4052  HIT:       4052  MISS:          0  HIT %:        100  MISS %:          0   MPKI: 0
PSCL5 PREFETCH  REQUESTED:          0  ISSUED:          0  USEFUL:          0  USELESS:          0
PSCL5 USEFUL LOAD PREFETCHES:          0 PREFETCH ISSUED TO LOWER LEVEL:          0  ACCURACY: -nan
PSCL5 TIMELY PREFETCHES:          0 LATE PREFETCHES: 0 DROPPED PREFETCHES: 0
PSCL5 PREFETCHES SAME FILL-ORIGIN LEVEL: 0 DIFFERENT FILL-ORIGIN LEVEL: 0

PSCL4 TOTAL     ACCESS:       4052  HIT:       4052  MISS:          0  HIT %:        100  MISS %:          0   MPKI: 0
PSCL4 LOAD TRANSLATION ACCESS:       4052  HIT:       4052  MISS:          0  HIT %:        100  MISS %:          0   MPKI: 0
PSCL4 PREFETCH  REQUESTED:          0  ISSUED:          0  USEFUL:          0  USELESS:          0
PSCL4 USEFUL LOAD PREFETCHES:          0 PREFETCH ISSUED TO LOWER LEVEL:          0  ACCURACY: -nan
PSCL4 TIMELY PREFETCHES:          0 LATE PREFETCHES: 0 DROPPED PREFETCHES: 0
PSCL4 PREFETCHES SAME FILL-ORIGIN LEVEL: 0 DIFFERENT FILL-ORIGIN LEVEL: 0

PSCL3 TOTAL     ACCESS:       4040  HIT:       4038  MISS:          2  HIT %:    99.9505  MISS %:   0.049505   MPKI: 2e-05
PSCL3 LOAD TRANSLATION ACCESS:       4040  HIT:       4038  MISS:          2  HIT %:    99.9505  MISS %:   0.049505   MPKI: 2e-05
PSCL3 PREFETCH  REQUESTED:          0  ISSUED:          0  USEFUL:          0  USELESS:          0
PSCL3 USEFUL LOAD PREFETCHES:          0 PREFETCH ISSUED TO LOWER LEVEL:          0  ACCURACY: -nan
PSCL3 TIMELY PREFETCHES:          0 LATE PREFETCHES: 0 DROPPED PREFETCHES: 0
PSCL3 PREFETCHES SAME FILL-ORIGIN LEVEL: 0 DIFFERENT FILL-ORIGIN LEVEL: 0

PSCL2 TOTAL     ACCESS:       4052  HIT:       1992  MISS:       2060  HIT %:    49.1609  MISS %:    50.8391   MPKI: 0.0206
PSCL2 LOAD TRANSLATION ACCESS:       4052  HIT:       1992  MISS:       2060  HIT %:    49.1609  MISS %:    50.8391   MPKI: 0.0206
PSCL2 PREFETCH  REQUESTED:          0  ISSUED:          0  USEFUL:          0  USELESS:          0
PSCL2 USEFUL LOAD PREFETCHES:          0 PREFETCH ISSUED TO LOWER LEVEL:          0  ACCURACY: -nan
PSCL2 TIMELY PREFETCHES:          0 LATE PREFETCHES: 0 DROPPED PREFETCHES: 0
PSCL2 PREFETCHES SAME FILL-ORIGIN LEVEL: 0 DIFFERENT FILL-ORIGIN LEVEL: 0

LLC TOTAL     ACCESS:     583572  HIT:     317551  MISS:     266021  HIT %:    54.4151  MISS %:    45.5849   MPKI: 2.66021
LLC LOAD      ACCESS:     460382  HIT:     254381  MISS:     206001  HIT %:    55.2543  MISS %:    44.7457   MPKI: 2.06001
LLC RFO       ACCESS:      58563  HIT:          1  MISS:      58562  HIT %: 0.00170756  MISS %:    99.9983   MPKI: 0.58562
LLC WRITEBACK ACCESS:      58583  HIT:      57682  MISS:        901  HIT %:     98.462  MISS %:    1.53799   MPKI: 0.00901
LLC LOAD TRANSLATION ACCESS:       6044  HIT:       5487  MISS:        557  HIT %:    90.7842  MISS %:    9.21575   MPKI: 0.00557
LLC PREFETCH  REQUESTED:          0  ISSUED:          0  USEFUL:         16  USELESS:         81
LLC USEFUL LOAD PREFETCHES:         16 PREFETCH ISSUED TO LOWER LEVEL:          0  ACCURACY: inf
LLC TIMELY PREFETCHES:         16 LATE PREFETCHES: 0 DROPPED PREFETCHES: 0
LLC PREFETCHES SAME FILL-ORIGIN LEVEL: 0 DIFFERENT FILL-ORIGIN LEVEL: 0
LLC AVERAGE MISS LATENCY: 315.061 cycles
LLC RQ	ACCESS:     524990	FORWARD:          0	MERGED:          0	TO_CACHE:     524989
LLC WQ	ACCESS:      58583	FORWARD:          1	MERGED:          0	TO_CACHE:      58583

LLC Dense regions hint to LLC: 0

RAW hits: 227203
Loads Generated: 38916517
Loads sent to L1D: 38689307
Stores Generated: 8008082
Stores sent to L1D: 8008082
Major fault: 0 Minor fault: 6510
Allocated PAGES: 6510

stream: 
stream:times selected: 7443
stream:pref_filled: 7908
stream:pref_useful: 3080
stream:pref_late: 6
stream:misses: 15
stream:misses_by_poll: 0

CS: 
CS:times selected: 149
CS:pref_filled: 231
CS:pref_useful: 128
CS:pref_late: 0
CS:misses: 56
CS:misses_by_poll: 0

CPLX: 
CPLX:times selected: 7097
CPLX:pref_filled: 519
CPLX:pref_useful: 202
CPLX:pref_late: 0
CPLX:misses: 1716
CPLX:misses_by_poll: 0

NL_L1: 
NL:times selected: 8
NL:pref_filled: 8
NL:pref_useful: 3
NL:pref_late: 0
NL:misses: 6
NL:misses_by_poll: 0

total selections: 14697
total_filled: 1
total_useful: 3
total_late: 17
total_polluted: 0
total_misses_after_warmup: 137462
conflicts: 313805
Degree Incremented Times: 0
Degree Decremented Times: 110303

L1 IP Table Write Accesses: 314562
L1 IP Table Read Accesses: 757
L1 RST Write Accesses: 358
L1 RST Read Accesses: 716
L1 CSPT Write Accesses: 358
L1 CSPT Read Accesses: 584
L1 RR Filter Tag Write Accesses: 3
L1 RR Filter Tag Read Accesses: 5600
L1 IP Table Tag Write Accesses: 628762
L1 IP Table Tag Read Accesses: 628762
L1 RST Tag Write Accesses: 0
L1 RST Tag Read Accesses: 3720
L1 RR Filter Write Accesses: 0
L1 RR Filter Read Accesses: 180
test: 468

DRAM Statistics
 CHANNEL 0
 RQ ROW_BUFFER_HIT:     139554  ROW_BUFFER_MISS:     125566
 DBUS_CONGESTED:        103
 WQ ROW_BUFFER_HIT:      18554  ROW_BUFFER_MISS:      39248  FULL:          0

 AVG_CONGESTED_CYCLE: 4
 All warmup complete: 2
Channel 0 Bank busy for read cycles: 0
Channel 0 Bank busy for write cycles: 0
Channel 0
Rank 0
0banks busy for read cycles: 93280866
0banks busy for write cycles: 26041
1banks busy for read cycles: 13179223
1banks busy for write cycles: 4933599
2banks busy for read cycles: 2528420
2banks busy for write cycles: 1150340
3banks busy for read cycles: 1325344
3banks busy for write cycles: 1090583
4banks busy for read cycles: 218217
4banks busy for write cycles: 314562
5banks busy for read cycles: 267235
5banks busy for write cycles: 150010
6banks busy for read cycles: 166606
6banks busy for write cycles: 131717
7banks busy for read cycles: 55949
7banks busy for write cycles: 54161
8banks busy for read cycles: 140
8banks busy for write cycles: 446

CPU 0 Branch Prediction Accuracy: 99.9863% MPKI: 0.00122 Average ROB Occupancy at Mispredict: 28.7377
Branch types
NOT_BRANCH: 99111781 99.1118%
BRANCH_DIRECT_JUMP: 108646 0.108646%
BRANCH_INDIRECT: 18082 0.018082%
BRANCH_CONDITIONAL: 544219 0.544219%
BRANCH_DIRECT_CALL: 108525 0.108525%
BRANCH_INDIRECT_CALL: 0 0%
BRANCH_RETURN: 108525 0.108525%
BRANCH_OTHER: 0 0%

DRAM PAGES: 1048576
Allocated PAGES: 6510
