
*** ChampSim Multicore Out-of-Order Simulator ***

Warmup Instructions: 50000000
Simulation Instructions: 100000000
Number of CPUs: 1
LLC sets: 2048
LLC ways: 16
Off-chip DRAM Size: 4096 MB Channels: 1 Width: 64-bit Data Rate: 6400 MT/s
CPU 0 runs ../SPEC2017//607.cactuBSSN_s-3477B.champsimtrace.xz
.xz
NUM_OF_IPS_IN_CRITICAL_IP_TRAINING: 64
NUM_OF_CRITICAL_IP_TRAINING_TABLE_WAYS: 2
NUM_OF_CRITICAL_IP_TRAINING_TABLE_SETS: 32
WOBBLY_CRITICAL_IP_CACHE_SETS: 32
WOBBLY_CRITICAL_IP_CACHE_WAYS: 4
BTB has LRU replacement policy
ITLB has LRU replacement policy
DTLB has LRU replacement policy
STLB has LRU replacement policy
L1I has LRU replacement policy
IP Table Entries: 256
L1D has LRU replacement policy
Initialize SRRIP state for L2C
Initialize DRRIP state for LLC
Heartbeat CPU 0 instructions: 10000000 cycles: 3672601 heartbeat IPC: 2.72287 cumulative IPC: 2.72287 (Simulation time: 0 hr 3 min 41 sec) 
Heartbeat CPU 0 instructions: 20000003 cycles: 7343577 heartbeat IPC: 2.72407 cumulative IPC: 2.72347 (Simulation time: 0 hr 7 min 26 sec) 
Heartbeat CPU 0 instructions: 30000000 cycles: 11014529 heartbeat IPC: 2.72409 cumulative IPC: 2.72368 (Simulation time: 0 hr 11 min 10 sec) 
Heartbeat CPU 0 instructions: 40000003 cycles: 14685413 heartbeat IPC: 2.72414 cumulative IPC: 2.72379 (Simulation time: 0 hr 14 min 52 sec) 
Heartbeat CPU 0 instructions: 50000000 cycles: 18358749 heartbeat IPC: 2.72232 cumulative IPC: 2.7235 (Simulation time: 0 hr 18 min 24 sec) 

Warmup complete CPU 0 instructions: 50000004 cycles: 18358750 (Simulation time: 0 hr 18 min 24 sec) 

% increase in all ip prefetch 207.299
% increase in all ip prefetch 0.094276
Heartbeat CPU 0 instructions: 60000000 cycles: 30182202 heartbeat IPC: 0.845777 cumulative IPC: 0.845776 (Simulation time: 0 hr 21 min 9 sec) 
Heartbeat CPU 0 instructions: 70000001 cycles: 42091158 heartbeat IPC: 0.839704 cumulative IPC: 0.842729 (Simulation time: 0 hr 23 min 55 sec) 
Heartbeat CPU 0 instructions: 80000001 cycles: 54033403 heartbeat IPC: 0.837363 cumulative IPC: 0.840933 (Simulation time: 0 hr 26 min 41 sec) 
Heartbeat CPU 0 instructions: 90000002 cycles: 65950023 heartbeat IPC: 0.839164 cumulative IPC: 0.84049 (Simulation time: 0 hr 29 min 23 sec) 
Heartbeat CPU 0 instructions: 100000000 cycles: 77809147 heartbeat IPC: 0.843232 cumulative IPC: 0.841037 (Simulation time: 0 hr 32 min 2 sec) 
Heartbeat CPU 0 instructions: 110000000 cycles: 89684818 heartbeat IPC: 0.842058 cumulative IPC: 0.841207 (Simulation time: 0 hr 34 min 43 sec) 
Heartbeat CPU 0 instructions: 120000002 cycles: 101557718 heartbeat IPC: 0.842254 cumulative IPC: 0.841357 (Simulation time: 0 hr 38 min 41 sec) 
Heartbeat CPU 0 instructions: 130000002 cycles: 113457704 heartbeat IPC: 0.840337 cumulative IPC: 0.841229 (Simulation time: 0 hr 44 min 36 sec) 
Heartbeat CPU 0 instructions: 140000000 cycles: 125334866 heartbeat IPC: 0.841952 cumulative IPC: 0.841309 (Simulation time: 0 hr 49 min 55 sec) 
Heartbeat CPU 0 instructions: 150000000 cycles: 137238680 heartbeat IPC: 0.840067 cumulative IPC: 0.841185 (Simulation time: 0 hr 54 min 33 sec) 
Finished CPU 0 instructions: 100000002 cycles: 118879949 cumulative IPC: 0.841185 (Simulation time: 0 hr 54 min 33 sec) 

ChampSim completed all CPUs

Region of Interest Statistics

CPU 0 cumulative IPC: 0.841185 instructions: 100000002 cycles: 118879949

CPU 0 Average Load ROB stall cycles: 2.54852e+07
CPU 0 Fraction of times ROB stalled by Loads: 32.7594
CPU 0 Percentage of Load stall cycles in Total stall cycles: 4.22539e+08
Issued all: 61323182
Issued LT all: 47989291
rob_not_full_when_issued_lt_all: 33166084
Issued LT one: 41828733
rob_not_full_when_issued_lt_one: 28133454
 Total stall cycles: 96164253
 Total load stall cycles: 406331677337525
CPU 0 NUM of IPS identified critical: 0
CPU 0 Num of Load IPs stalling ROB: 2103
Threshold modification factor: -1
Max PIST entries: 64
Min PIST entries: 0
Avg PIST entries: 42.6667
Trouble in retire width: 0.93295
MaC = Marked as critical.
lt_50_percent_before_Mac: 0
gt_90_percent_before_Mac: 0
gt_75_percent_before_Mac: 0
gt_50_percent_before_Mac: 0
stall_proportion_bin_same_before_after: 0
stall_proportion_bin_lower_before_after: 0
stall_proportion_bin_upper_before_after: 0
average_stall_proportion_before: -nan
average_stall_proportion_after: -nan
Critical IP stalls, total frequency: 0
Non-critical IP stalls, total frequency: 5223103
Total Freq all stalling IPs: 5223103
stat_90_percent_critical_ip_stalls_freq: 4702835
stat_90_percent_non_critical_ip_stalls_freq: 520268
Critical_IP_ROB_Stalls_Bucket_0: 0
Non-critical_IP_ROB_Stalls_Bucket_0: 2875570
Critical_IP_ROB_Stalls_Bucket_1: 0
Non-critical_IP_ROB_Stalls_Bucket_1: 1134771
Critical_IP_ROB_Stalls_Bucket_2: 0
Non-critical_IP_ROB_Stalls_Bucket_2: 325462
Critical_IP_ROB_Stalls_Bucket_3: 0
Non-critical_IP_ROB_Stalls_Bucket_3: 178962
Critical_IP_ROB_Stalls_Bucket_4: 0
Non-critical_IP_ROB_Stalls_Bucket_4: 91634
Critical_IP_ROB_Stalls_Bucket_5: 0
Non-critical_IP_ROB_Stalls_Bucket_5: 161269
Critical_IP_ROB_Stalls_Bucket_6: 0
Non-critical_IP_ROB_Stalls_Bucket_6: 455435
0 => IPs accounting for >50 percent of stalls, 1 => 55, 2 => 60, 3 => 65 and so on till 90.
percent50: 50.1409 num IPs:  147
percent55: 55.1081 num IPs: 164
percent60: 60.1973 num IPs: 182
percent65: 65.1005 num IPs: 200
percent70: 70.0489 num IPs: 220
percent75: 75.0455 num IPs: 244
percent80: 80.0439 num IPs: 278
percent85: 85.0009 num IPs: 334
percent90: 90.0391 num IPs: 430
Critical_ROB_Stalls_Percent_0_Bucket_0: 1834801
Non-critical_ROB_Stalls_Percent_0_Bucket_0: 1040769
Critical_ROB_Stalls_Percent_0_Bucket_1: 586077
Non-critical_ROB_Stalls_Percent_0_Bucket_1: 548694
Critical_ROB_Stalls_Percent_0_Bucket_2: 64896
Non-critical_ROB_Stalls_Percent_0_Bucket_2: 260566
Critical_ROB_Stalls_Percent_0_Bucket_3: 39528
Non-critical_ROB_Stalls_Percent_0_Bucket_3: 139434
Critical_ROB_Stalls_Percent_0_Bucket_4: 17308
Non-critical_ROB_Stalls_Percent_0_Bucket_4: 74326
Critical_ROB_Stalls_Percent_0_Bucket_5: 9183
Non-critical_ROB_Stalls_Percent_0_Bucket_5: 152086
Critical_ROB_Stalls_Percent_0_Bucket_6: 67117
Non-critical_ROB_Stalls_Percent_0_Bucket_6: 388318
Critical_ROB_Stalls_Percent_1_Bucket_0: 1941134
Non-critical_ROB_Stalls_Percent_1_Bucket_0: 934436
Critical_ROB_Stalls_Percent_1_Bucket_1: 626750
Non-critical_ROB_Stalls_Percent_1_Bucket_1: 508021
Critical_ROB_Stalls_Percent_1_Bucket_2: 97856
Non-critical_ROB_Stalls_Percent_1_Bucket_2: 227606
Critical_ROB_Stalls_Percent_1_Bucket_3: 61475
Non-critical_ROB_Stalls_Percent_1_Bucket_3: 117487
Critical_ROB_Stalls_Percent_1_Bucket_4: 25898
Non-critical_ROB_Stalls_Percent_1_Bucket_4: 65736
Critical_ROB_Stalls_Percent_1_Bucket_5: 19721
Non-critical_ROB_Stalls_Percent_1_Bucket_5: 141548
Critical_ROB_Stalls_Percent_1_Bucket_6: 105518
Non-critical_ROB_Stalls_Percent_1_Bucket_6: 349917
Critical_ROB_Stalls_Percent_2_Bucket_0: 2102851
Non-critical_ROB_Stalls_Percent_2_Bucket_0: 772719
Critical_ROB_Stalls_Percent_2_Bucket_1: 641833
Non-critical_ROB_Stalls_Percent_2_Bucket_1: 492938
Critical_ROB_Stalls_Percent_2_Bucket_2: 125157
Non-critical_ROB_Stalls_Percent_2_Bucket_2: 200305
Critical_ROB_Stalls_Percent_2_Bucket_3: 78214
Non-critical_ROB_Stalls_Percent_2_Bucket_3: 100748
Critical_ROB_Stalls_Percent_2_Bucket_4: 31226
Non-critical_ROB_Stalls_Percent_2_Bucket_4: 60408
Critical_ROB_Stalls_Percent_2_Bucket_5: 30429
Non-critical_ROB_Stalls_Percent_2_Bucket_5: 130840
Critical_ROB_Stalls_Percent_2_Bucket_6: 134458
Non-critical_ROB_Stalls_Percent_2_Bucket_6: 320977
Critical_ROB_Stalls_Percent_3_Bucket_0: 2314954
Non-critical_ROB_Stalls_Percent_3_Bucket_0: 560616
Critical_ROB_Stalls_Percent_3_Bucket_1: 660670
Non-critical_ROB_Stalls_Percent_3_Bucket_1: 474101
Critical_ROB_Stalls_Percent_3_Bucket_2: 135790
Non-critical_ROB_Stalls_Percent_3_Bucket_2: 189672
Critical_ROB_Stalls_Percent_3_Bucket_3: 83517
Non-critical_ROB_Stalls_Percent_3_Bucket_3: 95445
Critical_ROB_Stalls_Percent_3_Bucket_4: 32674
Non-critical_ROB_Stalls_Percent_3_Bucket_4: 58960
Critical_ROB_Stalls_Percent_3_Bucket_5: 31721
Non-critical_ROB_Stalls_Percent_3_Bucket_5: 129548
Critical_ROB_Stalls_Percent_3_Bucket_6: 140940
Non-critical_ROB_Stalls_Percent_3_Bucket_6: 314495
Critical_ROB_Stalls_Percent_4_Bucket_0: 2505988
Non-critical_ROB_Stalls_Percent_4_Bucket_0: 369582
Critical_ROB_Stalls_Percent_4_Bucket_1: 696744
Non-critical_ROB_Stalls_Percent_4_Bucket_1: 438027
Critical_ROB_Stalls_Percent_4_Bucket_2: 149546
Non-critical_ROB_Stalls_Percent_4_Bucket_2: 175916
Critical_ROB_Stalls_Percent_4_Bucket_3: 86849
Non-critical_ROB_Stalls_Percent_4_Bucket_3: 92113
Critical_ROB_Stalls_Percent_4_Bucket_4: 33903
Non-critical_ROB_Stalls_Percent_4_Bucket_4: 57731
Critical_ROB_Stalls_Percent_4_Bucket_5: 34545
Non-critical_ROB_Stalls_Percent_4_Bucket_5: 126724
Critical_ROB_Stalls_Percent_4_Bucket_6: 151153
Non-critical_ROB_Stalls_Percent_4_Bucket_6: 304282
Critical_ROB_Stalls_Percent_5_Bucket_0: 2586618
Non-critical_ROB_Stalls_Percent_5_Bucket_0: 288952
Critical_ROB_Stalls_Percent_5_Bucket_1: 778933
Non-critical_ROB_Stalls_Percent_5_Bucket_1: 355838
Critical_ROB_Stalls_Percent_5_Bucket_2: 185875
Non-critical_ROB_Stalls_Percent_5_Bucket_2: 139587
Critical_ROB_Stalls_Percent_5_Bucket_3: 99953
Non-critical_ROB_Stalls_Percent_5_Bucket_3: 79009
Critical_ROB_Stalls_Percent_5_Bucket_4: 39488
Non-critical_ROB_Stalls_Percent_5_Bucket_4: 52146
Critical_ROB_Stalls_Percent_5_Bucket_5: 52481
Non-critical_ROB_Stalls_Percent_5_Bucket_5: 108788
Critical_ROB_Stalls_Percent_5_Bucket_6: 176357
Non-critical_ROB_Stalls_Percent_5_Bucket_6: 279078
Critical_ROB_Stalls_Percent_6_Bucket_0: 2661342
Non-critical_ROB_Stalls_Percent_6_Bucket_0: 214228
Critical_ROB_Stalls_Percent_6_Bucket_1: 863159
Non-critical_ROB_Stalls_Percent_6_Bucket_1: 271612
Critical_ROB_Stalls_Percent_6_Bucket_2: 218508
Non-critical_ROB_Stalls_Percent_6_Bucket_2: 106954
Critical_ROB_Stalls_Percent_6_Bucket_3: 114261
Non-critical_ROB_Stalls_Percent_6_Bucket_3: 64701
Critical_ROB_Stalls_Percent_6_Bucket_4: 49555
Non-critical_ROB_Stalls_Percent_6_Bucket_4: 42079
Critical_ROB_Stalls_Percent_6_Bucket_5: 81402
Non-critical_ROB_Stalls_Percent_6_Bucket_5: 79867
Critical_ROB_Stalls_Percent_6_Bucket_6: 192551
Non-critical_ROB_Stalls_Percent_6_Bucket_6: 262884
Critical_ROB_Stalls_Percent_7_Bucket_0: 2714632
Non-critical_ROB_Stalls_Percent_7_Bucket_0: 160938
Critical_ROB_Stalls_Percent_7_Bucket_1: 941291
Non-critical_ROB_Stalls_Percent_7_Bucket_1: 193480
Critical_ROB_Stalls_Percent_7_Bucket_2: 244709
Non-critical_ROB_Stalls_Percent_7_Bucket_2: 80753
Critical_ROB_Stalls_Percent_7_Bucket_3: 130822
Non-critical_ROB_Stalls_Percent_7_Bucket_3: 48140
Critical_ROB_Stalls_Percent_7_Bucket_4: 60449
Non-critical_ROB_Stalls_Percent_7_Bucket_4: 31185
Critical_ROB_Stalls_Percent_7_Bucket_5: 103787
Non-critical_ROB_Stalls_Percent_7_Bucket_5: 57482
Critical_ROB_Stalls_Percent_7_Bucket_6: 243996
Non-critical_ROB_Stalls_Percent_7_Bucket_6: 211439
Critical_ROB_Stalls_Percent_8_Bucket_0: 2752923
Non-critical_ROB_Stalls_Percent_8_Bucket_0: 122647
Critical_ROB_Stalls_Percent_8_Bucket_1: 993951
Non-critical_ROB_Stalls_Percent_8_Bucket_1: 140820
Critical_ROB_Stalls_Percent_8_Bucket_2: 268201
Non-critical_ROB_Stalls_Percent_8_Bucket_2: 57261
Critical_ROB_Stalls_Percent_8_Bucket_3: 147674
Non-critical_ROB_Stalls_Percent_8_Bucket_3: 31288
Critical_ROB_Stalls_Percent_8_Bucket_4: 73451
Non-critical_ROB_Stalls_Percent_8_Bucket_4: 18183
Critical_ROB_Stalls_Percent_8_Bucket_5: 122353
Non-critical_ROB_Stalls_Percent_8_Bucket_5: 38916
Critical_ROB_Stalls_Percent_8_Bucket_6: 344282
Non-critical_ROB_Stalls_Percent_8_Bucket_6: 111153
Average ROB occupancy Load Stall Begin: 76.8758
Average ROB occupancy Load Stall End: 86.8456
Min ROB occupancy Load Stall Begin: 1
Max ROB occupancy Load Stall Begin: 352
Min ROB occupancy Load Stall End: 1
Max ROB occupancy Load Stall End: 352
Average ROB occupancy Critical Load Stall Begin: -nan
Average ROB occupancy Critical Load Stall End: -nan
Min ROB occupancy Critical Load Stall Begin: 400
Max ROB occupancy Critical Load Stall Begin: 0
Min ROB occupancy Critical Load Stall End: 400
Max ROB occupancy Critical Load Stall End: 0
 ROB Load Stall Begin Bucket Count 0: 3314668
 ROB Load Stall End Bucket Count 0: 2875570
 ROB Critical Load Stall Begin Bucket Count 0: 0
 ROB Critical Load Stall End Bucket Count 0: 0
 ROB Load Stall Begin Bucket Count 1: 817012
 ROB Load Stall End Bucket Count 1: 1134771
 ROB Critical Load Stall Begin Bucket Count 1: 0
 ROB Critical Load Stall End Bucket Count 1: 0
 ROB Load Stall Begin Bucket Count 2: 285544
 ROB Load Stall End Bucket Count 2: 325462
 ROB Critical Load Stall Begin Bucket Count 2: 0
 ROB Critical Load Stall End Bucket Count 2: 0
 ROB Load Stall Begin Bucket Count 3: 140325
 ROB Load Stall End Bucket Count 3: 178962
 ROB Critical Load Stall Begin Bucket Count 3: 0
 ROB Critical Load Stall End Bucket Count 3: 0
 ROB Load Stall Begin Bucket Count 4: 81439
 ROB Load Stall End Bucket Count 4: 91634
 ROB Critical Load Stall Begin Bucket Count 4: 0
 ROB Critical Load Stall End Bucket Count 4: 0
 ROB Load Stall Begin Bucket Count 5: 213100
 ROB Load Stall End Bucket Count 5: 161269
 ROB Critical Load Stall Begin Bucket Count 5: 0
 ROB Critical Load Stall End Bucket Count 5: 0
 ROB Load Stall Begin Bucket Count 6: 371015
 ROB Load Stall End Bucket Count 6: 455435
 ROB Critical Load Stall Begin Bucket Count 6: 0
 ROB Critical Load Stall End Bucket Count 6: 0
PIST Tag Read Accesses: 5673218
PIST Read Accesses: 2836609
PIST Tag Write Accesses: 5673218
PIST Write Accesses: 2836609
Criticality detector called times: 5223103
Max global_stall_cycles_count: 4106945
Threshold Modified: 1 times, factor: -1
Sturdy critical IP cache stats: 
 Unused entries: 0
CIC Tag Read Accesses: 0
CIC Read Accesses: 0
CIC Tag Write Accesses: 0
CIC Write Accesses: 0
Wobbly critical IP cache stats: 
 Unused entries: 128
CIC Tag Read Accesses: 219358060
CIC Read Accesses: 0
CIC Tag Write Accesses: 0
CIC Write Accesses: 0
ITLB TOTAL     ACCESS:   14010108  HIT:   14010108  MISS:          0  HIT %:        100  MISS %:          0   MPKI: 0
ITLB LOAD TRANSLATION ACCESS:   14010108  HIT:   14010108  MISS:          0  HIT %:        100  MISS %:          0   MPKI: 0
ITLB PREFETCH  REQUESTED:          0  ISSUED:          0  USEFUL:          0  USELESS:          0
ITLB USEFUL LOAD PREFETCHES:          0 PREFETCH ISSUED TO LOWER LEVEL:          0  ACCURACY: -nan
ITLB TIMELY PREFETCHES:          0 LATE PREFETCHES: 0 DROPPED PREFETCHES: 0
ITLB PREFETCHES SAME FILL-ORIGIN LEVEL: 0 DIFFERENT FILL-ORIGIN LEVEL: 0
ITLB AVERAGE MISS LATENCY: -nan cycles
ITLB RQ	ACCESS:   17136508	FORWARD:          0	MERGED:    3126400	TO_CACHE:   14010108

DTLB TOTAL     ACCESS:   29986381  HIT:   26201030  MISS:    3785351  HIT %:    87.3764  MISS %:    12.6236   MPKI: 37.8535
DTLB LOAD TRANSLATION ACCESS:   29986381  HIT:   26201030  MISS:    3785351  HIT %:    87.3764  MISS %:    12.6236   MPKI: 37.8535
DTLB PREFETCH  REQUESTED:          0  ISSUED:          0  USEFUL:          0  USELESS:          0
DTLB USEFUL LOAD PREFETCHES:          0 PREFETCH ISSUED TO LOWER LEVEL:          0  ACCURACY: -nan
DTLB TIMELY PREFETCHES:          0 LATE PREFETCHES: 0 DROPPED PREFETCHES: 0
DTLB PREFETCHES SAME FILL-ORIGIN LEVEL: 0 DIFFERENT FILL-ORIGIN LEVEL: 0
DTLB AVERAGE MISS LATENCY: 10.0006 cycles
DTLB RQ	ACCESS:   39371254	FORWARD:          0	MERGED:    8994953	TO_CACHE:   30376301

STLB TOTAL     ACCESS:    3785573  HIT:    3781521  MISS:       4052  HIT %:     99.893  MISS %:   0.107038   MPKI: 0.04052
STLB LOAD TRANSLATION ACCESS:    3785351  HIT:    3781299  MISS:       4052  HIT %:     99.893  MISS %:   0.107044   MPKI: 0.04052
STLB TRANSLATION FROM L1D PREFETCHER ACCESS:        222  HIT:        222  MISS:          0  HIT %:        100  MISS %:          0   MPKI: 0
STLB PREFETCH  REQUESTED:          0  ISSUED:          0  USEFUL:          0  USELESS:          0
STLB USEFUL LOAD PREFETCHES:          0 PREFETCH ISSUED TO LOWER LEVEL:          0  ACCURACY: -nan
STLB TIMELY PREFETCHES:          0 LATE PREFETCHES: 0 DROPPED PREFETCHES: 0
STLB PREFETCHES SAME FILL-ORIGIN LEVEL: 0 DIFFERENT FILL-ORIGIN LEVEL: 0
STLB AVERAGE MISS LATENCY: 586.761 cycles
STLB RQ	ACCESS:    3785577	FORWARD:          0	MERGED:          3	TO_CACHE:    3785574

STLB Hit, L1D data hit: 0
STLB Hit, L2C data hit: 0
STLB Hit, LLC data hit: 0
STLB Hit, LLC data miss: 0
STLB STLB hints to L2: 0
L1D TOTAL     ACCESS:   39166618  HIT:   31838616  MISS:    7328002  HIT %:    81.2902  MISS %:    18.7098   MPKI: 73.28
L1D LOAD      ACCESS:   31261825  HIT:   24536674  MISS:    6725151  HIT %:    78.4877  MISS %:    21.5123   MPKI: 67.2515
L1D RFO       ACCESS:    7904568  HIT:    7301934  MISS:     602634  HIT %:    92.3761  MISS %:    7.62387   MPKI: 6.02634
L1D PREFETCH  ACCESS:        225  HIT:          8  MISS:        217  HIT %:    3.55556  MISS %:    96.4444   MPKI: 0.00217
L1D PREFETCH  REQUESTED:        450  ISSUED:        450  USEFUL:         31  USELESS:        190
L1D USEFUL LOAD PREFETCHES:         31 PREFETCH ISSUED TO LOWER LEVEL:        217  ACCURACY: 14.2857
L1D TIMELY PREFETCHES:         31 LATE PREFETCHES: 0 DROPPED PREFETCHES: 0
L1D PREFETCHES SAME FILL-ORIGIN LEVEL: 217 DIFFERENT FILL-ORIGIN LEVEL: 0
L1D AVERAGE MISS LATENCY: 29.1119 cycles
L1D RQ	ACCESS:   38689357	FORWARD:          0	MERGED:    7240964	TO_CACHE:   31417556
L1D WQ	ACCESS:    8007893	FORWARD:      30837	MERGED:      54195	TO_CACHE:    7953698
L1D PQ	ACCESS:        225	FORWARD:          0	MERGED:          0	TO_CACHE:        225

L1D UNIQUE REGIONS ACCESSED: 0
L1D REGIONS CONFLICTS: 0
L1D Cross Page Prefetch Requests: 0
L1D Same Page Prefetch Requests: 7388
L1D ROI Sum of L1D PQ occupancy: 8432
L1D PREFETCHES PUSHED FROM L2C: 0
L1I TOTAL     ACCESS:   15675439  HIT:   12783226  MISS:    2892213  HIT %:    81.5494  MISS %:    18.4506   MPKI: 28.9221
L1I LOAD      ACCESS:   15675439  HIT:   12783226  MISS:    2892213  HIT %:    81.5494  MISS %:    18.4506   MPKI: 28.9221
L1I PREFETCH  REQUESTED:          0  ISSUED:          0  USEFUL:          0  USELESS:          0
L1I USEFUL LOAD PREFETCHES:          0 PREFETCH ISSUED TO LOWER LEVEL:          0  ACCURACY: -nan
L1I TIMELY PREFETCHES:          0 LATE PREFETCHES: 0 DROPPED PREFETCHES: 0
L1I PREFETCHES SAME FILL-ORIGIN LEVEL: 0 DIFFERENT FILL-ORIGIN LEVEL: 0
L1I AVERAGE MISS LATENCY: 14.0875 cycles
L1I RQ	ACCESS:   23893503	FORWARD:          0	MERGED:    6756995	TO_CACHE:   17136508

BTB TOTAL     ACCESS:     572857  HIT:     536484  MISS:      36373  HIT %:    93.6506  MISS %:     6.3494   MPKI: 0.36373
BTB BRANCH_DIRECT_JUMP	ACCESS:     108646  HIT:     108615  MISS:         31
BTB BRANCH_INDIRECT	ACCESS:      18082  HIT:      18080  MISS:          2
BTB BRANCH_CONDITIONAL	ACCESS:     229079  HIT:     228994  MISS:         85
BTB BRANCH_DIRECT_CALL	ACCESS:     108525  HIT:     108481  MISS:         44
BTB BRANCH_INDIRECT_CALL	ACCESS:          0  HIT:          0  MISS:          0
BTB BRANCH_RETURN	ACCESS:     108525  HIT:      72314  MISS:      36211
BTB BRANCH_OTHER ACCESS:          0  HIT:          0  MISS:          0

L2C TOTAL     ACCESS:   10874561  HIT:   10346971  MISS:     527590  HIT %:    95.1484  MISS %:     4.8516   MPKI: 5.2759
L2C LOAD      ACCESS:    9616472  HIT:    9156168  MISS:     460304  HIT %:    95.2134  MISS %:    4.78662   MPKI: 4.60304
L2C DATA LOAD MPKI: 4.59879
L2C INSTRUCTION LOAD MPKI: 0.00425
L2C RFO       ACCESS:     602165  HIT:     543601  MISS:      58564  HIT %:    90.2744  MISS %:    9.72557   MPKI: 0.58564
L2C PREFETCH  ACCESS:        217  HIT:        126  MISS:         91  HIT %:    58.0645  MISS %:    41.9355   MPKI: 0.00091
L2C DATA PREFETCH MPKI: 0.00091
L2C INSTRUCTION PREFETCH MPKI: 0
L2C WRITEBACK ACCESS:     649598  HIT:     647011  MISS:       2587  HIT %:    99.6018  MISS %:   0.398246   MPKI: 0.02587
L2C LOAD TRANSLATION ACCESS:       6109  HIT:         65  MISS:       6044  HIT %:      1.064  MISS %:     98.936   MPKI: 0.06044
L2C PREFETCH  REQUESTED:          0  ISSUED:          0  USEFUL:         88  USELESS:         14
L2C USEFUL LOAD PREFETCHES:         88 PREFETCH ISSUED TO LOWER LEVEL:         91  ACCURACY: 96.7033
L2C TIMELY PREFETCHES:         88 LATE PREFETCHES: 0 DROPPED PREFETCHES: 0
L2C PREFETCHES SAME FILL-ORIGIN LEVEL: 0 DIFFERENT FILL-ORIGIN LEVEL: 0
L2C AVERAGE MISS LATENCY: 189.336 cycles
L2C RQ	ACCESS:   10226115	FORWARD:          0	MERGED:          0	TO_CACHE:   10224753
L2C WQ	ACCESS:     649598	FORWARD:       1362	MERGED:          0	TO_CACHE:     649598
L2C PQ	ACCESS:        217	FORWARD:          0	MERGED:          0	TO_CACHE:        217

L2C Instructions Evicting Data 418
L2C Translations Evicting Data 5990
L2C Data Evicting Data 512090
L2C Instructions Evicting Instructions 6
L2C Translations Evicting Instructions 3
L2C Data Evicting Instructions 414
L2C Instructions Evicting Translations 1
L2C Translations Evicting Translations 51
L2C Data Evicting Translations 6030
L2C Dense regions hint from L2: 0
PSCL5 TOTAL     ACCESS:       4052  HIT:       4052  MISS:          0  HIT %:        100  MISS %:          0   MPKI: 0
PSCL5 LOAD TRANSLATION ACCESS:       4052  HIT:       4052  MISS:          0  HIT %:        100  MISS %:          0   MPKI: 0
PSCL5 PREFETCH  REQUESTED:          0  ISSUED:          0  USEFUL:          0  USELESS:          0
PSCL5 USEFUL LOAD PREFETCHES:          0 PREFETCH ISSUED TO LOWER LEVEL:          0  ACCURACY: -nan
PSCL5 TIMELY PREFETCHES:          0 LATE PREFETCHES: 0 DROPPED PREFETCHES: 0
PSCL5 PREFETCHES SAME FILL-ORIGIN LEVEL: 0 DIFFERENT FILL-ORIGIN LEVEL: 0

PSCL4 TOTAL     ACCESS:       4052  HIT:       4052  MISS:          0  HIT %:        100  MISS %:          0   MPKI: 0
PSCL4 LOAD TRANSLATION ACCESS:       4052  HIT:       4052  MISS:          0  HIT %:        100  MISS %:          0   MPKI: 0
PSCL4 PREFETCH  REQUESTED:          0  ISSUED:          0  USEFUL:          0  USELESS:          0
PSCL4 USEFUL LOAD PREFETCHES:          0 PREFETCH ISSUED TO LOWER LEVEL:          0  ACCURACY: -nan
PSCL4 TIMELY PREFETCHES:          0 LATE PREFETCHES: 0 DROPPED PREFETCHES: 0
PSCL4 PREFETCHES SAME FILL-ORIGIN LEVEL: 0 DIFFERENT FILL-ORIGIN LEVEL: 0

PSCL3 TOTAL     ACCESS:       4040  HIT:       4038  MISS:          2  HIT %:    99.9505  MISS %:   0.049505   MPKI: 2e-05
PSCL3 LOAD TRANSLATION ACCESS:       4040  HIT:       4038  MISS:          2  HIT %:    99.9505  MISS %:   0.049505   MPKI: 2e-05
PSCL3 PREFETCH  REQUESTED:          0  ISSUED:          0  USEFUL:          0  USELESS:          0
PSCL3 USEFUL LOAD PREFETCHES:          0 PREFETCH ISSUED TO LOWER LEVEL:          0  ACCURACY: -nan
PSCL3 TIMELY PREFETCHES:          0 LATE PREFETCHES: 0 DROPPED PREFETCHES: 0
PSCL3 PREFETCHES SAME FILL-ORIGIN LEVEL: 0 DIFFERENT FILL-ORIGIN LEVEL: 0

PSCL2 TOTAL     ACCESS:       4052  HIT:       1992  MISS:       2060  HIT %:    49.1609  MISS %:    50.8391   MPKI: 0.0206
PSCL2 LOAD TRANSLATION ACCESS:       4052  HIT:       1992  MISS:       2060  HIT %:    49.1609  MISS %:    50.8391   MPKI: 0.0206
PSCL2 PREFETCH  REQUESTED:          0  ISSUED:          0  USEFUL:          0  USELESS:          0
PSCL2 USEFUL LOAD PREFETCHES:          0 PREFETCH ISSUED TO LOWER LEVEL:          0  ACCURACY: -nan
PSCL2 TIMELY PREFETCHES:          0 LATE PREFETCHES: 0 DROPPED PREFETCHES: 0
PSCL2 PREFETCHES SAME FILL-ORIGIN LEVEL: 0 DIFFERENT FILL-ORIGIN LEVEL: 0

LLC TOTAL     ACCESS:     583581  HIT:     317480  MISS:     266101  HIT %:     54.402  MISS %:     45.598   MPKI: 2.66101
LLC LOAD      ACCESS:     460304  HIT:     254335  MISS:     205969  HIT %:    55.2537  MISS %:    44.7463   MPKI: 2.05969
LLC RFO       ACCESS:      58563  HIT:          1  MISS:      58562  HIT %: 0.00170756  MISS %:    99.9983   MPKI: 0.58562
LLC PREFETCH  ACCESS:         91  HIT:         23  MISS:         68  HIT %:    25.2747  MISS %:    74.7253   MPKI: 0.00068
LLC WRITEBACK ACCESS:      58579  HIT:      57682  MISS:        897  HIT %:    98.4687  MISS %:    1.53127   MPKI: 0.00897
LLC LOAD TRANSLATION ACCESS:       6044  HIT:       5439  MISS:        605  HIT %:    89.9901  MISS %:    10.0099   MPKI: 0.00605
LLC PREFETCH  REQUESTED:          0  ISSUED:          0  USEFUL:         25  USELESS:        206
LLC USEFUL LOAD PREFETCHES:         25 PREFETCH ISSUED TO LOWER LEVEL:         68  ACCURACY: 36.7647
LLC TIMELY PREFETCHES:         25 LATE PREFETCHES: 0 DROPPED PREFETCHES: 0
LLC PREFETCHES SAME FILL-ORIGIN LEVEL: 0 DIFFERENT FILL-ORIGIN LEVEL: 0
LLC AVERAGE MISS LATENCY: 315.074 cycles
LLC RQ	ACCESS:     524912	FORWARD:          0	MERGED:          0	TO_CACHE:     524911
LLC WQ	ACCESS:      58579	FORWARD:          1	MERGED:          0	TO_CACHE:      58579
LLC PQ	ACCESS:         91	FORWARD:          0	MERGED:          0	TO_CACHE:         91

LLC Dense regions hint to LLC: 0

RAW hits: 227153
Loads Generated: 38916517
Loads sent to L1D: 38689357
Stores Generated: 8008082
Stores sent to L1D: 8008082
Major fault: 0 Minor fault: 6510
Allocated PAGES: 6510

stream: 
stream:times selected: 30829
stream:pref_filled: 5776
stream:pref_useful: 888
stream:pref_late: 0
stream:misses: 153
stream:misses_by_poll: 0

CS: 
CS:times selected: 8708
CS:pref_filled: 265
CS:pref_useful: 12
CS:pref_late: 0
CS:misses: 2289
CS:misses_by_poll: 0

CPLX: 
CPLX:times selected: 28495
CPLX:pref_filled: 934
CPLX:pref_useful: 139
CPLX:pref_late: 0
CPLX:misses: 76106
CPLX:misses_by_poll: 0

NL_L1: 
NL:times selected: 3
NL:pref_filled: 3
NL:pref_useful: 0
NL:pref_late: 0
NL:misses: 10
NL:misses_by_poll: 0

total selections: 68035
total_filled: 217
total_useful: 31
total_late: 0
total_polluted: 0
total_misses_after_warmup: 6880886
conflicts: 15507218
Degree Incremented Times: 0
Degree Decremented Times: 3410289

L1 IP Table Write Accesses: 15742987
L1 IP Table Read Accesses: 235769
L1 RST Write Accesses: 17933
L1 RST Read Accesses: 35866
L1 CSPT Write Accesses: 17933
L1 CSPT Read Accesses: 35739
L1 RR Filter Tag Write Accesses: 225
L1 RR Filter Tag Read Accesses: 19802
L1 IP Table Tag Write Accesses: 31417560
L1 IP Table Tag Read Accesses: 31417560
L1 RST Tag Write Accesses: 0
L1 RST Tag Read Accesses: 196310
L1 RR Filter Write Accesses: 0
L1 RR Filter Read Accesses: 695
test: 6623

DRAM Statistics
 CHANNEL 0
 RQ ROW_BUFFER_HIT:     139482  ROW_BUFFER_MISS:     125722
 DBUS_CONGESTED:         97
 WQ ROW_BUFFER_HIT:      18465  ROW_BUFFER_MISS:      39296  FULL:          0

 AVG_CONGESTED_CYCLE: 5
 All warmup complete: 2
Channel 0 Bank busy for read cycles: 0
Channel 0 Bank busy for write cycles: 0
Channel 0
Rank 0
0banks busy for read cycles: 93296960
0banks busy for write cycles: 25988
1banks busy for read cycles: 13170461
1banks busy for write cycles: 4917074
2banks busy for read cycles: 2546254
2banks busy for write cycles: 1128346
3banks busy for read cycles: 1321740
3banks busy for write cycles: 1119328
4banks busy for read cycles: 218573
4banks busy for write cycles: 303897
5banks busy for read cycles: 266662
5banks busy for write cycles: 154444
6banks busy for read cycles: 166556
6banks busy for write cycles: 127733
7banks busy for read cycles: 56700
7banks busy for write cycles: 58244
8banks busy for read cycles: 165
8banks busy for write cycles: 825

CPU 0 Branch Prediction Accuracy: 99.9863% MPKI: 0.00122 Average ROB Occupancy at Mispredict: 28.7377
Branch types
NOT_BRANCH: 99111781 99.1118%
BRANCH_DIRECT_JUMP: 108646 0.108646%
BRANCH_INDIRECT: 18082 0.018082%
BRANCH_CONDITIONAL: 544219 0.544219%
BRANCH_DIRECT_CALL: 108525 0.108525%
BRANCH_INDIRECT_CALL: 0 0%
BRANCH_RETURN: 108525 0.108525%
BRANCH_OTHER: 0 0%

DRAM PAGES: 1048576
Allocated PAGES: 6510
