Initialize SIGNATURE TABLE
ST_SET: 1
ST_WAY: 256
ST_TAG_BIT: 16
ST_TAG_MASK: ffff

Initialize PATTERN TABLE
PT_SET: 512
PT_WAY: 4
SIG_DELTA_BIT: 7
C_SIG_BIT: 4
C_DELTA_BIT: 4

Initialize PREFETCH FILTER
FILTER_SET: 1024

Initialize PERCEPTRON
PERC_ENTRIES: 4096
PERC_FEATURES: 9

*** ChampSim Multicore Out-of-Order Simulator ***

Warmup Instructions: 50000000
Simulation Instructions: 100000000
Number of CPUs: 1
LLC sets: 2048
LLC ways: 16
Off-chip DRAM Size: 4096 MB Channels: 1 Width: 64-bit Data Rate: 6400 MT/s
CPU 0 runs ../SPEC2017//619.lbm_s-2676B.champsimtrace.xz
.xz
NUM_OF_IPS_IN_CRITICAL_IP_TRAINING: 128
NUM_OF_CRITICAL_IP_TRAINING_TABLE_WAYS: 8
NUM_OF_CRITICAL_IP_TRAINING_TABLE_SETS: 16
BTB has LRU replacement policy
ITLB has LRU replacement policy
DTLB has LRU replacement policy
STLB has LRU replacement policy
L1I has LRU replacement policy
L1D has LRU replacement policy
Initialize SRRIP state for L2C
Initialize DRRIP state for LLC
Heartbeat CPU 0 instructions: 10000003 cycles: 2899617 heartbeat IPC: 3.44873 cumulative IPC: 3.44873 (Simulation time: 0 hr 5 min 56 sec) 
Heartbeat CPU 0 instructions: 20000003 cycles: 5794517 heartbeat IPC: 3.45435 cumulative IPC: 3.45154 (Simulation time: 0 hr 11 min 14 sec) 
Heartbeat CPU 0 instructions: 30000003 cycles: 8681336 heartbeat IPC: 3.46402 cumulative IPC: 3.45569 (Simulation time: 0 hr 16 min 7 sec) 
Heartbeat CPU 0 instructions: 40000002 cycles: 11553569 heartbeat IPC: 3.48161 cumulative IPC: 3.46213 (Simulation time: 0 hr 20 min 24 sec) 
Heartbeat CPU 0 instructions: 50000001 cycles: 14412838 heartbeat IPC: 3.4974 cumulative IPC: 3.46913 (Simulation time: 0 hr 24 min 36 sec) 

Warmup complete CPU 0 instructions: 50000001 cycles: 14412838 (Simulation time: 0 hr 24 min 36 sec) 

% increase in all ip prefetch 410.578
% increase in all ip prefetch -8.46336
Heartbeat CPU 0 instructions: 60000001 cycles: 30386439 heartbeat IPC: 0.626033 cumulative IPC: 0.626033 (Simulation time: 0 hr 30 min 30 sec) 
Heartbeat CPU 0 instructions: 70000002 cycles: 45729918 heartbeat IPC: 0.651743 cumulative IPC: 0.638629 (Simulation time: 0 hr 35 min 41 sec) 
Heartbeat CPU 0 instructions: 80000002 cycles: 59827944 heartbeat IPC: 0.709319 cumulative IPC: 0.660573 (Simulation time: 0 hr 39 min 50 sec) 
Heartbeat CPU 0 instructions: 90000001 cycles: 73933903 heartbeat IPC: 0.70892 cumulative IPC: 0.672031 (Simulation time: 0 hr 43 min 35 sec) 
Heartbeat CPU 0 instructions: 100000003 cycles: 87286423 heartbeat IPC: 0.748922 cumulative IPC: 0.68612 (Simulation time: 0 hr 47 min 0 sec) 
Heartbeat CPU 0 instructions: 110000000 cycles: 100370197 heartbeat IPC: 0.764305 cumulative IPC: 0.698021 (Simulation time: 0 hr 50 min 9 sec) 
Heartbeat CPU 0 instructions: 120000003 cycles: 112935518 heartbeat IPC: 0.795841 cumulative IPC: 0.710496 (Simulation time: 0 hr 56 min 49 sec) 
Heartbeat CPU 0 instructions: 130000002 cycles: 125057485 heartbeat IPC: 0.824949 cumulative IPC: 0.723035 (Simulation time: 1 hr 3 min 26 sec) 
Heartbeat CPU 0 instructions: 140000003 cycles: 137074798 heartbeat IPC: 0.832133 cumulative IPC: 0.733724 (Simulation time: 1 hr 9 min 30 sec) 
Heartbeat CPU 0 instructions: 150000000 cycles: 148715313 heartbeat IPC: 0.859068 cumulative IPC: 0.744588 (Simulation time: 1 hr 14 min 38 sec) 
Finished CPU 0 instructions: 100000002 cycles: 134302478 cumulative IPC: 0.744588 (Simulation time: 1 hr 14 min 38 sec) 

ChampSim completed all CPUs

Region of Interest Statistics

CPU 0 cumulative IPC: 0.744588 instructions: 100000002 cycles: 134302478

CPU 0 Average Load ROB stall cycles: 8.8436e+06
CPU 0 Fraction of times ROB stalled by Loads: 10.1842
CPU 0 Percentage of Load stall cycles in Total stall cycles: 1.58324e+08
 Total stall cycles: 79664671
 Total load stall cycles: 126128607751378
CPU 0 NUM of IPS identified critical: 7

Threshold modification factor: -1
Max PIST entries: 89
Min PIST entries: 0
Avg PIST entries: 53.0733
Average ROB occupancy Load Stall Begin: 46.0319
Average ROB occupancy Load Stall End: 55.329
Min ROB occupancy Load Stall Begin: 2
Max ROB occupancy Load Stall Begin: 351
Min ROB occupancy Load Stall End: 2
Max ROB occupancy Load Stall End: 352
Average ROB occupancy Critical Load Stall Begin: 78.0808
Average ROB occupancy Critical Load Stall End: 102.786
Min ROB occupancy Critical Load Stall Begin: 4
Max ROB occupancy Critical Load Stall Begin: 351
Min ROB occupancy Critical Load Stall End: 4
Max ROB occupancy Critical Load Stall End: 352
 ROB Load Stall Begin Bucket Count 0: 1299049
 ROB Load Stall End Bucket Count 0: 1241433
 ROB Critical Load Stall Begin Bucket Count 0: 325335
 ROB Critical Load Stall End Bucket Count 0: 286814
 ROB Load Stall Begin Bucket Count 1: 39486
 ROB Load Stall End Bucket Count 1: 69791
 ROB Critical Load Stall Begin Bucket Count 1: 25324
 ROB Critical Load Stall End Bucket Count 1: 38020
 ROB Load Stall Begin Bucket Count 2: 20830
 ROB Load Stall End Bucket Count 2: 24253
 ROB Critical Load Stall Begin Bucket Count 2: 14002
 ROB Critical Load Stall End Bucket Count 2: 17648
 ROB Load Stall Begin Bucket Count 3: 19972
 ROB Load Stall End Bucket Count 3: 23154
 ROB Critical Load Stall Begin Bucket Count 3: 6870
 ROB Critical Load Stall End Bucket Count 3: 10669
 ROB Load Stall Begin Bucket Count 4: 9702
 ROB Load Stall End Bucket Count 4: 13079
 ROB Critical Load Stall Begin Bucket Count 4: 5728
 ROB Critical Load Stall End Bucket Count 4: 8254
 ROB Load Stall Begin Bucket Count 5: 12291
 ROB Load Stall End Bucket Count 5: 11707
 ROB Critical Load Stall Begin Bucket Count 5: 8717
 ROB Critical Load Stall End Bucket Count 5: 8255
 ROB Load Stall Begin Bucket Count 6: 51156
 ROB Load Stall End Bucket Count 6: 69069
 ROB Critical Load Stall Begin Bucket Count 6: 45181
 ROB Critical Load Stall End Bucket Count 6: 61497
Threshold Modified: 1 times, factor: -1
ITLB TOTAL     ACCESS:   13100932  HIT:   13100932  MISS:          0  HIT %:        100  MISS %:          0   MPKI: 0
ITLB LOAD TRANSLATION ACCESS:   13100932  HIT:   13100932  MISS:          0  HIT %:        100  MISS %:          0   MPKI: 0
ITLB AVERAGE MISS LATENCY: -nan cycles
ITLB RQ	ACCESS:   17087799	FORWARD:          0	MERGED:    3986868	TO_CACHE:   13100931

DTLB TOTAL     ACCESS:   18133949  HIT:   18047051  MISS:      86898  HIT %:    99.5208  MISS %:   0.479201   MPKI: 0.86898
DTLB LOAD TRANSLATION ACCESS:   18133949  HIT:   18047051  MISS:      86898  HIT %:    99.5208  MISS %:   0.479201   MPKI: 0.86898
DTLB AVERAGE MISS LATENCY: 113.393 cycles
DTLB RQ	ACCESS:   27032532	FORWARD:          0	MERGED:    8873810	TO_CACHE:   18158722

STLB TOTAL     ACCESS:      86898  HIT:      39747  MISS:      47151  HIT %:    45.7398  MISS %:    54.2602   MPKI: 0.47151
STLB LOAD TRANSLATION ACCESS:      86898  HIT:      39747  MISS:      47151  HIT %:    45.7398  MISS %:    54.2602   MPKI: 0.47151
STLB AVERAGE MISS LATENCY: 189.174 cycles
STLB RQ	ACCESS:      86898	FORWARD:          0	MERGED:          0	TO_CACHE:      86898

STLB Hit, L1D data hit: 0
STLB Hit, L2C data hit: 0
STLB Hit, LLC data hit: 0
STLB Hit, LLC data miss: 0
STLB STLB hints to L2: 0
L1D TOTAL     ACCESS:   26835151  HIT:   21857445  MISS:    4977706  HIT %:    81.4508  MISS %:    18.5492   MPKI: 49.7771
L1D LOAD      ACCESS:   10980436  HIT:   10226220  MISS:     754216  HIT %:    93.1313  MISS %:    6.86873   MPKI: 7.54216
L1D RFO       ACCESS:   15854715  HIT:   11631225  MISS:    4223490  HIT %:    73.3613  MISS %:    26.6387   MPKI: 42.2349
L1D AVERAGE MISS LATENCY: 300.675 cycles
L1D RQ	ACCESS:   23331376	FORWARD:          0	MERGED:   11402108	TO_CACHE:   11135694
L1D WQ	ACCESS:   16054211	FORWARD:     793574	MERGED:     157373	TO_CACHE:   15896838

L1D UNIQUE REGIONS ACCESSED: 0
L1D REGIONS CONFLICTS: 0
L1D Cross Page Prefetch Requests: 0
L1D Same Page Prefetch Requests: 0
L1D ROI Sum of L1D PQ occupancy: 0
L1D PREFETCHES PUSHED FROM L2C: 0
L1I TOTAL     ACCESS:   17087799  HIT:   17087799  MISS:          0  HIT %:        100  MISS %:          0   MPKI: 0
L1I LOAD      ACCESS:   17087799  HIT:   17087799  MISS:          0  HIT %:        100  MISS %:          0   MPKI: 0
L1I AVERAGE MISS LATENCY: -nan cycles
L1I RQ	ACCESS:   24207912	FORWARD:          0	MERGED:    7120113	TO_CACHE:   17087799

BTB TOTAL     ACCESS:    1309811  HIT:    1309805  MISS:          6  HIT %:    99.9995  MISS %: 0.000458081   MPKI: 6e-05
BTB BRANCH_DIRECT_JUMP	ACCESS:      99276  HIT:      99275  MISS:          1
BTB BRANCH_INDIRECT	ACCESS:          0  HIT:          0  MISS:          0
BTB BRANCH_CONDITIONAL	ACCESS:    1210535  HIT:    1210530  MISS:          5
BTB BRANCH_DIRECT_CALL	ACCESS:          0  HIT:          0  MISS:          0
BTB BRANCH_INDIRECT_CALL	ACCESS:          0  HIT:          0  MISS:          0
BTB BRANCH_RETURN	ACCESS:          0  HIT:          0  MISS:          0
BTB BRANCH_OTHER ACCESS:          0  HIT:          0  MISS:          0

L2C TOTAL     ACCESS:   10000380  HIT:    6625835  MISS:    3374545  HIT %:    66.2558  MISS %:    33.7442   MPKI: 33.7454
L2C LOAD      ACCESS:     754216  HIT:     698002  MISS:      56214  HIT %:    92.5467  MISS %:     7.4533   MPKI: 0.56214
L2C DATA LOAD MPKI: 0.56214
L2C INSTRUCTION LOAD MPKI: 0
L2C RFO       ACCESS:    4223492  HIT:    1891701  MISS:    2331791  HIT %:      44.79  MISS %:      55.21   MPKI: 23.3179
L2C PREFETCH  ACCESS:     752031  HIT:      52878  MISS:     699153  HIT %:    7.03136  MISS %:    92.9686   MPKI: 6.99153
L2C DATA PREFETCH MPKI: 6.99153
L2C INSTRUCTION PREFETCH MPKI: 0
L2C WRITEBACK ACCESS:    4223488  HIT:    3942334  MISS:     281154  HIT %:    93.3431  MISS %:    6.65691   MPKI: 2.81154
L2C LOAD TRANSLATION ACCESS:      47153  HIT:      40920  MISS:       6233  HIT %:    86.7813  MISS %:    13.2187   MPKI: 0.06233
L2C PREFETCH  REQUESTED:     827673  ISSUED:     827673  USEFUL:     698001  USELESS:       1149
L2C USEFUL LOAD PREFETCHES:     698001 PREFETCH ISSUED TO LOWER LEVEL:     728763  ACCURACY: 95.7789
L2C TIMELY PREFETCHES:     698001 LATE PREFETCHES: 29608 DROPPED PREFETCHES: 0
L2C PREFETCHES SAME FILL-ORIGIN LEVEL: 728763 DIFFERENT FILL-ORIGIN LEVEL: 0
L2C AVERAGE MISS LATENCY: 537.768 cycles
L2C RQ	ACCESS:    5024870	FORWARD:          0	MERGED:          0	TO_CACHE:    5024870
L2C WQ	ACCESS:    4223490	FORWARD:          0	MERGED:          0	TO_CACHE:    4223490
L2C PQ	ACCESS:     827673	FORWARD:          0	MERGED:      21564	TO_CACHE:     806109

L2C Instructions Evicting Data0
L2C Translations Evicting Data6172
L2C Data Evicting Data3081458
L2C Instructions Evicting Instructions0
L2C Translations Evicting Instructions0
L2C Data Evicting Instructions0
L2C Instructions Evicting Translations0
L2C Translations Evicting Translations61
L2C Data Evicting Translations5700
L2C Dense regions hint from L2: 0
PSCL5 TOTAL     ACCESS:      47151  HIT:      47151  MISS:          0  HIT %:        100  MISS %:          0   MPKI: 0
PSCL5 LOAD TRANSLATION ACCESS:      47151  HIT:      47151  MISS:          0  HIT %:        100  MISS %:          0   MPKI: 0

PSCL4 TOTAL     ACCESS:      47151  HIT:      47151  MISS:          0  HIT %:        100  MISS %:          0   MPKI: 0
PSCL4 LOAD TRANSLATION ACCESS:      47151  HIT:      47151  MISS:          0  HIT %:        100  MISS %:          0   MPKI: 0

PSCL3 TOTAL     ACCESS:      47151  HIT:      47151  MISS:          0  HIT %:        100  MISS %:          0   MPKI: 0
PSCL3 LOAD TRANSLATION ACCESS:      47151  HIT:      47151  MISS:          0  HIT %:        100  MISS %:          0   MPKI: 0

PSCL2 TOTAL     ACCESS:      47151  HIT:      47103  MISS:         48  HIT %:    99.8982  MISS %:   0.101801   MPKI: 0.00048
PSCL2 LOAD TRANSLATION ACCESS:      47151  HIT:      47103  MISS:         48  HIT %:    99.8982  MISS %:   0.101801   MPKI: 0.00048

LLC TOTAL     ACCESS:    5433722  HIT:    2374254  MISS:    3059468  HIT %:    43.6948  MISS %:    56.3052   MPKI: 30.5947
LLC LOAD      ACCESS:      26606  HIT:        113  MISS:      26493  HIT %:   0.424716  MISS %:    99.5753   MPKI: 0.26493
LLC RFO       ACCESS:    2331755  HIT:      69198  MISS:    2262557  HIT %:    2.96764  MISS %:    97.0324   MPKI: 22.6256
LLC PREFETCH  ACCESS:     728761  HIT:        943  MISS:     727818  HIT %:   0.129398  MISS %:    99.8706   MPKI: 7.27818
LLC WRITEBACK ACCESS:    2340367  HIT:    2303726  MISS:      36641  HIT %:    98.4344  MISS %:    1.56561   MPKI: 0.36641
LLC LOAD TRANSLATION ACCESS:       6233  HIT:        274  MISS:       5959  HIT %:    4.39596  MISS %:     95.604   MPKI: 0.05959
LLC AVERAGE MISS LATENCY: 570.537 cycles
LLC RQ	ACCESS:    2364637	FORWARD:          0	MERGED:          0	TO_CACHE:    2364601
LLC WQ	ACCESS:    2340372	FORWARD:         36	MERGED:          0	TO_CACHE:    2340372
LLC PQ	ACCESS:     728763	FORWARD:          0	MERGED:          0	TO_CACHE:     728763

LLC Dense regions hint to LLC: 0

RAW hits: 918076
Loads Generated: 24249455
Loads sent to L1D: 23331376
Stores Generated: 16054191
Stores sent to L1D: 16054211
Major fault: 0 Minor fault: 43296
Allocated PAGES: 43296
------------------
Depth Distribution
------------------
depth 0: 7734
depth 1: 3666
depth 2: 213
depth 3: 206
depth 4: 255
depth 5: 1356
depth 6: 3894
depth 7: 4163
depth 8: 9002
depth 9: 51259
depth 10: 161129
depth 11: 318702
depth 12: 396484
depth 13: 217502
depth 14: 95813
depth 15: 8573
depth 16: 1657
depth 17: 116
depth 18: 32
depth 19: 15
depth 20: 10
depth 21: 6
depth 22: 3
depth 23: 3
depth 24: 4
depth 25: 0
depth 26: 3
depth 27: 0
depth 28: 0
depth 29: 1
Total: 1281801
------------------
ST read accesses: 742435
ST write accesses: 11781
PT read accesses: 46161458
PT write accesses: 1111925
FILTER read accesses: 12928549
FILTER write accesses: 8303315
GHR read accesses: 5725525
GHR write accesses: 994843
PERC read accesses: 331273926
PERC write accesses: 7507100
GHR counter read accesses: 1508432
GHR counter write accesses: 2345154
GHR ip read accesses: 4745667
GHR ip write accesses: 3016864
ST tag read accesses: 296023694
ST tag write accesses: 3761092

DRAM Statistics
 CHANNEL 0
 RQ ROW_BUFFER_HIT:     237145  ROW_BUFFER_MISS:    2785682
 DBUS_CONGESTED:          0
 WQ ROW_BUFFER_HIT:     337796  ROW_BUFFER_MISS:    1924822  FULL:          0

 AVG_CONGESTED_CYCLE: -
 All warmup complete: 2
Channel 0 Bank busy for read cycles: 0
Channel 0 Bank busy for write cycles: 0
Channel 0
Rank 0
0banks busy for read cycles: 17564
0banks busy for write cycles: 0
1banks busy for read cycles: 1319746
1banks busy for write cycles: 223876
2banks busy for read cycles: 2227711
2banks busy for write cycles: 223875
3banks busy for read cycles: 4364800
3banks busy for write cycles: 223871
4banks busy for read cycles: 6882871
4banks busy for write cycles: 223855
5banks busy for read cycles: 12042392
5banks busy for write cycles: 223858
6banks busy for read cycles: 15041450
6banks busy for write cycles: 228283
7banks busy for read cycles: 18638948
7banks busy for write cycles: 2624766
8banks busy for read cycles: 19962235
8banks busy for write cycles: 49832378

CPU 0 Branch Prediction Accuracy: 98.6967% MPKI: 0.17071 Average ROB Occupancy at Mispredict: 143.17
Branch types
NOT_BRANCH: 98689842 98.6898%
BRANCH_DIRECT_JUMP: 99276 0.099276%
BRANCH_INDIRECT: 0 0%
BRANCH_CONDITIONAL: 1210545 1.21054%
BRANCH_DIRECT_CALL: 0 0%
BRANCH_INDIRECT_CALL: 0 0%
BRANCH_RETURN: 0 0%
BRANCH_OTHER: 0 0%

DRAM PAGES: 1048576
Allocated PAGES: 43296
