
*** ChampSim Multicore Out-of-Order Simulator ***

Warmup Instructions: 50000000
Simulation Instructions: 100000000
Number of CPUs: 1
LLC sets: 2048
LLC ways: 16
Off-chip DRAM Size: 4096 MB Channels: 1 Width: 64-bit Data Rate: 6400 MT/s
CPU 0 runs ../SPEC2017//619.lbm_s-4268B.champsimtrace.xz
.xz
NUM_OF_IPS_IN_CRITICAL_IP_TRAINING: 64
NUM_OF_CRITICAL_IP_TRAINING_TABLE_WAYS: 2
NUM_OF_CRITICAL_IP_TRAINING_TABLE_SETS: 32
WOBBLY_CRITICAL_IP_CACHE_SETS: 32
WOBBLY_CRITICAL_IP_CACHE_WAYS: 4
BTB has LRU replacement policy
ITLB has LRU replacement policy
DTLB has LRU replacement policy
STLB has LRU replacement policy
L1I has LRU replacement policy
IP Table Entries: 256
L1D has LRU replacement policy
Initialize SRRIP state for L2C
Initialize DRRIP state for LLC
Heartbeat CPU 0 instructions: 10000000 cycles: 2916816 heartbeat IPC: 3.4284 cumulative IPC: 3.4284 (Simulation time: 0 hr 3 min 37 sec) 
Heartbeat CPU 0 instructions: 20000001 cycles: 5831770 heartbeat IPC: 3.43059 cumulative IPC: 3.42949 (Simulation time: 0 hr 6 min 34 sec) 
Heartbeat CPU 0 instructions: 30000000 cycles: 8743054 heartbeat IPC: 3.43491 cumulative IPC: 3.4313 (Simulation time: 0 hr 9 min 22 sec) 
Heartbeat CPU 0 instructions: 40000000 cycles: 11660750 heartbeat IPC: 3.42736 cumulative IPC: 3.43031 (Simulation time: 0 hr 11 min 48 sec) 
Heartbeat CPU 0 instructions: 50000002 cycles: 14579623 heartbeat IPC: 3.42598 cumulative IPC: 3.42944 (Simulation time: 0 hr 14 min 8 sec) 

Warmup complete CPU 0 instructions: 50000002 cycles: 14579623 (Simulation time: 0 hr 14 min 8 sec) 

Heartbeat CPU 0 instructions: 60000000 cycles: 36002918 heartbeat IPC: 0.466781 cumulative IPC: 0.466781 (Simulation time: 0 hr 19 min 41 sec) 
Heartbeat CPU 0 instructions: 70000000 cycles: 57075644 heartbeat IPC: 0.474547 cumulative IPC: 0.470632 (Simulation time: 0 hr 25 min 8 sec) 
Heartbeat CPU 0 instructions: 80000000 cycles: 77797099 heartbeat IPC: 0.482592 cumulative IPC: 0.474552 (Simulation time: 0 hr 30 min 20 sec) 
Heartbeat CPU 0 instructions: 90000001 cycles: 98877385 heartbeat IPC: 0.474377 cumulative IPC: 0.474508 (Simulation time: 0 hr 37 min 11 sec) 
Heartbeat CPU 0 instructions: 100000003 cycles: 119550351 heartbeat IPC: 0.483724 cumulative IPC: 0.476323 (Simulation time: 0 hr 48 min 14 sec) 
Heartbeat CPU 0 instructions: 110000000 cycles: 140539582 heartbeat IPC: 0.476435 cumulative IPC: 0.476342 (Simulation time: 0 hr 57 min 25 sec) 
Heartbeat CPU 0 instructions: 120000001 cycles: 161880746 heartbeat IPC: 0.468578 cumulative IPC: 0.475217 (Simulation time: 1 hr 5 min 59 sec) 
Heartbeat CPU 0 instructions: 130000002 cycles: 182509526 heartbeat IPC: 0.48476 cumulative IPC: 0.476389 (Simulation time: 1 hr 13 min 55 sec) 
Heartbeat CPU 0 instructions: 140000000 cycles: 203484117 heartbeat IPC: 0.476767 cumulative IPC: 0.476431 (Simulation time: 1 hr 20 min 47 sec) 
Heartbeat CPU 0 instructions: 150000001 cycles: 224567707 heartbeat IPC: 0.474303 cumulative IPC: 0.476217 (Simulation time: 1 hr 28 min 40 sec) 
Finished CPU 0 instructions: 100000003 cycles: 209988085 cumulative IPC: 0.476218 (Simulation time: 1 hr 28 min 40 sec) 

ChampSim completed all CPUs

Region of Interest Statistics

CPU 0 cumulative IPC: 0.476218 instructions: 100000003 cycles: 209988085

CPU 0 Average Load ROB stall cycles: 2.7276e+07
CPU 0 Fraction of times ROB stalled by Loads: 22.9229
CPU 0 Percentage of Load stall cycles in Total stall cycles: 2.45555e+08
Issued all: 122904077
Issued LT all: 110070831
rob_not_full_when_issued_lt_all: 34668707
Issued LT one: 101877347
rob_not_full_when_issued_lt_one: 28752862
 Total stall cycles: 144313661
 Total load stall cycles: 354369120499005
CPU 0 NUM of IPS identified critical: 0
CPU 0 Num of Load IPs stalling ROB: 128
Threshold modification factor: 0
Max PIST entries: 62
Min PIST entries: 0
Avg PIST entries: 40.6133
Trouble in retire width: 0.776935
MaC = Marked as critical.
lt_50_percent_before_Mac: 0
gt_90_percent_before_Mac: 0
gt_75_percent_before_Mac: 0
gt_50_percent_before_Mac: 0
stall_proportion_bin_same_before_after: 0
stall_proportion_bin_lower_before_after: 0
stall_proportion_bin_upper_before_after: 0
average_stall_proportion_before: -nan
average_stall_proportion_after: -nan
Critical IP stalls, total frequency: 0
Non-critical IP stalls, total frequency: 2978146
Total Freq all stalling IPs: 2978146
stat_90_percent_critical_ip_stalls_freq: 2683486
stat_90_percent_non_critical_ip_stalls_freq: 294660
Critical_IP_ROB_Stalls_Bucket_0: 0
Non-critical_IP_ROB_Stalls_Bucket_0: 2195787
Critical_IP_ROB_Stalls_Bucket_1: 0
Non-critical_IP_ROB_Stalls_Bucket_1: 291144
Critical_IP_ROB_Stalls_Bucket_2: 0
Non-critical_IP_ROB_Stalls_Bucket_2: 53323
Critical_IP_ROB_Stalls_Bucket_3: 0
Non-critical_IP_ROB_Stalls_Bucket_3: 56475
Critical_IP_ROB_Stalls_Bucket_4: 0
Non-critical_IP_ROB_Stalls_Bucket_4: 46521
Critical_IP_ROB_Stalls_Bucket_5: 0
Non-critical_IP_ROB_Stalls_Bucket_5: 54601
Critical_IP_ROB_Stalls_Bucket_6: 0
Non-critical_IP_ROB_Stalls_Bucket_6: 280295
0 => IPs accounting for >50 percent of stalls, 1 => 55, 2 => 60, 3 => 65 and so on till 90.
percent50: 50.4765 num IPs:  13
percent55: 55.6454 num IPs: 15
percent60: 60.7547 num IPs: 17
percent65: 65.5903 num IPs: 19
percent70: 70.1047 num IPs: 21
percent75: 75.4701 num IPs: 24
percent80: 80.835 num IPs: 28
percent85: 85.6757 num IPs: 33
percent90: 90.1059 num IPs: 39
Critical_ROB_Stalls_Percent_0_Bucket_0: 980024
Non-critical_ROB_Stalls_Percent_0_Bucket_0: 1215763
Critical_ROB_Stalls_Percent_0_Bucket_1: 234526
Non-critical_ROB_Stalls_Percent_0_Bucket_1: 56618
Critical_ROB_Stalls_Percent_0_Bucket_2: 31758
Non-critical_ROB_Stalls_Percent_0_Bucket_2: 21565
Critical_ROB_Stalls_Percent_0_Bucket_3: 26689
Non-critical_ROB_Stalls_Percent_0_Bucket_3: 29786
Critical_ROB_Stalls_Percent_0_Bucket_4: 21027
Non-critical_ROB_Stalls_Percent_0_Bucket_4: 25494
Critical_ROB_Stalls_Percent_0_Bucket_5: 31630
Non-critical_ROB_Stalls_Percent_0_Bucket_5: 22971
Critical_ROB_Stalls_Percent_0_Bucket_6: 177611
Non-critical_ROB_Stalls_Percent_0_Bucket_6: 102684
Critical_ROB_Stalls_Percent_1_Bucket_0: 1128154
Non-critical_ROB_Stalls_Percent_1_Bucket_0: 1067633
Critical_ROB_Stalls_Percent_1_Bucket_1: 234857
Non-critical_ROB_Stalls_Percent_1_Bucket_1: 56287
Critical_ROB_Stalls_Percent_1_Bucket_2: 32377
Non-critical_ROB_Stalls_Percent_1_Bucket_2: 20946
Critical_ROB_Stalls_Percent_1_Bucket_3: 28004
Non-critical_ROB_Stalls_Percent_1_Bucket_3: 28471
Critical_ROB_Stalls_Percent_1_Bucket_4: 22857
Non-critical_ROB_Stalls_Percent_1_Bucket_4: 23664
Critical_ROB_Stalls_Percent_1_Bucket_5: 32579
Non-critical_ROB_Stalls_Percent_1_Bucket_5: 22022
Critical_ROB_Stalls_Percent_1_Bucket_6: 178373
Non-critical_ROB_Stalls_Percent_1_Bucket_6: 101922
Critical_ROB_Stalls_Percent_2_Bucket_0: 1279250
Non-critical_ROB_Stalls_Percent_2_Bucket_0: 916537
Critical_ROB_Stalls_Percent_2_Bucket_1: 234995
Non-critical_ROB_Stalls_Percent_2_Bucket_1: 56149
Critical_ROB_Stalls_Percent_2_Bucket_2: 32544
Non-critical_ROB_Stalls_Percent_2_Bucket_2: 20779
Critical_ROB_Stalls_Percent_2_Bucket_3: 28156
Non-critical_ROB_Stalls_Percent_2_Bucket_3: 28319
Critical_ROB_Stalls_Percent_2_Bucket_4: 22900
Non-critical_ROB_Stalls_Percent_2_Bucket_4: 23621
Critical_ROB_Stalls_Percent_2_Bucket_5: 32666
Non-critical_ROB_Stalls_Percent_2_Bucket_5: 21935
Critical_ROB_Stalls_Percent_2_Bucket_6: 178852
Non-critical_ROB_Stalls_Percent_2_Bucket_6: 101443
Critical_ROB_Stalls_Percent_3_Bucket_0: 1419469
Non-critical_ROB_Stalls_Percent_3_Bucket_0: 776318
Critical_ROB_Stalls_Percent_3_Bucket_1: 236473
Non-critical_ROB_Stalls_Percent_3_Bucket_1: 54671
Critical_ROB_Stalls_Percent_3_Bucket_2: 33191
Non-critical_ROB_Stalls_Percent_3_Bucket_2: 20132
Critical_ROB_Stalls_Percent_3_Bucket_3: 28957
Non-critical_ROB_Stalls_Percent_3_Bucket_3: 27518
Critical_ROB_Stalls_Percent_3_Bucket_4: 23287
Non-critical_ROB_Stalls_Percent_3_Bucket_4: 23234
Critical_ROB_Stalls_Percent_3_Bucket_5: 32864
Non-critical_ROB_Stalls_Percent_3_Bucket_5: 21737
Critical_ROB_Stalls_Percent_3_Bucket_6: 179134
Non-critical_ROB_Stalls_Percent_3_Bucket_6: 101161
Critical_ROB_Stalls_Percent_4_Bucket_0: 1550499
Non-critical_ROB_Stalls_Percent_4_Bucket_0: 645288
Critical_ROB_Stalls_Percent_4_Bucket_1: 237992
Non-critical_ROB_Stalls_Percent_4_Bucket_1: 53152
Critical_ROB_Stalls_Percent_4_Bucket_2: 33328
Non-critical_ROB_Stalls_Percent_4_Bucket_2: 19995
Critical_ROB_Stalls_Percent_4_Bucket_3: 29106
Non-critical_ROB_Stalls_Percent_4_Bucket_3: 27369
Critical_ROB_Stalls_Percent_4_Bucket_4: 23460
Non-critical_ROB_Stalls_Percent_4_Bucket_4: 23061
Critical_ROB_Stalls_Percent_4_Bucket_5: 33005
Non-critical_ROB_Stalls_Percent_4_Bucket_5: 21596
Critical_ROB_Stalls_Percent_4_Bucket_6: 180430
Non-critical_ROB_Stalls_Percent_4_Bucket_6: 99865
Critical_ROB_Stalls_Percent_5_Bucket_0: 1707241
Non-critical_ROB_Stalls_Percent_5_Bucket_0: 488546
Critical_ROB_Stalls_Percent_5_Bucket_1: 238235
Non-critical_ROB_Stalls_Percent_5_Bucket_1: 52909
Critical_ROB_Stalls_Percent_5_Bucket_2: 33686
Non-critical_ROB_Stalls_Percent_5_Bucket_2: 19637
Critical_ROB_Stalls_Percent_5_Bucket_3: 30050
Non-critical_ROB_Stalls_Percent_5_Bucket_3: 26425
Critical_ROB_Stalls_Percent_5_Bucket_4: 24359
Non-critical_ROB_Stalls_Percent_5_Bucket_4: 22162
Critical_ROB_Stalls_Percent_5_Bucket_5: 33389
Non-critical_ROB_Stalls_Percent_5_Bucket_5: 21212
Critical_ROB_Stalls_Percent_5_Bucket_6: 180649
Non-critical_ROB_Stalls_Percent_5_Bucket_6: 99646
Critical_ROB_Stalls_Percent_6_Bucket_0: 1823861
Non-critical_ROB_Stalls_Percent_6_Bucket_0: 371926
Critical_ROB_Stalls_Percent_6_Bucket_1: 241279
Non-critical_ROB_Stalls_Percent_6_Bucket_1: 49865
Critical_ROB_Stalls_Percent_6_Bucket_2: 36109
Non-critical_ROB_Stalls_Percent_6_Bucket_2: 17214
Critical_ROB_Stalls_Percent_6_Bucket_3: 35584
Non-critical_ROB_Stalls_Percent_6_Bucket_3: 20891
Critical_ROB_Stalls_Percent_6_Bucket_4: 30145
Non-critical_ROB_Stalls_Percent_6_Bucket_4: 16376
Critical_ROB_Stalls_Percent_6_Bucket_5: 37952
Non-critical_ROB_Stalls_Percent_6_Bucket_5: 16649
Critical_ROB_Stalls_Percent_6_Bucket_6: 202455
Non-critical_ROB_Stalls_Percent_6_Bucket_6: 77840
Critical_ROB_Stalls_Percent_7_Bucket_0: 1933187
Non-critical_ROB_Stalls_Percent_7_Bucket_0: 262600
Critical_ROB_Stalls_Percent_7_Bucket_1: 243011
Non-critical_ROB_Stalls_Percent_7_Bucket_1: 48133
Critical_ROB_Stalls_Percent_7_Bucket_2: 38268
Non-critical_ROB_Stalls_Percent_7_Bucket_2: 15055
Critical_ROB_Stalls_Percent_7_Bucket_3: 39444
Non-critical_ROB_Stalls_Percent_7_Bucket_3: 17031
Critical_ROB_Stalls_Percent_7_Bucket_4: 33816
Non-critical_ROB_Stalls_Percent_7_Bucket_4: 12705
Critical_ROB_Stalls_Percent_7_Bucket_5: 42657
Non-critical_ROB_Stalls_Percent_7_Bucket_5: 11944
Critical_ROB_Stalls_Percent_7_Bucket_6: 221165
Non-critical_ROB_Stalls_Percent_7_Bucket_6: 59130
Critical_ROB_Stalls_Percent_8_Bucket_0: 2029056
Non-critical_ROB_Stalls_Percent_8_Bucket_0: 166731
Critical_ROB_Stalls_Percent_8_Bucket_1: 250935
Non-critical_ROB_Stalls_Percent_8_Bucket_1: 40209
Critical_ROB_Stalls_Percent_8_Bucket_2: 40870
Non-critical_ROB_Stalls_Percent_8_Bucket_2: 12453
Critical_ROB_Stalls_Percent_8_Bucket_3: 42497
Non-critical_ROB_Stalls_Percent_8_Bucket_3: 13978
Critical_ROB_Stalls_Percent_8_Bucket_4: 36049
Non-critical_ROB_Stalls_Percent_8_Bucket_4: 10472
Critical_ROB_Stalls_Percent_8_Bucket_5: 45250
Non-critical_ROB_Stalls_Percent_8_Bucket_5: 9351
Critical_ROB_Stalls_Percent_8_Bucket_6: 238829
Non-critical_ROB_Stalls_Percent_8_Bucket_6: 41466
Average ROB occupancy Load Stall Begin: 61.9994
Average ROB occupancy Load Stall End: 73.4541
Min ROB occupancy Load Stall Begin: 2
Max ROB occupancy Load Stall Begin: 352
Min ROB occupancy Load Stall End: 2
Max ROB occupancy Load Stall End: 352
Average ROB occupancy Critical Load Stall Begin: -nan
Average ROB occupancy Critical Load Stall End: -nan
Min ROB occupancy Critical Load Stall Begin: 400
Max ROB occupancy Critical Load Stall Begin: 0
Min ROB occupancy Critical Load Stall End: 400
Max ROB occupancy Critical Load Stall End: 0
 ROB Load Stall Begin Bucket Count 0: 2398572
 ROB Load Stall End Bucket Count 0: 2195787
 ROB Critical Load Stall Begin Bucket Count 0: 0
 ROB Critical Load Stall End Bucket Count 0: 0
 ROB Load Stall Begin Bucket Count 1: 143713
 ROB Load Stall End Bucket Count 1: 291144
 ROB Critical Load Stall Begin Bucket Count 1: 0
 ROB Critical Load Stall End Bucket Count 1: 0
 ROB Load Stall Begin Bucket Count 2: 57078
 ROB Load Stall End Bucket Count 2: 53323
 ROB Critical Load Stall Begin Bucket Count 2: 0
 ROB Critical Load Stall End Bucket Count 2: 0
 ROB Load Stall Begin Bucket Count 3: 54266
 ROB Load Stall End Bucket Count 3: 56475
 ROB Critical Load Stall Begin Bucket Count 3: 0
 ROB Critical Load Stall End Bucket Count 3: 0
 ROB Load Stall Begin Bucket Count 4: 46373
 ROB Load Stall End Bucket Count 4: 46521
 ROB Critical Load Stall Begin Bucket Count 4: 0
 ROB Critical Load Stall End Bucket Count 4: 0
 ROB Load Stall Begin Bucket Count 5: 63169
 ROB Load Stall End Bucket Count 5: 54601
 ROB Critical Load Stall Begin Bucket Count 5: 0
 ROB Critical Load Stall End Bucket Count 5: 0
 ROB Load Stall Begin Bucket Count 6: 214975
 ROB Load Stall End Bucket Count 6: 280295
 ROB Critical Load Stall Begin Bucket Count 6: 0
 ROB Critical Load Stall End Bucket Count 6: 0
PIST Tag Read Accesses: 395474
PIST Read Accesses: 197737
PIST Tag Write Accesses: 395474
PIST Write Accesses: 197737
Criticality detector called times: 1889085
Max global_stall_cycles_count: 797635
Threshold Modified: 0 times, factor: 0
Sturdy critical IP cache stats: 
 Unused entries: 0
CIC Tag Read Accesses: 0
CIC Read Accesses: 0
CIC Tag Write Accesses: 0
CIC Write Accesses: 0
Wobbly critical IP cache stats: 
 Unused entries: 114
CIC Tag Read Accesses: 271831179
CIC Read Accesses: 0
CIC Tag Write Accesses: 920208
CIC Write Accesses: 0
ITLB TOTAL     ACCESS:   13485087  HIT:   13485087  MISS:          0  HIT %:        100  MISS %:          0   MPKI: 0
ITLB LOAD TRANSLATION ACCESS:   13485087  HIT:   13485087  MISS:          0  HIT %:        100  MISS %:          0   MPKI: 0
ITLB PREFETCH  REQUESTED:          0  ISSUED:          0  USEFUL:          0  USELESS:          0
ITLB USEFUL LOAD PREFETCHES:          0 PREFETCH ISSUED TO LOWER LEVEL:          0  ACCURACY: -nan
ITLB TIMELY PREFETCHES:          0 LATE PREFETCHES: 0 DROPPED PREFETCHES: 0
ITLB PREFETCHES SAME FILL-ORIGIN LEVEL: 0 DIFFERENT FILL-ORIGIN LEVEL: 0
ITLB AVERAGE MISS LATENCY: -nan cycles
ITLB RQ	ACCESS:   17379945	FORWARD:          0	MERGED:    3894858	TO_CACHE:   13485087

DTLB TOTAL     ACCESS:   17678424  HIT:   17541350  MISS:     137074  HIT %:    99.2246  MISS %:   0.775375   MPKI: 1.37074
DTLB LOAD TRANSLATION ACCESS:   17678424  HIT:   17541350  MISS:     137074  HIT %:    99.2246  MISS %:   0.775375   MPKI: 1.37074
DTLB PREFETCH  REQUESTED:          0  ISSUED:          0  USEFUL:          0  USELESS:          0
DTLB USEFUL LOAD PREFETCHES:          0 PREFETCH ISSUED TO LOWER LEVEL:          0  ACCURACY: -nan
DTLB TIMELY PREFETCHES:          0 LATE PREFETCHES: 0 DROPPED PREFETCHES: 0
DTLB PREFETCHES SAME FILL-ORIGIN LEVEL: 0 DIFFERENT FILL-ORIGIN LEVEL: 0
DTLB AVERAGE MISS LATENCY: 114.04 cycles
DTLB RQ	ACCESS:   24781740	FORWARD:          0	MERGED:    7050705	TO_CACHE:   17731035

STLB TOTAL     ACCESS:     707307  HIT:     632929  MISS:      74378  HIT %:    89.4843  MISS %:    10.5157   MPKI: 0.74378
STLB LOAD TRANSLATION ACCESS:     137074  HIT:      62696  MISS:      74378  HIT %:    45.7388  MISS %:    54.2612   MPKI: 0.74378
STLB TRANSLATION FROM L1D PREFETCHER ACCESS:     570233  HIT:     570233  MISS:          0  HIT %:        100  MISS %:          0   MPKI: 0
STLB PREFETCH  REQUESTED:          0  ISSUED:          0  USEFUL:          0  USELESS:          0
STLB USEFUL LOAD PREFETCHES:          0 PREFETCH ISSUED TO LOWER LEVEL:          0  ACCURACY: -nan
STLB TIMELY PREFETCHES:          0 LATE PREFETCHES: 0 DROPPED PREFETCHES: 0
STLB PREFETCHES SAME FILL-ORIGIN LEVEL: 0 DIFFERENT FILL-ORIGIN LEVEL: 0
STLB AVERAGE MISS LATENCY: 191.262 cycles
STLB RQ	ACCESS:    1292858	FORWARD:          0	MERGED:     585551	TO_CACHE:     707307

STLB Hit, L1D data hit: 0
STLB Hit, L2C data hit: 0
STLB Hit, LLC data hit: 0
STLB Hit, LLC data miss: 0
STLB STLB hints to L2: 0
L1D TOTAL     ACCESS:   25225473  HIT:   17373118  MISS:    7852355  HIT %:    68.8713  MISS %:    31.1287   MPKI: 78.5235
L1D LOAD      ACCESS:    8292755  HIT:    7768111  MISS:     524644  HIT %:    93.6735  MISS %:    6.32653   MPKI: 5.24644
L1D RFO       ACCESS:   16172882  HIT:    9510439  MISS:    6662443  HIT %:    58.8048  MISS %:    41.1952   MPKI: 66.6244
L1D PREFETCH  ACCESS:     759836  HIT:      94568  MISS:     665268  HIT %:    12.4458  MISS %:    87.5542   MPKI: 6.65268
L1D PREFETCH  REQUESTED:    2329957  ISSUED:    2311568  USEFUL:     665265  USELESS:          0
L1D USEFUL LOAD PREFETCHES:     665265 PREFETCH ISSUED TO LOWER LEVEL:     876276  ACCURACY: 75.9196
L1D TIMELY PREFETCHES:     665265 LATE PREFETCHES: 211006 DROPPED PREFETCHES: 0
L1D PREFETCHES SAME FILL-ORIGIN LEVEL: 876276 DIFFERENT FILL-ORIGIN LEVEL: 0
L1D AVERAGE MISS LATENCY: 3.1362e+06 cycles
L1D RQ	ACCESS:   24819687	FORWARD:          0	MERGED:   11885947	TO_CACHE:    8520264
L1D WQ	ACCESS:   18427539	FORWARD:    4413476	MERGED:    2166063	TO_CACHE:   16261476
L1D PQ	ACCESS:    1155784	FORWARD:          0	MERGED:          0	TO_CACHE:    1155784

L1D UNIQUE REGIONS ACCESSED: 0
L1D REGIONS CONFLICTS: 0
L1D Cross Page Prefetch Requests: 0
L1D Same Page Prefetch Requests: 1155784
L1D ROI Sum of L1D PQ occupancy: 1065796043
L1D PREFETCHES PUSHED FROM L2C: 0
L1I TOTAL     ACCESS:   17379943  HIT:   17379943  MISS:          0  HIT %:        100  MISS %:          0   MPKI: 0
L1I LOAD      ACCESS:   17379943  HIT:   17379943  MISS:          0  HIT %:        100  MISS %:          0   MPKI: 0
L1I PREFETCH  REQUESTED:          0  ISSUED:          0  USEFUL:          0  USELESS:          0
L1I USEFUL LOAD PREFETCHES:          0 PREFETCH ISSUED TO LOWER LEVEL:          0  ACCURACY: -nan
L1I TIMELY PREFETCHES:          0 LATE PREFETCHES: 0 DROPPED PREFETCHES: 0
L1I PREFETCHES SAME FILL-ORIGIN LEVEL: 0 DIFFERENT FILL-ORIGIN LEVEL: 0
L1I AVERAGE MISS LATENCY: -nan cycles
L1I RQ	ACCESS:   25126860	FORWARD:          0	MERGED:    7746915	TO_CACHE:   17379945

BTB TOTAL     ACCESS:    1795670  HIT:    1795664  MISS:          6  HIT %:    99.9997  MISS %: 0.000334137   MPKI: 6e-05
BTB BRANCH_DIRECT_JUMP	ACCESS:     291819  HIT:     291818  MISS:          1
BTB BRANCH_INDIRECT	ACCESS:          0  HIT:          0  MISS:          0
BTB BRANCH_CONDITIONAL	ACCESS:    1503851  HIT:    1503846  MISS:          5
BTB BRANCH_DIRECT_CALL	ACCESS:          0  HIT:          0  MISS:          0
BTB BRANCH_INDIRECT_CALL	ACCESS:          0  HIT:          0  MISS:          0
BTB BRANCH_RETURN	ACCESS:          0  HIT:          0  MISS:          0
BTB BRANCH_OTHER ACCESS:          0  HIT:          0  MISS:          0

L2C TOTAL     ACCESS:   14589177  HIT:    9474984  MISS:    5114193  HIT %:    64.9453  MISS %:    35.0547   MPKI: 51.1419
L2C LOAD      ACCESS:     313638  HIT:         53  MISS:     313585  HIT %:  0.0168985  MISS %:    99.9831   MPKI: 3.13585
L2C DATA LOAD MPKI: 3.13585
L2C INSTRUCTION LOAD MPKI: 0
L2C RFO       ACCESS:    6662432  HIT:    3028079  MISS:    3634353  HIT %:    45.4501  MISS %:    54.5499   MPKI: 36.3435
L2C PREFETCH  ACCESS:     876274  HIT:          0  MISS:     876274  HIT %:          0  MISS %:        100   MPKI: 8.76274
L2C DATA PREFETCH MPKI: 8.76274
L2C INSTRUCTION PREFETCH MPKI: 0
L2C WRITEBACK ACCESS:    6662451  HIT:    6382126  MISS:     280325  HIT %:    95.7925  MISS %:    4.20754   MPKI: 2.80325
L2C LOAD TRANSLATION ACCESS:      74382  HIT:      64726  MISS:       9656  HIT %:    87.0184  MISS %:    12.9816   MPKI: 0.09656
L2C PREFETCH  REQUESTED:          0  ISSUED:          0  USEFUL:          0  USELESS:     875471
L2C USEFUL LOAD PREFETCHES:          0 PREFETCH ISSUED TO LOWER LEVEL:     876275  ACCURACY: 0
L2C TIMELY PREFETCHES:          0 LATE PREFETCHES: 0 DROPPED PREFETCHES: 0
L2C PREFETCHES SAME FILL-ORIGIN LEVEL: 0 DIFFERENT FILL-ORIGIN LEVEL: 0
L2C AVERAGE MISS LATENCY: 588.331 cycles
L2C RQ	ACCESS:    7050477	FORWARD:          0	MERGED:          0	TO_CACHE:    7050466
L2C WQ	ACCESS:    6662458	FORWARD:         11	MERGED:          0	TO_CACHE:    6662458
L2C PQ	ACCESS:     876276	FORWARD:          0	MERGED:          0	TO_CACHE:     876276

L2C Instructions Evicting Data 0
L2C Translations Evicting Data 9640
L2C Data Evicting Data 4815061
L2C Instructions Evicting Instructions 0
L2C Translations Evicting Instructions 0
L2C Data Evicting Instructions 0
L2C Instructions Evicting Translations 0
L2C Translations Evicting Translations 16
L2C Data Evicting Translations 9151
L2C Dense regions hint from L2: 0
PSCL5 TOTAL     ACCESS:      74378  HIT:      74378  MISS:          0  HIT %:        100  MISS %:          0   MPKI: 0
PSCL5 LOAD TRANSLATION ACCESS:      74378  HIT:      74378  MISS:          0  HIT %:        100  MISS %:          0   MPKI: 0
PSCL5 PREFETCH  REQUESTED:          0  ISSUED:          0  USEFUL:          0  USELESS:          0
PSCL5 USEFUL LOAD PREFETCHES:          0 PREFETCH ISSUED TO LOWER LEVEL:          0  ACCURACY: -nan
PSCL5 TIMELY PREFETCHES:          0 LATE PREFETCHES: 0 DROPPED PREFETCHES: 0
PSCL5 PREFETCHES SAME FILL-ORIGIN LEVEL: 0 DIFFERENT FILL-ORIGIN LEVEL: 0

PSCL4 TOTAL     ACCESS:      74378  HIT:      74378  MISS:          0  HIT %:        100  MISS %:          0   MPKI: 0
PSCL4 LOAD TRANSLATION ACCESS:      74378  HIT:      74378  MISS:          0  HIT %:        100  MISS %:          0   MPKI: 0
PSCL4 PREFETCH  REQUESTED:          0  ISSUED:          0  USEFUL:          0  USELESS:          0
PSCL4 USEFUL LOAD PREFETCHES:          0 PREFETCH ISSUED TO LOWER LEVEL:          0  ACCURACY: -nan
PSCL4 TIMELY PREFETCHES:          0 LATE PREFETCHES: 0 DROPPED PREFETCHES: 0
PSCL4 PREFETCHES SAME FILL-ORIGIN LEVEL: 0 DIFFERENT FILL-ORIGIN LEVEL: 0

PSCL3 TOTAL     ACCESS:      74378  HIT:      74378  MISS:          0  HIT %:        100  MISS %:          0   MPKI: 0
PSCL3 LOAD TRANSLATION ACCESS:      74378  HIT:      74378  MISS:          0  HIT %:        100  MISS %:          0   MPKI: 0
PSCL3 PREFETCH  REQUESTED:          0  ISSUED:          0  USEFUL:          0  USELESS:          0
PSCL3 USEFUL LOAD PREFETCHES:          0 PREFETCH ISSUED TO LOWER LEVEL:          0  ACCURACY: -nan
PSCL3 TIMELY PREFETCHES:          0 LATE PREFETCHES: 0 DROPPED PREFETCHES: 0
PSCL3 PREFETCHES SAME FILL-ORIGIN LEVEL: 0 DIFFERENT FILL-ORIGIN LEVEL: 0

PSCL2 TOTAL     ACCESS:      74378  HIT:      74302  MISS:         76  HIT %:    99.8978  MISS %:   0.102181   MPKI: 0.00076
PSCL2 LOAD TRANSLATION ACCESS:      74378  HIT:      74302  MISS:         76  HIT %:    99.8978  MISS %:   0.102181   MPKI: 0.00076
PSCL2 PREFETCH  REQUESTED:          0  ISSUED:          0  USEFUL:          0  USELESS:          0
PSCL2 USEFUL LOAD PREFETCHES:          0 PREFETCH ISSUED TO LOWER LEVEL:          0  ACCURACY: -nan
PSCL2 TIMELY PREFETCHES:          0 LATE PREFETCHES: 0 DROPPED PREFETCHES: 0
PSCL2 PREFETCHES SAME FILL-ORIGIN LEVEL: 0 DIFFERENT FILL-ORIGIN LEVEL: 0

LLC TOTAL     ACCESS:    8473508  HIT:    3649259  MISS:    4824249  HIT %:    43.0667  MISS %:    56.9333   MPKI: 48.2425
LLC LOAD      ACCESS:     313585  HIT:         70  MISS:     313515  HIT %:  0.0223225  MISS %:    99.9777   MPKI: 3.13515
LLC RFO       ACCESS:    3634273  HIT:      65346  MISS:    3568927  HIT %:    1.79805  MISS %:     98.202   MPKI: 35.6893
LLC PREFETCH  ACCESS:     876274  HIT:          0  MISS:     876274  HIT %:          0  MISS %:        100   MPKI: 8.76274
LLC WRITEBACK ACCESS:    3639720  HIT:    3583585  MISS:      56135  HIT %:    98.4577  MISS %:    1.54229   MPKI: 0.56135
LLC LOAD TRANSLATION ACCESS:       9656  HIT:        258  MISS:       9398  HIT %:    2.67191  MISS %:    97.3281   MPKI: 0.09398
LLC PREFETCH  REQUESTED:          0  ISSUED:          0  USEFUL:          0  USELESS:     871995
LLC USEFUL LOAD PREFETCHES:          0 PREFETCH ISSUED TO LOWER LEVEL:     876275  ACCURACY: 0
LLC TIMELY PREFETCHES:          0 LATE PREFETCHES: 0 DROPPED PREFETCHES: 0
LLC PREFETCHES SAME FILL-ORIGIN LEVEL: 0 DIFFERENT FILL-ORIGIN LEVEL: 0
LLC AVERAGE MISS LATENCY: 592.904 cycles
LLC RQ	ACCESS:    3957602	FORWARD:          0	MERGED:          0	TO_CACHE:    3957522
LLC WQ	ACCESS:    3639722	FORWARD:         80	MERGED:          0	TO_CACHE:    3639722
LLC PQ	ACCESS:     876275	FORWARD:          0	MERGED:          0	TO_CACHE:     876275

LLC Dense regions hint to LLC: 0

RAW hits: 1261387
Loads Generated: 26081077
Loads sent to L1D: 24819687
Stores Generated: 18427536
Stores sent to L1D: 18427539
Major fault: 0 Minor fault: 58801
Allocated PAGES: 58801

stream: 
stream:times selected: 1083170
stream:pref_filled: 144520
stream:pref_useful: 144520
stream:pref_late: 54796
stream:misses: 39388
stream:misses_by_poll: 0

CS: 
CS:times selected: 457774
CS:pref_filled: 265730
CS:pref_useful: 265727
CS:pref_late: 74657
CS:misses: 182222
CS:misses_by_poll: 2068

CPLX: 
CPLX:times selected: 625317
CPLX:pref_filled: 255017
CPLX:pref_useful: 255017
CPLX:pref_late: 78819
CPLX:misses: 283572
CPLX:misses_by_poll: 1372

NL_L1: 
NL:times selected: 16
NL:pref_filled: 1
NL:pref_useful: 1
NL:pref_late: 1
NL:misses: 16
NL:misses_by_poll: 0

total selections: 2166277
total_filled: 665268
total_useful: 665265
total_late: 211006
total_polluted: 3440
total_misses_after_warmup: 505219
conflicts: 14
Degree Incremented Times: 17701
Degree Decremented Times: 0

L1 IP Table Write Accesses: 1499516
L1 IP Table Read Accesses: 1499502
L1 RST Write Accesses: 1083171
L1 RST Read Accesses: 2166334
L1 CSPT Write Accesses: 1083171
L1 CSPT Read Accesses: 2862155
L1 RR Filter Tag Write Accesses: 1174173
L1 RR Filter Tag Read Accesses: 236072203
L1 IP Table Tag Write Accesses: 1499516
L1 IP Table Tag Read Accesses: 1499516
L1 RST Tag Write Accesses: 56
L1 RST Tag Read Accesses: 9752237
L1 RR Filter Write Accesses: 0
L1 RR Filter Read Accesses: 8844064
test: 99398

DRAM Statistics
 CHANNEL 0
 RQ ROW_BUFFER_HIT:     315354  ROW_BUFFER_MISS:    4452760
 DBUS_CONGESTED:          0
 WQ ROW_BUFFER_HIT:     532511  ROW_BUFFER_MISS:    3035920  FULL:          0

 AVG_CONGESTED_CYCLE: -
 All warmup complete: 2
Channel 0 Bank busy for read cycles: 0
Channel 0 Bank busy for write cycles: 0
Channel 0
Rank 0
0banks busy for read cycles: 12331
0banks busy for write cycles: 0
1banks busy for read cycles: 1150677
1banks busy for write cycles: 351454
2banks busy for read cycles: 1326542
2banks busy for write cycles: 351454
3banks busy for read cycles: 2487819
3banks busy for write cycles: 351453
4banks busy for read cycles: 7408502
4banks busy for write cycles: 351451
5banks busy for read cycles: 18291146
5banks busy for write cycles: 351457
6banks busy for read cycles: 27640160
6banks busy for write cycles: 356969
7banks busy for read cycles: 37536964
7banks busy for write cycles: 4101011
8banks busy for read cycles: 28776217
8banks busy for write cycles: 79142479

CPU 0 Branch Prediction Accuracy: 97.1168% MPKI: 0.51773 Average ROB Occupancy at Mispredict: 179.996
Branch types
NOT_BRANCH: 98204320 98.2043%
BRANCH_DIRECT_JUMP: 291819 0.291819%
BRANCH_INDIRECT: 0 0%
BRANCH_CONDITIONAL: 1503851 1.50385%
BRANCH_DIRECT_CALL: 0 0%
BRANCH_INDIRECT_CALL: 0 0%
BRANCH_RETURN: 0 0%
BRANCH_OTHER: 0 0%

DRAM PAGES: 1048576
Allocated PAGES: 58801
