
*** ChampSim Multicore Out-of-Order Simulator ***

Warmup Instructions: 50000000
Simulation Instructions: 100000000
Number of CPUs: 1
LLC sets: 2048
LLC ways: 16
Off-chip DRAM Size: 4096 MB Channels: 1 Width: 64-bit Data Rate: 6400 MT/s
CPU 0 runs ../SPEC2017//619.lbm_s-3766B.champsimtrace.xz
.xz
NUM_OF_IPS_IN_CRITICAL_IP_TRAINING: 64
NUM_OF_CRITICAL_IP_TRAINING_TABLE_WAYS: 2
NUM_OF_CRITICAL_IP_TRAINING_TABLE_SETS: 32
WOBBLY_CRITICAL_IP_CACHE_SETS: 32
WOBBLY_CRITICAL_IP_CACHE_WAYS: 4
BTB has LRU replacement policy
ITLB has LRU replacement policy
DTLB has LRU replacement policy
STLB has LRU replacement policy
L1I has LRU replacement policy
Bingo PHT WAYS: 16 and PHT_SIZE: 16384
L1D has LRU replacement policy
Initialize SRRIP state for L2C
Initialize DRRIP state for LLC
Heartbeat CPU 0 instructions: 10000000 cycles: 2733037 heartbeat IPC: 3.65893 cumulative IPC: 3.65893 (Simulation time: 0 hr 5 min 7 sec) 
Heartbeat CPU 0 instructions: 20000002 cycles: 5468867 heartbeat IPC: 3.6552 cumulative IPC: 3.65706 (Simulation time: 0 hr 9 min 38 sec) 
Heartbeat CPU 0 instructions: 30000000 cycles: 8201973 heartbeat IPC: 3.65884 cumulative IPC: 3.65766 (Simulation time: 0 hr 13 min 48 sec) 
Heartbeat CPU 0 instructions: 40000001 cycles: 10937862 heartbeat IPC: 3.65512 cumulative IPC: 3.65702 (Simulation time: 0 hr 17 min 37 sec) 
Heartbeat CPU 0 instructions: 50000000 cycles: 13673793 heartbeat IPC: 3.65506 cumulative IPC: 3.65663 (Simulation time: 0 hr 20 min 58 sec) 

Warmup complete CPU 0 instructions: 50000004 cycles: 13673794 (Simulation time: 0 hr 20 min 58 sec) 

% increase in all ip prefetch 253.069
% increase in all ip prefetch -0.619707
Heartbeat CPU 0 instructions: 60000000 cycles: 23891180 heartbeat IPC: 0.978724 cumulative IPC: 0.978724 (Simulation time: 0 hr 24 min 50 sec) 
Heartbeat CPU 0 instructions: 70000001 cycles: 34278801 heartbeat IPC: 0.962684 cumulative IPC: 0.970638 (Simulation time: 0 hr 28 min 42 sec) 
Heartbeat CPU 0 instructions: 80000002 cycles: 44520185 heartbeat IPC: 0.976431 cumulative IPC: 0.972561 (Simulation time: 0 hr 32 min 26 sec) 
Heartbeat CPU 0 instructions: 90000001 cycles: 54926031 heartbeat IPC: 0.960998 cumulative IPC: 0.969644 (Simulation time: 0 hr 35 min 54 sec) 
Heartbeat CPU 0 instructions: 100000000 cycles: 65138260 heartbeat IPC: 0.979218 cumulative IPC: 0.971544 (Simulation time: 0 hr 38 min 56 sec) 
Heartbeat CPU 0 instructions: 110000000 cycles: 75952757 heartbeat IPC: 0.924685 cumulative IPC: 0.963407 (Simulation time: 0 hr 41 min 49 sec) 
Heartbeat CPU 0 instructions: 120000003 cycles: 86966984 heartbeat IPC: 0.907917 cumulative IPC: 0.955068 (Simulation time: 0 hr 44 min 39 sec) 
Heartbeat CPU 0 instructions: 130000001 cycles: 100077552 heartbeat IPC: 0.762743 cumulative IPC: 0.925886 (Simulation time: 0 hr 47 min 43 sec) 
Heartbeat CPU 0 instructions: 140000002 cycles: 114616883 heartbeat IPC: 0.68779 cumulative IPC: 0.891591 (Simulation time: 0 hr 51 min 44 sec) 
Heartbeat CPU 0 instructions: 150000000 cycles: 131335017 heartbeat IPC: 0.598153 cumulative IPC: 0.849898 (Simulation time: 1 hr 0 min 0 sec) 
Finished CPU 0 instructions: 100000000 cycles: 117661229 cumulative IPC: 0.849898 (Simulation time: 1 hr 0 min 0 sec) 

ChampSim completed all CPUs

Region of Interest Statistics

CPU 0 cumulative IPC: 0.849898 instructions: 100000000 cycles: 117661229

CPU 0 Average Load ROB stall cycles: 7.17656e+06
CPU 0 Fraction of times ROB stalled by Loads: 11.1692
CPU 0 Percentage of Load stall cycles in Total stall cycles: 1.58744e+08
 Total stall cycles: 71844398
 Total load stall cycles: 114048979016233
CPU 0 NUM of IPS identified critical: 0

Threshold modification factor: -1
Max PIST entries: 60
Min PIST entries: 0
Avg PIST entries: 35.7667
Average ROB occupancy Load Stall Begin: 32.0539
Average ROB occupancy Load Stall End: 37.1627
Min ROB occupancy Load Stall Begin: 2
Max ROB occupancy Load Stall Begin: 351
Min ROB occupancy Load Stall End: 2
Max ROB occupancy Load Stall End: 352
Average ROB occupancy Critical Load Stall Begin: -nan
Average ROB occupancy Critical Load Stall End: -nan
Min ROB occupancy Critical Load Stall Begin: 400
Max ROB occupancy Critical Load Stall Begin: 0
Min ROB occupancy Critical Load Stall End: 400
Max ROB occupancy Critical Load Stall End: 0
 ROB Load Stall Begin Bucket Count 0: 1706708
 ROB Load Stall End Bucket Count 0: 1644240
 ROB Critical Load Stall Begin Bucket Count 0: 0
 ROB Critical Load Stall End Bucket Count 0: 0
 ROB Load Stall Begin Bucket Count 1: 17374
 ROB Load Stall End Bucket Count 1: 67830
 ROB Critical Load Stall Begin Bucket Count 1: 0
 ROB Critical Load Stall End Bucket Count 1: 0
 ROB Load Stall Begin Bucket Count 2: 7079
 ROB Load Stall End Bucket Count 2: 4802
 ROB Critical Load Stall Begin Bucket Count 2: 0
 ROB Critical Load Stall End Bucket Count 2: 0
 ROB Load Stall Begin Bucket Count 3: 8718
 ROB Load Stall End Bucket Count 3: 9648
 ROB Critical Load Stall Begin Bucket Count 3: 0
 ROB Critical Load Stall End Bucket Count 3: 0
 ROB Load Stall Begin Bucket Count 4: 6149
 ROB Load Stall End Bucket Count 4: 7059
 ROB Critical Load Stall Begin Bucket Count 4: 0
 ROB Critical Load Stall End Bucket Count 4: 0
 ROB Load Stall Begin Bucket Count 5: 6022
 ROB Load Stall End Bucket Count 5: 6735
 ROB Critical Load Stall Begin Bucket Count 5: 0
 ROB Critical Load Stall End Bucket Count 5: 0
 ROB Load Stall Begin Bucket Count 6: 22952
 ROB Load Stall End Bucket Count 6: 34688
 ROB Critical Load Stall Begin Bucket Count 6: 0
 ROB Critical Load Stall End Bucket Count 6: 0
PIST Tag Read Accesses: 159738
PIST Read Accesses: 79869
PIST Tag Write Accesses: 159738
PIST Write Accesses: 79869
Criticality detector called times: 601102
Max global_stall_cycles_count: 145711
Threshold Modified: 1 times, factor: -1
Sturdy critical IP cache stats: 
 Unused entries: 0
CIC Tag Read Accesses: 0
CIC Read Accesses: 0
CIC Tag Write Accesses: 0
CIC Write Accesses: 0
Wobbly critical IP cache stats: 
 Unused entries: 123
CIC Tag Read Accesses: 154405368
CIC Read Accesses: 0
CIC Tag Write Accesses: 73327
CIC Write Accesses: 0
ITLB TOTAL     ACCESS:   13007589  HIT:   13007589  MISS:          0  HIT %:        100  MISS %:          0   MPKI: 0
ITLB LOAD TRANSLATION ACCESS:   13007589  HIT:   13007589  MISS:          0  HIT %:        100  MISS %:          0   MPKI: 0
ITLB PREFETCHES SAME FILL-ORIGIN LEVEL: 0 DIFFERENT FILL-ORIGIN LEVEL: 0
ITLB AVERAGE MISS LATENCY: -nan cycles
ITLB RQ	ACCESS:   17012838	FORWARD:          0	MERGED:    4005249	TO_CACHE:   13007589

DTLB TOTAL     ACCESS:   17380919  HIT:   17308500  MISS:      72419  HIT %:    99.5833  MISS %:   0.416658   MPKI: 0.72419
DTLB LOAD TRANSLATION ACCESS:   17380919  HIT:   17308500  MISS:      72419  HIT %:    99.5833  MISS %:   0.416658   MPKI: 0.72419
DTLB PREFETCHES SAME FILL-ORIGIN LEVEL: 0 DIFFERENT FILL-ORIGIN LEVEL: 0
DTLB AVERAGE MISS LATENCY: 106.741 cycles
DTLB RQ	ACCESS:   25575672	FORWARD:          0	MERGED:    8179344	TO_CACHE:   17396328

STLB TOTAL     ACCESS:     188559  HIT:     149266  MISS:      39293  HIT %:    79.1614  MISS %:    20.8386   MPKI: 0.39293
STLB LOAD TRANSLATION ACCESS:      72419  HIT:      33126  MISS:      39293  HIT %:    45.7421  MISS %:    54.2579   MPKI: 0.39293
STLB TRANSLATION FROM L1D PREFETCHER ACCESS:     116140  HIT:     116140  MISS:          0  HIT %:        100  MISS %:          0   MPKI: 0
STLB PREFETCHES SAME FILL-ORIGIN LEVEL: 0 DIFFERENT FILL-ORIGIN LEVEL: 0
STLB AVERAGE MISS LATENCY: 177.526 cycles
STLB RQ	ACCESS:     637243	FORWARD:          0	MERGED:     448684	TO_CACHE:     188559

STLB Hit, L1D data hit: 0
STLB Hit, L2C data hit: 0
STLB Hit, LLC data hit: 0
STLB Hit, LLC data miss: 0
STLB STLB hints to L2: 0
L1D TOTAL     ACCESS:   26017075  HIT:   21868971  MISS:    4148104  HIT %:    84.0562  MISS %:    15.9438   MPKI: 41.481
L1D LOAD      ACCESS:   10931747  HIT:   10817140  MISS:     114607  HIT %:    98.9516  MISS %:    1.04839   MPKI: 1.14607
L1D RFO       ACCESS:   14571312  HIT:   11051730  MISS:    3519582  HIT %:    75.8458  MISS %:    24.1542   MPKI: 35.1958
L1D PREFETCH  ACCESS:     514016  HIT:        101  MISS:     513915  HIT %:  0.0196492  MISS %:    99.9804   MPKI: 5.13915
L1D PREFETCH  REQUESTED:    1129648  ISSUED:    1129648  USEFUL:     513908  USELESS:          0
L1D USEFUL LOAD PREFETCHES:     513908 PREFETCH ISSUED TO LOWER LEVEL:     549865  ACCURACY: 93.4608
L1D TIMELY PREFETCHES:     513908 LATE PREFETCHES: 35950 DROPPED PREFETCHES: 0
L1D PREFETCHES SAME FILL-ORIGIN LEVEL: 549865 DIFFERENT FILL-ORIGIN LEVEL: 0
L1D AVERAGE MISS LATENCY: 837471 cycles
L1D RQ	ACCESS:   23044913	FORWARD:          0	MERGED:    9548897	TO_CACHE:   10977840
L1D WQ	ACCESS:   15369164	FORWARD:    2518176	MERGED:     771332	TO_CACHE:   14597832
L1D PQ	ACCESS:     564824	FORWARD:          0	MERGED:          0	TO_CACHE:     564824

L1D UNIQUE REGIONS ACCESSED: 0
L1D REGIONS CONFLICTS: 0
L1D Cross Page Prefetch Requests: 0
L1D Same Page Prefetch Requests: 826101
L1D ROI Sum of L1D PQ occupancy: 21028384
L1D PREFETCHES PUSHED FROM L2C: 0
L1I TOTAL     ACCESS:   17012836  HIT:   17012836  MISS:          0  HIT %:        100  MISS %:          0   MPKI: 0
L1I LOAD      ACCESS:   17012836  HIT:   17012836  MISS:          0  HIT %:        100  MISS %:          0   MPKI: 0
L1I PREFETCHES SAME FILL-ORIGIN LEVEL: 0 DIFFERENT FILL-ORIGIN LEVEL: 0
L1I AVERAGE MISS LATENCY: -nan cycles
L1I RQ	ACCESS:   23990186	FORWARD:          0	MERGED:    6977348	TO_CACHE:   17012838

BTB TOTAL     ACCESS:    1169391  HIT:    1169385  MISS:          6  HIT %:    99.9995  MISS %: 0.000513088   MPKI: 6e-05
BTB BRANCH_DIRECT_JUMP	ACCESS:      43700  HIT:      43699  MISS:          1
BTB BRANCH_INDIRECT	ACCESS:          0  HIT:          0  MISS:          0
BTB BRANCH_CONDITIONAL	ACCESS:    1125691  HIT:    1125686  MISS:          5
BTB BRANCH_DIRECT_CALL	ACCESS:          0  HIT:          0  MISS:          0
BTB BRANCH_INDIRECT_CALL	ACCESS:          0  HIT:          0  MISS:          0
BTB BRANCH_RETURN	ACCESS:          0  HIT:          0  MISS:          0
BTB BRANCH_OTHER ACCESS:          0  HIT:          0  MISS:          0

L2C TOTAL     ACCESS:    7706991  HIT:    4999864  MISS:    2707127  HIT %:    64.8744  MISS %:    35.1256   MPKI: 27.0713
L2C LOAD      ACCESS:      78657  HIT:          0  MISS:      78657  HIT %:          0  MISS %:        100   MPKI: 0.78657
L2C DATA LOAD MPKI: 0.78657
L2C INSTRUCTION LOAD MPKI: 0
L2C RFO       ACCESS:    3519582  HIT:    1601065  MISS:    1918517  HIT %:    45.4902  MISS %:    54.5098   MPKI: 19.1852
L2C PREFETCH  ACCESS:     549865  HIT:          0  MISS:     549865  HIT %:          0  MISS %:        100   MPKI: 5.49865
L2C DATA PREFETCH MPKI: 5.49865
L2C INSTRUCTION PREFETCH MPKI: 0
L2C WRITEBACK ACCESS:    3519592  HIT:    3364581  MISS:     155011  HIT %:    95.5958  MISS %:    4.40423   MPKI: 1.55011
L2C LOAD TRANSLATION ACCESS:      39295  HIT:      34218  MISS:       5077  HIT %:    87.0798  MISS %:    12.9202   MPKI: 0.05077
L2C PREFETCHES SAME FILL-ORIGIN LEVEL: 0 DIFFERENT FILL-ORIGIN LEVEL: 0
L2C AVERAGE MISS LATENCY: 482.418 cycles
L2C RQ	ACCESS:    3637550	FORWARD:          0	MERGED:          0	TO_CACHE:    3637550
L2C WQ	ACCESS:    3519592	FORWARD:          0	MERGED:          0	TO_CACHE:    3519592
L2C PQ	ACCESS:     549865	FORWARD:          0	MERGED:          0	TO_CACHE:     549865

L2C Instructions Evicting Data0
L2C Translations Evicting Data5073
L2C Data Evicting Data2542249
L2C Instructions Evicting Instructions0
L2C Translations Evicting Instructions0
L2C Data Evicting Instructions0
L2C Instructions Evicting Translations0
L2C Translations Evicting Translations4
L2C Data Evicting Translations4790
L2C Dense regions hint from L2: 0
PSCL5 TOTAL     ACCESS:      39293  HIT:      39293  MISS:          0  HIT %:        100  MISS %:          0   MPKI: 0
PSCL5 LOAD TRANSLATION ACCESS:      39293  HIT:      39293  MISS:          0  HIT %:        100  MISS %:          0   MPKI: 0
PSCL5 PREFETCHES SAME FILL-ORIGIN LEVEL: 0 DIFFERENT FILL-ORIGIN LEVEL: 0

PSCL4 TOTAL     ACCESS:      39293  HIT:      39293  MISS:          0  HIT %:        100  MISS %:          0   MPKI: 0
PSCL4 LOAD TRANSLATION ACCESS:      39293  HIT:      39293  MISS:          0  HIT %:        100  MISS %:          0   MPKI: 0
PSCL4 PREFETCHES SAME FILL-ORIGIN LEVEL: 0 DIFFERENT FILL-ORIGIN LEVEL: 0

PSCL3 TOTAL     ACCESS:      39293  HIT:      39292  MISS:          1  HIT %:    99.9975  MISS %: 0.00254498   MPKI: 1e-05
PSCL3 LOAD TRANSLATION ACCESS:      39293  HIT:      39292  MISS:          1  HIT %:    99.9975  MISS %: 0.00254498   MPKI: 1e-05
PSCL3 PREFETCHES SAME FILL-ORIGIN LEVEL: 0 DIFFERENT FILL-ORIGIN LEVEL: 0

PSCL2 TOTAL     ACCESS:      39293  HIT:      39252  MISS:         41  HIT %:    99.8957  MISS %:   0.104344   MPKI: 0.00041
PSCL2 LOAD TRANSLATION ACCESS:      39293  HIT:      39252  MISS:         41  HIT %:    99.8957  MISS %:   0.104344   MPKI: 0.00041
PSCL2 PREFETCHES SAME FILL-ORIGIN LEVEL: 0 DIFFERENT FILL-ORIGIN LEVEL: 0

LLC TOTAL     ACCESS:    4473940  HIT:    1925331  MISS:    2548609  HIT %:    43.0344  MISS %:    56.9656   MPKI: 25.4861
LLC LOAD      ACCESS:      78657  HIT:          2  MISS:      78655  HIT %: 0.00254269  MISS %:    99.9975   MPKI: 0.78655
LLC RFO       ACCESS:    1918498  HIT:      33036  MISS:    1885462  HIT %:    1.72197  MISS %:     98.278   MPKI: 18.8546
LLC PREFETCH  ACCESS:     549865  HIT:          0  MISS:     549865  HIT %:          0  MISS %:        100   MPKI: 5.49865
LLC WRITEBACK ACCESS:    1921843  HIT:    1892181  MISS:      29662  HIT %:    98.4566  MISS %:    1.54341   MPKI: 0.29662
LLC LOAD TRANSLATION ACCESS:       5077  HIT:        112  MISS:       4965  HIT %:    2.20603  MISS %:     97.794   MPKI: 0.04965
LLC PREFETCHES SAME FILL-ORIGIN LEVEL: 0 DIFFERENT FILL-ORIGIN LEVEL: 0
LLC AVERAGE MISS LATENCY: 481.688 cycles
LLC RQ	ACCESS:    2002267	FORWARD:          0	MERGED:          0	TO_CACHE:    2002248
LLC WQ	ACCESS:    1921843	FORWARD:         19	MERGED:          0	TO_CACHE:    1921843
LLC PQ	ACCESS:     549865	FORWARD:          0	MERGED:          0	TO_CACHE:     549865

LLC Dense regions hint to LLC: 0

RAW hits: 675850
Loads Generated: 23720765
Loads sent to L1D: 23044913
Stores Generated: 15369155
Stores sent to L1D: 15369164
Major fault: 0 Minor fault: 31299
Allocated PAGES: 31299
[Bingo] PHT Access: 19655
[Bingo] PHT Hit PC+Addr: 11
[Bingo] PHT Hit PC+Offs: 19628
[Bingo] PHT Miss: 16
[Bingo] Prefetch PC+Addr: 0
[Bingo] Prefetch PC+Offs: 0
[Bingo] Useful PC+Addr: 0
[Bingo] Useful PC+Offs: 0
[Bingo] Useless PC+Addr: 0
[Bingo] Useless PC+Offs: 0
[Bingo] L1 Prefetch per Region: 31.9845
[Bingo] L2 Prefetch per Region: 0
[Bingo] L3 Prefetch per Region: 0
[Bingo] No Prefetch per Region: 0.0154794
[Bingo] Number of Voters Mean: 15.943
[Bingo] Number of Voters SD: 10.4828
PHT read accesses: 312953
PHT write accesses: 19654
AT read accesses: 10958426
AT write accesses: 10958427
FT read accesses: 97793
FT write accesses: 19655
PS read accesses: 1190357
PS write accesses: 19639
PHT tag read accesses: 941835
PHT tag write accesses: 19665
AT tag read accesses: 242667688
AT tag write accesses: 10978081
FT tag read accesses: 67957863
FT tag write accesses: 78379
PS tag read accesses: 176293530
PS tag write accesses: 1209996

DRAM Statistics
 CHANNEL 0
 RQ ROW_BUFFER_HIT:     200577  ROW_BUFFER_MISS:    2318370
 DBUS_CONGESTED:          1
 WQ ROW_BUFFER_HIT:     281439  ROW_BUFFER_MISS:    1599214  FULL:          0

 AVG_CONGESTED_CYCLE: 7
 All warmup complete: 2
Channel 0 Bank busy for read cycles: 0
Channel 0 Bank busy for write cycles: 0
Channel 0
Rank 0
0banks busy for read cycles: 34685
0banks busy for write cycles: 0
1banks busy for read cycles: 1753196
1banks busy for write cycles: 196958
2banks busy for read cycles: 3531973
2banks busy for write cycles: 196953
3banks busy for read cycles: 7085177
3banks busy for write cycles: 196949
4banks busy for read cycles: 7043985
4banks busy for write cycles: 196944
5banks busy for read cycles: 14685144
5banks busy for write cycles: 196972
6banks busy for read cycles: 13472820
6banks busy for write cycles: 201238
7banks busy for read cycles: 12119034
7banks busy for write cycles: 2186666
8banks busy for read cycles: 12753103
8banks busy for write cycles: 41809433

CPU 0 Branch Prediction Accuracy: 99.0615% MPKI: 0.10976 Average ROB Occupancy at Mispredict: 95.7428
Branch types
NOT_BRANCH: 98830075 98.8301%
BRANCH_DIRECT_JUMP: 43700 0.0437%
BRANCH_INDIRECT: 0 0%
BRANCH_CONDITIONAL: 1125885 1.12589%
BRANCH_DIRECT_CALL: 0 0%
BRANCH_INDIRECT_CALL: 0 0%
BRANCH_RETURN: 0 0%
BRANCH_OTHER: 0 0%

DRAM PAGES: 1048576
Allocated PAGES: 31299
