Initialize SIGNATURE TABLE
ST_SET: 1
ST_WAY: 256
ST_TAG_BIT: 16
ST_TAG_MASK: ffff

Initialize PATTERN TABLE
PT_SET: 512
PT_WAY: 4
SIG_DELTA_BIT: 7
C_SIG_BIT: 4
C_DELTA_BIT: 4

Initialize PREFETCH FILTER
FILTER_SET: 1024

*** ChampSim Multicore Out-of-Order Simulator ***

Warmup Instructions: 50000000
Simulation Instructions: 100000000
Number of CPUs: 1
LLC sets: 2048
LLC ways: 16
Off-chip DRAM Size: 4096 MB Channels: 1 Width: 64-bit Data Rate: 6400 MT/s
CPU 0 runs ../SPEC2017//619.lbm_s-3766B.champsimtrace.xz
.xz
BTB has LRU replacement policy
ITLB has LRU replacement policy
DTLB has LRU replacement policy
STLB has LRU replacement policy
L1I has LRU replacement policy
L1D has LRU replacement policy
Initialize SRRIP state for L2C
Initialize DRRIP state for LLC
Heartbeat CPU 0 instructions: 10000000 cycles: 2736610 heartbeat IPC: 3.65416 cumulative IPC: 3.65416 (Simulation time: 0 hr 4 min 27 sec) 
Heartbeat CPU 0 instructions: 20000002 cycles: 5476074 heartbeat IPC: 3.65035 cumulative IPC: 3.65225 (Simulation time: 0 hr 8 min 34 sec) 
Heartbeat CPU 0 instructions: 30000000 cycles: 8212593 heartbeat IPC: 3.65428 cumulative IPC: 3.65293 (Simulation time: 0 hr 12 min 32 sec) 
Heartbeat CPU 0 instructions: 40000001 cycles: 10952110 heartbeat IPC: 3.65028 cumulative IPC: 3.65226 (Simulation time: 0 hr 16 min 15 sec) 
Heartbeat CPU 0 instructions: 50000000 cycles: 13691636 heartbeat IPC: 3.65027 cumulative IPC: 3.65186 (Simulation time: 0 hr 20 min 4 sec) 

Warmup complete CPU 0 instructions: 50000004 cycles: 13691637 (Simulation time: 0 hr 20 min 4 sec) 

Heartbeat CPU 0 instructions: 60000000 cycles: 26584996 heartbeat IPC: 0.775593 cumulative IPC: 0.775593 (Simulation time: 0 hr 26 min 33 sec) 
Heartbeat CPU 0 instructions: 70000001 cycles: 39628379 heartbeat IPC: 0.766672 cumulative IPC: 0.771107 (Simulation time: 0 hr 32 min 24 sec) 
Heartbeat CPU 0 instructions: 80000003 cycles: 52538766 heartbeat IPC: 0.77457 cumulative IPC: 0.772258 (Simulation time: 0 hr 37 min 53 sec) 
Heartbeat CPU 0 instructions: 90000001 cycles: 65609830 heartbeat IPC: 0.765049 cumulative IPC: 0.770443 (Simulation time: 0 hr 42 min 58 sec) 
Heartbeat CPU 0 instructions: 100000003 cycles: 78492645 heartbeat IPC: 0.776228 cumulative IPC: 0.771593 (Simulation time: 0 hr 48 min 0 sec) 
Heartbeat CPU 0 instructions: 110000000 cycles: 92005653 heartbeat IPC: 0.740027 cumulative IPC: 0.766146 (Simulation time: 0 hr 53 min 3 sec) 
Heartbeat CPU 0 instructions: 120000003 cycles: 105797075 heartbeat IPC: 0.725089 cumulative IPC: 0.759999 (Simulation time: 0 hr 58 min 12 sec) 
Heartbeat CPU 0 instructions: 130000000 cycles: 121686715 heartbeat IPC: 0.629341 cumulative IPC: 0.740774 (Simulation time: 1 hr 2 min 59 sec) 
Heartbeat CPU 0 instructions: 140000002 cycles: 138961179 heartbeat IPC: 0.578889 cumulative IPC: 0.718451 (Simulation time: 1 hr 8 min 33 sec) 
Heartbeat CPU 0 instructions: 150000002 cycles: 157780867 heartbeat IPC: 0.531358 cumulative IPC: 0.694014 (Simulation time: 1 hr 20 min 24 sec) 
Finished CPU 0 instructions: 100000002 cycles: 144089231 cumulative IPC: 0.694014 (Simulation time: 1 hr 20 min 24 sec) 

ChampSim completed all CPUs

Region of Interest Statistics

CPU 0 cumulative IPC: 0.694014 instructions: 100000002 cycles: 144089231

CPU 0 Average Load ROB stall cycles: 1.87376e+07
CPU 0 Fraction of times ROB stalled by Loads: 23.1547
CPU 0 Percentage of Load stall cycles in Total stall cycles: 1.02903e+08
Issued all: 96982410
Issued LT all: 84366592
rob_not_full_when_issued_lt_all: 32999850
Issued LT one: 75260631
rob_not_full_when_issued_lt_one: 28033272
 Total stall cycles: 119236893
 Total load stall cycles: 122698530843087
Unique Load IPs: 128
CPU 0 NUM of IPS identified critical: 7
CPU 0 Num of Load IPs stalling ROB: 0
Threshold modification factor: 0
Trouble in retire width: -nan
MaC = Marked as critical.
lt_50_percent_before_Mac: 3
gt_90_percent_before_Mac: 1
gt_75_percent_before_Mac: 2
gt_50_percent_before_Mac: 1
stall_proportion_bin_same_before_after: 0
stall_proportion_bin_lower_before_after: 0
stall_proportion_bin_upper_before_after: 0
average_stall_proportion_before: 0.00891974
average_stall_proportion_after: 0.00994851
Critical_IP_Detector_Accuracy_70: 0.142857
Critical_IP_Detector_Accuracy_80: 0.142857
Critical_IP_Detector_Accuracy_90: 0.142857
Critical_IP_Detector_Coverage_70: 1
Critical_IP_Detector_Coverage_80: 1
Critical_IP_Detector_Coverage_90: 1
stat_90_percent_critical_ip_stalls_freq: 210915
stat_90_percent_non_critical_ip_stalls_freq: 18446744073709340701
AVERAGE_ROB_Occupancy_90_Percent_Critical_IP_Stalls: 314.925
AVERAGE_ROB_Occupancy_90_Percent_Non_Critical_IP_Stalls: 2.13533e-11
Critical_IP_ROB_Stalls_Bucket_0: 844
Non-critical_IP_ROB_Stalls_Bucket_0: 5719
Critical_IP_ROB_Stalls_Bucket_1: 2075
Non-critical_IP_ROB_Stalls_Bucket_1: 6774
Critical_IP_ROB_Stalls_Bucket_2: 10242
Non-critical_IP_ROB_Stalls_Bucket_2: 81361
Critical_IP_ROB_Stalls_Bucket_3: 15286
Non-critical_IP_ROB_Stalls_Bucket_3: 104685
Critical_IP_ROB_Stalls_Bucket_4: 6748
Non-critical_IP_ROB_Stalls_Bucket_4: 54297
Critical_IP_ROB_Stalls_Bucket_5: 26257
Non-critical_IP_ROB_Stalls_Bucket_5: 86440
Critical_IP_ROB_Stalls_Bucket_6: 170956
Non-critical_IP_ROB_Stalls_Bucket_6: 944545
0 => IPs accounting for >50 percent of stalls, 1 => 55, 2 => 60, 3 => 65 and so on till 90.
percent50: inf num IPs:  1
percent55: inf num IPs: 1
percent60: inf num IPs: 1
percent65: inf num IPs: 1
percent70: inf num IPs: 1
percent75: inf num IPs: 1
percent80: inf num IPs: 1
percent85: inf num IPs: 1
percent90: inf num IPs: 1
Critical_ROB_Stalls_Percent_0_Bucket_0: 647
Non-critical_ROB_Stalls_Percent_0_Bucket_0: 5916
Critical_ROB_Stalls_Percent_0_Bucket_1: 1520
Non-critical_ROB_Stalls_Percent_0_Bucket_1: 7329
Critical_ROB_Stalls_Percent_0_Bucket_2: 8021
Non-critical_ROB_Stalls_Percent_0_Bucket_2: 83582
Critical_ROB_Stalls_Percent_0_Bucket_3: 4745
Non-critical_ROB_Stalls_Percent_0_Bucket_3: 115226
Critical_ROB_Stalls_Percent_0_Bucket_4: 5820
Non-critical_ROB_Stalls_Percent_0_Bucket_4: 55225
Critical_ROB_Stalls_Percent_0_Bucket_5: 25868
Non-critical_ROB_Stalls_Percent_0_Bucket_5: 86829
Critical_ROB_Stalls_Percent_0_Bucket_6: 164294
Non-critical_ROB_Stalls_Percent_0_Bucket_6: 951207
Critical_ROB_Stalls_Percent_1_Bucket_0: 647
Non-critical_ROB_Stalls_Percent_1_Bucket_0: 5916
Critical_ROB_Stalls_Percent_1_Bucket_1: 1520
Non-critical_ROB_Stalls_Percent_1_Bucket_1: 7329
Critical_ROB_Stalls_Percent_1_Bucket_2: 8021
Non-critical_ROB_Stalls_Percent_1_Bucket_2: 83582
Critical_ROB_Stalls_Percent_1_Bucket_3: 4745
Non-critical_ROB_Stalls_Percent_1_Bucket_3: 115226
Critical_ROB_Stalls_Percent_1_Bucket_4: 5820
Non-critical_ROB_Stalls_Percent_1_Bucket_4: 55225
Critical_ROB_Stalls_Percent_1_Bucket_5: 25868
Non-critical_ROB_Stalls_Percent_1_Bucket_5: 86829
Critical_ROB_Stalls_Percent_1_Bucket_6: 164294
Non-critical_ROB_Stalls_Percent_1_Bucket_6: 951207
Critical_ROB_Stalls_Percent_2_Bucket_0: 647
Non-critical_ROB_Stalls_Percent_2_Bucket_0: 5916
Critical_ROB_Stalls_Percent_2_Bucket_1: 1520
Non-critical_ROB_Stalls_Percent_2_Bucket_1: 7329
Critical_ROB_Stalls_Percent_2_Bucket_2: 8021
Non-critical_ROB_Stalls_Percent_2_Bucket_2: 83582
Critical_ROB_Stalls_Percent_2_Bucket_3: 4745
Non-critical_ROB_Stalls_Percent_2_Bucket_3: 115226
Critical_ROB_Stalls_Percent_2_Bucket_4: 5820
Non-critical_ROB_Stalls_Percent_2_Bucket_4: 55225
Critical_ROB_Stalls_Percent_2_Bucket_5: 25868
Non-critical_ROB_Stalls_Percent_2_Bucket_5: 86829
Critical_ROB_Stalls_Percent_2_Bucket_6: 164294
Non-critical_ROB_Stalls_Percent_2_Bucket_6: 951207
Critical_ROB_Stalls_Percent_3_Bucket_0: 647
Non-critical_ROB_Stalls_Percent_3_Bucket_0: 5916
Critical_ROB_Stalls_Percent_3_Bucket_1: 1520
Non-critical_ROB_Stalls_Percent_3_Bucket_1: 7329
Critical_ROB_Stalls_Percent_3_Bucket_2: 8021
Non-critical_ROB_Stalls_Percent_3_Bucket_2: 83582
Critical_ROB_Stalls_Percent_3_Bucket_3: 4745
Non-critical_ROB_Stalls_Percent_3_Bucket_3: 115226
Critical_ROB_Stalls_Percent_3_Bucket_4: 5820
Non-critical_ROB_Stalls_Percent_3_Bucket_4: 55225
Critical_ROB_Stalls_Percent_3_Bucket_5: 25868
Non-critical_ROB_Stalls_Percent_3_Bucket_5: 86829
Critical_ROB_Stalls_Percent_3_Bucket_6: 164294
Non-critical_ROB_Stalls_Percent_3_Bucket_6: 951207
Critical_ROB_Stalls_Percent_4_Bucket_0: 647
Non-critical_ROB_Stalls_Percent_4_Bucket_0: 5916
Critical_ROB_Stalls_Percent_4_Bucket_1: 1520
Non-critical_ROB_Stalls_Percent_4_Bucket_1: 7329
Critical_ROB_Stalls_Percent_4_Bucket_2: 8021
Non-critical_ROB_Stalls_Percent_4_Bucket_2: 83582
Critical_ROB_Stalls_Percent_4_Bucket_3: 4745
Non-critical_ROB_Stalls_Percent_4_Bucket_3: 115226
Critical_ROB_Stalls_Percent_4_Bucket_4: 5820
Non-critical_ROB_Stalls_Percent_4_Bucket_4: 55225
Critical_ROB_Stalls_Percent_4_Bucket_5: 25868
Non-critical_ROB_Stalls_Percent_4_Bucket_5: 86829
Critical_ROB_Stalls_Percent_4_Bucket_6: 164294
Non-critical_ROB_Stalls_Percent_4_Bucket_6: 951207
Critical_ROB_Stalls_Percent_5_Bucket_0: 647
Non-critical_ROB_Stalls_Percent_5_Bucket_0: 5916
Critical_ROB_Stalls_Percent_5_Bucket_1: 1520
Non-critical_ROB_Stalls_Percent_5_Bucket_1: 7329
Critical_ROB_Stalls_Percent_5_Bucket_2: 8021
Non-critical_ROB_Stalls_Percent_5_Bucket_2: 83582
Critical_ROB_Stalls_Percent_5_Bucket_3: 4745
Non-critical_ROB_Stalls_Percent_5_Bucket_3: 115226
Critical_ROB_Stalls_Percent_5_Bucket_4: 5820
Non-critical_ROB_Stalls_Percent_5_Bucket_4: 55225
Critical_ROB_Stalls_Percent_5_Bucket_5: 25868
Non-critical_ROB_Stalls_Percent_5_Bucket_5: 86829
Critical_ROB_Stalls_Percent_5_Bucket_6: 164294
Non-critical_ROB_Stalls_Percent_5_Bucket_6: 951207
Critical_ROB_Stalls_Percent_6_Bucket_0: 647
Non-critical_ROB_Stalls_Percent_6_Bucket_0: 5916
Critical_ROB_Stalls_Percent_6_Bucket_1: 1520
Non-critical_ROB_Stalls_Percent_6_Bucket_1: 7329
Critical_ROB_Stalls_Percent_6_Bucket_2: 8021
Non-critical_ROB_Stalls_Percent_6_Bucket_2: 83582
Critical_ROB_Stalls_Percent_6_Bucket_3: 4745
Non-critical_ROB_Stalls_Percent_6_Bucket_3: 115226
Critical_ROB_Stalls_Percent_6_Bucket_4: 5820
Non-critical_ROB_Stalls_Percent_6_Bucket_4: 55225
Critical_ROB_Stalls_Percent_6_Bucket_5: 25868
Non-critical_ROB_Stalls_Percent_6_Bucket_5: 86829
Critical_ROB_Stalls_Percent_6_Bucket_6: 164294
Non-critical_ROB_Stalls_Percent_6_Bucket_6: 951207
Critical_ROB_Stalls_Percent_7_Bucket_0: 647
Non-critical_ROB_Stalls_Percent_7_Bucket_0: 5916
Critical_ROB_Stalls_Percent_7_Bucket_1: 1520
Non-critical_ROB_Stalls_Percent_7_Bucket_1: 7329
Critical_ROB_Stalls_Percent_7_Bucket_2: 8021
Non-critical_ROB_Stalls_Percent_7_Bucket_2: 83582
Critical_ROB_Stalls_Percent_7_Bucket_3: 4745
Non-critical_ROB_Stalls_Percent_7_Bucket_3: 115226
Critical_ROB_Stalls_Percent_7_Bucket_4: 5820
Non-critical_ROB_Stalls_Percent_7_Bucket_4: 55225
Critical_ROB_Stalls_Percent_7_Bucket_5: 25868
Non-critical_ROB_Stalls_Percent_7_Bucket_5: 86829
Critical_ROB_Stalls_Percent_7_Bucket_6: 164294
Non-critical_ROB_Stalls_Percent_7_Bucket_6: 951207
Critical_ROB_Stalls_Percent_8_Bucket_0: 647
Non-critical_ROB_Stalls_Percent_8_Bucket_0: 5916
Critical_ROB_Stalls_Percent_8_Bucket_1: 1520
Non-critical_ROB_Stalls_Percent_8_Bucket_1: 7329
Critical_ROB_Stalls_Percent_8_Bucket_2: 8021
Non-critical_ROB_Stalls_Percent_8_Bucket_2: 83582
Critical_ROB_Stalls_Percent_8_Bucket_3: 4745
Non-critical_ROB_Stalls_Percent_8_Bucket_3: 115226
Critical_ROB_Stalls_Percent_8_Bucket_4: 5820
Non-critical_ROB_Stalls_Percent_8_Bucket_4: 55225
Critical_ROB_Stalls_Percent_8_Bucket_5: 25868
Non-critical_ROB_Stalls_Percent_8_Bucket_5: 86829
Critical_ROB_Stalls_Percent_8_Bucket_6: 164294
Non-critical_ROB_Stalls_Percent_8_Bucket_6: 951207
Average ROB occupancy Load Stall Begin: 265.346
Average ROB occupancy Load Stall End: 303.597
Min ROB occupancy Load Stall Begin: 2
Max ROB occupancy Load Stall Begin: 352
Min ROB occupancy Load Stall End: 2
Max ROB occupancy Load Stall End: 352
Average ROB occupancy Critical Load Stall Begin: 143.108
Average ROB occupancy Critical Load Stall End: 172.401
Min ROB occupancy Critical Load Stall Begin: 4
Max ROB occupancy Critical Load Stall Begin: 352
Min ROB occupancy Critical Load Stall End: 4
Max ROB occupancy Critical Load Stall End: 352
 ROB Load Stall Begin Bucket Count 0: 17439
 ROB Load Stall End Bucket Count 0: 6563
 ROB Critical Load Stall Begin Bucket Count 0: 2319
 ROB Critical Load Stall End Bucket Count 0: 568
 ROB Load Stall Begin Bucket Count 1: 24742
 ROB Load Stall End Bucket Count 1: 8849
 ROB Critical Load Stall Begin Bucket Count 1: 914
 ROB Critical Load Stall End Bucket Count 1: 1509
 ROB Load Stall Begin Bucket Count 2: 302030
 ROB Load Stall End Bucket Count 2: 91603
 ROB Critical Load Stall Begin Bucket Count 2: 14719
 ROB Critical Load Stall End Bucket Count 2: 8316
 ROB Load Stall Begin Bucket Count 3: 101443
 ROB Load Stall End Bucket Count 3: 119971
 ROB Critical Load Stall Begin Bucket Count 3: 6157
 ROB Critical Load Stall End Bucket Count 3: 12035
 ROB Load Stall Begin Bucket Count 4: 61185
 ROB Load Stall End Bucket Count 4: 61045
 ROB Critical Load Stall Begin Bucket Count 4: 259
 ROB Critical Load Stall End Bucket Count 4: 365
 ROB Load Stall Begin Bucket Count 5: 187001
 ROB Load Stall End Bucket Count 5: 112697
 ROB Critical Load Stall Begin Bucket Count 5: 338
 ROB Critical Load Stall End Bucket Count 5: 441
 ROB Load Stall Begin Bucket Count 6: 822389
 ROB Load Stall End Bucket Count 6: 1115501
 ROB Critical Load Stall Begin Bucket Count 6: 1507
 ROB Critical Load Stall End Bucket Count 6: 2979
PIST Tag Read Accesses: 0
PIST Read Accesses: 0
PIST Tag Write Accesses: 0
PIST Write Accesses: 0
Criticality detector called times: 0
Max global_stall_cycles_count: 0
Threshold Modified: 0 times, factor: 0
Sturdy critical IP cache stats: 
 Unused entries: 0
CIC Tag Read Accesses: 0
CIC Read Accesses: 0
CIC Tag Write Accesses: 0
CIC Write Accesses: 0
Wobbly critical IP cache stats: 
 Unused entries: 9
CIC Tag Read Accesses: 295089689
CIC Read Accesses: 0
CIC Tag Write Accesses: 3267731
CIC Write Accesses: 0
ITLB TOTAL     ACCESS:   13241898  HIT:   13241898  MISS:          0  HIT %:        100  MISS %:          0   MPKI: 0
ITLB LOAD TRANSLATION ACCESS:   13241898  HIT:   13241898  MISS:          0  HIT %:        100  MISS %:          0   MPKI: 0
ITLB PREFETCH  REQUESTED:          0  ISSUED:          0  USEFUL:          0  USELESS:          0
ITLB USEFUL LOAD PREFETCHES:          0 PREFETCH ISSUED TO LOWER LEVEL:          0  ACCURACY: -nan
ITLB TIMELY PREFETCHES:          0 LATE PREFETCHES: 0 DROPPED PREFETCHES: 0
ITLB PREFETCHES SAME FILL-ORIGIN LEVEL: 0 DIFFERENT FILL-ORIGIN LEVEL: 0
ITLB AVERAGE MISS LATENCY: -nan cycles
ITLB RQ	ACCESS:   17269781	FORWARD:          0	MERGED:    4027883	TO_CACHE:   13241898

DTLB TOTAL     ACCESS:   14601750  HIT:   14529331  MISS:      72419  HIT %:     99.504  MISS %:   0.495961   MPKI: 0.72419
DTLB LOAD TRANSLATION ACCESS:   14601750  HIT:   14529331  MISS:      72419  HIT %:     99.504  MISS %:   0.495961   MPKI: 0.72419
DTLB PREFETCH  REQUESTED:          0  ISSUED:          0  USEFUL:          0  USELESS:          0
DTLB USEFUL LOAD PREFETCHES:          0 PREFETCH ISSUED TO LOWER LEVEL:          0  ACCURACY: -nan
DTLB TIMELY PREFETCHES:          0 LATE PREFETCHES: 0 DROPPED PREFETCHES: 0
DTLB PREFETCHES SAME FILL-ORIGIN LEVEL: 0 DIFFERENT FILL-ORIGIN LEVEL: 0
DTLB AVERAGE MISS LATENCY: 87.5935 cycles
DTLB RQ	ACCESS:   23780295	FORWARD:          0	MERGED:    9167844	TO_CACHE:   14612451

STLB TOTAL     ACCESS:      72419  HIT:      33126  MISS:      39293  HIT %:    45.7421  MISS %:    54.2579   MPKI: 0.39293
STLB LOAD TRANSLATION ACCESS:      72419  HIT:      33126  MISS:      39293  HIT %:    45.7421  MISS %:    54.2579   MPKI: 0.39293
STLB PREFETCH  REQUESTED:          0  ISSUED:          0  USEFUL:          0  USELESS:          0
STLB USEFUL LOAD PREFETCHES:          0 PREFETCH ISSUED TO LOWER LEVEL:          0  ACCURACY: -nan
STLB TIMELY PREFETCHES:          0 LATE PREFETCHES: 0 DROPPED PREFETCHES: 0
STLB PREFETCHES SAME FILL-ORIGIN LEVEL: 0 DIFFERENT FILL-ORIGIN LEVEL: 0
STLB AVERAGE MISS LATENCY: 144.433 cycles
STLB RQ	ACCESS:      72419	FORWARD:          0	MERGED:          0	TO_CACHE:      72419

STLB Hit, L1D data hit: 0
STLB Hit, L2C data hit: 0
STLB Hit, LLC data hit: 0
STLB Hit, LLC data miss: 0
STLB STLB hints to L2: 0
L1D TOTAL     ACCESS:   23638523  HIT:   19490407  MISS:    4148116  HIT %:    82.4519  MISS %:    17.5481   MPKI: 41.4812
L1D LOAD      ACCESS:    8288851  HIT:    7660336  MISS:     628515  HIT %:    92.4173  MISS %:    7.58266   MPKI: 6.28515
L1D RFO       ACCESS:   15349672  HIT:   11830071  MISS:    3519601  HIT %:    77.0705  MISS %:    22.9295   MPKI: 35.196
L1D PREFETCH  REQUESTED:          0  ISSUED:          0  USEFUL:          0  USELESS:          0
L1D USEFUL LOAD PREFETCHES:          0 PREFETCH ISSUED TO LOWER LEVEL:          0  ACCURACY: -nan
L1D TIMELY PREFETCHES:          0 LATE PREFETCHES: 0 DROPPED PREFETCHES: 0
L1D PREFETCHES SAME FILL-ORIGIN LEVEL: 0 DIFFERENT FILL-ORIGIN LEVEL: 0
L1D AVERAGE MISS LATENCY: 232.563 cycles
L1D RQ	ACCESS:   21048791	FORWARD:          0	MERGED:   12030573	TO_CACHE:    8420074
L1D WQ	ACCESS:   15369164	FORWARD:     598144	MERGED:       8943	TO_CACHE:   15360221

L1D UNIQUE REGIONS ACCESSED: 0
L1D REGIONS CONFLICTS: 0
L1D Cross Page Prefetch Requests: 0
L1D Same Page Prefetch Requests: 0
L1D ROI Sum of L1D PQ occupancy: 0
L1D PREFETCHES PUSHED FROM L2C: 0
L1I TOTAL     ACCESS:   17269780  HIT:   17269780  MISS:          0  HIT %:        100  MISS %:          0   MPKI: 0
L1I LOAD      ACCESS:   17269780  HIT:   17269780  MISS:          0  HIT %:        100  MISS %:          0   MPKI: 0
L1I PREFETCH  REQUESTED:          0  ISSUED:          0  USEFUL:          0  USELESS:          0
L1I USEFUL LOAD PREFETCHES:          0 PREFETCH ISSUED TO LOWER LEVEL:          0  ACCURACY: -nan
L1I TIMELY PREFETCHES:          0 LATE PREFETCHES: 0 DROPPED PREFETCHES: 0
L1I PREFETCHES SAME FILL-ORIGIN LEVEL: 0 DIFFERENT FILL-ORIGIN LEVEL: 0
L1I AVERAGE MISS LATENCY: -nan cycles
L1I RQ	ACCESS:   24924899	FORWARD:          0	MERGED:    7655118	TO_CACHE:   17269781

BTB TOTAL     ACCESS:    1169396  HIT:    1169390  MISS:          6  HIT %:    99.9995  MISS %: 0.000513085   MPKI: 6e-05
BTB BRANCH_DIRECT_JUMP	ACCESS:      43700  HIT:      43699  MISS:          1
BTB BRANCH_INDIRECT	ACCESS:          0  HIT:          0  MISS:          0
BTB BRANCH_CONDITIONAL	ACCESS:    1125696  HIT:    1125691  MISS:          5
BTB BRANCH_DIRECT_CALL	ACCESS:          0  HIT:          0  MISS:          0
BTB BRANCH_INDIRECT_CALL	ACCESS:          0  HIT:          0  MISS:          0
BTB BRANCH_RETURN	ACCESS:          0  HIT:          0  MISS:          0
BTB BRANCH_OTHER ACCESS:          0  HIT:          0  MISS:          0

L2C TOTAL     ACCESS:    7723910  HIT:    5013916  MISS:    2709994  HIT %:    64.9142  MISS %:    35.0858   MPKI: 27.0999
L2C LOAD      ACCESS:     628515  HIT:      16828  MISS:     611687  HIT %:    2.67742  MISS %:    97.3226   MPKI: 6.11687
L2C DATA LOAD MPKI: 6.11687
L2C INSTRUCTION LOAD MPKI: 0
L2C RFO       ACCESS:    3519601  HIT:    1600806  MISS:    1918795  HIT %:    45.4826  MISS %:    54.5174   MPKI: 19.1879
L2C PREFETCH  ACCESS:      16896  HIT:         68  MISS:      16828  HIT %:   0.402462  MISS %:    99.5975   MPKI: 0.16828
L2C DATA PREFETCH MPKI: 0.16828
L2C INSTRUCTION PREFETCH MPKI: 0
L2C WRITEBACK ACCESS:    3519603  HIT:    3362002  MISS:     157601  HIT %:    95.5222  MISS %:    4.47781   MPKI: 1.57601
L2C LOAD TRANSLATION ACCESS:      39295  HIT:      34212  MISS:       5083  HIT %:    87.0645  MISS %:    12.9355   MPKI: 0.05083
L2C PREFETCH  REQUESTED:     239290  ISSUED:     239289  USEFUL:      16828  USELESS:          0
L2C USEFUL LOAD PREFETCHES:      16828 PREFETCH ISSUED TO LOWER LEVEL:     210501  ACCURACY: 7.99426
L2C TIMELY PREFETCHES:      16828 LATE PREFETCHES: 2462 DROPPED PREFETCHES: 0
L2C PREFETCHES SAME FILL-ORIGIN LEVEL: 19290 DIFFERENT FILL-ORIGIN LEVEL: 191211
L2C AVERAGE MISS LATENCY: 332.235 cycles
L2C RQ	ACCESS:    4187425	FORWARD:          0	MERGED:          0	TO_CACHE:    4187425
L2C WQ	ACCESS:    3519604	FORWARD:          0	MERGED:          0	TO_CACHE:    3519604
L2C PQ	ACCESS:     239289	FORWARD:          0	MERGED:      23510	TO_CACHE:     215779

L2C Instructions Evicting Data 0
L2C Translations Evicting Data 5080
L2C Data Evicting Data 2542521
L2C Instructions Evicting Instructions 0
L2C Translations Evicting Instructions 0
L2C Data Evicting Instructions 0
L2C Instructions Evicting Translations 0
L2C Translations Evicting Translations 3
L2C Data Evicting Translations 4789
L2C Dense regions hint from L2: 0
PSCL5 TOTAL     ACCESS:      39293  HIT:      39293  MISS:          0  HIT %:        100  MISS %:          0   MPKI: 0
PSCL5 LOAD TRANSLATION ACCESS:      39293  HIT:      39293  MISS:          0  HIT %:        100  MISS %:          0   MPKI: 0
PSCL5 PREFETCH  REQUESTED:          0  ISSUED:          0  USEFUL:          0  USELESS:          0
PSCL5 USEFUL LOAD PREFETCHES:          0 PREFETCH ISSUED TO LOWER LEVEL:          0  ACCURACY: -nan
PSCL5 TIMELY PREFETCHES:          0 LATE PREFETCHES: 0 DROPPED PREFETCHES: 0
PSCL5 PREFETCHES SAME FILL-ORIGIN LEVEL: 0 DIFFERENT FILL-ORIGIN LEVEL: 0

PSCL4 TOTAL     ACCESS:      39293  HIT:      39293  MISS:          0  HIT %:        100  MISS %:          0   MPKI: 0
PSCL4 LOAD TRANSLATION ACCESS:      39293  HIT:      39293  MISS:          0  HIT %:        100  MISS %:          0   MPKI: 0
PSCL4 PREFETCH  REQUESTED:          0  ISSUED:          0  USEFUL:          0  USELESS:          0
PSCL4 USEFUL LOAD PREFETCHES:          0 PREFETCH ISSUED TO LOWER LEVEL:          0  ACCURACY: -nan
PSCL4 TIMELY PREFETCHES:          0 LATE PREFETCHES: 0 DROPPED PREFETCHES: 0
PSCL4 PREFETCHES SAME FILL-ORIGIN LEVEL: 0 DIFFERENT FILL-ORIGIN LEVEL: 0

PSCL3 TOTAL     ACCESS:      39293  HIT:      39292  MISS:          1  HIT %:    99.9975  MISS %: 0.00254498   MPKI: 1e-05
PSCL3 LOAD TRANSLATION ACCESS:      39293  HIT:      39292  MISS:          1  HIT %:    99.9975  MISS %: 0.00254498   MPKI: 1e-05
PSCL3 PREFETCH  REQUESTED:          0  ISSUED:          0  USEFUL:          0  USELESS:          0
PSCL3 USEFUL LOAD PREFETCHES:          0 PREFETCH ISSUED TO LOWER LEVEL:          0  ACCURACY: -nan
PSCL3 TIMELY PREFETCHES:          0 LATE PREFETCHES: 0 DROPPED PREFETCHES: 0
PSCL3 PREFETCHES SAME FILL-ORIGIN LEVEL: 0 DIFFERENT FILL-ORIGIN LEVEL: 0

PSCL2 TOTAL     ACCESS:      39293  HIT:      39252  MISS:         41  HIT %:    99.8957  MISS %:   0.104344   MPKI: 0.00041
PSCL2 LOAD TRANSLATION ACCESS:      39293  HIT:      39252  MISS:         41  HIT %:    99.8957  MISS %:   0.104344   MPKI: 0.00041
PSCL2 PREFETCH  REQUESTED:          0  ISSUED:          0  USEFUL:          0  USELESS:          0
PSCL2 USEFUL LOAD PREFETCHES:          0 PREFETCH ISSUED TO LOWER LEVEL:          0  ACCURACY: -nan
PSCL2 TIMELY PREFETCHES:          0 LATE PREFETCHES: 0 DROPPED PREFETCHES: 0
PSCL2 PREFETCHES SAME FILL-ORIGIN LEVEL: 0 DIFFERENT FILL-ORIGIN LEVEL: 0

LLC TOTAL     ACCESS:    4644716  HIT:    2094430  MISS:    2550286  HIT %:    45.0927  MISS %:    54.9073   MPKI: 25.5029
LLC LOAD      ACCESS:     609225  HIT:      18509  MISS:     590716  HIT %:    3.03812  MISS %:    96.9619   MPKI: 5.90716
LLC RFO       ACCESS:    1918793  HIT:      33319  MISS:    1885474  HIT %:    1.73646  MISS %:    98.2635   MPKI: 18.8547
LLC PREFETCH  ACCESS:     189316  HIT:     151518  MISS:      37798  HIT %:    80.0344  MISS %:    19.9656   MPKI: 0.37798
LLC WRITEBACK ACCESS:    1922299  HIT:    1890966  MISS:      31333  HIT %:      98.37  MISS %:    1.62998   MPKI: 0.31333
LLC LOAD TRANSLATION ACCESS:       5083  HIT:        118  MISS:       4965  HIT %:    2.32146  MISS %:    97.6785   MPKI: 0.04965
LLC PREFETCH  REQUESTED:          0  ISSUED:          0  USEFUL:      18508  USELESS:      17935
LLC USEFUL LOAD PREFETCHES:      18508 PREFETCH ISSUED TO LOWER LEVEL:      40431  ACCURACY: 45.7768
LLC TIMELY PREFETCHES:      18508 LATE PREFETCHES: 2633 DROPPED PREFETCHES: 0
LLC PREFETCHES SAME FILL-ORIGIN LEVEL: 39420 DIFFERENT FILL-ORIGIN LEVEL: 0
LLC AVERAGE MISS LATENCY: 328.746 cycles
LLC RQ	ACCESS:    2533114	FORWARD:          0	MERGED:          0	TO_CACHE:    2533112
LLC WQ	ACCESS:    1922299	FORWARD:          2	MERGED:          0	TO_CACHE:    1922299
LLC PQ	ACCESS:     210501	FORWARD:          0	MERGED:       4046	TO_CACHE:     206455

LLC Dense regions hint to LLC: 0

RAW hits: 2671987
Loads Generated: 23720779
Loads sent to L1D: 21048791
Stores Generated: 15369156
Stores sent to L1D: 15369164
Major fault: 0 Minor fault: 31299
Allocated PAGES: 31299
 All Calls: 898495
 Critical Calls: 204450
------------------
Depth Distribution
------------------
depth 0: 0
depth 1: 247834
depth 2: 139116
depth 3: 57609
depth 4: 30344
depth 5: 22130
depth 6: 17952
depth 7: 15640
depth 8: 13444
depth 9: 10714
depth 10: 6862
depth 11: 3070
depth 12: 809
depth 13: 192
depth 14: 1
depth 15: 1
depth 16: 0
depth 17: 0
depth 18: 0
depth 19: 0
depth 20: 0
depth 21: 0
depth 22: 0
depth 23: 0
depth 24: 0
depth 25: 0
depth 26: 0
depth 27: 0
depth 28: 0
depth 29: 0
Total: 565718
-----------------------------
-----------------------------
	Captured at Filter
-----------------------------
depth 0: 0
depth 1: 635
depth 2: 166
depth 3: 63
depth 4: 32
depth 5: 22
depth 6: 19
depth 7: 16
depth 8: 15
depth 9: 12
depth 10: 8
depth 11: 6
depth 12: 1
depth 13: 0
depth 14: 0
depth 15: 0
depth 16: 0
depth 17: 0
depth 18: 0
depth 19: 0
depth 20: 0
depth 21: 0
depth 22: 0
depth 23: 0
depth 24: 0
depth 25: 0
depth 26: 0
depth 27: 0
depth 28: 0
depth 29: 0
-----------------------------
-----------------------------
		Lost at Page
-----------------------------
depth 0: 0
depth 1: 9782
depth 2: 7845
depth 3: 5829
depth 4: 5194
depth 5: 5246
depth 6: 5464
depth 7: 5948
depth 8: 6281
depth 9: 5994
depth 10: 4554
depth 11: 2382
depth 12: 723
depth 13: 188
depth 14: 0
depth 15: 0
depth 16: 0
depth 17: 0
depth 18: 0
depth 19: 0
depth 20: 0
depth 21: 0
depth 22: 0
depth 23: 0
depth 24: 0
depth 25: 0
depth 26: 0
depth 27: 0
depth 28: 0
depth 29: 0
-----------------------------
-----------------------------
	Lost due to PQ Size
-----------------------------
1
-----------------------------
ST read accesses: 39524
ST write accesses: 1401
PT read accesses: 1668783
PT write accesses: 59208
FILTER read accesses: 682238
FILTER write accesses: 443552
GHR read accesses: 339175
GHR write accesses: 50674
GHR counter read accesses: 1361866
GHR counter write accesses: 82778
ST tag read accesses: 16679141
ST tag write accesses: 403392

DRAM Statistics
 CHANNEL 0
 RQ ROW_BUFFER_HIT:     124867  ROW_BUFFER_MISS:    2394086
 DBUS_CONGESTED:          0
 WQ ROW_BUFFER_HIT:     340033  ROW_BUFFER_MISS:    1541351  FULL:          0

 AVG_CONGESTED_CYCLE: -
 All warmup complete: 2
Channel 0 Bank busy for read cycles: 0
Channel 0 Bank busy for write cycles: 0
Channel 0
Rank 0
0banks busy for read cycles: 233437
0banks busy for write cycles: 0
1banks busy for read cycles: 19989865
1banks busy for write cycles: 244455
2banks busy for read cycles: 6086678
2banks busy for write cycles: 244449
3banks busy for read cycles: 5949263
3banks busy for write cycles: 244449
4banks busy for read cycles: 28763061
4banks busy for write cycles: 244544
5banks busy for read cycles: 25788523
5banks busy for write cycles: 245770
6banks busy for read cycles: 6330749
6banks busy for write cycles: 260584
7banks busy for read cycles: 3300491
7banks busy for write cycles: 2351509
8banks busy for read cycles: 2823020
8banks busy for write cycles: 40988385

CPU 0 Branch Prediction Accuracy: 99.0616% MPKI: 0.10976 Average ROB Occupancy at Mispredict: 269.108
Branch types
NOT_BRANCH: 98830222 98.8302%
BRANCH_DIRECT_JUMP: 43700 0.0437%
BRANCH_INDIRECT: 0 0%
BRANCH_CONDITIONAL: 1125890 1.12589%
BRANCH_DIRECT_CALL: 0 0%
BRANCH_INDIRECT_CALL: 0 0%
BRANCH_RETURN: 0 0%
BRANCH_OTHER: 0 0%

DRAM PAGES: 1048576
Allocated PAGES: 31299
