
*** ChampSim Multicore Out-of-Order Simulator ***

Warmup Instructions: 50000000
Simulation Instructions: 100000000
Number of CPUs: 1
LLC sets: 2048
LLC ways: 16
Off-chip DRAM Size: 4096 MB Channels: 1 Width: 64-bit Data Rate: 6400 MT/s
CPU 0 runs ../SPEC2017//619.lbm_s-4268B.champsimtrace.xz
.xz
NUM_OF_IPS_IN_CRITICAL_IP_TRAINING: 64
NUM_OF_CRITICAL_IP_TRAINING_TABLE_WAYS: 2
NUM_OF_CRITICAL_IP_TRAINING_TABLE_SETS: 32
WOBBLY_CRITICAL_IP_CACHE_SETS: 32
WOBBLY_CRITICAL_IP_CACHE_WAYS: 4
BTB has LRU replacement policy
ITLB has LRU replacement policy
DTLB has LRU replacement policy
STLB has LRU replacement policy
L1I has LRU replacement policy
Bingo PHT WAYS: 16 and PHT_SIZE: 16384
L1D has LRU replacement policy
Initialize SRRIP state for L2C
Initialize DRRIP state for LLC
Heartbeat CPU 0 instructions: 10000000 cycles: 2905031 heartbeat IPC: 3.4423 cumulative IPC: 3.4423 (Simulation time: 0 hr 5 min 45 sec) 
Heartbeat CPU 0 instructions: 20000001 cycles: 5808302 heartbeat IPC: 3.44439 cumulative IPC: 3.44335 (Simulation time: 0 hr 10 min 54 sec) 
Heartbeat CPU 0 instructions: 30000000 cycles: 8707794 heartbeat IPC: 3.44888 cumulative IPC: 3.44519 (Simulation time: 0 hr 15 min 22 sec) 
Heartbeat CPU 0 instructions: 40000000 cycles: 11613619 heartbeat IPC: 3.44136 cumulative IPC: 3.44423 (Simulation time: 0 hr 19 min 29 sec) 
Heartbeat CPU 0 instructions: 50000002 cycles: 14520391 heartbeat IPC: 3.44024 cumulative IPC: 3.44343 (Simulation time: 0 hr 23 min 14 sec) 

Warmup complete CPU 0 instructions: 50000002 cycles: 14520391 (Simulation time: 0 hr 23 min 14 sec) 

% increase in all ip prefetch 527.333
% increase in all ip prefetch 30.548
% increase in all ip prefetch 19.7723
% increase in all ip prefetch -7.79368
Heartbeat CPU 0 instructions: 60000000 cycles: 36189613 heartbeat IPC: 0.461484 cumulative IPC: 0.461484 (Simulation time: 0 hr 30 min 15 sec) 
Heartbeat CPU 0 instructions: 70000000 cycles: 57551534 heartbeat IPC: 0.468123 cumulative IPC: 0.46478 (Simulation time: 0 hr 36 min 41 sec) 
Heartbeat CPU 0 instructions: 80000000 cycles: 78613647 heartbeat IPC: 0.474786 cumulative IPC: 0.468068 (Simulation time: 0 hr 41 min 57 sec) 
Heartbeat CPU 0 instructions: 90000000 cycles: 100015322 heartbeat IPC: 0.467253 cumulative IPC: 0.467864 (Simulation time: 0 hr 46 min 42 sec) 
Heartbeat CPU 0 instructions: 100000001 cycles: 120947368 heartbeat IPC: 0.477736 cumulative IPC: 0.469806 (Simulation time: 0 hr 52 min 8 sec) 
Heartbeat CPU 0 instructions: 110000000 cycles: 142255484 heartbeat IPC: 0.469305 cumulative IPC: 0.469722 (Simulation time: 1 hr 1 min 37 sec) 
Heartbeat CPU 0 instructions: 120000001 cycles: 163873471 heartbeat IPC: 0.462578 cumulative IPC: 0.468688 (Simulation time: 1 hr 9 min 56 sec) 
Heartbeat CPU 0 instructions: 130000002 cycles: 184874712 heartbeat IPC: 0.476162 cumulative IPC: 0.469609 (Simulation time: 1 hr 17 min 14 sec) 
Heartbeat CPU 0 instructions: 140000000 cycles: 206174130 heartbeat IPC: 0.469496 cumulative IPC: 0.469597 (Simulation time: 1 hr 24 min 12 sec) 
Heartbeat CPU 0 instructions: 150000003 cycles: 227624717 heartbeat IPC: 0.466188 cumulative IPC: 0.469254 (Simulation time: 1 hr 30 min 37 sec) 
Finished CPU 0 instructions: 100000001 cycles: 213104326 cumulative IPC: 0.469254 (Simulation time: 1 hr 30 min 37 sec) 

ChampSim completed all CPUs

Region of Interest Statistics

CPU 0 cumulative IPC: 0.469254 instructions: 100000001 cycles: 213104326

CPU 0 Average Load ROB stall cycles: 1.17089e+07
CPU 0 Fraction of times ROB stalled by Loads: 9.65254
CPU 0 Percentage of Load stall cycles in Total stall cycles: 1.34791e+08
 Total stall cycles: 101358324
 Total load stall cycles: 136621982708438
CPU 0 NUM of IPS identified critical: 0

Threshold modification factor: -3
Max PIST entries: 59
Min PIST entries: 0
Avg PIST entries: 36.62
Average ROB occupancy Load Stall Begin: 62.5804
Average ROB occupancy Load Stall End: 73.1024
Min ROB occupancy Load Stall Begin: 2
Max ROB occupancy Load Stall Begin: 351
Min ROB occupancy Load Stall End: 2
Max ROB occupancy Load Stall End: 352
Average ROB occupancy Critical Load Stall Begin: -nan
Average ROB occupancy Critical Load Stall End: -nan
Min ROB occupancy Critical Load Stall Begin: 400
Max ROB occupancy Critical Load Stall Begin: 0
Min ROB occupancy Critical Load Stall End: 400
Max ROB occupancy Critical Load Stall End: 0
 ROB Load Stall Begin Bucket Count 0: 925508
 ROB Load Stall End Bucket Count 0: 890914
 ROB Critical Load Stall Begin Bucket Count 0: 0
 ROB Critical Load Stall End Bucket Count 0: 0
 ROB Load Stall Begin Bucket Count 1: 22615
 ROB Load Stall End Bucket Count 1: 36522
 ROB Critical Load Stall Begin Bucket Count 1: 0
 ROB Critical Load Stall End Bucket Count 1: 0
 ROB Load Stall Begin Bucket Count 2: 25489
 ROB Load Stall End Bucket Count 2: 17050
 ROB Critical Load Stall Begin Bucket Count 2: 0
 ROB Critical Load Stall End Bucket Count 2: 0
 ROB Load Stall Begin Bucket Count 3: 30757
 ROB Load Stall End Bucket Count 3: 31891
 ROB Critical Load Stall Begin Bucket Count 3: 0
 ROB Critical Load Stall End Bucket Count 3: 0
 ROB Load Stall Begin Bucket Count 4: 18149
 ROB Load Stall End Bucket Count 4: 19720
 ROB Critical Load Stall Begin Bucket Count 4: 0
 ROB Critical Load Stall End Bucket Count 4: 0
 ROB Load Stall Begin Bucket Count 5: 21501
 ROB Load Stall End Bucket Count 5: 19067
 ROB Critical Load Stall Begin Bucket Count 5: 0
 ROB Critical Load Stall End Bucket Count 5: 0
 ROB Load Stall Begin Bucket Count 6: 82261
 ROB Load Stall End Bucket Count 6: 111116
 ROB Critical Load Stall Begin Bucket Count 6: 0
 ROB Critical Load Stall End Bucket Count 6: 0
PIST Tag Read Accesses: 279214
PIST Read Accesses: 139607
PIST Tag Write Accesses: 279214
PIST Write Accesses: 139607
Criticality detector called times: 216671
Max global_stall_cycles_count: 247679
Threshold Modified: 3 times, factor: -3
Sturdy critical IP cache stats: 
 Unused entries: 0
CIC Tag Read Accesses: 0
CIC Read Accesses: 0
CIC Tag Write Accesses: 0
CIC Write Accesses: 0
Wobbly critical IP cache stats: 
 Unused entries: 115
CIC Tag Read Accesses: 172663316
CIC Read Accesses: 0
CIC Tag Write Accesses: 1570781
CIC Write Accesses: 0
ITLB TOTAL     ACCESS:   13443649  HIT:   13443649  MISS:          0  HIT %:        100  MISS %:          0   MPKI: 0
ITLB LOAD TRANSLATION ACCESS:   13443649  HIT:   13443649  MISS:          0  HIT %:        100  MISS %:          0   MPKI: 0
ITLB PREFETCHES SAME FILL-ORIGIN LEVEL: 0 DIFFERENT FILL-ORIGIN LEVEL: 0
ITLB AVERAGE MISS LATENCY: -nan cycles
ITLB RQ	ACCESS:   17326047	FORWARD:          0	MERGED:    3882398	TO_CACHE:   13443649

DTLB TOTAL     ACCESS:   18560021  HIT:   18422947  MISS:     137074  HIT %:    99.2615  MISS %:   0.738544   MPKI: 1.37074
DTLB LOAD TRANSLATION ACCESS:   18560021  HIT:   18422947  MISS:     137074  HIT %:    99.2615  MISS %:   0.738544   MPKI: 1.37074
DTLB PREFETCHES SAME FILL-ORIGIN LEVEL: 0 DIFFERENT FILL-ORIGIN LEVEL: 0
DTLB AVERAGE MISS LATENCY: 110.611 cycles
DTLB RQ	ACCESS:   26855157	FORWARD:          0	MERGED:    8237710	TO_CACHE:   18617447

STLB TOTAL     ACCESS:     293424  HIT:     219031  MISS:      74393  HIT %:    74.6466  MISS %:    25.3534   MPKI: 0.74393
STLB LOAD TRANSLATION ACCESS:     137074  HIT:      62714  MISS:      74360  HIT %:    45.7519  MISS %:    54.2481   MPKI: 0.7436
STLB TRANSLATION FROM L1D PREFETCHER ACCESS:     156350  HIT:     156317  MISS:         33  HIT %:    99.9789  MISS %:  0.0211065   MPKI: 0.00033
STLB PREFETCHES SAME FILL-ORIGIN LEVEL: 0 DIFFERENT FILL-ORIGIN LEVEL: 0
STLB AVERAGE MISS LATENCY: 185.069 cycles
STLB RQ	ACCESS:     919786	FORWARD:          0	MERGED:     626361	TO_CACHE:     293425

STLB Hit, L1D data hit: 0
STLB Hit, L2C data hit: 0
STLB Hit, LLC data hit: 0
STLB Hit, LLC data miss: 0
STLB STLB hints to L2: 0
L1D TOTAL     ACCESS:   27119818  HIT:   19267548  MISS:    7852270  HIT %:     71.046  MISS %:     28.954   MPKI: 78.5227
L1D LOAD      ACCESS:    9149494  HIT:    8506835  MISS:     642659  HIT %:     92.976  MISS %:    7.02398   MPKI: 6.42659
L1D RFO       ACCESS:   17421750  HIT:   10759407  MISS:    6662343  HIT %:    61.7585  MISS %:    38.2415   MPKI: 66.6234
L1D PREFETCH  ACCESS:     548574  HIT:       1306  MISS:     547268  HIT %:   0.238072  MISS %:    99.7619   MPKI: 5.47268
L1D PREFETCH  REQUESTED:    1565445  ISSUED:    1565445  USEFUL:     547278  USELESS:          0
L1D USEFUL LOAD PREFETCHES:     547278 PREFETCH ISSUED TO LOWER LEVEL:     715074  ACCURACY: 76.5345
L1D TIMELY PREFETCHES:     547278 LATE PREFETCHES: 167795 DROPPED PREFETCHES: 0
L1D PREFETCHES SAME FILL-ORIGIN LEVEL: 715074 DIFFERENT FILL-ORIGIN LEVEL: 0
L1D AVERAGE MISS LATENCY: 2.58122e+06 cycles
L1D RQ	ACCESS:   24892825	FORWARD:          0	MERGED:   12734720	TO_CACHE:    9346970
L1D WQ	ACCESS:   18427538	FORWARD:    2811155	MERGED:     919351	TO_CACHE:   17508187
L1D PQ	ACCESS:     782733	FORWARD:          0	MERGED:          1	TO_CACHE:     782712

L1D UNIQUE REGIONS ACCESSED: 0
L1D REGIONS CONFLICTS: 0
L1D Cross Page Prefetch Requests: 0
L1D Same Page Prefetch Requests: 1351808
L1D ROI Sum of L1D PQ occupancy: 68868226
L1D PREFETCHES PUSHED FROM L2C: 0
L1I TOTAL     ACCESS:   17326046  HIT:   17326046  MISS:          0  HIT %:        100  MISS %:          0   MPKI: 0
L1I LOAD      ACCESS:   17326046  HIT:   17326046  MISS:          0  HIT %:        100  MISS %:          0   MPKI: 0
L1I PREFETCHES SAME FILL-ORIGIN LEVEL: 0 DIFFERENT FILL-ORIGIN LEVEL: 0
L1I AVERAGE MISS LATENCY: -nan cycles
L1I RQ	ACCESS:   25057567	FORWARD:          0	MERGED:    7731520	TO_CACHE:   17326047

BTB TOTAL     ACCESS:    1795667  HIT:    1795661  MISS:          6  HIT %:    99.9997  MISS %: 0.000334138   MPKI: 6e-05
BTB BRANCH_DIRECT_JUMP	ACCESS:     291819  HIT:     291818  MISS:          1
BTB BRANCH_INDIRECT	ACCESS:          0  HIT:          0  MISS:          0
BTB BRANCH_CONDITIONAL	ACCESS:    1503848  HIT:    1503843  MISS:          5
BTB BRANCH_DIRECT_CALL	ACCESS:          0  HIT:          0  MISS:          0
BTB BRANCH_INDIRECT_CALL	ACCESS:          0  HIT:          0  MISS:          0
BTB BRANCH_RETURN	ACCESS:          0  HIT:          0  MISS:          0
BTB BRANCH_OTHER ACCESS:          0  HIT:          0  MISS:          0

L2C TOTAL     ACCESS:   14589019  HIT:    9474383  MISS:    5114636  HIT %:    64.9419  MISS %:    35.0581   MPKI: 51.1464
L2C LOAD      ACCESS:     474864  HIT:         39  MISS:     474825  HIT %: 0.00821288  MISS %:    99.9918   MPKI: 4.74825
L2C DATA LOAD MPKI: 4.74825
L2C INSTRUCTION LOAD MPKI: 0
L2C RFO       ACCESS:    6662334  HIT:    3028236  MISS:    3634098  HIT %:    45.4531  MISS %:    54.5469   MPKI: 36.341
L2C PREFETCH  ACCESS:     715066  HIT:         36  MISS:     715030  HIT %:  0.0050345  MISS %:     99.995   MPKI: 7.1503
L2C DATA PREFETCH MPKI: 7.1503
L2C INSTRUCTION PREFETCH MPKI: 0
L2C WRITEBACK ACCESS:    6662358  HIT:    6381341  MISS:     281017  HIT %:     95.782  MISS %:    4.21798   MPKI: 2.81017
L2C LOAD TRANSLATION ACCESS:      74362  HIT:      64731  MISS:       9631  HIT %:    87.0485  MISS %:    12.9515   MPKI: 0.09631
L2C TRANSLATION FROM L1D PREFETCHER ACCESS:         35  HIT:          0  MISS:         35  HIT %:          0  MISS %:        100   MPKI: 0.00035
L2C PREFETCHES SAME FILL-ORIGIN LEVEL: 0 DIFFERENT FILL-ORIGIN LEVEL: 0
L2C AVERAGE MISS LATENCY: 550.815 cycles
L2C RQ	ACCESS:    7211609	FORWARD:          0	MERGED:          0	TO_CACHE:    7211604
L2C WQ	ACCESS:    6662359	FORWARD:          7	MERGED:          0	TO_CACHE:    6662359
L2C PQ	ACCESS:     715074	FORWARD:          0	MERGED:          0	TO_CACHE:     715072

L2C Instructions Evicting Data0
L2C Translations Evicting Data9654
L2C Data Evicting Data4814823
L2C Instructions Evicting Instructions0
L2C Translations Evicting Instructions0
L2C Data Evicting Instructions0
L2C Instructions Evicting Translations0
L2C Translations Evicting Translations12
L2C Data Evicting Translations9130
L2C Dense regions hint from L2: 0
PSCL5 TOTAL     ACCESS:      74393  HIT:      74393  MISS:          0  HIT %:        100  MISS %:          0   MPKI: 0
PSCL5 LOAD TRANSLATION ACCESS:      74360  HIT:      74360  MISS:          0  HIT %:        100  MISS %:          0   MPKI: 0
PSCL5 TRANSLATION FROM L1D PREFETCHER ACCESS:         33  HIT:         33  MISS:          0  HIT %:        100  MISS %:          0   MPKI: 0
PSCL5 PREFETCHES SAME FILL-ORIGIN LEVEL: 0 DIFFERENT FILL-ORIGIN LEVEL: 0

PSCL4 TOTAL     ACCESS:      74393  HIT:      74393  MISS:          0  HIT %:        100  MISS %:          0   MPKI: 0
PSCL4 LOAD TRANSLATION ACCESS:      74360  HIT:      74360  MISS:          0  HIT %:        100  MISS %:          0   MPKI: 0
PSCL4 TRANSLATION FROM L1D PREFETCHER ACCESS:         33  HIT:         33  MISS:          0  HIT %:        100  MISS %:          0   MPKI: 0
PSCL4 PREFETCHES SAME FILL-ORIGIN LEVEL: 0 DIFFERENT FILL-ORIGIN LEVEL: 0

PSCL3 TOTAL     ACCESS:      74393  HIT:      74393  MISS:          0  HIT %:        100  MISS %:          0   MPKI: 0
PSCL3 LOAD TRANSLATION ACCESS:      74360  HIT:      74360  MISS:          0  HIT %:        100  MISS %:          0   MPKI: 0
PSCL3 TRANSLATION FROM L1D PREFETCHER ACCESS:         33  HIT:         33  MISS:          0  HIT %:        100  MISS %:          0   MPKI: 0
PSCL3 PREFETCHES SAME FILL-ORIGIN LEVEL: 0 DIFFERENT FILL-ORIGIN LEVEL: 0

PSCL2 TOTAL     ACCESS:      74393  HIT:      74317  MISS:         76  HIT %:    99.8978  MISS %:    0.10216   MPKI: 0.00076
PSCL2 LOAD TRANSLATION ACCESS:      74362  HIT:      74286  MISS:         76  HIT %:    99.8978  MISS %:   0.102203   MPKI: 0.00076
PSCL2 TRANSLATION FROM L1D PREFETCHER ACCESS:         31  HIT:         31  MISS:          0  HIT %:        100  MISS %:          0   MPKI: 0
PSCL2 PREFETCHES SAME FILL-ORIGIN LEVEL: 0 DIFFERENT FILL-ORIGIN LEVEL: 0

LLC TOTAL     ACCESS:    8473008  HIT:    3648822  MISS:    4824186  HIT %:    43.0641  MISS %:    56.9359   MPKI: 48.2419
LLC LOAD      ACCESS:     474825  HIT:         74  MISS:     474751  HIT %:  0.0155847  MISS %:    99.9844   MPKI: 4.74751
LLC RFO       ACCESS:    3634022  HIT:      65080  MISS:    3568942  HIT %:    1.79085  MISS %:    98.2091   MPKI: 35.6894
LLC PREFETCH  ACCESS:     715031  HIT:         17  MISS:     715014  HIT %: 0.00237752  MISS %:    99.9976   MPKI: 7.15014
LLC WRITEBACK ACCESS:    3639464  HIT:    3583396  MISS:      56068  HIT %:    98.4594  MISS %:    1.54056   MPKI: 0.56068
LLC LOAD TRANSLATION ACCESS:       9631  HIT:        255  MISS:       9376  HIT %:     2.6477  MISS %:    97.3523   MPKI: 0.09376
LLC TRANSLATION FROM L1D PREFETCHER ACCESS:         35  HIT:          0  MISS:         35  HIT %:          0  MISS %:        100   MPKI: 0.00035
LLC PREFETCHES SAME FILL-ORIGIN LEVEL: 0 DIFFERENT FILL-ORIGIN LEVEL: 0
LLC AVERAGE MISS LATENCY: 553.213 cycles
LLC RQ	ACCESS:    4118593	FORWARD:          0	MERGED:          0	TO_CACHE:    4118517
LLC WQ	ACCESS:    3639465	FORWARD:         76	MERGED:          0	TO_CACHE:    3639465
LLC PQ	ACCESS:     715034	FORWARD:          0	MERGED:          0	TO_CACHE:     715034

LLC Dense regions hint to LLC: 0

RAW hits: 1188231
Loads Generated: 26081058
Loads sent to L1D: 24892825
Stores Generated: 18427528
Stores sent to L1D: 18427538
Major fault: 0 Minor fault: 58801
Allocated PAGES: 58801
[Bingo] PHT Access: 37427
[Bingo] PHT Hit PC+Addr: 233
[Bingo] PHT Hit PC+Offs: 37156
[Bingo] PHT Miss: 38
[Bingo] Prefetch PC+Addr: 0
[Bingo] Prefetch PC+Offs: 0
[Bingo] Useful PC+Addr: 0
[Bingo] Useful PC+Offs: 0
[Bingo] Useless PC+Addr: 0
[Bingo] Useless PC+Offs: 0
[Bingo] L1 Prefetch per Region: 31.8258
[Bingo] L2 Prefetch per Region: 0
[Bingo] L3 Prefetch per Region: 0
[Bingo] No Prefetch per Region: 0.174169
[Bingo] Number of Voters Mean: 15.9551
[Bingo] Number of Voters SD: 11.2411
PHT read accesses: 593293
PHT write accesses: 37426
AT read accesses: 9324063
AT write accesses: 9324062
FT read accesses: 158089
FT write accesses: 37427
PS read accesses: 2115641
PS write accesses: 37389
PHT tag read accesses: 1787234
PHT tag write accesses: 37659
AT tag read accesses: 276432331
AT tag write accesses: 9361488
FT tag read accesses: 128435508
FT tag write accesses: 135185
PS tag read accesses: 150785344
PS tag write accesses: 2153026

DRAM Statistics
 CHANNEL 0
 RQ ROW_BUFFER_HIT:     337063  ROW_BUFFER_MISS:    4431057
 DBUS_CONGESTED:          0
 WQ ROW_BUFFER_HIT:     545297  ROW_BUFFER_MISS:    3023093  FULL:          0

 AVG_CONGESTED_CYCLE: -
 All warmup complete: 2
Channel 0 Bank busy for read cycles: 0
Channel 0 Bank busy for write cycles: 0
Channel 0
Rank 0
0banks busy for read cycles: 31990
0banks busy for write cycles: 0
1banks busy for read cycles: 2349979
1banks busy for write cycles: 357500
2banks busy for read cycles: 3183116
2banks busy for write cycles: 357497
3banks busy for read cycles: 5380798
3banks busy for write cycles: 357494
4banks busy for read cycles: 9586779
4banks busy for write cycles: 357492
5banks busy for read cycles: 21469733
5banks busy for write cycles: 357507
6banks busy for read cycles: 25785998
6banks busy for write cycles: 363130
7banks busy for read cycles: 30030314
7banks busy for write cycles: 4088621
8banks busy for read cycles: 30016665
8banks busy for write cycles: 79029714

CPU 0 Branch Prediction Accuracy: 97.1168% MPKI: 0.51773 Average ROB Occupancy at Mispredict: 178.016
Branch types
NOT_BRANCH: 98204005 98.204%
BRANCH_DIRECT_JUMP: 291819 0.291819%
BRANCH_INDIRECT: 0 0%
BRANCH_CONDITIONAL: 1503848 1.50385%
BRANCH_DIRECT_CALL: 0 0%
BRANCH_INDIRECT_CALL: 0 0%
BRANCH_RETURN: 0 0%
BRANCH_OTHER: 0 0%

DRAM PAGES: 1048576
Allocated PAGES: 58801
