
*** ChampSim Multicore Out-of-Order Simulator ***

Warmup Instructions: 50000000
Simulation Instructions: 100000000
Number of CPUs: 1
LLC sets: 2048
LLC ways: 16
Off-chip DRAM Size: 4096 MB Channels: 1 Width: 64-bit Data Rate: 6400 MT/s
CPU 0 runs ../SPEC2017//619.lbm_s-4268B.champsimtrace.xz
.xz
NUM_OF_IPS_IN_CRITICAL_IP_TRAINING: 64
NUM_OF_CRITICAL_IP_TRAINING_TABLE_WAYS: 2
NUM_OF_CRITICAL_IP_TRAINING_TABLE_SETS: 32
WOBBLY_CRITICAL_IP_CACHE_SETS: 32
WOBBLY_CRITICAL_IP_CACHE_WAYS: 4
BTB has LRU replacement policy
ITLB has LRU replacement policy
DTLB has LRU replacement policy
STLB has LRU replacement policy
L1I has LRU replacement policy
IP Table Entries: 64
L1D has LRU replacement policy
Initialize SRRIP state for L2C
Initialize DRRIP state for LLC
Heartbeat CPU 0 instructions: 10000000 cycles: 2904748 heartbeat IPC: 3.44264 cumulative IPC: 3.44264 (Simulation time: 0 hr 5 min 27 sec) 
Heartbeat CPU 0 instructions: 20000001 cycles: 5807964 heartbeat IPC: 3.44446 cumulative IPC: 3.44355 (Simulation time: 0 hr 10 min 3 sec) 
Heartbeat CPU 0 instructions: 30000000 cycles: 8707226 heartbeat IPC: 3.44915 cumulative IPC: 3.44541 (Simulation time: 0 hr 14 min 27 sec) 
Heartbeat CPU 0 instructions: 40000000 cycles: 11612854 heartbeat IPC: 3.4416 cumulative IPC: 3.44446 (Simulation time: 0 hr 18 min 27 sec) 
Heartbeat CPU 0 instructions: 50000002 cycles: 14519316 heartbeat IPC: 3.44061 cumulative IPC: 3.44369 (Simulation time: 0 hr 22 min 1 sec) 

Warmup complete CPU 0 instructions: 50000002 cycles: 14519316 (Simulation time: 0 hr 22 min 1 sec) 

% increase in all ip prefetch 533.791
% increase in all ip prefetch 32.7964
% increase in all ip prefetch 21.6548
% increase in all ip prefetch -7.76605
Heartbeat CPU 0 instructions: 60000001 cycles: 35965416 heartbeat IPC: 0.466285 cumulative IPC: 0.466285 (Simulation time: 0 hr 31 min 38 sec) 
Heartbeat CPU 0 instructions: 70000000 cycles: 57034909 heartbeat IPC: 0.47462 cumulative IPC: 0.470416 (Simulation time: 0 hr 40 min 47 sec) 
Heartbeat CPU 0 instructions: 80000000 cycles: 77785287 heartbeat IPC: 0.481919 cumulative IPC: 0.474189 (Simulation time: 0 hr 49 min 45 sec) 
Heartbeat CPU 0 instructions: 90000001 cycles: 98857386 heartbeat IPC: 0.474561 cumulative IPC: 0.474282 (Simulation time: 0 hr 56 min 56 sec) 
Heartbeat CPU 0 instructions: 100000003 cycles: 119531718 heartbeat IPC: 0.483692 cumulative IPC: 0.476134 (Simulation time: 1 hr 11 min 44 sec) 
Heartbeat CPU 0 instructions: 110000000 cycles: 140506762 heartbeat IPC: 0.476757 cumulative IPC: 0.476238 (Simulation time: 1 hr 26 min 23 sec) 
Heartbeat CPU 0 instructions: 120000001 cycles: 161793528 heartbeat IPC: 0.469775 cumulative IPC: 0.475304 (Simulation time: 1 hr 40 min 52 sec) 
Heartbeat CPU 0 instructions: 130000002 cycles: 182468230 heartbeat IPC: 0.483683 cumulative IPC: 0.476335 (Simulation time: 1 hr 53 min 24 sec) 
Heartbeat CPU 0 instructions: 140000000 cycles: 203480083 heartbeat IPC: 0.475922 cumulative IPC: 0.476289 (Simulation time: 2 hr 3 min 0 sec) 
Heartbeat CPU 0 instructions: 150000001 cycles: 224633955 heartbeat IPC: 0.472727 cumulative IPC: 0.475931 (Simulation time: 2 hr 12 min 0 sec) 
Finished CPU 0 instructions: 100000001 cycles: 210114641 cumulative IPC: 0.475931 (Simulation time: 2 hr 12 min 0 sec) 

ChampSim completed all CPUs

Region of Interest Statistics

CPU 0 cumulative IPC: 0.475931 instructions: 100000001 cycles: 210114641

CPU 0 Average Load ROB stall cycles: 2.7334e+07
CPU 0 Fraction of times ROB stalled by Loads: 22.7852
CPU 0 Percentage of Load stall cycles in Total stall cycles: 2.44561e+08
Issued all: 123223716
Issued LT all: 110413754
rob_not_full_when_issued_lt_all: 34626006
Issued LT one: 102158765
rob_not_full_when_issued_lt_one: 28719345
 Total stall cycles: 140467111
 Total load stall cycles: 343527980609506
CPU 0 NUM of IPS identified critical: 0
CPU 0 Num of Load IPs stalling ROB: 128
Threshold modification factor: -3
Max PIST entries: 62
Min PIST entries: 0
Avg PIST entries: 35.84
Trouble in retire width: 0.780204
MaC = Marked as critical.
lt_50_percent_before_Mac: 0
gt_90_percent_before_Mac: 0
gt_75_percent_before_Mac: 0
gt_50_percent_before_Mac: 0
stall_proportion_bin_same_before_after: 0
stall_proportion_bin_lower_before_after: 0
stall_proportion_bin_upper_before_after: 0
average_stall_proportion_before: -nan
average_stall_proportion_after: -nan
Critical IP stalls, total frequency: 0
Non-critical IP stalls, total frequency: 2863602
Total Freq all stalling IPs: 2863602
stat_90_percent_critical_ip_stalls_freq: 2590441
stat_90_percent_non_critical_ip_stalls_freq: 273161
Critical_IP_ROB_Stalls_Bucket_0: 0
Non-critical_IP_ROB_Stalls_Bucket_0: 2099794
Critical_IP_ROB_Stalls_Bucket_1: 0
Non-critical_IP_ROB_Stalls_Bucket_1: 267739
Critical_IP_ROB_Stalls_Bucket_2: 0
Non-critical_IP_ROB_Stalls_Bucket_2: 53114
Critical_IP_ROB_Stalls_Bucket_3: 0
Non-critical_IP_ROB_Stalls_Bucket_3: 57957
Critical_IP_ROB_Stalls_Bucket_4: 0
Non-critical_IP_ROB_Stalls_Bucket_4: 47756
Critical_IP_ROB_Stalls_Bucket_5: 0
Non-critical_IP_ROB_Stalls_Bucket_5: 55603
Critical_IP_ROB_Stalls_Bucket_6: 0
Non-critical_IP_ROB_Stalls_Bucket_6: 281639
0 => IPs accounting for >50 percent of stalls, 1 => 55, 2 => 60, 3 => 65 and so on till 90.
percent50: 50.5532 num IPs:  13
percent55: 55.6513 num IPs: 15
percent60: 60.6505 num IPs: 17
percent65: 65.407 num IPs: 19
percent70: 71.8292 num IPs: 22
percent75: 75.1333 num IPs: 24
percent80: 80.5944 num IPs: 28
percent85: 85.394 num IPs: 33
percent90: 90.4609 num IPs: 40
Critical_ROB_Stalls_Percent_0_Bucket_0: 940525
Non-critical_ROB_Stalls_Percent_0_Bucket_0: 1159269
Critical_ROB_Stalls_Percent_0_Bucket_1: 213318
Non-critical_ROB_Stalls_Percent_0_Bucket_1: 54421
Critical_ROB_Stalls_Percent_0_Bucket_2: 31111
Non-critical_ROB_Stalls_Percent_0_Bucket_2: 22003
Critical_ROB_Stalls_Percent_0_Bucket_3: 27708
Non-critical_ROB_Stalls_Percent_0_Bucket_3: 30249
Critical_ROB_Stalls_Percent_0_Bucket_4: 22004
Non-critical_ROB_Stalls_Percent_0_Bucket_4: 25752
Critical_ROB_Stalls_Percent_0_Bucket_5: 32706
Non-critical_ROB_Stalls_Percent_0_Bucket_5: 22897
Critical_ROB_Stalls_Percent_0_Bucket_6: 180271
Non-critical_ROB_Stalls_Percent_0_Bucket_6: 101368
Critical_ROB_Stalls_Percent_1_Bucket_0: 1080304
Non-critical_ROB_Stalls_Percent_1_Bucket_0: 1019490
Critical_ROB_Stalls_Percent_1_Bucket_1: 213683
Non-critical_ROB_Stalls_Percent_1_Bucket_1: 54056
Critical_ROB_Stalls_Percent_1_Bucket_2: 31763
Non-critical_ROB_Stalls_Percent_1_Bucket_2: 21351
Critical_ROB_Stalls_Percent_1_Bucket_3: 29129
Non-critical_ROB_Stalls_Percent_1_Bucket_3: 28828
Critical_ROB_Stalls_Percent_1_Bucket_4: 23961
Non-critical_ROB_Stalls_Percent_1_Bucket_4: 23795
Critical_ROB_Stalls_Percent_1_Bucket_5: 33709
Non-critical_ROB_Stalls_Percent_1_Bucket_5: 21894
Critical_ROB_Stalls_Percent_1_Bucket_6: 181084
Non-critical_ROB_Stalls_Percent_1_Bucket_6: 100555
Critical_ROB_Stalls_Percent_2_Bucket_0: 1222321
Non-critical_ROB_Stalls_Percent_2_Bucket_0: 877473
Critical_ROB_Stalls_Percent_2_Bucket_1: 213823
Non-critical_ROB_Stalls_Percent_2_Bucket_1: 53916
Critical_ROB_Stalls_Percent_2_Bucket_2: 31953
Non-critical_ROB_Stalls_Percent_2_Bucket_2: 21161
Critical_ROB_Stalls_Percent_2_Bucket_3: 29316
Non-critical_ROB_Stalls_Percent_2_Bucket_3: 28641
Critical_ROB_Stalls_Percent_2_Bucket_4: 24006
Non-critical_ROB_Stalls_Percent_2_Bucket_4: 23750
Critical_ROB_Stalls_Percent_2_Bucket_5: 33798
Non-critical_ROB_Stalls_Percent_2_Bucket_5: 21805
Critical_ROB_Stalls_Percent_2_Bucket_6: 181571
Non-critical_ROB_Stalls_Percent_2_Bucket_6: 100068
Critical_ROB_Stalls_Percent_3_Bucket_0: 1354622
Non-critical_ROB_Stalls_Percent_3_Bucket_0: 745172
Critical_ROB_Stalls_Percent_3_Bucket_1: 215243
Non-critical_ROB_Stalls_Percent_3_Bucket_1: 52496
Critical_ROB_Stalls_Percent_3_Bucket_2: 32622
Non-critical_ROB_Stalls_Percent_3_Bucket_2: 20492
Critical_ROB_Stalls_Percent_3_Bucket_3: 30178
Non-critical_ROB_Stalls_Percent_3_Bucket_3: 27779
Critical_ROB_Stalls_Percent_3_Bucket_4: 24449
Non-critical_ROB_Stalls_Percent_3_Bucket_4: 23307
Critical_ROB_Stalls_Percent_3_Bucket_5: 33994
Non-critical_ROB_Stalls_Percent_3_Bucket_5: 21609
Critical_ROB_Stalls_Percent_3_Bucket_6: 181888
Non-critical_ROB_Stalls_Percent_3_Bucket_6: 99751
Critical_ROB_Stalls_Percent_4_Bucket_0: 1533883
Non-critical_ROB_Stalls_Percent_4_Bucket_0: 565911
Critical_ROB_Stalls_Percent_4_Bucket_1: 216740
Non-critical_ROB_Stalls_Percent_4_Bucket_1: 50999
Critical_ROB_Stalls_Percent_4_Bucket_2: 32854
Non-critical_ROB_Stalls_Percent_4_Bucket_2: 20260
Critical_ROB_Stalls_Percent_4_Bucket_3: 30505
Non-critical_ROB_Stalls_Percent_4_Bucket_3: 27452
Critical_ROB_Stalls_Percent_4_Bucket_4: 25130
Non-critical_ROB_Stalls_Percent_4_Bucket_4: 22626
Critical_ROB_Stalls_Percent_4_Bucket_5: 34490
Non-critical_ROB_Stalls_Percent_4_Bucket_5: 21113
Critical_ROB_Stalls_Percent_4_Bucket_6: 183300
Non-critical_ROB_Stalls_Percent_4_Bucket_6: 98339
Critical_ROB_Stalls_Percent_5_Bucket_0: 1626433
Non-critical_ROB_Stalls_Percent_5_Bucket_0: 473361
Critical_ROB_Stalls_Percent_5_Bucket_1: 216953
Non-critical_ROB_Stalls_Percent_5_Bucket_1: 50786
Critical_ROB_Stalls_Percent_5_Bucket_2: 33160
Non-critical_ROB_Stalls_Percent_5_Bucket_2: 19954
Critical_ROB_Stalls_Percent_5_Bucket_3: 31329
Non-critical_ROB_Stalls_Percent_5_Bucket_3: 26628
Critical_ROB_Stalls_Percent_5_Bucket_4: 25555
Non-critical_ROB_Stalls_Percent_5_Bucket_4: 22201
Critical_ROB_Stalls_Percent_5_Bucket_5: 34596
Non-critical_ROB_Stalls_Percent_5_Bucket_5: 21007
Critical_ROB_Stalls_Percent_5_Bucket_6: 183492
Non-critical_ROB_Stalls_Percent_5_Bucket_6: 98147
Critical_ROB_Stalls_Percent_6_Bucket_0: 1741031
Non-critical_ROB_Stalls_Percent_6_Bucket_0: 358763
Critical_ROB_Stalls_Percent_6_Bucket_1: 219993
Non-critical_ROB_Stalls_Percent_6_Bucket_1: 47746
Critical_ROB_Stalls_Percent_6_Bucket_2: 35565
Non-critical_ROB_Stalls_Percent_6_Bucket_2: 17549
Critical_ROB_Stalls_Percent_6_Bucket_3: 36742
Non-critical_ROB_Stalls_Percent_6_Bucket_3: 21215
Critical_ROB_Stalls_Percent_6_Bucket_4: 31322
Non-critical_ROB_Stalls_Percent_6_Bucket_4: 16434
Critical_ROB_Stalls_Percent_6_Bucket_5: 38977
Non-critical_ROB_Stalls_Percent_6_Bucket_5: 16626
Critical_ROB_Stalls_Percent_6_Bucket_6: 204274
Non-critical_ROB_Stalls_Percent_6_Bucket_6: 77365
Critical_ROB_Stalls_Percent_7_Bucket_0: 1847716
Non-critical_ROB_Stalls_Percent_7_Bucket_0: 252078
Critical_ROB_Stalls_Percent_7_Bucket_1: 221570
Non-critical_ROB_Stalls_Percent_7_Bucket_1: 46169
Critical_ROB_Stalls_Percent_7_Bucket_2: 37462
Non-critical_ROB_Stalls_Percent_7_Bucket_2: 15652
Critical_ROB_Stalls_Percent_7_Bucket_3: 40239
Non-critical_ROB_Stalls_Percent_7_Bucket_3: 17718
Critical_ROB_Stalls_Percent_7_Bucket_4: 34345
Non-critical_ROB_Stalls_Percent_7_Bucket_4: 13411
Critical_ROB_Stalls_Percent_7_Bucket_5: 43226
Non-critical_ROB_Stalls_Percent_7_Bucket_5: 12377
Critical_ROB_Stalls_Percent_7_Bucket_6: 220787
Non-critical_ROB_Stalls_Percent_7_Bucket_6: 60852
Critical_ROB_Stalls_Percent_8_Bucket_0: 1943438
Non-critical_ROB_Stalls_Percent_8_Bucket_0: 156356
Critical_ROB_Stalls_Percent_8_Bucket_1: 236875
Non-critical_ROB_Stalls_Percent_8_Bucket_1: 30864
Critical_ROB_Stalls_Percent_8_Bucket_2: 41024
Non-critical_ROB_Stalls_Percent_8_Bucket_2: 12090
Critical_ROB_Stalls_Percent_8_Bucket_3: 43548
Non-critical_ROB_Stalls_Percent_8_Bucket_3: 14409
Critical_ROB_Stalls_Percent_8_Bucket_4: 37121
Non-critical_ROB_Stalls_Percent_8_Bucket_4: 10635
Critical_ROB_Stalls_Percent_8_Bucket_5: 46446
Non-critical_ROB_Stalls_Percent_8_Bucket_5: 9157
Critical_ROB_Stalls_Percent_8_Bucket_6: 241989
Non-critical_ROB_Stalls_Percent_8_Bucket_6: 39650
Average ROB occupancy Load Stall Begin: 63.5545
Average ROB occupancy Load Stall End: 75.3522
Min ROB occupancy Load Stall Begin: 2
Max ROB occupancy Load Stall Begin: 352
Min ROB occupancy Load Stall End: 2
Max ROB occupancy Load Stall End: 352
Average ROB occupancy Critical Load Stall Begin: -nan
Average ROB occupancy Critical Load Stall End: -nan
Min ROB occupancy Critical Load Stall Begin: 400
Max ROB occupancy Critical Load Stall Begin: 0
Min ROB occupancy Critical Load Stall End: 400
Max ROB occupancy Critical Load Stall End: 0
 ROB Load Stall Begin Bucket Count 0: 2287620
 ROB Load Stall End Bucket Count 0: 2099794
 ROB Critical Load Stall Begin Bucket Count 0: 0
 ROB Critical Load Stall End Bucket Count 0: 0
 ROB Load Stall Begin Bucket Count 1: 136444
 ROB Load Stall End Bucket Count 1: 267739
 ROB Critical Load Stall Begin Bucket Count 1: 0
 ROB Critical Load Stall End Bucket Count 1: 0
 ROB Load Stall Begin Bucket Count 2: 57263
 ROB Load Stall End Bucket Count 2: 53114
 ROB Critical Load Stall Begin Bucket Count 2: 0
 ROB Critical Load Stall End Bucket Count 2: 0
 ROB Load Stall Begin Bucket Count 3: 55729
 ROB Load Stall End Bucket Count 3: 57957
 ROB Critical Load Stall Begin Bucket Count 3: 0
 ROB Critical Load Stall End Bucket Count 3: 0
 ROB Load Stall Begin Bucket Count 4: 47516
 ROB Load Stall End Bucket Count 4: 47756
 ROB Critical Load Stall Begin Bucket Count 4: 0
 ROB Critical Load Stall End Bucket Count 4: 0
 ROB Load Stall Begin Bucket Count 5: 65226
 ROB Load Stall End Bucket Count 5: 55603
 ROB Critical Load Stall Begin Bucket Count 5: 0
 ROB Critical Load Stall End Bucket Count 5: 0
 ROB Load Stall Begin Bucket Count 6: 213804
 ROB Load Stall End Bucket Count 6: 281639
 ROB Critical Load Stall Begin Bucket Count 6: 0
 ROB Critical Load Stall End Bucket Count 6: 0
PIST Tag Read Accesses: 659886
PIST Read Accesses: 329943
PIST Tag Write Accesses: 659886
PIST Write Accesses: 329943
Criticality detector called times: 868455
Max global_stall_cycles_count: 753743
Threshold Modified: 3 times, factor: -3
Sturdy critical IP cache stats: 
 Unused entries: 0
CIC Tag Read Accesses: 0
CIC Read Accesses: 0
CIC Tag Write Accesses: 0
CIC Write Accesses: 0
Wobbly critical IP cache stats: 
 Unused entries: 97
CIC Tag Read Accesses: 187835160
CIC Read Accesses: 0
CIC Tag Write Accesses: 4842961
CIC Write Accesses: 0
ITLB TOTAL     ACCESS:   13495035  HIT:   13495035  MISS:          0  HIT %:        100  MISS %:          0   MPKI: 0
ITLB LOAD TRANSLATION ACCESS:   13495035  HIT:   13495035  MISS:          0  HIT %:        100  MISS %:          0   MPKI: 0
ITLB PREFETCH  REQUESTED:          0  ISSUED:          0  USEFUL:          0  USELESS:          0
ITLB USEFUL LOAD PREFETCHES:          0 PREFETCH ISSUED TO LOWER LEVEL:          0  ACCURACY: -nan
ITLB TIMELY PREFETCHES:          0 LATE PREFETCHES: 0 DROPPED PREFETCHES: 0
ITLB PREFETCHES SAME FILL-ORIGIN LEVEL: 0 DIFFERENT FILL-ORIGIN LEVEL: 0
ITLB AVERAGE MISS LATENCY: -nan cycles
ITLB RQ	ACCESS:   17390378	FORWARD:          0	MERGED:    3895343	TO_CACHE:   13495035

DTLB TOTAL     ACCESS:   17528688  HIT:   17391614  MISS:     137074  HIT %:     99.218  MISS %:   0.781998   MPKI: 1.37074
DTLB LOAD TRANSLATION ACCESS:   17528688  HIT:   17391614  MISS:     137074  HIT %:     99.218  MISS %:   0.781998   MPKI: 1.37074
DTLB PREFETCH  REQUESTED:          0  ISSUED:          0  USEFUL:          0  USELESS:          0
DTLB USEFUL LOAD PREFETCHES:          0 PREFETCH ISSUED TO LOWER LEVEL:          0  ACCURACY: -nan
DTLB TIMELY PREFETCHES:          0 LATE PREFETCHES: 0 DROPPED PREFETCHES: 0
DTLB PREFETCHES SAME FILL-ORIGIN LEVEL: 0 DIFFERENT FILL-ORIGIN LEVEL: 0
DTLB AVERAGE MISS LATENCY: 114.37 cycles
DTLB RQ	ACCESS:   24535086	FORWARD:          0	MERGED:    6952881	TO_CACHE:   17582205

STLB TOTAL     ACCESS:     776332  HIT:     701954  MISS:      74378  HIT %:    90.4193  MISS %:    9.58069   MPKI: 0.74378
STLB LOAD TRANSLATION ACCESS:     137074  HIT:      62696  MISS:      74378  HIT %:    45.7388  MISS %:    54.2612   MPKI: 0.74378
STLB TRANSLATION FROM L1D PREFETCHER ACCESS:     639258  HIT:     639258  MISS:          0  HIT %:        100  MISS %:          0   MPKI: 0
STLB PREFETCH  REQUESTED:          0  ISSUED:          0  USEFUL:          0  USELESS:          0
STLB USEFUL LOAD PREFETCHES:          0 PREFETCH ISSUED TO LOWER LEVEL:          0  ACCURACY: -nan
STLB TIMELY PREFETCHES:          0 LATE PREFETCHES: 0 DROPPED PREFETCHES: 0
STLB PREFETCHES SAME FILL-ORIGIN LEVEL: 0 DIFFERENT FILL-ORIGIN LEVEL: 0
STLB AVERAGE MISS LATENCY: 191.894 cycles
STLB RQ	ACCESS:    1316798	FORWARD:          0	MERGED:     540466	TO_CACHE:     776332

STLB Hit, L1D data hit: 0
STLB Hit, L2C data hit: 0
STLB Hit, LLC data hit: 0
STLB Hit, LLC data miss: 0
STLB STLB hints to L2: 0
L1D TOTAL     ACCESS:   25031245  HIT:   17178912  MISS:    7852333  HIT %:    68.6299  MISS %:    31.3701   MPKI: 78.5233
L1D LOAD      ACCESS:    8132410  HIT:    7631202  MISS:     501208  HIT %:    93.8369  MISS %:    6.16309   MPKI: 5.01208
L1D RFO       ACCESS:   16095636  HIT:    9433202  MISS:    6662434  HIT %:    58.6072  MISS %:    41.3928   MPKI: 66.6243
L1D PREFETCH  ACCESS:     803199  HIT:     114508  MISS:     688691  HIT %:    14.2565  MISS %:    85.7435   MPKI: 6.88691
L1D PREFETCH  REQUESTED:    2377745  ISSUED:    2359448  USEFUL:     688700  USELESS:          0
L1D USEFUL LOAD PREFETCHES:     688700 PREFETCH ISSUED TO LOWER LEVEL:     886066  ACCURACY: 77.7256
L1D TIMELY PREFETCHES:     688700 LATE PREFETCHES: 197371 DROPPED PREFETCHES: 0
L1D PREFETCHES SAME FILL-ORIGIN LEVEL: 886066 DIFFERENT FILL-ORIGIN LEVEL: 0
L1D AVERAGE MISS LATENCY: 2.99651e+06 cycles
L1D RQ	ACCESS:   24749112	FORWARD:          0	MERGED:   11854802	TO_CACHE:    8353985
L1D WQ	ACCESS:   18427538	FORWARD:    4540325	MERGED:    2246437	TO_CACHE:   16181101
L1D PQ	ACCESS:    1179724	FORWARD:          0	MERGED:          0	TO_CACHE:    1179724

L1D UNIQUE REGIONS ACCESSED: 0
L1D REGIONS CONFLICTS: 0
L1D Cross Page Prefetch Requests: 0
L1D Same Page Prefetch Requests: 1788097
L1D ROI Sum of L1D PQ occupancy: 1014182089
L1D PREFETCHES PUSHED FROM L2C: 0
L1I TOTAL     ACCESS:   17390377  HIT:   17390377  MISS:          0  HIT %:        100  MISS %:          0   MPKI: 0
L1I LOAD      ACCESS:   17390377  HIT:   17390377  MISS:          0  HIT %:        100  MISS %:          0   MPKI: 0
L1I PREFETCH  REQUESTED:          0  ISSUED:          0  USEFUL:          0  USELESS:          0
L1I USEFUL LOAD PREFETCHES:          0 PREFETCH ISSUED TO LOWER LEVEL:          0  ACCURACY: -nan
L1I TIMELY PREFETCHES:          0 LATE PREFETCHES: 0 DROPPED PREFETCHES: 0
L1I PREFETCHES SAME FILL-ORIGIN LEVEL: 0 DIFFERENT FILL-ORIGIN LEVEL: 0
L1I AVERAGE MISS LATENCY: -nan cycles
L1I RQ	ACCESS:   25150033	FORWARD:          0	MERGED:    7759655	TO_CACHE:   17390378

BTB TOTAL     ACCESS:    1795670  HIT:    1795664  MISS:          6  HIT %:    99.9997  MISS %: 0.000334137   MPKI: 6e-05
BTB BRANCH_DIRECT_JUMP	ACCESS:     291819  HIT:     291818  MISS:          1
BTB BRANCH_INDIRECT	ACCESS:          0  HIT:          0  MISS:          0
BTB BRANCH_CONDITIONAL	ACCESS:    1503851  HIT:    1503846  MISS:          5
BTB BRANCH_DIRECT_CALL	ACCESS:          0  HIT:          0  MISS:          0
BTB BRANCH_INDIRECT_CALL	ACCESS:          0  HIT:          0  MISS:          0
BTB BRANCH_RETURN	ACCESS:          0  HIT:          0  MISS:          0
BTB BRANCH_OTHER ACCESS:          0  HIT:          0  MISS:          0

L2C TOTAL     ACCESS:   14589145  HIT:    9475651  MISS:    5113494  HIT %:      64.95  MISS %:      35.05   MPKI: 51.1349
L2C LOAD      ACCESS:     303837  HIT:         52  MISS:     303785  HIT %:  0.0171144  MISS %:    99.9829   MPKI: 3.03785
L2C DATA LOAD MPKI: 3.03785
L2C INSTRUCTION LOAD MPKI: 0
L2C RFO       ACCESS:    6662430  HIT:    3028393  MISS:    3634037  HIT %:    45.4548  MISS %:    54.5452   MPKI: 36.3404
L2C PREFETCH  ACCESS:     886062  HIT:          0  MISS:     886062  HIT %:          0  MISS %:        100   MPKI: 8.86062
L2C DATA PREFETCH MPKI: 8.86062
L2C INSTRUCTION PREFETCH MPKI: 0
L2C WRITEBACK ACCESS:    6662434  HIT:    6382470  MISS:     279964  HIT %:    95.7979  MISS %:    4.20213   MPKI: 2.79964
L2C LOAD TRANSLATION ACCESS:      74382  HIT:      64736  MISS:       9646  HIT %:    87.0318  MISS %:    12.9682   MPKI: 0.09646
L2C PREFETCH  REQUESTED:          0  ISSUED:          0  USEFUL:          0  USELESS:     886850
L2C USEFUL LOAD PREFETCHES:          0 PREFETCH ISSUED TO LOWER LEVEL:     886065  ACCURACY: 0
L2C TIMELY PREFETCHES:          0 LATE PREFETCHES: 0 DROPPED PREFETCHES: 0
L2C PREFETCHES SAME FILL-ORIGIN LEVEL: 0 DIFFERENT FILL-ORIGIN LEVEL: 0
L2C AVERAGE MISS LATENCY: 588.534 cycles
L2C RQ	ACCESS:    7040665	FORWARD:          0	MERGED:          0	TO_CACHE:    7040660
L2C WQ	ACCESS:    6662438	FORWARD:          5	MERGED:          0	TO_CACHE:    6662438
L2C PQ	ACCESS:     886066	FORWARD:          0	MERGED:          0	TO_CACHE:     886066

L2C Instructions Evicting Data 0
L2C Translations Evicting Data 9633
L2C Data Evicting Data 4814758
L2C Instructions Evicting Instructions 0
L2C Translations Evicting Instructions 0
L2C Data Evicting Instructions 0
L2C Instructions Evicting Translations 0
L2C Translations Evicting Translations 13
L2C Data Evicting Translations 9126
L2C Dense regions hint from L2: 0
PSCL5 TOTAL     ACCESS:      74378  HIT:      74378  MISS:          0  HIT %:        100  MISS %:          0   MPKI: 0
PSCL5 LOAD TRANSLATION ACCESS:      74378  HIT:      74378  MISS:          0  HIT %:        100  MISS %:          0   MPKI: 0
PSCL5 PREFETCH  REQUESTED:          0  ISSUED:          0  USEFUL:          0  USELESS:          0
PSCL5 USEFUL LOAD PREFETCHES:          0 PREFETCH ISSUED TO LOWER LEVEL:          0  ACCURACY: -nan
PSCL5 TIMELY PREFETCHES:          0 LATE PREFETCHES: 0 DROPPED PREFETCHES: 0
PSCL5 PREFETCHES SAME FILL-ORIGIN LEVEL: 0 DIFFERENT FILL-ORIGIN LEVEL: 0

PSCL4 TOTAL     ACCESS:      74378  HIT:      74378  MISS:          0  HIT %:        100  MISS %:          0   MPKI: 0
PSCL4 LOAD TRANSLATION ACCESS:      74378  HIT:      74378  MISS:          0  HIT %:        100  MISS %:          0   MPKI: 0
PSCL4 PREFETCH  REQUESTED:          0  ISSUED:          0  USEFUL:          0  USELESS:          0
PSCL4 USEFUL LOAD PREFETCHES:          0 PREFETCH ISSUED TO LOWER LEVEL:          0  ACCURACY: -nan
PSCL4 TIMELY PREFETCHES:          0 LATE PREFETCHES: 0 DROPPED PREFETCHES: 0
PSCL4 PREFETCHES SAME FILL-ORIGIN LEVEL: 0 DIFFERENT FILL-ORIGIN LEVEL: 0

PSCL3 TOTAL     ACCESS:      74378  HIT:      74378  MISS:          0  HIT %:        100  MISS %:          0   MPKI: 0
PSCL3 LOAD TRANSLATION ACCESS:      74378  HIT:      74378  MISS:          0  HIT %:        100  MISS %:          0   MPKI: 0
PSCL3 PREFETCH  REQUESTED:          0  ISSUED:          0  USEFUL:          0  USELESS:          0
PSCL3 USEFUL LOAD PREFETCHES:          0 PREFETCH ISSUED TO LOWER LEVEL:          0  ACCURACY: -nan
PSCL3 TIMELY PREFETCHES:          0 LATE PREFETCHES: 0 DROPPED PREFETCHES: 0
PSCL3 PREFETCHES SAME FILL-ORIGIN LEVEL: 0 DIFFERENT FILL-ORIGIN LEVEL: 0

PSCL2 TOTAL     ACCESS:      74378  HIT:      74302  MISS:         76  HIT %:    99.8978  MISS %:   0.102181   MPKI: 0.00076
PSCL2 LOAD TRANSLATION ACCESS:      74378  HIT:      74302  MISS:         76  HIT %:    99.8978  MISS %:   0.102181   MPKI: 0.00076
PSCL2 PREFETCH  REQUESTED:          0  ISSUED:          0  USEFUL:          0  USELESS:          0
PSCL2 USEFUL LOAD PREFETCHES:          0 PREFETCH ISSUED TO LOWER LEVEL:          0  ACCURACY: -nan
PSCL2 TIMELY PREFETCHES:          0 LATE PREFETCHES: 0 DROPPED PREFETCHES: 0
PSCL2 PREFETCHES SAME FILL-ORIGIN LEVEL: 0 DIFFERENT FILL-ORIGIN LEVEL: 0

LLC TOTAL     ACCESS:    8472928  HIT:    3648655  MISS:    4824273  HIT %:    43.0625  MISS %:    56.9375   MPKI: 48.2427
LLC LOAD      ACCESS:     303785  HIT:         77  MISS:     303708  HIT %:  0.0253469  MISS %:    99.9747   MPKI: 3.03708
LLC RFO       ACCESS:    3633964  HIT:      65039  MISS:    3568925  HIT %:    1.78975  MISS %:    98.2102   MPKI: 35.6892
LLC PREFETCH  ACCESS:     886062  HIT:          0  MISS:     886062  HIT %:          0  MISS %:        100   MPKI: 8.86062
LLC WRITEBACK ACCESS:    3639471  HIT:    3583291  MISS:      56180  HIT %:    98.4564  MISS %:    1.54363   MPKI: 0.5618
LLC LOAD TRANSLATION ACCESS:       9646  HIT:        248  MISS:       9398  HIT %:    2.57101  MISS %:     97.429   MPKI: 0.09398
LLC PREFETCH  REQUESTED:          0  ISSUED:          0  USEFUL:          0  USELESS:     887901
LLC USEFUL LOAD PREFETCHES:          0 PREFETCH ISSUED TO LOWER LEVEL:     886065  ACCURACY: 0
LLC TIMELY PREFETCHES:          0 LATE PREFETCHES: 0 DROPPED PREFETCHES: 0
LLC PREFETCHES SAME FILL-ORIGIN LEVEL: 0 DIFFERENT FILL-ORIGIN LEVEL: 0
LLC AVERAGE MISS LATENCY: 593.029 cycles
LLC RQ	ACCESS:    3947476	FORWARD:          0	MERGED:          0	TO_CACHE:    3947403
LLC WQ	ACCESS:    3639475	FORWARD:         73	MERGED:          0	TO_CACHE:    3639475
LLC PQ	ACCESS:     886065	FORWARD:          0	MERGED:          0	TO_CACHE:     886065

LLC Dense regions hint to LLC: 0

RAW hits: 1331969
Loads Generated: 26081081
Loads sent to L1D: 24749112
Stores Generated: 18427550
Stores sent to L1D: 18427538
Major fault: 0 Minor fault: 58801
Allocated PAGES: 58801

stream: 
stream:times selected: 4356749
stream:pref_filled: 231410
stream:pref_useful: 231410
stream:pref_late: 70838
stream:misses: 77101
stream:misses_by_poll: 0

CS: 
CS:times selected: 777408
CS:pref_filled: 467904
CS:pref_useful: 467902
CS:pref_late: 70827
CS:misses: 168517
CS:misses_by_poll: 1863

CPLX: 
CPLX:times selected: 3575778
CPLX:pref_filled: 548401
CPLX:pref_useful: 548401
CPLX:pref_late: 61694
CPLX:misses: 405243
CPLX:misses_by_poll: 1738

NL_L1: 
NL:times selected: 1608
NL:pref_filled: 89
NL:pref_useful: 89
NL:pref_late: 59
NL:misses: 299
NL:misses_by_poll: 0

total selections: 8711543
total_filled: 688691
total_useful: 688700
total_late: 206920
total_polluted: 3601
total_misses_after_warmup: 722783
conflicts: 805163
Degree Incremented Times: 170460
Degree Decremented Times: 0

L1 IP Table Write Accesses: 6243458
L1 IP Table Read Accesses: 5438295
L1 RST Write Accesses: 2933116
L1 RST Read Accesses: 5866232
L1 CSPT Write Accesses: 2933116
L1 CSPT Read Accesses: 9337353
L1 RR Filter Tag Write Accesses: 1198021
L1 RR Filter Tag Read Accesses: 345256341
L1 IP Table Tag Write Accesses: 8353985
L1 IP Table Tag Read Accesses: 8353985
L1 RST Tag Write Accesses: 0
L1 RST Tag Read Accesses: 26372670
L1 RR Filter Write Accesses: 0
L1 RR Filter Read Accesses: 13674582
test: 590639

DRAM Statistics
 CHANNEL 0
 RQ ROW_BUFFER_HIT:     335359  ROW_BUFFER_MISS:    4432734
 DBUS_CONGESTED:          0
 WQ ROW_BUFFER_HIT:     534734  ROW_BUFFER_MISS:    3033692  FULL:          0

 AVG_CONGESTED_CYCLE: -
 All warmup complete: 2
Channel 0 Bank busy for read cycles: 0
Channel 0 Bank busy for write cycles: 0
Channel 0
Rank 0
0banks busy for read cycles: 13566
0banks busy for write cycles: 0
1banks busy for read cycles: 1244891
1banks busy for write cycles: 352468
2banks busy for read cycles: 1495831
2banks busy for write cycles: 352468
3banks busy for read cycles: 2696025
3banks busy for write cycles: 352466
4banks busy for read cycles: 7209654
4banks busy for write cycles: 352464
5banks busy for read cycles: 18925850
5banks busy for write cycles: 352487
6banks busy for read cycles: 27696277
6banks busy for write cycles: 358844
7banks busy for read cycles: 37714701
7banks busy for write cycles: 4096494
8banks busy for read cycles: 27805152
8banks busy for write cycles: 79095004

CPU 0 Branch Prediction Accuracy: 97.1168% MPKI: 0.51773 Average ROB Occupancy at Mispredict: 183.583
Branch types
NOT_BRANCH: 98204331 98.2043%
BRANCH_DIRECT_JUMP: 291819 0.291819%
BRANCH_INDIRECT: 0 0%
BRANCH_CONDITIONAL: 1503851 1.50385%
BRANCH_DIRECT_CALL: 0 0%
BRANCH_INDIRECT_CALL: 0 0%
BRANCH_RETURN: 0 0%
BRANCH_OTHER: 0 0%

DRAM PAGES: 1048576
Allocated PAGES: 58801
