
*** ChampSim Multicore Out-of-Order Simulator ***

Warmup Instructions: 50000000
Simulation Instructions: 100000000
Number of CPUs: 1
LLC sets: 2048
LLC ways: 16
Off-chip DRAM Size: 4096 MB Channels: 1 Width: 64-bit Data Rate: 6400 MT/s
CPU 0 runs ../SPEC2017//619.lbm_s-4268B.champsimtrace.xz
.xz
NUM_OF_IPS_IN_CRITICAL_IP_TRAINING: 64
NUM_OF_CRITICAL_IP_TRAINING_TABLE_WAYS: 2
NUM_OF_CRITICAL_IP_TRAINING_TABLE_SETS: 32
WOBBLY_CRITICAL_IP_CACHE_SETS: 32
WOBBLY_CRITICAL_IP_CACHE_WAYS: 4
BTB has LRU replacement policy
ITLB has LRU replacement policy
DTLB has LRU replacement policy
STLB has LRU replacement policy
L1I has LRU replacement policy
L1D has LRU replacement policy
Bingo PHT WAYS: 16 and PHT_SIZE: 16384
Initialize SRRIP state for L2C
Initialize DRRIP state for LLC
Heartbeat CPU 0 instructions: 10000000 cycles: 2911259 heartbeat IPC: 3.43494 cumulative IPC: 3.43494 (Simulation time: 0 hr 5 min 55 sec) 
Heartbeat CPU 0 instructions: 20000001 cycles: 5820847 heartbeat IPC: 3.43691 cumulative IPC: 3.43593 (Simulation time: 0 hr 11 min 33 sec) 
Heartbeat CPU 0 instructions: 30000000 cycles: 8726516 heartbeat IPC: 3.44155 cumulative IPC: 3.4378 (Simulation time: 0 hr 16 min 12 sec) 
Heartbeat CPU 0 instructions: 40000000 cycles: 11638834 heartbeat IPC: 3.43369 cumulative IPC: 3.43677 (Simulation time: 0 hr 20 min 34 sec) 
Heartbeat CPU 0 instructions: 50000002 cycles: 14552105 heartbeat IPC: 3.43257 cumulative IPC: 3.43593 (Simulation time: 0 hr 24 min 31 sec) 

Warmup complete CPU 0 instructions: 50000002 cycles: 14552105 (Simulation time: 0 hr 24 min 31 sec) 

% increase in all ip prefetch 498.467
% increase in all ip prefetch 29.2108
% increase in all ip prefetch 18.9537
% increase in all ip prefetch -6.53834
Heartbeat CPU 0 instructions: 60000001 cycles: 35276971 heartbeat IPC: 0.482512 cumulative IPC: 0.482512 (Simulation time: 0 hr 31 min 39 sec) 
Heartbeat CPU 0 instructions: 70000000 cycles: 55657262 heartbeat IPC: 0.49067 cumulative IPC: 0.486557 (Simulation time: 0 hr 37 min 59 sec) 
Heartbeat CPU 0 instructions: 80000000 cycles: 75877990 heartbeat IPC: 0.494542 cumulative IPC: 0.48919 (Simulation time: 0 hr 43 min 26 sec) 
Heartbeat CPU 0 instructions: 90000001 cycles: 96387035 heartbeat IPC: 0.48759 cumulative IPC: 0.488789 (Simulation time: 0 hr 48 min 4 sec) 
Heartbeat CPU 0 instructions: 100000001 cycles: 116475112 heartbeat IPC: 0.497808 cumulative IPC: 0.490566 (Simulation time: 0 hr 52 min 1 sec) 
Heartbeat CPU 0 instructions: 110000000 cycles: 136858977 heartbeat IPC: 0.490584 cumulative IPC: 0.490569 (Simulation time: 0 hr 54 min 36 sec) 
Heartbeat CPU 0 instructions: 120000001 cycles: 157604916 heartbeat IPC: 0.482022 cumulative IPC: 0.48933 (Simulation time: 0 hr 56 min 26 sec) 
Heartbeat CPU 0 instructions: 130000002 cycles: 177661930 heartbeat IPC: 0.498579 cumulative IPC: 0.490467 (Simulation time: 0 hr 58 min 3 sec) 
Heartbeat CPU 0 instructions: 140000000 cycles: 198099839 heartbeat IPC: 0.489287 cumulative IPC: 0.490336 (Simulation time: 0 hr 59 min 27 sec) 
Heartbeat CPU 0 instructions: 150000000 cycles: 218655984 heartbeat IPC: 0.486473 cumulative IPC: 0.489947 (Simulation time: 1 hr 0 min 28 sec) 
Finished CPU 0 instructions: 100000002 cycles: 204103880 cumulative IPC: 0.489947 (Simulation time: 1 hr 0 min 28 sec) 

ChampSim completed all CPUs

Region of Interest Statistics

CPU 0 cumulative IPC: 0.489947 instructions: 100000002 cycles: 204103880

CPU 0 Average Load ROB stall cycles: 1.10894e+07
CPU 0 Fraction of times ROB stalled by Loads: 9.49908
CPU 0 Percentage of Load stall cycles in Total stall cycles: 1.05096e+08
 Total stall cycles: 108934311
 Total load stall cycles: 114485245522588
CPU 0 NUM of IPS identified critical: 0

Threshold modification factor: -3
Max PIST entries: 58
Min PIST entries: 0
Avg PIST entries: 37.4067
Average ROB occupancy Load Stall Begin: 89.8035
Average ROB occupancy Load Stall End: 103.493
Min ROB occupancy Load Stall Begin: 2
Max ROB occupancy Load Stall Begin: 351
Min ROB occupancy Load Stall End: 2
Max ROB occupancy Load Stall End: 352
Average ROB occupancy Critical Load Stall Begin: -nan
Average ROB occupancy Critical Load Stall End: -nan
Min ROB occupancy Critical Load Stall Begin: 400
Max ROB occupancy Critical Load Stall Begin: 0
Min ROB occupancy Critical Load Stall End: 400
Max ROB occupancy Critical Load Stall End: 0
 ROB Load Stall Begin Bucket Count 0: 673136
 ROB Load Stall End Bucket Count 0: 631205
 ROB Critical Load Stall Begin Bucket Count 0: 0
 ROB Critical Load Stall End Bucket Count 0: 0
 ROB Load Stall Begin Bucket Count 1: 52841
 ROB Load Stall End Bucket Count 1: 63168
 ROB Critical Load Stall Begin Bucket Count 1: 0
 ROB Critical Load Stall End Bucket Count 1: 0
 ROB Load Stall Begin Bucket Count 2: 40164
 ROB Load Stall End Bucket Count 2: 35522
 ROB Critical Load Stall Begin Bucket Count 2: 0
 ROB Critical Load Stall End Bucket Count 2: 0
 ROB Load Stall Begin Bucket Count 3: 38080
 ROB Load Stall End Bucket Count 3: 39389
 ROB Critical Load Stall Begin Bucket Count 3: 0
 ROB Critical Load Stall End Bucket Count 3: 0
 ROB Load Stall Begin Bucket Count 4: 23071
 ROB Load Stall End Bucket Count 4: 25293
 ROB Critical Load Stall Begin Bucket Count 4: 0
 ROB Critical Load Stall End Bucket Count 4: 0
 ROB Load Stall Begin Bucket Count 5: 30917
 ROB Load Stall End Bucket Count 5: 26514
 ROB Critical Load Stall Begin Bucket Count 5: 0
 ROB Critical Load Stall End Bucket Count 5: 0
 ROB Load Stall Begin Bucket Count 6: 122459
 ROB Load Stall End Bucket Count 6: 159577
 ROB Critical Load Stall Begin Bucket Count 6: 0
 ROB Critical Load Stall End Bucket Count 6: 0
PIST Tag Read Accesses: 260588
PIST Read Accesses: 130294
PIST Tag Write Accesses: 260588
PIST Write Accesses: 130294
Criticality detector called times: 152503
Max global_stall_cycles_count: 264554
Threshold Modified: 3 times, factor: -3
Sturdy critical IP cache stats: 
 Unused entries: 0
CIC Tag Read Accesses: 0
CIC Read Accesses: 0
CIC Tag Write Accesses: 0
CIC Write Accesses: 0
Wobbly critical IP cache stats: 
 Unused entries: 118
CIC Tag Read Accesses: 170987532
CIC Read Accesses: 0
CIC Tag Write Accesses: 1228475
CIC Write Accesses: 0
ITLB TOTAL     ACCESS:   13427984  HIT:   13427984  MISS:          0  HIT %:        100  MISS %:          0   MPKI: 0
ITLB LOAD TRANSLATION ACCESS:   13427984  HIT:   13427984  MISS:          0  HIT %:        100  MISS %:          0   MPKI: 0
ITLB PREFETCHES SAME FILL-ORIGIN LEVEL: 0 DIFFERENT FILL-ORIGIN LEVEL: 0
ITLB AVERAGE MISS LATENCY: -nan cycles
ITLB RQ	ACCESS:   17347192	FORWARD:          0	MERGED:    3919208	TO_CACHE:   13427984

DTLB TOTAL     ACCESS:   18861694  HIT:   18724620  MISS:     137074  HIT %:    99.2733  MISS %:   0.726732   MPKI: 1.37074
DTLB LOAD TRANSLATION ACCESS:   18861694  HIT:   18724620  MISS:     137074  HIT %:    99.2733  MISS %:   0.726732   MPKI: 1.37074
DTLB PREFETCHES SAME FILL-ORIGIN LEVEL: 0 DIFFERENT FILL-ORIGIN LEVEL: 0
DTLB AVERAGE MISS LATENCY: 109.689 cycles
DTLB RQ	ACCESS:   27594410	FORWARD:          0	MERGED:    8672237	TO_CACHE:   18922173

STLB TOTAL     ACCESS:     137074  HIT:      62696  MISS:      74378  HIT %:    45.7388  MISS %:    54.2612   MPKI: 0.74378
STLB LOAD TRANSLATION ACCESS:     137074  HIT:      62696  MISS:      74378  HIT %:    45.7388  MISS %:    54.2612   MPKI: 0.74378
STLB PREFETCHES SAME FILL-ORIGIN LEVEL: 0 DIFFERENT FILL-ORIGIN LEVEL: 0
STLB AVERAGE MISS LATENCY: 183.721 cycles
STLB RQ	ACCESS:     137074	FORWARD:          0	MERGED:          0	TO_CACHE:     137074

STLB Hit, L1D data hit: 0
STLB Hit, L2C data hit: 0
STLB Hit, LLC data hit: 0
STLB Hit, LLC data miss: 0
STLB STLB hints to L2: 0
L1D TOTAL     ACCESS:   27320675  HIT:   19468428  MISS:    7852247  HIT %:     71.259  MISS %:     28.741   MPKI: 78.5225
L1D LOAD      ACCESS:    9502026  HIT:    8312128  MISS:    1189898  HIT %:    87.4774  MISS %:    12.5226   MPKI: 11.899
L1D RFO       ACCESS:   17818649  HIT:   11156300  MISS:    6662349  HIT %:    62.6102  MISS %:    37.3898   MPKI: 66.6235
L1D PREFETCHES SAME FILL-ORIGIN LEVEL: 0 DIFFERENT FILL-ORIGIN LEVEL: 0
L1D AVERAGE MISS LATENCY: 342.349 cycles
L1D RQ	ACCESS:   24735814	FORWARD:          0	MERGED:   13224235	TO_CACHE:    9661173
L1D WQ	ACCESS:   18427539	FORWARD:    1850406	MERGED:     494302	TO_CACHE:   17933237

L1D UNIQUE REGIONS ACCESSED: 0
L1D REGIONS CONFLICTS: 0
L1D Cross Page Prefetch Requests: 0
L1D Same Page Prefetch Requests: 0
L1D ROI Sum of L1D PQ occupancy: 0
L1D PREFETCHES PUSHED FROM L2C: 0
L1I TOTAL     ACCESS:   17347191  HIT:   17347191  MISS:          0  HIT %:        100  MISS %:          0   MPKI: 0
L1I LOAD      ACCESS:   17347191  HIT:   17347191  MISS:          0  HIT %:        100  MISS %:          0   MPKI: 0
L1I PREFETCHES SAME FILL-ORIGIN LEVEL: 0 DIFFERENT FILL-ORIGIN LEVEL: 0
L1I AVERAGE MISS LATENCY: -nan cycles
L1I RQ	ACCESS:   24994417	FORWARD:          0	MERGED:    7647225	TO_CACHE:   17347192

BTB TOTAL     ACCESS:    1795670  HIT:    1795664  MISS:          6  HIT %:    99.9997  MISS %: 0.000334137   MPKI: 6e-05
BTB BRANCH_DIRECT_JUMP	ACCESS:     291819  HIT:     291818  MISS:          1
BTB BRANCH_INDIRECT	ACCESS:          0  HIT:          0  MISS:          0
BTB BRANCH_CONDITIONAL	ACCESS:    1503851  HIT:    1503846  MISS:          5
BTB BRANCH_DIRECT_CALL	ACCESS:          0  HIT:          0  MISS:          0
BTB BRANCH_INDIRECT_CALL	ACCESS:          0  HIT:          0  MISS:          0
BTB BRANCH_RETURN	ACCESS:          0  HIT:          0  MISS:          0
BTB BRANCH_OTHER ACCESS:          0  HIT:          0  MISS:          0

L2C TOTAL     ACCESS:   15684796  HIT:   10448685  MISS:    5236111  HIT %:    66.6166  MISS %:    33.3834   MPKI: 52.3611
L2C LOAD      ACCESS:    1189898  HIT:    1056658  MISS:     133240  HIT %:    88.8024  MISS %:    11.1976   MPKI: 1.3324
L2C DATA LOAD MPKI: 1.3324
L2C INSTRUCTION LOAD MPKI: 0
L2C RFO       ACCESS:    6662340  HIT:    3004844  MISS:    3657496  HIT %:    45.1019  MISS %:    54.8981   MPKI: 36.575
L2C PREFETCH  ACCESS:    1095820  HIT:      37179  MISS:    1058641  HIT %:     3.3928  MISS %:    96.6072   MPKI: 10.5864
L2C DATA PREFETCH MPKI: 10.5864
L2C INSTRUCTION PREFETCH MPKI: 0
L2C WRITEBACK ACCESS:    6662356  HIT:    6285449  MISS:     376907  HIT %:    94.3427  MISS %:    5.65726   MPKI: 3.76907
L2C LOAD TRANSLATION ACCESS:      74382  HIT:      64555  MISS:       9827  HIT %:    86.7885  MISS %:    13.2115   MPKI: 0.09827
L2C PREFETCH  REQUESTED:    1192896  ISSUED:    1192896  USEFUL:    1056604  USELESS:       2044
L2C USEFUL LOAD PREFETCHES:    1056604 PREFETCH ISSUED TO LOWER LEVEL:    1128729  ACCURACY: 93.6101
L2C TIMELY PREFETCHES:    1056604 LATE PREFETCHES: 70088 DROPPED PREFETCHES: 0
L2C PREFETCHES SAME FILL-ORIGIN LEVEL: 1128729 DIFFERENT FILL-ORIGIN LEVEL: 0
L2C AVERAGE MISS LATENCY: 638.449 cycles
L2C RQ	ACCESS:    7926645	FORWARD:          0	MERGED:          0	TO_CACHE:    7926636
L2C WQ	ACCESS:    6662358	FORWARD:          9	MERGED:          0	TO_CACHE:    6662358
L2C PQ	ACCESS:    1192896	FORWARD:          0	MERGED:         10	TO_CACHE:    1192886

L2C Instructions Evicting Data0
L2C Translations Evicting Data9794
L2C Data Evicting Data4840160
L2C Instructions Evicting Instructions0
L2C Translations Evicting Instructions0
L2C Data Evicting Instructions0
L2C Instructions Evicting Translations0
L2C Translations Evicting Translations33
L2C Data Evicting Translations9217
L2C Dense regions hint from L2: 0
PSCL5 TOTAL     ACCESS:      74378  HIT:      74378  MISS:          0  HIT %:        100  MISS %:          0   MPKI: 0
PSCL5 LOAD TRANSLATION ACCESS:      74378  HIT:      74378  MISS:          0  HIT %:        100  MISS %:          0   MPKI: 0
PSCL5 PREFETCHES SAME FILL-ORIGIN LEVEL: 0 DIFFERENT FILL-ORIGIN LEVEL: 0

PSCL4 TOTAL     ACCESS:      74378  HIT:      74378  MISS:          0  HIT %:        100  MISS %:          0   MPKI: 0
PSCL4 LOAD TRANSLATION ACCESS:      74378  HIT:      74378  MISS:          0  HIT %:        100  MISS %:          0   MPKI: 0
PSCL4 PREFETCHES SAME FILL-ORIGIN LEVEL: 0 DIFFERENT FILL-ORIGIN LEVEL: 0

PSCL3 TOTAL     ACCESS:      74378  HIT:      74378  MISS:          0  HIT %:        100  MISS %:          0   MPKI: 0
PSCL3 LOAD TRANSLATION ACCESS:      74378  HIT:      74378  MISS:          0  HIT %:        100  MISS %:          0   MPKI: 0
PSCL3 PREFETCHES SAME FILL-ORIGIN LEVEL: 0 DIFFERENT FILL-ORIGIN LEVEL: 0

PSCL2 TOTAL     ACCESS:      74378  HIT:      74302  MISS:         76  HIT %:    99.8978  MISS %:   0.102181   MPKI: 0.00076
PSCL2 LOAD TRANSLATION ACCESS:      74378  HIT:      74302  MISS:         76  HIT %:    99.8978  MISS %:   0.102181   MPKI: 0.00076
PSCL2 PREFETCHES SAME FILL-ORIGIN LEVEL: 0 DIFFERENT FILL-ORIGIN LEVEL: 0

LLC TOTAL     ACCESS:    8528291  HIT:    3704842  MISS:    4823449  HIT %:    43.4418  MISS %:    56.5582   MPKI: 48.2345
LLC LOAD      ACCESS:      63152  HIT:        281  MISS:      62871  HIT %:   0.444958  MISS %:     99.555   MPKI: 0.62871
LLC RFO       ACCESS:    3657427  HIT:      88493  MISS:    3568934  HIT %:    2.41954  MISS %:    97.5805   MPKI: 35.6893
LLC PREFETCH  ACCESS:    1128729  HIT:       1822  MISS:    1126907  HIT %:   0.161421  MISS %:    99.8386   MPKI: 11.2691
LLC WRITEBACK ACCESS:    3669156  HIT:    3613820  MISS:      55336  HIT %:    98.4919  MISS %:    1.50814   MPKI: 0.55336
LLC LOAD TRANSLATION ACCESS:       9827  HIT:        426  MISS:       9401  HIT %:      4.335  MISS %:     95.665   MPKI: 0.09401
LLC PREFETCHES SAME FILL-ORIGIN LEVEL: 0 DIFFERENT FILL-ORIGIN LEVEL: 0
LLC AVERAGE MISS LATENCY: 668.452 cycles
LLC RQ	ACCESS:    3730488	FORWARD:          0	MERGED:          0	TO_CACHE:    3730419
LLC WQ	ACCESS:    3669157	FORWARD:         69	MERGED:          0	TO_CACHE:    3669157
LLC PQ	ACCESS:    1128729	FORWARD:          0	MERGED:          0	TO_CACHE:    1128729

LLC Dense regions hint to LLC: 0

RAW hits: 1345260
Loads Generated: 26081076
Loads sent to L1D: 24735814
Stores Generated: 18427530
Stores sent to L1D: 18427539
Major fault: 0 Minor fault: 58801
Allocated PAGES: 58801
[Bingo] PHT Access: 39806
[Bingo] PHT Hit PC+Addr: 221
[Bingo] PHT Hit PC+Offs: 39511
[Bingo] PHT Miss: 74
[Bingo] Prefetch PC+Addr: 0
[Bingo] Prefetch PC+Offs: 0
[Bingo] Useful PC+Addr: 0
[Bingo] Useful PC+Offs: 0
[Bingo] Useless PC+Addr: 0
[Bingo] Useless PC+Offs: 0
[Bingo] L1 Prefetch per Region: 0
[Bingo] L2 Prefetch per Region: 31.1119
[Bingo] L3 Prefetch per Region: 0
[Bingo] No Prefetch per Region: 0.888125
[Bingo] Number of Voters Mean: 15.7191
[Bingo] Number of Voters SD: 11.1005
PHT read accesses: 622331
PHT write accesses: 39696
AT read accesses: 1189787
AT write accesses: 1189767
FT read accesses: 119160
FT write accesses: 39806
PS read accesses: 220495
PS write accesses: 39732
PHT tag read accesses: 1891251
PHT tag write accesses: 39917
AT tag read accesses: 104185975
AT tag write accesses: 1229463
FT tag read accesses: 86361186
FT tag write accesses: 119289
PS tag read accesses: 20343017
PS tag write accesses: 259838

DRAM Statistics
 CHANNEL 0
 RQ ROW_BUFFER_HIT:     673588  ROW_BUFFER_MISS:    4094524
 DBUS_CONGESTED:          0
 WQ ROW_BUFFER_HIT:     557844  ROW_BUFFER_MISS:    3010604  FULL:        117

 AVG_CONGESTED_CYCLE: -
 All warmup complete: 2
Channel 0 Bank busy for read cycles: 0
Channel 0 Bank busy for write cycles: 0
Channel 0
Rank 0
0banks busy for read cycles: 25122
0banks busy for write cycles: 0
1banks busy for read cycles: 1693541
1banks busy for write cycles: 352237
2banks busy for read cycles: 2877268
2banks busy for write cycles: 352234
3banks busy for read cycles: 5916415
3banks busy for write cycles: 352231
4banks busy for read cycles: 7904813
4banks busy for write cycles: 352223
5banks busy for read cycles: 18399606
5banks busy for write cycles: 352234
6banks busy for read cycles: 21647455
6banks busy for write cycles: 359389
7banks busy for read cycles: 23800443
7banks busy for write cycles: 4142780
8banks busy for read cycles: 37434006
8banks busy for write cycles: 78141884

CPU 0 Branch Prediction Accuracy: 97.1168% MPKI: 0.51773 Average ROB Occupancy at Mispredict: 188.16
Branch types
NOT_BRANCH: 98204296 98.2043%
BRANCH_DIRECT_JUMP: 291819 0.291819%
BRANCH_INDIRECT: 0 0%
BRANCH_CONDITIONAL: 1503851 1.50385%
BRANCH_DIRECT_CALL: 0 0%
BRANCH_INDIRECT_CALL: 0 0%
BRANCH_RETURN: 0 0%
BRANCH_OTHER: 0 0%

DRAM PAGES: 1048576
Allocated PAGES: 58801
