
*** ChampSim Multicore Out-of-Order Simulator ***

Warmup Instructions: 50000000
Simulation Instructions: 100000000
Number of CPUs: 1
LLC sets: 2048
LLC ways: 16
Off-chip DRAM Size: 4096 MB Channels: 1 Width: 64-bit Data Rate: 6400 MT/s
CPU 0 runs ../SPEC2017//619.lbm_s-2677B.champsimtrace.xz
.xz
BTB has LRU replacement policy
ITLB has LRU replacement policy
DTLB has LRU replacement policy
STLB has LRU replacement policy
L1I has LRU replacement policy
IP Table Entries: 64
L1D has LRU replacement policy
Initialize SRRIP state for L2C
Initialize DRRIP state for LLC
Heartbeat CPU 0 instructions: 10000001 cycles: 2916367 heartbeat IPC: 3.42892 cumulative IPC: 3.42892 (Simulation time: 0 hr 5 min 15 sec) 
Heartbeat CPU 0 instructions: 20000001 cycles: 5822618 heartbeat IPC: 3.44086 cumulative IPC: 3.43488 (Simulation time: 0 hr 10 min 5 sec) 
Heartbeat CPU 0 instructions: 30000000 cycles: 8735673 heartbeat IPC: 3.43282 cumulative IPC: 3.43419 (Simulation time: 0 hr 14 min 54 sec) 
Heartbeat CPU 0 instructions: 40000000 cycles: 11645718 heartbeat IPC: 3.43637 cumulative IPC: 3.43474 (Simulation time: 0 hr 19 min 36 sec) 
Heartbeat CPU 0 instructions: 50000001 cycles: 14564218 heartbeat IPC: 3.42642 cumulative IPC: 3.43307 (Simulation time: 0 hr 24 min 1 sec) 

Warmup complete CPU 0 instructions: 50000001 cycles: 14564218 (Simulation time: 0 hr 24 min 1 sec) 

Heartbeat CPU 0 instructions: 60000001 cycles: 36839387 heartbeat IPC: 0.44893 cumulative IPC: 0.44893 (Simulation time: 0 hr 32 min 10 sec) 
Heartbeat CPU 0 instructions: 70000002 cycles: 57002531 heartbeat IPC: 0.495954 cumulative IPC: 0.471272 (Simulation time: 0 hr 42 min 16 sec) 
Heartbeat CPU 0 instructions: 80000002 cycles: 77154065 heartbeat IPC: 0.49624 cumulative IPC: 0.479311 (Simulation time: 0 hr 52 min 24 sec) 
Heartbeat CPU 0 instructions: 90000000 cycles: 97740683 heartbeat IPC: 0.485752 cumulative IPC: 0.480905 (Simulation time: 1 hr 1 min 53 sec) 
Heartbeat CPU 0 instructions: 100000002 cycles: 118154815 heartbeat IPC: 0.489857 cumulative IPC: 0.482669 (Simulation time: 1 hr 9 min 57 sec) 
Heartbeat CPU 0 instructions: 110000000 cycles: 138704275 heartbeat IPC: 0.486631 cumulative IPC: 0.483325 (Simulation time: 1 hr 19 min 3 sec) 
Heartbeat CPU 0 instructions: 120000001 cycles: 159033926 heartbeat IPC: 0.491892 cumulative IPC: 0.484531 (Simulation time: 1 hr 32 min 18 sec) 
Heartbeat CPU 0 instructions: 130000001 cycles: 179258895 heartbeat IPC: 0.494438 cumulative IPC: 0.485747 (Simulation time: 1 hr 44 min 21 sec) 
Heartbeat CPU 0 instructions: 140000002 cycles: 199489344 heartbeat IPC: 0.494304 cumulative IPC: 0.486683 (Simulation time: 1 hr 55 min 18 sec) 
Heartbeat CPU 0 instructions: 150000000 cycles: 220247032 heartbeat IPC: 0.481749 cumulative IPC: 0.486185 (Simulation time: 2 hr 6 min 8 sec) 
Finished CPU 0 instructions: 100000000 cycles: 205682815 cumulative IPC: 0.486185 (Simulation time: 2 hr 6 min 8 sec) 

ChampSim completed all CPUs

Region of Interest Statistics

CPU 0 cumulative IPC: 0.486185 instructions: 100000000 cycles: 205682815

CPU 0 Average Load ROB stall cycles: 2.76687e+07
CPU 0 Fraction of times ROB stalled by Loads: 23.1506
CPU 0 Percentage of Load stall cycles in Total stall cycles: 2.51567e+08
Issued all: 120118171
Issued LT all: 107307512
rob_not_full_when_issued_lt_all: 34660648
Issued LT one: 99057369
rob_not_full_when_issued_lt_one: 28704717
 Total stall cycles: 145597980
 Total load stall cycles: 366276164829734
Unique Load IPs: 128
CPU 0 NUM of IPS identified critical: 94
CPU 0 Num of Load IPs stalling ROB: 0
Threshold modification factor: 0
Trouble in retire width: -nan
MaC = Marked as critical.
lt_50_percent_before_Mac: 80
gt_90_percent_before_Mac: 1
gt_75_percent_before_Mac: 2
gt_50_percent_before_Mac: 11
stall_proportion_bin_same_before_after: 0
stall_proportion_bin_lower_before_after: 0
stall_proportion_bin_upper_before_after: 0
average_stall_proportion_before: 0.0416686
average_stall_proportion_after: 0.0455813
Critical_IP_Detector_Accuracy_70: 0.0106383
Critical_IP_Detector_Accuracy_80: 0.0106383
Critical_IP_Detector_Accuracy_90: 0.0106383
Critical_IP_Detector_Coverage_70: 1
Critical_IP_Detector_Coverage_80: 1
Critical_IP_Detector_Coverage_90: 1
stat_90_percent_critical_ip_stalls_freq: 233967
stat_90_percent_non_critical_ip_stalls_freq: 18446744073709317649
AVERAGE_ROB_Occupancy_90_Percent_Critical_IP_Stalls: 156.485
AVERAGE_ROB_Occupancy_90_Percent_Non_Critical_IP_Stalls: 1.07771e-11
Critical_IP_ROB_Stalls_Bucket_0: 1995860
Non-critical_IP_ROB_Stalls_Bucket_0: 227721
Critical_IP_ROB_Stalls_Bucket_1: 298066
Non-critical_IP_ROB_Stalls_Bucket_1: 7028
Critical_IP_ROB_Stalls_Bucket_2: 49656
Non-critical_IP_ROB_Stalls_Bucket_2: 4083
Critical_IP_ROB_Stalls_Bucket_3: 48919
Non-critical_IP_ROB_Stalls_Bucket_3: 6113
Critical_IP_ROB_Stalls_Bucket_4: 43199
Non-critical_IP_ROB_Stalls_Bucket_4: 5011
Critical_IP_ROB_Stalls_Bucket_5: 52670
Non-critical_IP_ROB_Stalls_Bucket_5: 4662
Critical_IP_ROB_Stalls_Bucket_6: 309893
Non-critical_IP_ROB_Stalls_Bucket_6: 11772
0 => IPs accounting for >50 percent of stalls, 1 => 55, 2 => 60, 3 => 65 and so on till 90.
percent50: inf num IPs:  1
percent55: inf num IPs: 1
percent60: inf num IPs: 1
percent65: inf num IPs: 1
percent70: inf num IPs: 1
percent75: inf num IPs: 1
percent80: inf num IPs: 1
percent85: inf num IPs: 1
percent90: inf num IPs: 1
Critical_ROB_Stalls_Percent_0_Bucket_0: 120028
Non-critical_ROB_Stalls_Percent_0_Bucket_0: 2103553
Critical_ROB_Stalls_Percent_0_Bucket_1: 4702
Non-critical_ROB_Stalls_Percent_0_Bucket_1: 300392
Critical_ROB_Stalls_Percent_0_Bucket_2: 9451
Non-critical_ROB_Stalls_Percent_0_Bucket_2: 44288
Critical_ROB_Stalls_Percent_0_Bucket_3: 8616
Non-critical_ROB_Stalls_Percent_0_Bucket_3: 46416
Critical_ROB_Stalls_Percent_0_Bucket_4: 8226
Non-critical_ROB_Stalls_Percent_0_Bucket_4: 39984
Critical_ROB_Stalls_Percent_0_Bucket_5: 8983
Non-critical_ROB_Stalls_Percent_0_Bucket_5: 48349
Critical_ROB_Stalls_Percent_0_Bucket_6: 73961
Non-critical_ROB_Stalls_Percent_0_Bucket_6: 247704
Critical_ROB_Stalls_Percent_1_Bucket_0: 120028
Non-critical_ROB_Stalls_Percent_1_Bucket_0: 2103553
Critical_ROB_Stalls_Percent_1_Bucket_1: 4702
Non-critical_ROB_Stalls_Percent_1_Bucket_1: 300392
Critical_ROB_Stalls_Percent_1_Bucket_2: 9451
Non-critical_ROB_Stalls_Percent_1_Bucket_2: 44288
Critical_ROB_Stalls_Percent_1_Bucket_3: 8616
Non-critical_ROB_Stalls_Percent_1_Bucket_3: 46416
Critical_ROB_Stalls_Percent_1_Bucket_4: 8226
Non-critical_ROB_Stalls_Percent_1_Bucket_4: 39984
Critical_ROB_Stalls_Percent_1_Bucket_5: 8983
Non-critical_ROB_Stalls_Percent_1_Bucket_5: 48349
Critical_ROB_Stalls_Percent_1_Bucket_6: 73961
Non-critical_ROB_Stalls_Percent_1_Bucket_6: 247704
Critical_ROB_Stalls_Percent_2_Bucket_0: 120028
Non-critical_ROB_Stalls_Percent_2_Bucket_0: 2103553
Critical_ROB_Stalls_Percent_2_Bucket_1: 4702
Non-critical_ROB_Stalls_Percent_2_Bucket_1: 300392
Critical_ROB_Stalls_Percent_2_Bucket_2: 9451
Non-critical_ROB_Stalls_Percent_2_Bucket_2: 44288
Critical_ROB_Stalls_Percent_2_Bucket_3: 8616
Non-critical_ROB_Stalls_Percent_2_Bucket_3: 46416
Critical_ROB_Stalls_Percent_2_Bucket_4: 8226
Non-critical_ROB_Stalls_Percent_2_Bucket_4: 39984
Critical_ROB_Stalls_Percent_2_Bucket_5: 8983
Non-critical_ROB_Stalls_Percent_2_Bucket_5: 48349
Critical_ROB_Stalls_Percent_2_Bucket_6: 73961
Non-critical_ROB_Stalls_Percent_2_Bucket_6: 247704
Critical_ROB_Stalls_Percent_3_Bucket_0: 120028
Non-critical_ROB_Stalls_Percent_3_Bucket_0: 2103553
Critical_ROB_Stalls_Percent_3_Bucket_1: 4702
Non-critical_ROB_Stalls_Percent_3_Bucket_1: 300392
Critical_ROB_Stalls_Percent_3_Bucket_2: 9451
Non-critical_ROB_Stalls_Percent_3_Bucket_2: 44288
Critical_ROB_Stalls_Percent_3_Bucket_3: 8616
Non-critical_ROB_Stalls_Percent_3_Bucket_3: 46416
Critical_ROB_Stalls_Percent_3_Bucket_4: 8226
Non-critical_ROB_Stalls_Percent_3_Bucket_4: 39984
Critical_ROB_Stalls_Percent_3_Bucket_5: 8983
Non-critical_ROB_Stalls_Percent_3_Bucket_5: 48349
Critical_ROB_Stalls_Percent_3_Bucket_6: 73961
Non-critical_ROB_Stalls_Percent_3_Bucket_6: 247704
Critical_ROB_Stalls_Percent_4_Bucket_0: 120028
Non-critical_ROB_Stalls_Percent_4_Bucket_0: 2103553
Critical_ROB_Stalls_Percent_4_Bucket_1: 4702
Non-critical_ROB_Stalls_Percent_4_Bucket_1: 300392
Critical_ROB_Stalls_Percent_4_Bucket_2: 9451
Non-critical_ROB_Stalls_Percent_4_Bucket_2: 44288
Critical_ROB_Stalls_Percent_4_Bucket_3: 8616
Non-critical_ROB_Stalls_Percent_4_Bucket_3: 46416
Critical_ROB_Stalls_Percent_4_Bucket_4: 8226
Non-critical_ROB_Stalls_Percent_4_Bucket_4: 39984
Critical_ROB_Stalls_Percent_4_Bucket_5: 8983
Non-critical_ROB_Stalls_Percent_4_Bucket_5: 48349
Critical_ROB_Stalls_Percent_4_Bucket_6: 73961
Non-critical_ROB_Stalls_Percent_4_Bucket_6: 247704
Critical_ROB_Stalls_Percent_5_Bucket_0: 120028
Non-critical_ROB_Stalls_Percent_5_Bucket_0: 2103553
Critical_ROB_Stalls_Percent_5_Bucket_1: 4702
Non-critical_ROB_Stalls_Percent_5_Bucket_1: 300392
Critical_ROB_Stalls_Percent_5_Bucket_2: 9451
Non-critical_ROB_Stalls_Percent_5_Bucket_2: 44288
Critical_ROB_Stalls_Percent_5_Bucket_3: 8616
Non-critical_ROB_Stalls_Percent_5_Bucket_3: 46416
Critical_ROB_Stalls_Percent_5_Bucket_4: 8226
Non-critical_ROB_Stalls_Percent_5_Bucket_4: 39984
Critical_ROB_Stalls_Percent_5_Bucket_5: 8983
Non-critical_ROB_Stalls_Percent_5_Bucket_5: 48349
Critical_ROB_Stalls_Percent_5_Bucket_6: 73961
Non-critical_ROB_Stalls_Percent_5_Bucket_6: 247704
Critical_ROB_Stalls_Percent_6_Bucket_0: 120028
Non-critical_ROB_Stalls_Percent_6_Bucket_0: 2103553
Critical_ROB_Stalls_Percent_6_Bucket_1: 4702
Non-critical_ROB_Stalls_Percent_6_Bucket_1: 300392
Critical_ROB_Stalls_Percent_6_Bucket_2: 9451
Non-critical_ROB_Stalls_Percent_6_Bucket_2: 44288
Critical_ROB_Stalls_Percent_6_Bucket_3: 8616
Non-critical_ROB_Stalls_Percent_6_Bucket_3: 46416
Critical_ROB_Stalls_Percent_6_Bucket_4: 8226
Non-critical_ROB_Stalls_Percent_6_Bucket_4: 39984
Critical_ROB_Stalls_Percent_6_Bucket_5: 8983
Non-critical_ROB_Stalls_Percent_6_Bucket_5: 48349
Critical_ROB_Stalls_Percent_6_Bucket_6: 73961
Non-critical_ROB_Stalls_Percent_6_Bucket_6: 247704
Critical_ROB_Stalls_Percent_7_Bucket_0: 120028
Non-critical_ROB_Stalls_Percent_7_Bucket_0: 2103553
Critical_ROB_Stalls_Percent_7_Bucket_1: 4702
Non-critical_ROB_Stalls_Percent_7_Bucket_1: 300392
Critical_ROB_Stalls_Percent_7_Bucket_2: 9451
Non-critical_ROB_Stalls_Percent_7_Bucket_2: 44288
Critical_ROB_Stalls_Percent_7_Bucket_3: 8616
Non-critical_ROB_Stalls_Percent_7_Bucket_3: 46416
Critical_ROB_Stalls_Percent_7_Bucket_4: 8226
Non-critical_ROB_Stalls_Percent_7_Bucket_4: 39984
Critical_ROB_Stalls_Percent_7_Bucket_5: 8983
Non-critical_ROB_Stalls_Percent_7_Bucket_5: 48349
Critical_ROB_Stalls_Percent_7_Bucket_6: 73961
Non-critical_ROB_Stalls_Percent_7_Bucket_6: 247704
Critical_ROB_Stalls_Percent_8_Bucket_0: 120028
Non-critical_ROB_Stalls_Percent_8_Bucket_0: 2103553
Critical_ROB_Stalls_Percent_8_Bucket_1: 4702
Non-critical_ROB_Stalls_Percent_8_Bucket_1: 300392
Critical_ROB_Stalls_Percent_8_Bucket_2: 9451
Non-critical_ROB_Stalls_Percent_8_Bucket_2: 44288
Critical_ROB_Stalls_Percent_8_Bucket_3: 8616
Non-critical_ROB_Stalls_Percent_8_Bucket_3: 46416
Critical_ROB_Stalls_Percent_8_Bucket_4: 8226
Non-critical_ROB_Stalls_Percent_8_Bucket_4: 39984
Critical_ROB_Stalls_Percent_8_Bucket_5: 8983
Non-critical_ROB_Stalls_Percent_8_Bucket_5: 48349
Critical_ROB_Stalls_Percent_8_Bucket_6: 73961
Non-critical_ROB_Stalls_Percent_8_Bucket_6: 247704
Average ROB occupancy Load Stall Begin: 66.2518
Average ROB occupancy Load Stall End: 76.8163
Min ROB occupancy Load Stall Begin: 2
Max ROB occupancy Load Stall Begin: 352
Min ROB occupancy Load Stall End: 2
Max ROB occupancy Load Stall End: 352
Average ROB occupancy Critical Load Stall Begin: 67.9468
Average ROB occupancy Critical Load Stall End: 78.7645
Min ROB occupancy Critical Load Stall Begin: 2
Max ROB occupancy Critical Load Stall Begin: 352
Min ROB occupancy Critical Load Stall End: 2
Max ROB occupancy Critical Load Stall End: 352
 ROB Load Stall Begin Bucket Count 0: 2413435
 ROB Load Stall End Bucket Count 0: 2223581
 ROB Critical Load Stall Begin Bucket Count 0: 1583100
 ROB Critical Load Stall End Bucket Count 0: 1438558
 ROB Load Stall Begin Bucket Count 1: 165603
 ROB Load Stall End Bucket Count 1: 305094
 ROB Critical Load Stall Begin Bucket Count 1: 133410
 ROB Critical Load Stall End Bucket Count 1: 239972
 ROB Load Stall Begin Bucket Count 2: 62444
 ROB Load Stall End Bucket Count 2: 53739
 ROB Critical Load Stall Begin Bucket Count 2: 37259
 ROB Critical Load Stall End Bucket Count 2: 35355
 ROB Load Stall Begin Bucket Count 3: 51884
 ROB Load Stall End Bucket Count 3: 55032
 ROB Critical Load Stall Begin Bucket Count 3: 33047
 ROB Critical Load Stall End Bucket Count 3: 34976
 ROB Load Stall Begin Bucket Count 4: 48547
 ROB Load Stall End Bucket Count 4: 48210
 ROB Critical Load Stall Begin Bucket Count 4: 31308
 ROB Critical Load Stall End Bucket Count 4: 31225
 ROB Load Stall Begin Bucket Count 5: 65475
 ROB Load Stall End Bucket Count 5: 57332
 ROB Critical Load Stall Begin Bucket Count 5: 41566
 ROB Critical Load Stall End Bucket Count 5: 36559
 ROB Load Stall Begin Bucket Count 6: 257265
 ROB Load Stall End Bucket Count 6: 321665
 ROB Critical Load Stall Begin Bucket Count 6: 180065
 ROB Critical Load Stall End Bucket Count 6: 223116
PIST Tag Read Accesses: 0
PIST Read Accesses: 0
PIST Tag Write Accesses: 0
PIST Write Accesses: 0
Criticality detector called times: 0
Max global_stall_cycles_count: 0
Threshold Modified: 0 times, factor: 0
Sturdy critical IP cache stats: 
 Unused entries: 0
CIC Tag Read Accesses: 0
CIC Read Accesses: 0
CIC Tag Write Accesses: 0
CIC Write Accesses: 0
Wobbly critical IP cache stats: 
 Unused entries: 0
CIC Tag Read Accesses: 372985916
CIC Read Accesses: 0
CIC Tag Write Accesses: 30990667
CIC Write Accesses: 0
ITLB TOTAL     ACCESS:   13480420  HIT:   13480420  MISS:          0  HIT %:        100  MISS %:          0   MPKI: 0
ITLB LOAD TRANSLATION ACCESS:   13480420  HIT:   13480420  MISS:          0  HIT %:        100  MISS %:          0   MPKI: 0
ITLB PREFETCH  REQUESTED:          0  ISSUED:          0  USEFUL:          0  USELESS:          0
ITLB USEFUL LOAD PREFETCHES:          0 PREFETCH ISSUED TO LOWER LEVEL:          0  ACCURACY: -nan
ITLB TIMELY PREFETCHES:          0 LATE PREFETCHES: 0 DROPPED PREFETCHES: 0
ITLB PREFETCHES SAME FILL-ORIGIN LEVEL: 0 DIFFERENT FILL-ORIGIN LEVEL: 0
ITLB AVERAGE MISS LATENCY: -nan cycles
ITLB RQ	ACCESS:   17363976	FORWARD:          0	MERGED:    3883556	TO_CACHE:   13480420

DTLB TOTAL     ACCESS:   17838336  HIT:   17700504  MISS:     137832  HIT %:    99.2273  MISS %:   0.772673   MPKI: 1.37832
DTLB LOAD TRANSLATION ACCESS:   17838336  HIT:   17700504  MISS:     137832  HIT %:    99.2273  MISS %:   0.772673   MPKI: 1.37832
DTLB PREFETCH  REQUESTED:          0  ISSUED:          0  USEFUL:          0  USELESS:          0
DTLB USEFUL LOAD PREFETCHES:          0 PREFETCH ISSUED TO LOWER LEVEL:          0  ACCURACY: -nan
DTLB TIMELY PREFETCHES:          0 LATE PREFETCHES: 0 DROPPED PREFETCHES: 0
DTLB PREFETCHES SAME FILL-ORIGIN LEVEL: 0 DIFFERENT FILL-ORIGIN LEVEL: 0
DTLB AVERAGE MISS LATENCY: 119.727 cycles
DTLB RQ	ACCESS:   24993021	FORWARD:          0	MERGED:    7097089	TO_CACHE:   17895932

STLB TOTAL     ACCESS:     647415  HIT:     572627  MISS:      74788  HIT %:    88.4482  MISS %:    11.5518   MPKI: 0.74788
STLB LOAD TRANSLATION ACCESS:     137832  HIT:      63044  MISS:      74788  HIT %:    45.7397  MISS %:    54.2603   MPKI: 0.74788
STLB TRANSLATION FROM L1D PREFETCHER ACCESS:     509583  HIT:     509583  MISS:          0  HIT %:        100  MISS %:          0   MPKI: 0
STLB PREFETCH  REQUESTED:          0  ISSUED:          0  USEFUL:          0  USELESS:          0
STLB USEFUL LOAD PREFETCHES:          0 PREFETCH ISSUED TO LOWER LEVEL:          0  ACCURACY: -nan
STLB TIMELY PREFETCHES:          0 LATE PREFETCHES: 0 DROPPED PREFETCHES: 0
STLB PREFETCHES SAME FILL-ORIGIN LEVEL: 0 DIFFERENT FILL-ORIGIN LEVEL: 0
STLB AVERAGE MISS LATENCY: 202.39 cycles
STLB RQ	ACCESS:    1243176	FORWARD:          0	MERGED:     595761	TO_CACHE:     647415

STLB Hit, L1D data hit: 0
STLB Hit, L2C data hit: 0
STLB Hit, LLC data hit: 0
STLB Hit, LLC data miss: 0
STLB STLB hints to L2: 0
L1D TOTAL     ACCESS:   25510259  HIT:   17614671  MISS:    7895588  HIT %:    69.0494  MISS %:    30.9506   MPKI: 78.9559
L1D LOAD      ACCESS:    8505631  HIT:    7941992  MISS:     563639  HIT %:    93.3733  MISS %:    6.62666   MPKI: 5.63639
L1D RFO       ACCESS:   16263134  HIT:    9563920  MISS:    6699214  HIT %:    58.8074  MISS %:    41.1926   MPKI: 66.9921
L1D PREFETCH  ACCESS:     741494  HIT:     108759  MISS:     632735  HIT %:    14.6675  MISS %:    85.3325   MPKI: 6.32735
L1D PREFETCH  REQUESTED:    2217178  ISSUED:    2210689  USEFUL:     632738  USELESS:          0
L1D USEFUL LOAD PREFETCHES:     632738 PREFETCH ISSUED TO LOWER LEVEL:     736631  ACCURACY: 85.8962
L1D TIMELY PREFETCHES:     632738 LATE PREFETCHES: 103861 DROPPED PREFETCHES: 0
L1D PREFETCHES SAME FILL-ORIGIN LEVEL: 736631 DIFFERENT FILL-ORIGIN LEVEL: 0
L1D AVERAGE MISS LATENCY: 1.59421e+06 cycles
L1D RQ	ACCESS:   24899242	FORWARD:          0	MERGED:   12025552	TO_CACHE:    8618242
L1D WQ	ACCESS:   18463455	FORWARD:    4255448	MERGED:    2088676	TO_CACHE:   16374779
L1D PQ	ACCESS:    1105345	FORWARD:          0	MERGED:          1	TO_CACHE:    1105344

L1D UNIQUE REGIONS ACCESSED: 0
L1D REGIONS CONFLICTS: 0
L1D Cross Page Prefetch Requests: 0
L1D Same Page Prefetch Requests: 1638742
L1D ROI Sum of L1D PQ occupancy: 788303725
L1D PREFETCHES PUSHED FROM L2C: 0
L1I TOTAL     ACCESS:   17363975  HIT:   17363975  MISS:          0  HIT %:        100  MISS %:          0   MPKI: 0
L1I LOAD      ACCESS:   17363975  HIT:   17363975  MISS:          0  HIT %:        100  MISS %:          0   MPKI: 0
L1I PREFETCH  REQUESTED:          0  ISSUED:          0  USEFUL:          0  USELESS:          0
L1I USEFUL LOAD PREFETCHES:          0 PREFETCH ISSUED TO LOWER LEVEL:          0  ACCURACY: -nan
L1I TIMELY PREFETCHES:          0 LATE PREFETCHES: 0 DROPPED PREFETCHES: 0
L1I PREFETCHES SAME FILL-ORIGIN LEVEL: 0 DIFFERENT FILL-ORIGIN LEVEL: 0
L1I AVERAGE MISS LATENCY: -nan cycles
L1I RQ	ACCESS:   25149231	FORWARD:          0	MERGED:    7785255	TO_CACHE:   17363976

BTB TOTAL     ACCESS:    1803004  HIT:    1802998  MISS:          6  HIT %:    99.9997  MISS %: 0.000332778   MPKI: 6e-05
BTB BRANCH_DIRECT_JUMP	ACCESS:     294732  HIT:     294731  MISS:          1
BTB BRANCH_INDIRECT	ACCESS:          0  HIT:          0  MISS:          0
BTB BRANCH_CONDITIONAL	ACCESS:    1508272  HIT:    1508267  MISS:          5
BTB BRANCH_DIRECT_CALL	ACCESS:          0  HIT:          0  MISS:          0
BTB BRANCH_INDIRECT_CALL	ACCESS:          0  HIT:          0  MISS:          0
BTB BRANCH_RETURN	ACCESS:          0  HIT:          0  MISS:          0
BTB BRANCH_OTHER ACCESS:          0  HIT:          0  MISS:          0

L2C TOTAL     ACCESS:   15644621  HIT:   10392047  MISS:    5252574  HIT %:    66.4257  MISS %:    33.5743   MPKI: 52.5257
L2C LOAD      ACCESS:     459778  HIT:     202494  MISS:     257284  HIT %:    44.0417  MISS %:    55.9583   MPKI: 2.57284
L2C DATA LOAD MPKI: 2.57284
L2C INSTRUCTION LOAD MPKI: 0
L2C RFO       ACCESS:    6699211  HIT:    3030614  MISS:    3668597  HIT %:    45.2384  MISS %:    54.7616   MPKI: 36.686
L2C PREFETCH  ACCESS:    1711619  HIT:     772223  MISS:     939396  HIT %:    45.1165  MISS %:    54.8835   MPKI: 9.39396
L2C DATA PREFETCH MPKI: 9.39396
L2C INSTRUCTION PREFETCH MPKI: 0
L2C WRITEBACK ACCESS:    6699221  HIT:    6321691  MISS:     377530  HIT %:    94.3646  MISS %:    5.63543   MPKI: 3.7753
L2C LOAD TRANSLATION ACCESS:      74792  HIT:      65025  MISS:       9767  HIT %:    86.9411  MISS %:    13.0589   MPKI: 0.09767
L2C PREFETCH  REQUESTED:    2016061  ISSUED:    2016060  USEFUL:     202484  USELESS:     737779
L2C USEFUL LOAD PREFETCHES:     202484 PREFETCH ISSUED TO LOWER LEVEL:    1005308  ACCURACY: 20.1415
L2C TIMELY PREFETCHES:     202484 LATE PREFETCHES: 65905 DROPPED PREFETCHES: 0
L2C PREFETCHES SAME FILL-ORIGIN LEVEL: 786543 DIFFERENT FILL-ORIGIN LEVEL: 0
L2C AVERAGE MISS LATENCY: 615.556 cycles
L2C RQ	ACCESS:    7233797	FORWARD:          0	MERGED:          0	TO_CACHE:    7233795
L2C WQ	ACCESS:    6699221	FORWARD:          2	MERGED:          0	TO_CACHE:    6699221
L2C PQ	ACCESS:    2752658	FORWARD:          0	MERGED:     490317	TO_CACHE:    2262341

L2C Instructions Evicting Data 0
L2C Translations Evicting Data 9744
L2C Data Evicting Data 4856172
L2C Instructions Evicting Instructions 0
L2C Translations Evicting Instructions 0
L2C Data Evicting Instructions 0
L2C Instructions Evicting Translations 0
L2C Translations Evicting Translations 23
L2C Data Evicting Translations 9105
L2C Dense regions hint from L2: 0
PSCL5 TOTAL     ACCESS:      74788  HIT:      74788  MISS:          0  HIT %:        100  MISS %:          0   MPKI: 0
PSCL5 LOAD TRANSLATION ACCESS:      74788  HIT:      74788  MISS:          0  HIT %:        100  MISS %:          0   MPKI: 0
PSCL5 PREFETCH  REQUESTED:          0  ISSUED:          0  USEFUL:          0  USELESS:          0
PSCL5 USEFUL LOAD PREFETCHES:          0 PREFETCH ISSUED TO LOWER LEVEL:          0  ACCURACY: -nan
PSCL5 TIMELY PREFETCHES:          0 LATE PREFETCHES: 0 DROPPED PREFETCHES: 0
PSCL5 PREFETCHES SAME FILL-ORIGIN LEVEL: 0 DIFFERENT FILL-ORIGIN LEVEL: 0

PSCL4 TOTAL     ACCESS:      74788  HIT:      74788  MISS:          0  HIT %:        100  MISS %:          0   MPKI: 0
PSCL4 LOAD TRANSLATION ACCESS:      74788  HIT:      74788  MISS:          0  HIT %:        100  MISS %:          0   MPKI: 0
PSCL4 PREFETCH  REQUESTED:          0  ISSUED:          0  USEFUL:          0  USELESS:          0
PSCL4 USEFUL LOAD PREFETCHES:          0 PREFETCH ISSUED TO LOWER LEVEL:          0  ACCURACY: -nan
PSCL4 TIMELY PREFETCHES:          0 LATE PREFETCHES: 0 DROPPED PREFETCHES: 0
PSCL4 PREFETCHES SAME FILL-ORIGIN LEVEL: 0 DIFFERENT FILL-ORIGIN LEVEL: 0

PSCL3 TOTAL     ACCESS:      74788  HIT:      74788  MISS:          0  HIT %:        100  MISS %:          0   MPKI: 0
PSCL3 LOAD TRANSLATION ACCESS:      74788  HIT:      74788  MISS:          0  HIT %:        100  MISS %:          0   MPKI: 0
PSCL3 PREFETCH  REQUESTED:          0  ISSUED:          0  USEFUL:          0  USELESS:          0
PSCL3 USEFUL LOAD PREFETCHES:          0 PREFETCH ISSUED TO LOWER LEVEL:          0  ACCURACY: -nan
PSCL3 TIMELY PREFETCHES:          0 LATE PREFETCHES: 0 DROPPED PREFETCHES: 0
PSCL3 PREFETCHES SAME FILL-ORIGIN LEVEL: 0 DIFFERENT FILL-ORIGIN LEVEL: 0

PSCL2 TOTAL     ACCESS:      74788  HIT:      74710  MISS:         78  HIT %:    99.8957  MISS %:   0.104295   MPKI: 0.00078
PSCL2 LOAD TRANSLATION ACCESS:      74788  HIT:      74710  MISS:         78  HIT %:    99.8957  MISS %:   0.104295   MPKI: 0.00078
PSCL2 PREFETCH  REQUESTED:          0  ISSUED:          0  USEFUL:          0  USELESS:          0
PSCL2 USEFUL LOAD PREFETCHES:          0 PREFETCH ISSUED TO LOWER LEVEL:          0  ACCURACY: -nan
PSCL2 TIMELY PREFETCHES:          0 LATE PREFETCHES: 0 DROPPED PREFETCHES: 0
PSCL2 PREFETCHES SAME FILL-ORIGIN LEVEL: 0 DIFFERENT FILL-ORIGIN LEVEL: 0

LLC TOTAL     ACCESS:    8551613  HIT:    3404845  MISS:    5146768  HIT %:    39.8152  MISS %:    60.1848   MPKI: 51.4677
LLC LOAD      ACCESS:     191379  HIT:         74  MISS:     191305  HIT %:  0.0386667  MISS %:    99.9613   MPKI: 1.91305
LLC RFO       ACCESS:    3668553  HIT:      79847  MISS:    3588706  HIT %:    2.17653  MISS %:    97.8235   MPKI: 35.8871
LLC PREFETCH  ACCESS:    1005301  HIT:        254  MISS:    1005047  HIT %:  0.0252661  MISS %:    99.9747   MPKI: 10.0505
LLC WRITEBACK ACCESS:    3676613  HIT:    3324369  MISS:     352244  HIT %:    90.4193  MISS %:    9.58067   MPKI: 3.52244
LLC LOAD TRANSLATION ACCESS:       9767  HIT:        301  MISS:       9466  HIT %:    3.08181  MISS %:    96.9182   MPKI: 0.09466
LLC PREFETCH  REQUESTED:          0  ISSUED:          0  USEFUL:         44  USELESS:    1012164
LLC USEFUL LOAD PREFETCHES:         44 PREFETCH ISSUED TO LOWER LEVEL:    1005054  ACCURACY: 0.00437787
LLC TIMELY PREFETCHES:         44 LATE PREFETCHES: 0 DROPPED PREFETCHES: 0
LLC PREFETCHES SAME FILL-ORIGIN LEVEL: 0 DIFFERENT FILL-ORIGIN LEVEL: 0
LLC AVERAGE MISS LATENCY: 606.076 cycles
LLC RQ	ACCESS:    3869757	FORWARD:          0	MERGED:          0	TO_CACHE:    3869713
LLC WQ	ACCESS:    3676613	FORWARD:         44	MERGED:          0	TO_CACHE:    3676613
LLC PQ	ACCESS:    1005308	FORWARD:          0	MERGED:          0	TO_CACHE:    1005308

LLC Dense regions hint to LLC: 0

RAW hits: 1209514
Loads Generated: 26108757
Loads sent to L1D: 24899242
Stores Generated: 18463447
Stores sent to L1D: 18463455
Major fault: 0 Minor fault: 59092
Allocated PAGES: 59092

stream: 
stream:times selected: 1838963
stream:pref_filled: 685871
stream:pref_useful: 685868
stream:pref_late: 122945
stream:misses: 27720
stream:misses_by_poll: 0

CS: 
CS:times selected: 107969
CS:pref_filled: 77935
CS:pref_useful: 77935
CS:pref_late: 2969
CS:misses: 23283
CS:misses_by_poll: 537

CPLX: 
CPLX:times selected: 1728589
CPLX:pref_filled: 277674
CPLX:pref_useful: 277671
CPLX:pref_late: 19518
CPLX:misses: 242503
CPLX:misses_by_poll: 3834

NL_L1: 
NL:times selected: 1465
NL:pref_filled: 82
NL:pref_useful: 82
NL:pref_late: 42
NL:misses: 237
NL:misses_by_poll: 0

total selections: 3676986
total_filled: 632735
total_useful: 632738
total_late: 150844
total_polluted: 4371
total_misses_after_warmup: 242627
conflicts: 40603
Degree Incremented Times: 74398
Degree Decremented Times: 0

L1 IP Table Write Accesses: 2215086
L1 IP Table Read Accesses: 2174483
L1 RST Write Accesses: 1126751
L1 RST Read Accesses: 2253502
L1 CSPT Write Accesses: 1126751
L1 CSPT Read Accesses: 3989340
L1 RR Filter Tag Write Accesses: 1111834
L1 RR Filter Tag Read Accesses: 242676477
L1 IP Table Tag Write Accesses: 2460712
L1 IP Table Tag Read Accesses: 2460712
L1 RST Tag Write Accesses: 0
L1 RST Tag Read Accesses: 10161932
L1 RR Filter Write Accesses: 0
L1 RR Filter Read Accesses: 8737371
test: 293131
L2 IP Table Read Accesses: 1347546
L2 IP Table Write Accesses: 1163595
L2 IP Table Tag Read Accesses: 673807
L2 IP Table Tag Write Accesses: 673807

DRAM Statistics
 CHANNEL 0
 RQ ROW_BUFFER_HIT:     403817  ROW_BUFFER_MISS:    4390707
 DBUS_CONGESTED:          0
 WQ ROW_BUFFER_HIT:     544112  ROW_BUFFER_MISS:    3031159  FULL:       1269

 AVG_CONGESTED_CYCLE: -
 All warmup complete: 2
Channel 0 Bank busy for read cycles: 0
Channel 0 Bank busy for write cycles: 0
Channel 0
Rank 0
0banks busy for read cycles: 17523
0banks busy for write cycles: 0
1banks busy for read cycles: 1630041
1banks busy for write cycles: 348391
2banks busy for read cycles: 1701756
2banks busy for write cycles: 348389
3banks busy for read cycles: 2758170
3banks busy for write cycles: 348384
4banks busy for read cycles: 6194777
4banks busy for write cycles: 348380
5banks busy for read cycles: 14404009
5banks busy for write cycles: 348517
6banks busy for read cycles: 22113885
6banks busy for write cycles: 364186
7banks busy for read cycles: 32946467
7banks busy for write cycles: 4316229
8banks busy for read cycles: 38797872
8banks busy for write cycles: 78695840

CPU 0 Branch Prediction Accuracy: 97.1108% MPKI: 0.52092 Average ROB Occupancy at Mispredict: 176.533
Branch types
NOT_BRANCH: 98196649 98.1966%
BRANCH_DIRECT_JUMP: 294732 0.294732%
BRANCH_INDIRECT: 0 0%
BRANCH_CONDITIONAL: 1508284 1.50828%
BRANCH_DIRECT_CALL: 0 0%
BRANCH_INDIRECT_CALL: 0 0%
BRANCH_RETURN: 0 0%
BRANCH_OTHER: 0 0%

DRAM PAGES: 1048576
Allocated PAGES: 59092
