
*** ChampSim Multicore Out-of-Order Simulator ***

Warmup Instructions: 50000000
Simulation Instructions: 100000000
Number of CPUs: 1
LLC sets: 2048
LLC ways: 16
Off-chip DRAM Size: 4096 MB Channels: 1 Width: 64-bit Data Rate: 6400 MT/s
CPU 0 runs ../SPEC2017//619.lbm_s-4268B.champsimtrace.xz
.xz
BTB has LRU replacement policy
ITLB has LRU replacement policy
DTLB has LRU replacement policy
STLB has LRU replacement policy
L1I has LRU replacement policy
L1D has LRU replacement policy
Bingo PHT WAYS: 16 and PHT_SIZE: 16384
Initialize SRRIP state for L2C
Initialize DRRIP state for LLC
Heartbeat CPU 0 instructions: 10000000 cycles: 2912679 heartbeat IPC: 3.43327 cumulative IPC: 3.43327 (Simulation time: 0 hr 7 min 17 sec) 
Heartbeat CPU 0 instructions: 20000001 cycles: 5823445 heartbeat IPC: 3.43552 cumulative IPC: 3.43439 (Simulation time: 0 hr 14 min 56 sec) 
Heartbeat CPU 0 instructions: 30000000 cycles: 8730291 heartbeat IPC: 3.44015 cumulative IPC: 3.43631 (Simulation time: 0 hr 22 min 43 sec) 
Heartbeat CPU 0 instructions: 40000000 cycles: 11643767 heartbeat IPC: 3.43233 cumulative IPC: 3.43531 (Simulation time: 0 hr 29 min 26 sec) 
Heartbeat CPU 0 instructions: 50000002 cycles: 14558295 heartbeat IPC: 3.43109 cumulative IPC: 3.43447 (Simulation time: 0 hr 35 min 28 sec) 

Warmup complete CPU 0 instructions: 50000002 cycles: 14558295 (Simulation time: 0 hr 35 min 28 sec) 

Heartbeat CPU 0 instructions: 60000001 cycles: 37961873 heartbeat IPC: 0.427285 cumulative IPC: 0.427285 (Simulation time: 0 hr 46 min 17 sec) 
Heartbeat CPU 0 instructions: 70000000 cycles: 59690307 heartbeat IPC: 0.460226 cumulative IPC: 0.443144 (Simulation time: 0 hr 55 min 28 sec) 
Heartbeat CPU 0 instructions: 80000000 cycles: 80749286 heartbeat IPC: 0.474857 cumulative IPC: 0.453234 (Simulation time: 1 hr 4 min 19 sec) 
Heartbeat CPU 0 instructions: 90000000 cycles: 101892273 heartbeat IPC: 0.47297 cumulative IPC: 0.458012 (Simulation time: 1 hr 12 min 4 sec) 
Heartbeat CPU 0 instructions: 100000001 cycles: 123382102 heartbeat IPC: 0.465336 cumulative IPC: 0.459458 (Simulation time: 1 hr 18 min 25 sec) 
Heartbeat CPU 0 instructions: 110000000 cycles: 145270377 heartbeat IPC: 0.456866 cumulative IPC: 0.459024 (Simulation time: 1 hr 24 min 38 sec) 
Heartbeat CPU 0 instructions: 120000001 cycles: 167739914 heartbeat IPC: 0.445047 cumulative IPC: 0.456974 (Simulation time: 1 hr 29 min 18 sec) 
Heartbeat CPU 0 instructions: 130000002 cycles: 188355840 heartbeat IPC: 0.485062 cumulative IPC: 0.460306 (Simulation time: 1 hr 36 min 4 sec) 
Heartbeat CPU 0 instructions: 140000003 cycles: 210315754 heartbeat IPC: 0.455375 cumulative IPC: 0.459753 (Simulation time: 1 hr 44 min 3 sec) 
Heartbeat CPU 0 instructions: 150000000 cycles: 233034989 heartbeat IPC: 0.440156 cumulative IPC: 0.457715 (Simulation time: 1 hr 50 min 31 sec) 
Finished CPU 0 instructions: 100000002 cycles: 218476695 cumulative IPC: 0.457715 (Simulation time: 1 hr 50 min 31 sec) 

ChampSim completed all CPUs

Region of Interest Statistics

CPU 0 cumulative IPC: 0.457715 instructions: 100000002 cycles: 218476695

CPU 0 Average Load ROB stall cycles: 3.12775e+07
CPU 0 Fraction of times ROB stalled by Loads: 25.2422
CPU 0 Percentage of Load stall cycles in Total stall cycles: 1.56629e+08
Issued all: 132022445
Issued LT all: 119584366
rob_not_full_when_issued_lt_all: 33980961
Issued LT one: 110575426
rob_not_full_when_issued_lt_one: 28054985
 Total stall cycles: 193028963
 Total load stall cycles: 302338788779176
Unique Load IPs: 128
CPU 0 NUM of IPS identified critical: 52
CPU 0 Num of Load IPs stalling ROB: 0
Threshold modification factor: 0
Trouble in retire width: -nan
MaC = Marked as critical.
lt_50_percent_before_Mac: 34
gt_90_percent_before_Mac: 0
gt_75_percent_before_Mac: 4
gt_50_percent_before_Mac: 13
stall_proportion_bin_same_before_after: 0
stall_proportion_bin_lower_before_after: 0
stall_proportion_bin_upper_before_after: 0
average_stall_proportion_before: 0.026291
average_stall_proportion_after: 0.0307804
Critical_IP_Detector_Accuracy_70: 0.0192308
Critical_IP_Detector_Accuracy_80: 0.0192308
Critical_IP_Detector_Accuracy_90: 0.0192308
Critical_IP_Detector_Coverage_70: 1
Critical_IP_Detector_Coverage_80: 1
Critical_IP_Detector_Coverage_90: 1
stat_90_percent_critical_ip_stalls_freq: 222101
stat_90_percent_non_critical_ip_stalls_freq: 18446744073709329515
AVERAGE_ROB_Occupancy_90_Percent_Critical_IP_Stalls: 195.12
AVERAGE_ROB_Occupancy_90_Percent_Non_Critical_IP_Stalls: 1.74401e-11
Critical_IP_ROB_Stalls_Bucket_0: 371962
Non-critical_IP_ROB_Stalls_Bucket_0: 709955
Critical_IP_ROB_Stalls_Bucket_1: 163762
Non-critical_IP_ROB_Stalls_Bucket_1: 78403
Critical_IP_ROB_Stalls_Bucket_2: 85986
Non-critical_IP_ROB_Stalls_Bucket_2: 46578
Critical_IP_ROB_Stalls_Bucket_3: 50031
Non-critical_IP_ROB_Stalls_Bucket_3: 72735
Critical_IP_ROB_Stalls_Bucket_4: 46078
Non-critical_IP_ROB_Stalls_Bucket_4: 40097
Critical_IP_ROB_Stalls_Bucket_5: 44968
Non-critical_IP_ROB_Stalls_Bucket_5: 54648
Critical_IP_ROB_Stalls_Bucket_6: 479073
Non-critical_IP_ROB_Stalls_Bucket_6: 195724
0 => IPs accounting for >50 percent of stalls, 1 => 55, 2 => 60, 3 => 65 and so on till 90.
percent50: inf num IPs:  1
percent55: inf num IPs: 1
percent60: inf num IPs: 1
percent65: inf num IPs: 1
percent70: inf num IPs: 1
percent75: inf num IPs: 1
percent80: inf num IPs: 1
percent85: inf num IPs: 1
percent90: inf num IPs: 1
Critical_ROB_Stalls_Percent_0_Bucket_0: 60453
Non-critical_ROB_Stalls_Percent_0_Bucket_0: 1021464
Critical_ROB_Stalls_Percent_0_Bucket_1: 18926
Non-critical_ROB_Stalls_Percent_0_Bucket_1: 223239
Critical_ROB_Stalls_Percent_0_Bucket_2: 26739
Non-critical_ROB_Stalls_Percent_0_Bucket_2: 105825
Critical_ROB_Stalls_Percent_0_Bucket_3: 12632
Non-critical_ROB_Stalls_Percent_0_Bucket_3: 110134
Critical_ROB_Stalls_Percent_0_Bucket_4: 10057
Non-critical_ROB_Stalls_Percent_0_Bucket_4: 76118
Critical_ROB_Stalls_Percent_0_Bucket_5: 11921
Non-critical_ROB_Stalls_Percent_0_Bucket_5: 87695
Critical_ROB_Stalls_Percent_0_Bucket_6: 81373
Non-critical_ROB_Stalls_Percent_0_Bucket_6: 593424
Critical_ROB_Stalls_Percent_1_Bucket_0: 60453
Non-critical_ROB_Stalls_Percent_1_Bucket_0: 1021464
Critical_ROB_Stalls_Percent_1_Bucket_1: 18926
Non-critical_ROB_Stalls_Percent_1_Bucket_1: 223239
Critical_ROB_Stalls_Percent_1_Bucket_2: 26739
Non-critical_ROB_Stalls_Percent_1_Bucket_2: 105825
Critical_ROB_Stalls_Percent_1_Bucket_3: 12632
Non-critical_ROB_Stalls_Percent_1_Bucket_3: 110134
Critical_ROB_Stalls_Percent_1_Bucket_4: 10057
Non-critical_ROB_Stalls_Percent_1_Bucket_4: 76118
Critical_ROB_Stalls_Percent_1_Bucket_5: 11921
Non-critical_ROB_Stalls_Percent_1_Bucket_5: 87695
Critical_ROB_Stalls_Percent_1_Bucket_6: 81373
Non-critical_ROB_Stalls_Percent_1_Bucket_6: 593424
Critical_ROB_Stalls_Percent_2_Bucket_0: 60453
Non-critical_ROB_Stalls_Percent_2_Bucket_0: 1021464
Critical_ROB_Stalls_Percent_2_Bucket_1: 18926
Non-critical_ROB_Stalls_Percent_2_Bucket_1: 223239
Critical_ROB_Stalls_Percent_2_Bucket_2: 26739
Non-critical_ROB_Stalls_Percent_2_Bucket_2: 105825
Critical_ROB_Stalls_Percent_2_Bucket_3: 12632
Non-critical_ROB_Stalls_Percent_2_Bucket_3: 110134
Critical_ROB_Stalls_Percent_2_Bucket_4: 10057
Non-critical_ROB_Stalls_Percent_2_Bucket_4: 76118
Critical_ROB_Stalls_Percent_2_Bucket_5: 11921
Non-critical_ROB_Stalls_Percent_2_Bucket_5: 87695
Critical_ROB_Stalls_Percent_2_Bucket_6: 81373
Non-critical_ROB_Stalls_Percent_2_Bucket_6: 593424
Critical_ROB_Stalls_Percent_3_Bucket_0: 60453
Non-critical_ROB_Stalls_Percent_3_Bucket_0: 1021464
Critical_ROB_Stalls_Percent_3_Bucket_1: 18926
Non-critical_ROB_Stalls_Percent_3_Bucket_1: 223239
Critical_ROB_Stalls_Percent_3_Bucket_2: 26739
Non-critical_ROB_Stalls_Percent_3_Bucket_2: 105825
Critical_ROB_Stalls_Percent_3_Bucket_3: 12632
Non-critical_ROB_Stalls_Percent_3_Bucket_3: 110134
Critical_ROB_Stalls_Percent_3_Bucket_4: 10057
Non-critical_ROB_Stalls_Percent_3_Bucket_4: 76118
Critical_ROB_Stalls_Percent_3_Bucket_5: 11921
Non-critical_ROB_Stalls_Percent_3_Bucket_5: 87695
Critical_ROB_Stalls_Percent_3_Bucket_6: 81373
Non-critical_ROB_Stalls_Percent_3_Bucket_6: 593424
Critical_ROB_Stalls_Percent_4_Bucket_0: 60453
Non-critical_ROB_Stalls_Percent_4_Bucket_0: 1021464
Critical_ROB_Stalls_Percent_4_Bucket_1: 18926
Non-critical_ROB_Stalls_Percent_4_Bucket_1: 223239
Critical_ROB_Stalls_Percent_4_Bucket_2: 26739
Non-critical_ROB_Stalls_Percent_4_Bucket_2: 105825
Critical_ROB_Stalls_Percent_4_Bucket_3: 12632
Non-critical_ROB_Stalls_Percent_4_Bucket_3: 110134
Critical_ROB_Stalls_Percent_4_Bucket_4: 10057
Non-critical_ROB_Stalls_Percent_4_Bucket_4: 76118
Critical_ROB_Stalls_Percent_4_Bucket_5: 11921
Non-critical_ROB_Stalls_Percent_4_Bucket_5: 87695
Critical_ROB_Stalls_Percent_4_Bucket_6: 81373
Non-critical_ROB_Stalls_Percent_4_Bucket_6: 593424
Critical_ROB_Stalls_Percent_5_Bucket_0: 60453
Non-critical_ROB_Stalls_Percent_5_Bucket_0: 1021464
Critical_ROB_Stalls_Percent_5_Bucket_1: 18926
Non-critical_ROB_Stalls_Percent_5_Bucket_1: 223239
Critical_ROB_Stalls_Percent_5_Bucket_2: 26739
Non-critical_ROB_Stalls_Percent_5_Bucket_2: 105825
Critical_ROB_Stalls_Percent_5_Bucket_3: 12632
Non-critical_ROB_Stalls_Percent_5_Bucket_3: 110134
Critical_ROB_Stalls_Percent_5_Bucket_4: 10057
Non-critical_ROB_Stalls_Percent_5_Bucket_4: 76118
Critical_ROB_Stalls_Percent_5_Bucket_5: 11921
Non-critical_ROB_Stalls_Percent_5_Bucket_5: 87695
Critical_ROB_Stalls_Percent_5_Bucket_6: 81373
Non-critical_ROB_Stalls_Percent_5_Bucket_6: 593424
Critical_ROB_Stalls_Percent_6_Bucket_0: 60453
Non-critical_ROB_Stalls_Percent_6_Bucket_0: 1021464
Critical_ROB_Stalls_Percent_6_Bucket_1: 18926
Non-critical_ROB_Stalls_Percent_6_Bucket_1: 223239
Critical_ROB_Stalls_Percent_6_Bucket_2: 26739
Non-critical_ROB_Stalls_Percent_6_Bucket_2: 105825
Critical_ROB_Stalls_Percent_6_Bucket_3: 12632
Non-critical_ROB_Stalls_Percent_6_Bucket_3: 110134
Critical_ROB_Stalls_Percent_6_Bucket_4: 10057
Non-critical_ROB_Stalls_Percent_6_Bucket_4: 76118
Critical_ROB_Stalls_Percent_6_Bucket_5: 11921
Non-critical_ROB_Stalls_Percent_6_Bucket_5: 87695
Critical_ROB_Stalls_Percent_6_Bucket_6: 81373
Non-critical_ROB_Stalls_Percent_6_Bucket_6: 593424
Critical_ROB_Stalls_Percent_7_Bucket_0: 60453
Non-critical_ROB_Stalls_Percent_7_Bucket_0: 1021464
Critical_ROB_Stalls_Percent_7_Bucket_1: 18926
Non-critical_ROB_Stalls_Percent_7_Bucket_1: 223239
Critical_ROB_Stalls_Percent_7_Bucket_2: 26739
Non-critical_ROB_Stalls_Percent_7_Bucket_2: 105825
Critical_ROB_Stalls_Percent_7_Bucket_3: 12632
Non-critical_ROB_Stalls_Percent_7_Bucket_3: 110134
Critical_ROB_Stalls_Percent_7_Bucket_4: 10057
Non-critical_ROB_Stalls_Percent_7_Bucket_4: 76118
Critical_ROB_Stalls_Percent_7_Bucket_5: 11921
Non-critical_ROB_Stalls_Percent_7_Bucket_5: 87695
Critical_ROB_Stalls_Percent_7_Bucket_6: 81373
Non-critical_ROB_Stalls_Percent_7_Bucket_6: 593424
Critical_ROB_Stalls_Percent_8_Bucket_0: 60453
Non-critical_ROB_Stalls_Percent_8_Bucket_0: 1021464
Critical_ROB_Stalls_Percent_8_Bucket_1: 18926
Non-critical_ROB_Stalls_Percent_8_Bucket_1: 223239
Critical_ROB_Stalls_Percent_8_Bucket_2: 26739
Non-critical_ROB_Stalls_Percent_8_Bucket_2: 105825
Critical_ROB_Stalls_Percent_8_Bucket_3: 12632
Non-critical_ROB_Stalls_Percent_8_Bucket_3: 110134
Critical_ROB_Stalls_Percent_8_Bucket_4: 10057
Non-critical_ROB_Stalls_Percent_8_Bucket_4: 76118
Critical_ROB_Stalls_Percent_8_Bucket_5: 11921
Non-critical_ROB_Stalls_Percent_8_Bucket_5: 87695
Critical_ROB_Stalls_Percent_8_Bucket_6: 81373
Non-critical_ROB_Stalls_Percent_8_Bucket_6: 593424
Average ROB occupancy Load Stall Begin: 127.697
Average ROB occupancy Load Stall End: 149.611
Min ROB occupancy Load Stall Begin: 2
Max ROB occupancy Load Stall Begin: 352
Min ROB occupancy Load Stall End: 2
Max ROB occupancy Load Stall End: 352
Average ROB occupancy Critical Load Stall Begin: 159.181
Average ROB occupancy Critical Load Stall End: 188.943
Min ROB occupancy Critical Load Stall Begin: 2
Max ROB occupancy Critical Load Stall Begin: 352
Min ROB occupancy Critical Load Stall End: 2
Max ROB occupancy Critical Load Stall End: 352
 ROB Load Stall Begin Bucket Count 0: 1244149
 ROB Load Stall End Bucket Count 0: 1081917
 ROB Critical Load Stall Begin Bucket Count 0: 363800
 ROB Critical Load Stall End Bucket Count 0: 274134
 ROB Load Stall Begin Bucket Count 1: 191975
 ROB Load Stall End Bucket Count 1: 242165
 ROB Critical Load Stall Begin Bucket Count 1: 109910
 ROB Critical Load Stall End Bucket Count 1: 125008
 ROB Load Stall Begin Bucket Count 2: 176392
 ROB Load Stall End Bucket Count 2: 132564
 ROB Critical Load Stall Begin Bucket Count 2: 83423
 ROB Critical Load Stall End Bucket Count 2: 74703
 ROB Load Stall Begin Bucket Count 3: 113732
 ROB Load Stall End Bucket Count 3: 122766
 ROB Critical Load Stall Begin Bucket Count 3: 37989
 ROB Critical Load Stall End Bucket Count 3: 40506
 ROB Load Stall Begin Bucket Count 4: 80670
 ROB Load Stall End Bucket Count 4: 86175
 ROB Critical Load Stall Begin Bucket Count 4: 35236
 ROB Critical Load Stall End Bucket Count 4: 37861
 ROB Load Stall Begin Bucket Count 5: 117629
 ROB Load Stall End Bucket Count 5: 99616
 ROB Critical Load Stall Begin Bucket Count 5: 44990
 ROB Critical Load Stall End Bucket Count 5: 36468
 ROB Load Stall Begin Bucket Count 6: 515453
 ROB Load Stall End Bucket Count 6: 674797
 ROB Critical Load Stall Begin Bucket Count 6: 285697
 ROB Critical Load Stall End Bucket Count 6: 372368
PIST Tag Read Accesses: 0
PIST Read Accesses: 0
PIST Tag Write Accesses: 0
PIST Write Accesses: 0
Criticality detector called times: 0
Max global_stall_cycles_count: 0
Threshold Modified: 0 times, factor: 0
Sturdy critical IP cache stats: 
 Unused entries: 0
CIC Tag Read Accesses: 0
CIC Read Accesses: 0
CIC Tag Write Accesses: 0
CIC Write Accesses: 0
Wobbly critical IP cache stats: 
 Unused entries: 0
CIC Tag Read Accesses: 367205275
CIC Read Accesses: 0
CIC Tag Write Accesses: 22839884
CIC Write Accesses: 0
ITLB TOTAL     ACCESS:   13481589  HIT:   13481589  MISS:          0  HIT %:        100  MISS %:          0   MPKI: 0
ITLB LOAD TRANSLATION ACCESS:   13481589  HIT:   13481589  MISS:          0  HIT %:        100  MISS %:          0   MPKI: 0
ITLB PREFETCH  REQUESTED:          0  ISSUED:          0  USEFUL:          0  USELESS:          0
ITLB USEFUL LOAD PREFETCHES:          0 PREFETCH ISSUED TO LOWER LEVEL:          0  ACCURACY: -nan
ITLB TIMELY PREFETCHES:          0 LATE PREFETCHES: 0 DROPPED PREFETCHES: 0
ITLB PREFETCHES SAME FILL-ORIGIN LEVEL: 0 DIFFERENT FILL-ORIGIN LEVEL: 0
ITLB AVERAGE MISS LATENCY: -nan cycles
ITLB RQ	ACCESS:   17387848	FORWARD:          0	MERGED:    3906258	TO_CACHE:   13481590

DTLB TOTAL     ACCESS:   18375486  HIT:   18238412  MISS:     137074  HIT %:     99.254  MISS %:   0.745961   MPKI: 1.37074
DTLB LOAD TRANSLATION ACCESS:   18375486  HIT:   18238412  MISS:     137074  HIT %:     99.254  MISS %:   0.745961   MPKI: 1.37074
DTLB PREFETCH  REQUESTED:          0  ISSUED:          0  USEFUL:          0  USELESS:          0
DTLB USEFUL LOAD PREFETCHES:          0 PREFETCH ISSUED TO LOWER LEVEL:          0  ACCURACY: -nan
DTLB TIMELY PREFETCHES:          0 LATE PREFETCHES: 0 DROPPED PREFETCHES: 0
DTLB PREFETCHES SAME FILL-ORIGIN LEVEL: 0 DIFFERENT FILL-ORIGIN LEVEL: 0
DTLB AVERAGE MISS LATENCY: 101.413 cycles
DTLB RQ	ACCESS:   27493903	FORWARD:          0	MERGED:    9058009	TO_CACHE:   18435894

STLB TOTAL     ACCESS:     137074  HIT:      62696  MISS:      74378  HIT %:    45.7388  MISS %:    54.2612   MPKI: 0.74378
STLB LOAD TRANSLATION ACCESS:     137074  HIT:      62696  MISS:      74378  HIT %:    45.7388  MISS %:    54.2612   MPKI: 0.74378
STLB PREFETCH  REQUESTED:          0  ISSUED:          0  USEFUL:          0  USELESS:          0
STLB USEFUL LOAD PREFETCHES:          0 PREFETCH ISSUED TO LOWER LEVEL:          0  ACCURACY: -nan
STLB TIMELY PREFETCHES:          0 LATE PREFETCHES: 0 DROPPED PREFETCHES: 0
STLB PREFETCHES SAME FILL-ORIGIN LEVEL: 0 DIFFERENT FILL-ORIGIN LEVEL: 0
STLB AVERAGE MISS LATENCY: 168.96 cycles
STLB RQ	ACCESS:     137074	FORWARD:          0	MERGED:          0	TO_CACHE:     137074

STLB Hit, L1D data hit: 0
STLB Hit, L2C data hit: 0
STLB Hit, LLC data hit: 0
STLB Hit, LLC data miss: 0
STLB STLB hints to L2: 0
L1D TOTAL     ACCESS:   27212331  HIT:   19360070  MISS:    7852261  HIT %:    71.1445  MISS %:    28.8555   MPKI: 78.5226
L1D LOAD      ACCESS:    9095381  HIT:    7905480  MISS:    1189901  HIT %:    86.9175  MISS %:    13.0825   MPKI: 11.899
L1D RFO       ACCESS:   18116950  HIT:   11454590  MISS:    6662360  HIT %:    63.2258  MISS %:    36.7742   MPKI: 66.6236
L1D PREFETCH  REQUESTED:          0  ISSUED:          0  USEFUL:          0  USELESS:          0
L1D USEFUL LOAD PREFETCHES:          0 PREFETCH ISSUED TO LOWER LEVEL:          0  ACCURACY: -nan
L1D TIMELY PREFETCHES:          0 LATE PREFETCHES: 0 DROPPED PREFETCHES: 0
L1D PREFETCHES SAME FILL-ORIGIN LEVEL: 0 DIFFERENT FILL-ORIGIN LEVEL: 0
L1D AVERAGE MISS LATENCY: 315.275 cycles
L1D RQ	ACCESS:   24269567	FORWARD:          0	MERGED:   13856497	TO_CACHE:    9286152
L1D WQ	ACCESS:   18427539	FORWARD:    1126918	MERGED:     219788	TO_CACHE:   18207751

L1D UNIQUE REGIONS ACCESSED: 0
L1D REGIONS CONFLICTS: 0
L1D Cross Page Prefetch Requests: 0
L1D Same Page Prefetch Requests: 0
L1D ROI Sum of L1D PQ occupancy: 0
L1D PREFETCHES PUSHED FROM L2C: 0
L1I TOTAL     ACCESS:   17387847  HIT:   17387847  MISS:          0  HIT %:        100  MISS %:          0   MPKI: 0
L1I LOAD      ACCESS:   17387847  HIT:   17387847  MISS:          0  HIT %:        100  MISS %:          0   MPKI: 0
L1I PREFETCH  REQUESTED:          0  ISSUED:          0  USEFUL:          0  USELESS:          0
L1I USEFUL LOAD PREFETCHES:          0 PREFETCH ISSUED TO LOWER LEVEL:          0  ACCURACY: -nan
L1I TIMELY PREFETCHES:          0 LATE PREFETCHES: 0 DROPPED PREFETCHES: 0
L1I PREFETCHES SAME FILL-ORIGIN LEVEL: 0 DIFFERENT FILL-ORIGIN LEVEL: 0
L1I AVERAGE MISS LATENCY: -nan cycles
L1I RQ	ACCESS:   25275062	FORWARD:          0	MERGED:    7887214	TO_CACHE:   17387848

BTB TOTAL     ACCESS:    1795670  HIT:    1795664  MISS:          6  HIT %:    99.9997  MISS %: 0.000334137   MPKI: 6e-05
BTB BRANCH_DIRECT_JUMP	ACCESS:     291819  HIT:     291818  MISS:          1
BTB BRANCH_INDIRECT	ACCESS:          0  HIT:          0  MISS:          0
BTB BRANCH_CONDITIONAL	ACCESS:    1503851  HIT:    1503846  MISS:          5
BTB BRANCH_DIRECT_CALL	ACCESS:          0  HIT:          0  MISS:          0
BTB BRANCH_INDIRECT_CALL	ACCESS:          0  HIT:          0  MISS:          0
BTB BRANCH_RETURN	ACCESS:          0  HIT:          0  MISS:          0
BTB BRANCH_OTHER ACCESS:          0  HIT:          0  MISS:          0

L2C TOTAL     ACCESS:   15434518  HIT:   10231410  MISS:    5203108  HIT %:    66.2891  MISS %:    33.7109   MPKI: 52.0311
L2C LOAD      ACCESS:    1189901  HIT:     821979  MISS:     367922  HIT %:    69.0796  MISS %:    30.9204   MPKI: 3.67922
L2C DATA LOAD MPKI: 3.67922
L2C INSTRUCTION LOAD MPKI: 0
L2C RFO       ACCESS:    6662355  HIT:    3011933  MISS:    3650422  HIT %:    45.2082  MISS %:    54.7918   MPKI: 36.5042
L2C PREFETCH  ACCESS:     845514  HIT:      22062  MISS:     823452  HIT %:     2.6093  MISS %:    97.3907   MPKI: 8.23452
L2C DATA PREFETCH MPKI: 8.23452
L2C INSTRUCTION PREFETCH MPKI: 0
L2C WRITEBACK ACCESS:    6662366  HIT:    6310827  MISS:     351539  HIT %:    94.7235  MISS %:    5.27649   MPKI: 3.51539
L2C LOAD TRANSLATION ACCESS:      74382  HIT:      64609  MISS:       9773  HIT %:    86.8611  MISS %:    13.1389   MPKI: 0.09773
L2C PREFETCH  REQUESTED:     910438  ISSUED:     910438  USEFUL:     821933  USELESS:       1530
L2C USEFUL LOAD PREFETCHES:     821933 PREFETCH ISSUED TO LOWER LEVEL:     870340  ACCURACY: 94.4382
L2C TIMELY PREFETCHES:     821933 LATE PREFETCHES: 46888 DROPPED PREFETCHES: 0
L2C PREFETCHES SAME FILL-ORIGIN LEVEL: 870340 DIFFERENT FILL-ORIGIN LEVEL: 0
L2C AVERAGE MISS LATENCY: 559.665 cycles
L2C RQ	ACCESS:    7926654	FORWARD:          0	MERGED:          0	TO_CACHE:    7926649
L2C WQ	ACCESS:    6662366	FORWARD:          5	MERGED:          0	TO_CACHE:    6662366
L2C PQ	ACCESS:     910438	FORWARD:          0	MERGED:          6	TO_CACHE:     910432

L2C Instructions Evicting Data 0
L2C Translations Evicting Data 9726
L2C Data Evicting Data 4832624
L2C Instructions Evicting Instructions 0
L2C Translations Evicting Instructions 0
L2C Data Evicting Instructions 0
L2C Instructions Evicting Translations 0
L2C Translations Evicting Translations 47
L2C Data Evicting Translations 9172
L2C Dense regions hint from L2: 0
PSCL5 TOTAL     ACCESS:      74378  HIT:      74378  MISS:          0  HIT %:        100  MISS %:          0   MPKI: 0
PSCL5 LOAD TRANSLATION ACCESS:      74378  HIT:      74378  MISS:          0  HIT %:        100  MISS %:          0   MPKI: 0
PSCL5 PREFETCH  REQUESTED:          0  ISSUED:          0  USEFUL:          0  USELESS:          0
PSCL5 USEFUL LOAD PREFETCHES:          0 PREFETCH ISSUED TO LOWER LEVEL:          0  ACCURACY: -nan
PSCL5 TIMELY PREFETCHES:          0 LATE PREFETCHES: 0 DROPPED PREFETCHES: 0
PSCL5 PREFETCHES SAME FILL-ORIGIN LEVEL: 0 DIFFERENT FILL-ORIGIN LEVEL: 0

PSCL4 TOTAL     ACCESS:      74378  HIT:      74378  MISS:          0  HIT %:        100  MISS %:          0   MPKI: 0
PSCL4 LOAD TRANSLATION ACCESS:      74378  HIT:      74378  MISS:          0  HIT %:        100  MISS %:          0   MPKI: 0
PSCL4 PREFETCH  REQUESTED:          0  ISSUED:          0  USEFUL:          0  USELESS:          0
PSCL4 USEFUL LOAD PREFETCHES:          0 PREFETCH ISSUED TO LOWER LEVEL:          0  ACCURACY: -nan
PSCL4 TIMELY PREFETCHES:          0 LATE PREFETCHES: 0 DROPPED PREFETCHES: 0
PSCL4 PREFETCHES SAME FILL-ORIGIN LEVEL: 0 DIFFERENT FILL-ORIGIN LEVEL: 0

PSCL3 TOTAL     ACCESS:      74378  HIT:      74378  MISS:          0  HIT %:        100  MISS %:          0   MPKI: 0
PSCL3 LOAD TRANSLATION ACCESS:      74378  HIT:      74378  MISS:          0  HIT %:        100  MISS %:          0   MPKI: 0
PSCL3 PREFETCH  REQUESTED:          0  ISSUED:          0  USEFUL:          0  USELESS:          0
PSCL3 USEFUL LOAD PREFETCHES:          0 PREFETCH ISSUED TO LOWER LEVEL:          0  ACCURACY: -nan
PSCL3 TIMELY PREFETCHES:          0 LATE PREFETCHES: 0 DROPPED PREFETCHES: 0
PSCL3 PREFETCHES SAME FILL-ORIGIN LEVEL: 0 DIFFERENT FILL-ORIGIN LEVEL: 0

PSCL2 TOTAL     ACCESS:      74378  HIT:      74302  MISS:         76  HIT %:    99.8978  MISS %:   0.102181   MPKI: 0.00076
PSCL2 LOAD TRANSLATION ACCESS:      74378  HIT:      74302  MISS:         76  HIT %:    99.8978  MISS %:   0.102181   MPKI: 0.00076
PSCL2 PREFETCH  REQUESTED:          0  ISSUED:          0  USEFUL:          0  USELESS:          0
PSCL2 USEFUL LOAD PREFETCHES:          0 PREFETCH ISSUED TO LOWER LEVEL:          0  ACCURACY: -nan
PSCL2 TIMELY PREFETCHES:          0 LATE PREFETCHES: 0 DROPPED PREFETCHES: 0
PSCL2 PREFETCHES SAME FILL-ORIGIN LEVEL: 0 DIFFERENT FILL-ORIGIN LEVEL: 0

LLC TOTAL     ACCESS:    8510226  HIT:    3686698  MISS:    4823528  HIT %:    43.3208  MISS %:    56.6792   MPKI: 48.2353
LLC LOAD      ACCESS:     321034  HIT:        451  MISS:     320583  HIT %:   0.140484  MISS %:    99.8595   MPKI: 3.20583
LLC RFO       ACCESS:    3650380  HIT:      81436  MISS:    3568944  HIT %:    2.23089  MISS %:    97.7691   MPKI: 35.6894
LLC PREFETCH  ACCESS:     870340  HIT:       1133  MISS:     869207  HIT %:   0.130179  MISS %:    99.8698   MPKI: 8.69207
LLC WRITEBACK ACCESS:    3658699  HIT:    3603305  MISS:      55394  HIT %:     98.486  MISS %:    1.51404   MPKI: 0.55394
LLC LOAD TRANSLATION ACCESS:       9773  HIT:        373  MISS:       9400  HIT %:    3.81664  MISS %:    96.1834   MPKI: 0.094
LLC PREFETCH  REQUESTED:          0  ISSUED:          0  USEFUL:        378  USELESS:     870202
LLC USEFUL LOAD PREFETCHES:        378 PREFETCH ISSUED TO LOWER LEVEL:     869207  ACCURACY: 0.0434879
LLC TIMELY PREFETCHES:        378 LATE PREFETCHES: 0 DROPPED PREFETCHES: 0
LLC PREFETCHES SAME FILL-ORIGIN LEVEL: 0 DIFFERENT FILL-ORIGIN LEVEL: 0
LLC AVERAGE MISS LATENCY: 576.528 cycles
LLC RQ	ACCESS:    3981237	FORWARD:          0	MERGED:          0	TO_CACHE:    3981195
LLC WQ	ACCESS:    3658699	FORWARD:         42	MERGED:          0	TO_CACHE:    3658699
LLC PQ	ACCESS:     870340	FORWARD:          0	MERGED:          0	TO_CACHE:     870340

LLC Dense regions hint to LLC: 0

RAW hits: 1811507
Loads Generated: 26081076
Loads sent to L1D: 24269567
Stores Generated: 18427530
Stores sent to L1D: 18427539
Major fault: 0 Minor fault: 58801
Allocated PAGES: 58801
[Bingo] PHT Access: 38254
[Bingo] PHT Hit PC+Addr: 90
[Bingo] PHT Hit PC+Offs: 38129
[Bingo] PHT Miss: 35
[Bingo] Prefetch PC+Addr: 0
[Bingo] Prefetch PC+Offs: 0
[Bingo] Useful PC+Addr: 0
[Bingo] Useful PC+Offs: 0
[Bingo] Useless PC+Addr: 0
[Bingo] Useless PC+Offs: 0
[Bingo] L1 Prefetch per Region: 0
[Bingo] L2 Prefetch per Region: 24.8582
[Bingo] L3 Prefetch per Region: 0
[Bingo] No Prefetch per Region: 7.14176
[Bingo] Number of Voters Mean: 15.9384
[Bingo] Number of Voters SD: 10.8968
PHT read accesses: 608761
PHT write accesses: 37879
AT read accesses: 641821
AT write accesses: 641836
FT read accesses: 114042
FT write accesses: 38254
PS read accesses: 149372
PS write accesses: 38219
PHT tag read accesses: 1820671
PHT tag write accesses: 37969
AT tag read accesses: 91519612
AT tag write accesses: 679715
FT tag read accesses: 82425236
FT tag write accesses: 114402
PS tag read accesses: 11791658
PS tag write accesses: 187370

DRAM Statistics
 CHANNEL 0
 RQ ROW_BUFFER_HIT:     563381  ROW_BUFFER_MISS:    4204754
 DBUS_CONGESTED:          2
 WQ ROW_BUFFER_HIT:     574715  ROW_BUFFER_MISS:    2993714  FULL:          0

 AVG_CONGESTED_CYCLE: 4
 All warmup complete: 2
Channel 0 Bank busy for read cycles: 0
Channel 0 Bank busy for write cycles: 0
Channel 0
Rank 0
0banks busy for read cycles: 85478
0banks busy for write cycles: 1
1banks busy for read cycles: 5272361
1banks busy for write cycles: 372140
2banks busy for read cycles: 5731820
2banks busy for write cycles: 372187
3banks busy for read cycles: 10525266
3banks busy for write cycles: 372736
4banks busy for read cycles: 15744228
4banks busy for write cycles: 373241
5banks busy for read cycles: 24484234
5banks busy for write cycles: 378364
6banks busy for read cycles: 21300806
6banks busy for write cycles: 405796
7banks busy for read cycles: 22382317
7banks busy for write cycles: 4354972
8banks busy for read cycles: 28136130
8banks busy for write cycles: 78184619

CPU 0 Branch Prediction Accuracy: 97.1168% MPKI: 0.51773 Average ROB Occupancy at Mispredict: 226.896
Branch types
NOT_BRANCH: 98204308 98.2043%
BRANCH_DIRECT_JUMP: 291819 0.291819%
BRANCH_INDIRECT: 0 0%
BRANCH_CONDITIONAL: 1503851 1.50385%
BRANCH_DIRECT_CALL: 0 0%
BRANCH_INDIRECT_CALL: 0 0%
BRANCH_RETURN: 0 0%
BRANCH_OTHER: 0 0%

DRAM PAGES: 1048576
Allocated PAGES: 58801
