Initialize SIGNATURE TABLE
ST_SET: 1
ST_WAY: 256
ST_TAG_BIT: 16
ST_TAG_MASK: ffff

Initialize PATTERN TABLE
PT_SET: 512
PT_WAY: 4
SIG_DELTA_BIT: 7
C_SIG_BIT: 4
C_DELTA_BIT: 4

Initialize PREFETCH FILTER
FILTER_SET: 1024

Initialize PERCEPTRON
PERC_ENTRIES: 4096
PERC_FEATURES: 9

*** ChampSim Multicore Out-of-Order Simulator ***

Warmup Instructions: 50000000
Simulation Instructions: 100000000
Number of CPUs: 1
LLC sets: 2048
LLC ways: 16
Off-chip DRAM Size: 4096 MB Channels: 1 Width: 64-bit Data Rate: 6400 MT/s
CPU 0 runs ../SPEC2017//619.lbm_s-4268B.champsimtrace.xz
.xz
NUM_OF_IPS_IN_CRITICAL_IP_TRAINING: 128
NUM_OF_CRITICAL_IP_TRAINING_TABLE_WAYS: 8
NUM_OF_CRITICAL_IP_TRAINING_TABLE_SETS: 16
BTB has LRU replacement policy
ITLB has LRU replacement policy
DTLB has LRU replacement policy
STLB has LRU replacement policy
L1I has LRU replacement policy
L1D has LRU replacement policy
Initialize SRRIP state for L2C
Initialize DRRIP state for LLC
Heartbeat CPU 0 instructions: 10000000 cycles: 2911151 heartbeat IPC: 3.43507 cumulative IPC: 3.43507 (Simulation time: 0 hr 5 min 54 sec) 
Heartbeat CPU 0 instructions: 20000001 cycles: 5820672 heartbeat IPC: 3.43699 cumulative IPC: 3.43603 (Simulation time: 0 hr 11 min 7 sec) 
Heartbeat CPU 0 instructions: 30000000 cycles: 8726307 heartbeat IPC: 3.44159 cumulative IPC: 3.43788 (Simulation time: 0 hr 16 min 1 sec) 
Heartbeat CPU 0 instructions: 40000000 cycles: 11638582 heartbeat IPC: 3.43374 cumulative IPC: 3.43684 (Simulation time: 0 hr 20 min 36 sec) 
Heartbeat CPU 0 instructions: 50000002 cycles: 14551755 heartbeat IPC: 3.43268 cumulative IPC: 3.43601 (Simulation time: 0 hr 25 min 5 sec) 

Warmup complete CPU 0 instructions: 50000002 cycles: 14551755 (Simulation time: 0 hr 25 min 5 sec) 

% increase in all ip prefetch 494.619
% increase in all ip prefetch 29.4967
% increase in all ip prefetch 20.0357
% increase in all ip prefetch -6.93151
Heartbeat CPU 0 instructions: 60000001 cycles: 35043686 heartbeat IPC: 0.487997 cumulative IPC: 0.487997 (Simulation time: 0 hr 32 min 22 sec) 
Heartbeat CPU 0 instructions: 70000000 cycles: 55226854 heartbeat IPC: 0.495462 cumulative IPC: 0.491701 (Simulation time: 0 hr 38 min 52 sec) 
Heartbeat CPU 0 instructions: 80000000 cycles: 75179182 heartbeat IPC: 0.501195 cumulative IPC: 0.494826 (Simulation time: 0 hr 44 min 9 sec) 
Heartbeat CPU 0 instructions: 90000000 cycles: 95407285 heartbeat IPC: 0.494362 cumulative IPC: 0.494709 (Simulation time: 0 hr 49 min 9 sec) 
Heartbeat CPU 0 instructions: 100000003 cycles: 115222606 heartbeat IPC: 0.50466 cumulative IPC: 0.496668 (Simulation time: 0 hr 57 min 45 sec) 
Heartbeat CPU 0 instructions: 110000000 cycles: 135388147 heartbeat IPC: 0.495895 cumulative IPC: 0.496539 (Simulation time: 1 hr 7 min 35 sec) 
Heartbeat CPU 0 instructions: 120000001 cycles: 155831407 heartbeat IPC: 0.489159 cumulative IPC: 0.495471 (Simulation time: 1 hr 15 min 54 sec) 
Heartbeat CPU 0 instructions: 130000002 cycles: 175718630 heartbeat IPC: 0.502835 cumulative IPC: 0.49638 (Simulation time: 1 hr 23 min 13 sec) 
Heartbeat CPU 0 instructions: 140000000 cycles: 195903823 heartbeat IPC: 0.495413 cumulative IPC: 0.496272 (Simulation time: 1 hr 30 min 7 sec) 
Heartbeat CPU 0 instructions: 150000001 cycles: 216229500 heartbeat IPC: 0.491989 cumulative IPC: 0.495841 (Simulation time: 1 hr 36 min 26 sec) 
Finished CPU 0 instructions: 100000003 cycles: 201677746 cumulative IPC: 0.495841 (Simulation time: 1 hr 36 min 26 sec) 

ChampSim completed all CPUs

Region of Interest Statistics

CPU 0 cumulative IPC: 0.495841 instructions: 100000003 cycles: 201677746

CPU 0 Average Load ROB stall cycles: 1.10448e+07
CPU 0 Fraction of times ROB stalled by Loads: 9.55816
CPU 0 Percentage of Load stall cycles in Total stall cycles: 1.11422e+08
 Total stall cycles: 102122145
 Total load stall cycles: 113786319550705
CPU 0 NUM of IPS identified critical: 15

Threshold modification factor: -3
Max PIST entries: 91
Min PIST entries: 0
Avg PIST entries: 55.0667
Average ROB occupancy Load Stall Begin: 90.0434
Average ROB occupancy Load Stall End: 104.577
Min ROB occupancy Load Stall Begin: 2
Max ROB occupancy Load Stall Begin: 351
Min ROB occupancy Load Stall End: 2
Max ROB occupancy Load Stall End: 352
Average ROB occupancy Critical Load Stall Begin: 122.216
Average ROB occupancy Critical Load Stall End: 145.562
Min ROB occupancy Critical Load Stall Begin: 4
Max ROB occupancy Critical Load Stall Begin: 351
Min ROB occupancy Critical Load Stall End: 4
Max ROB occupancy Critical Load Stall End: 352
 ROB Load Stall Begin Bucket Count 0: 672620
 ROB Load Stall End Bucket Count 0: 627938
 ROB Critical Load Stall Begin Bucket Count 0: 311439
 ROB Critical Load Stall End Bucket Count 0: 274092
 ROB Load Stall Begin Bucket Count 1: 52600
 ROB Load Stall End Bucket Count 1: 62827
 ROB Critical Load Stall Begin Bucket Count 1: 42446
 ROB Critical Load Stall End Bucket Count 1: 46160
 ROB Load Stall Begin Bucket Count 2: 43276
 ROB Load Stall End Bucket Count 2: 37750
 ROB Critical Load Stall Begin Bucket Count 2: 35714
 ROB Critical Load Stall End Bucket Count 2: 30603
 ROB Load Stall Begin Bucket Count 3: 39034
 ROB Load Stall End Bucket Count 3: 41213
 ROB Critical Load Stall Begin Bucket Count 3: 25744
 ROB Critical Load Stall End Bucket Count 3: 28460
 ROB Load Stall Begin Bucket Count 4: 22994
 ROB Load Stall End Bucket Count 4: 25762
 ROB Critical Load Stall Begin Bucket Count 4: 16706
 ROB Critical Load Stall End Bucket Count 4: 18359
 ROB Load Stall Begin Bucket Count 5: 32665
 ROB Load Stall End Bucket Count 5: 28029
 ROB Critical Load Stall Begin Bucket Count 5: 26682
 ROB Critical Load Stall End Bucket Count 5: 22190
 ROB Load Stall Begin Bucket Count 6: 121514
 ROB Load Stall End Bucket Count 6: 161184
 ROB Critical Load Stall Begin Bucket Count 6: 112748
 ROB Critical Load Stall End Bucket Count 6: 151615
Threshold Modified: 3 times, factor: -3
ITLB TOTAL     ACCESS:   13424715  HIT:   13424715  MISS:          0  HIT %:        100  MISS %:          0   MPKI: 0
ITLB LOAD TRANSLATION ACCESS:   13424715  HIT:   13424715  MISS:          0  HIT %:        100  MISS %:          0   MPKI: 0
ITLB AVERAGE MISS LATENCY: -nan cycles
ITLB RQ	ACCESS:   17335952	FORWARD:          0	MERGED:    3911237	TO_CACHE:   13424715

DTLB TOTAL     ACCESS:   18923451  HIT:   18786377  MISS:     137074  HIT %:    99.2756  MISS %:    0.72436   MPKI: 1.37074
DTLB LOAD TRANSLATION ACCESS:   18923451  HIT:   18786377  MISS:     137074  HIT %:    99.2756  MISS %:    0.72436   MPKI: 1.37074
DTLB AVERAGE MISS LATENCY: 122.437 cycles
DTLB RQ	ACCESS:   27756287	FORWARD:          0	MERGED:    8769605	TO_CACHE:   18986682

STLB TOTAL     ACCESS:     137074  HIT:      62696  MISS:      74378  HIT %:    45.7388  MISS %:    54.2612   MPKI: 0.74378
STLB LOAD TRANSLATION ACCESS:     137074  HIT:      62696  MISS:      74378  HIT %:    45.7388  MISS %:    54.2612   MPKI: 0.74378
STLB AVERAGE MISS LATENCY: 207.243 cycles
STLB RQ	ACCESS:     137074	FORWARD:          0	MERGED:          0	TO_CACHE:     137074

STLB Hit, L1D data hit: 0
STLB Hit, L2C data hit: 0
STLB Hit, LLC data hit: 0
STLB Hit, LLC data miss: 0
STLB STLB hints to L2: 0
L1D TOTAL     ACCESS:   27502412  HIT:   19650165  MISS:    7852247  HIT %:    71.4489  MISS %:    28.5511   MPKI: 78.5225
L1D LOAD      ACCESS:    9600421  HIT:    8410525  MISS:    1189896  HIT %:    87.6058  MISS %:    12.3942   MPKI: 11.899
L1D RFO       ACCESS:   17901991  HIT:   11239640  MISS:    6662351  HIT %:    62.7843  MISS %:    37.2157   MPKI: 66.6235
L1D AVERAGE MISS LATENCY: 349.082 cycles
L1D RQ	ACCESS:   24730481	FORWARD:          0	MERGED:   13321722	TO_CACHE:    9748524
L1D WQ	ACCESS:   18427539	FORWARD:    1660235	MERGED:     419776	TO_CACHE:   18007763

L1D UNIQUE REGIONS ACCESSED: 0
L1D REGIONS CONFLICTS: 0
L1D Cross Page Prefetch Requests: 0
L1D Same Page Prefetch Requests: 0
L1D ROI Sum of L1D PQ occupancy: 0
L1D PREFETCHES PUSHED FROM L2C: 0
L1I TOTAL     ACCESS:   17335950  HIT:   17335950  MISS:          0  HIT %:        100  MISS %:          0   MPKI: 0
L1I LOAD      ACCESS:   17335950  HIT:   17335950  MISS:          0  HIT %:        100  MISS %:          0   MPKI: 0
L1I AVERAGE MISS LATENCY: -nan cycles
L1I RQ	ACCESS:   25010895	FORWARD:          0	MERGED:    7674943	TO_CACHE:   17335952

BTB TOTAL     ACCESS:    1795670  HIT:    1795664  MISS:          6  HIT %:    99.9997  MISS %: 0.000334137   MPKI: 6e-05
BTB BRANCH_DIRECT_JUMP	ACCESS:     291819  HIT:     291818  MISS:          1
BTB BRANCH_INDIRECT	ACCESS:          0  HIT:          0  MISS:          0
BTB BRANCH_CONDITIONAL	ACCESS:    1503851  HIT:    1503846  MISS:          5
BTB BRANCH_DIRECT_CALL	ACCESS:          0  HIT:          0  MISS:          0
BTB BRANCH_INDIRECT_CALL	ACCESS:          0  HIT:          0  MISS:          0
BTB BRANCH_RETURN	ACCESS:          0  HIT:          0  MISS:          0
BTB BRANCH_OTHER ACCESS:          0  HIT:          0  MISS:          0

L2C TOTAL     ACCESS:   15718333  HIT:   10489059  MISS:    5229274  HIT %:    66.7314  MISS %:    33.2686   MPKI: 52.2927
L2C LOAD      ACCESS:    1189896  HIT:    1058632  MISS:     131264  HIT %:    88.9684  MISS %:    11.0316   MPKI: 1.31264
L2C DATA LOAD MPKI: 1.31264
L2C INSTRUCTION LOAD MPKI: 0
L2C RFO       ACCESS:    6662343  HIT:    3006797  MISS:    3655546  HIT %:    45.1312  MISS %:    54.8688   MPKI: 36.5555
L2C PREFETCH  ACCESS:    1129356  HIT:      69334  MISS:    1060022  HIT %:    6.13925  MISS %:    93.8607   MPKI: 10.6002
L2C DATA PREFETCH MPKI: 10.6002
L2C INSTRUCTION PREFETCH MPKI: 0
L2C WRITEBACK ACCESS:    6662356  HIT:    6289695  MISS:     372661  HIT %:    94.4065  MISS %:    5.59353   MPKI: 3.72661
L2C LOAD TRANSLATION ACCESS:      74382  HIT:      64601  MISS:       9781  HIT %:    86.8503  MISS %:    13.1497   MPKI: 0.09781
L2C PREFETCH  REQUESTED:    1292601  ISSUED:    1292594  USEFUL:    1058582  USELESS:       1448
L2C USEFUL LOAD PREFETCHES:    1058582 PREFETCH ISSUED TO LOWER LEVEL:    1148359  ACCURACY: 92.1821
L2C TIMELY PREFETCHES:    1058582 LATE PREFETCHES: 88255 DROPPED PREFETCHES: 0
L2C PREFETCHES SAME FILL-ORIGIN LEVEL: 1148282 DIFFERENT FILL-ORIGIN LEVEL: 77
L2C AVERAGE MISS LATENCY: 629.716 cycles
L2C RQ	ACCESS:    7926645	FORWARD:          0	MERGED:          0	TO_CACHE:    7926637
L2C WQ	ACCESS:    6662359	FORWARD:          8	MERGED:          0	TO_CACHE:    6662359
L2C PQ	ACCESS:    1292594	FORWARD:          0	MERGED:      29169	TO_CACHE:    1263425

L2C Instructions Evicting Data0
L2C Translations Evicting Data9740
L2C Data Evicting Data4837696
L2C Instructions Evicting Instructions0
L2C Translations Evicting Instructions0
L2C Data Evicting Instructions0
L2C Instructions Evicting Translations0
L2C Translations Evicting Translations41
L2C Data Evicting Translations9136
L2C Dense regions hint from L2: 0
PSCL5 TOTAL     ACCESS:      74378  HIT:      74378  MISS:          0  HIT %:        100  MISS %:          0   MPKI: 0
PSCL5 LOAD TRANSLATION ACCESS:      74378  HIT:      74378  MISS:          0  HIT %:        100  MISS %:          0   MPKI: 0

PSCL4 TOTAL     ACCESS:      74378  HIT:      74378  MISS:          0  HIT %:        100  MISS %:          0   MPKI: 0
PSCL4 LOAD TRANSLATION ACCESS:      74378  HIT:      74378  MISS:          0  HIT %:        100  MISS %:          0   MPKI: 0

PSCL3 TOTAL     ACCESS:      74378  HIT:      74378  MISS:          0  HIT %:        100  MISS %:          0   MPKI: 0
PSCL3 LOAD TRANSLATION ACCESS:      74378  HIT:      74378  MISS:          0  HIT %:        100  MISS %:          0   MPKI: 0

PSCL2 TOTAL     ACCESS:      74378  HIT:      74302  MISS:         76  HIT %:    99.8978  MISS %:   0.102181   MPKI: 0.00076
PSCL2 LOAD TRANSLATION ACCESS:      74378  HIT:      74302  MISS:         76  HIT %:    99.8978  MISS %:   0.102181   MPKI: 0.00076

LLC TOTAL     ACCESS:    8523141  HIT:    3699429  MISS:    4823712  HIT %:    43.4045  MISS %:    56.5955   MPKI: 48.2371
LLC LOAD      ACCESS:      43009  HIT:        266  MISS:      42743  HIT %:   0.618475  MISS %:    99.3815   MPKI: 0.42743
LLC RFO       ACCESS:    3655461  HIT:      86525  MISS:    3568936  HIT %:    2.36701  MISS %:     97.633   MPKI: 35.6894
LLC PREFETCH  ACCESS:    1148350  HIT:       1034  MISS:    1147316  HIT %:  0.0900422  MISS %:      99.91   MPKI: 11.4732
LLC WRITEBACK ACCESS:    3666540  HIT:    3611224  MISS:      55316  HIT %:    98.4913  MISS %:    1.50867   MPKI: 0.55316
LLC LOAD TRANSLATION ACCESS:       9781  HIT:        380  MISS:       9401  HIT %:    3.88508  MISS %:    96.1149   MPKI: 0.09401
LLC AVERAGE MISS LATENCY: 666.879 cycles
LLC RQ	ACCESS:    3708349	FORWARD:          0	MERGED:          0	TO_CACHE:    3708264
LLC WQ	ACCESS:    3666540	FORWARD:         85	MERGED:          0	TO_CACHE:    3666540
LLC PQ	ACCESS:    1148359	FORWARD:          0	MERGED:          0	TO_CACHE:    1148359

LLC Dense regions hint to LLC: 0

RAW hits: 1350593
Loads Generated: 26081076
Loads sent to L1D: 24730481
Stores Generated: 18427530
Stores sent to L1D: 18427539
Major fault: 0 Minor fault: 58801
Allocated PAGES: 58801
------------------
Depth Distribution
------------------
depth 0: 6838
depth 1: 1436
depth 2: 961
depth 3: 1293
depth 4: 988
depth 5: 2882
depth 6: 6215
depth 7: 9465
depth 8: 32574
depth 9: 195530
depth 10: 438528
depth 11: 480150
depth 12: 398202
depth 13: 149350
depth 14: 49829
depth 15: 2533
depth 16: 417
depth 17: 38
depth 18: 26
depth 19: 13
depth 20: 6
depth 21: 7
depth 22: 1
depth 23: 5
depth 24: 3
depth 25: 4
depth 26: 1
depth 27: 2
depth 28: 1
depth 29: 0
Total: 1777298
------------------
ST read accesses: 1171302
ST write accesses: 18594
PT read accesses: 67971271
PT write accesses: 1755048
FILTER read accesses: 19927331
FILTER write accesses: 12897794
GHR read accesses: 8393179
GHR write accesses: 1436075
PERC read accesses: 488889576
PERC write accesses: 11811182
GHR counter read accesses: 2379792
GHR counter write accesses: 3685698
GHR ip read accesses: 7447917
GHR ip write accesses: 4759584
ST tag read accesses: 466669639
ST tag write accesses: 5942731

DRAM Statistics
 CHANNEL 0
 RQ ROW_BUFFER_HIT:     436277  ROW_BUFFER_MISS:    4332119
 DBUS_CONGESTED:          0
 WQ ROW_BUFFER_HIT:     553192  ROW_BUFFER_MISS:    3015251  FULL:         13

 AVG_CONGESTED_CYCLE: -
 All warmup complete: 2
Channel 0 Bank busy for read cycles: 0
Channel 0 Bank busy for write cycles: 0
Channel 0
Rank 0
0banks busy for read cycles: 12823
0banks busy for write cycles: 0
1banks busy for read cycles: 1216332
1banks busy for write cycles: 344610
2banks busy for read cycles: 1633453
2banks busy for write cycles: 344610
3banks busy for read cycles: 3067381
3banks busy for write cycles: 344607
4banks busy for read cycles: 5944936
4banks busy for write cycles: 344597
5banks busy for read cycles: 12457528
5banks busy for write cycles: 344625
6banks busy for read cycles: 19838026
6banks busy for write cycles: 352241
7banks busy for read cycles: 31076250
7banks busy for write cycles: 4119601
8banks busy for read cycles: 42093711
8banks busy for write cycles: 78142416

CPU 0 Branch Prediction Accuracy: 97.1168% MPKI: 0.51773 Average ROB Occupancy at Mispredict: 189.085
Branch types
NOT_BRANCH: 98204320 98.2043%
BRANCH_DIRECT_JUMP: 291819 0.291819%
BRANCH_INDIRECT: 0 0%
BRANCH_CONDITIONAL: 1503851 1.50385%
BRANCH_DIRECT_CALL: 0 0%
BRANCH_INDIRECT_CALL: 0 0%
BRANCH_RETURN: 0 0%
BRANCH_OTHER: 0 0%

DRAM PAGES: 1048576
Allocated PAGES: 58801
