
*** ChampSim Multicore Out-of-Order Simulator ***

Warmup Instructions: 50000000
Simulation Instructions: 100000000
Number of CPUs: 1
LLC sets: 2048
LLC ways: 16
Off-chip DRAM Size: 4096 MB Channels: 1 Width: 64-bit Data Rate: 6400 MT/s
CPU 0 runs ../SPEC2017//619.lbm_s-2676B.champsimtrace.xz
.xz
NUM_OF_IPS_IN_CRITICAL_IP_TRAINING: 64
NUM_OF_CRITICAL_IP_TRAINING_TABLE_WAYS: 2
NUM_OF_CRITICAL_IP_TRAINING_TABLE_SETS: 32
WOBBLY_CRITICAL_IP_CACHE_SETS: 32
WOBBLY_CRITICAL_IP_CACHE_WAYS: 4
BTB has LRU replacement policy
ITLB has LRU replacement policy
DTLB has LRU replacement policy
STLB has LRU replacement policy
L1I has LRU replacement policy
IP Table Entries: 256
L1D has LRU replacement policy
Initialize SRRIP state for L2C
Initialize DRRIP state for LLC
Heartbeat CPU 0 instructions: 10000003 cycles: 2894101 heartbeat IPC: 3.45531 cumulative IPC: 3.45531 (Simulation time: 0 hr 5 min 37 sec) 
Heartbeat CPU 0 instructions: 20000003 cycles: 5783678 heartbeat IPC: 3.46071 cumulative IPC: 3.45801 (Simulation time: 0 hr 10 min 55 sec) 
Heartbeat CPU 0 instructions: 30000003 cycles: 8665266 heartbeat IPC: 3.47031 cumulative IPC: 3.4621 (Simulation time: 0 hr 15 min 23 sec) 
Heartbeat CPU 0 instructions: 40000002 cycles: 11532741 heartbeat IPC: 3.48739 cumulative IPC: 3.46839 (Simulation time: 0 hr 19 min 42 sec) 
Heartbeat CPU 0 instructions: 50000001 cycles: 14387737 heartbeat IPC: 3.50263 cumulative IPC: 3.47518 (Simulation time: 0 hr 23 min 46 sec) 

Warmup complete CPU 0 instructions: 50000001 cycles: 14387737 (Simulation time: 0 hr 23 min 46 sec) 

% increase in all ip prefetch 412.071
% increase in all ip prefetch -7.7288
Heartbeat CPU 0 instructions: 60000001 cycles: 30432308 heartbeat IPC: 0.623264 cumulative IPC: 0.623264 (Simulation time: 0 hr 29 min 56 sec) 
Heartbeat CPU 0 instructions: 70000000 cycles: 45820305 heartbeat IPC: 0.649857 cumulative IPC: 0.636283 (Simulation time: 0 hr 35 min 35 sec) 
Heartbeat CPU 0 instructions: 80000002 cycles: 59963696 heartbeat IPC: 0.707044 cumulative IPC: 0.658242 (Simulation time: 0 hr 40 min 13 sec) 
Heartbeat CPU 0 instructions: 90000001 cycles: 74108216 heartbeat IPC: 0.706988 cumulative IPC: 0.669787 (Simulation time: 0 hr 44 min 37 sec) 
Heartbeat CPU 0 instructions: 100000003 cycles: 87477403 heartbeat IPC: 0.747989 cumulative IPC: 0.684091 (Simulation time: 0 hr 48 min 36 sec) 
Heartbeat CPU 0 instructions: 110000000 cycles: 100644414 heartbeat IPC: 0.759474 cumulative IPC: 0.695598 (Simulation time: 0 hr 52 min 9 sec) 
Heartbeat CPU 0 instructions: 120000003 cycles: 113225586 heartbeat IPC: 0.794839 cumulative IPC: 0.708231 (Simulation time: 0 hr 58 min 44 sec) 
Heartbeat CPU 0 instructions: 130000002 cycles: 125357111 heartbeat IPC: 0.824299 cumulative IPC: 0.72092 (Simulation time: 1 hr 5 min 13 sec) 
Heartbeat CPU 0 instructions: 140000003 cycles: 137403625 heartbeat IPC: 0.830116 cumulative IPC: 0.731613 (Simulation time: 1 hr 10 min 37 sec) 
Heartbeat CPU 0 instructions: 150000000 cycles: 149036842 heartbeat IPC: 0.859607 cumulative IPC: 0.742671 (Simulation time: 1 hr 15 min 14 sec) 
Finished CPU 0 instructions: 100000002 cycles: 134649108 cumulative IPC: 0.742671 (Simulation time: 1 hr 15 min 14 sec) 

ChampSim completed all CPUs

Region of Interest Statistics

CPU 0 cumulative IPC: 0.742671 instructions: 100000002 cycles: 134649108

CPU 0 Average Load ROB stall cycles: 2.00109e+07
CPU 0 Fraction of times ROB stalled by Loads: 22.8629
CPU 0 Percentage of Load stall cycles in Total stall cycles: 3.47214e+08
Issued all: 77827317
Issued LT all: 63865681
rob_not_full_when_issued_lt_all: 35664323
Issued LT one: 57785298
rob_not_full_when_issued_lt_one: 30400549
 Total stall cycles: 102590935
 Total load stall cycles: 356209657329705
CPU 0 NUM of IPS identified critical: 0
CPU 0 Num of Load IPs stalling ROB: 128
Threshold modification factor: -1
Max PIST entries: 62
Min PIST entries: 0
Avg PIST entries: 40.6133
Trouble in retire width: 0.793897
MaC = Marked as critical.
lt_50_percent_before_Mac: 0
gt_90_percent_before_Mac: 0
gt_75_percent_before_Mac: 0
gt_50_percent_before_Mac: 0
stall_proportion_bin_same_before_after: 0
stall_proportion_bin_lower_before_after: 0
stall_proportion_bin_upper_before_after: 0
average_stall_proportion_before: -nan
average_stall_proportion_after: -nan
Critical IP stalls, total frequency: 0
Non-critical IP stalls, total frequency: 4069772
Total Freq all stalling IPs: 4069772
stat_90_percent_critical_ip_stalls_freq: 3663271
stat_90_percent_non_critical_ip_stalls_freq: 406501
Critical_IP_ROB_Stalls_Bucket_0: 0
Non-critical_IP_ROB_Stalls_Bucket_0: 3264269
Critical_IP_ROB_Stalls_Bucket_1: 0
Non-critical_IP_ROB_Stalls_Bucket_1: 570026
Critical_IP_ROB_Stalls_Bucket_2: 0
Non-critical_IP_ROB_Stalls_Bucket_2: 34043
Critical_IP_ROB_Stalls_Bucket_3: 0
Non-critical_IP_ROB_Stalls_Bucket_3: 29202
Critical_IP_ROB_Stalls_Bucket_4: 0
Non-critical_IP_ROB_Stalls_Bucket_4: 20151
Critical_IP_ROB_Stalls_Bucket_5: 0
Non-critical_IP_ROB_Stalls_Bucket_5: 23872
Critical_IP_ROB_Stalls_Bucket_6: 0
Non-critical_IP_ROB_Stalls_Bucket_6: 128209
0 => IPs accounting for >50 percent of stalls, 1 => 55, 2 => 60, 3 => 65 and so on till 90.
percent50: 52.2028 num IPs:  13
percent55: 55.547 num IPs: 14
percent60: 62.1415 num IPs: 16
percent65: 65.3329 num IPs: 17
percent70: 71.5817 num IPs: 19
percent75: 77.4578 num IPs: 21
percent80: 80.1374 num IPs: 22
percent85: 85.1984 num IPs: 25
percent90: 90.0117 num IPs: 33
Critical_ROB_Stalls_Percent_0_Bucket_0: 1487684
Non-critical_ROB_Stalls_Percent_0_Bucket_0: 1776585
Critical_ROB_Stalls_Percent_0_Bucket_1: 488617
Non-critical_ROB_Stalls_Percent_0_Bucket_1: 81409
Critical_ROB_Stalls_Percent_0_Bucket_2: 23492
Non-critical_ROB_Stalls_Percent_0_Bucket_2: 10551
Critical_ROB_Stalls_Percent_0_Bucket_3: 15263
Non-critical_ROB_Stalls_Percent_0_Bucket_3: 13939
Critical_ROB_Stalls_Percent_0_Bucket_4: 9567
Non-critical_ROB_Stalls_Percent_0_Bucket_4: 10584
Critical_ROB_Stalls_Percent_0_Bucket_5: 15092
Non-critical_ROB_Stalls_Percent_0_Bucket_5: 8780
Critical_ROB_Stalls_Percent_0_Bucket_6: 84819
Non-critical_ROB_Stalls_Percent_0_Bucket_6: 43390
Critical_ROB_Stalls_Percent_1_Bucket_0: 1620326
Non-critical_ROB_Stalls_Percent_1_Bucket_0: 1643943
Critical_ROB_Stalls_Percent_1_Bucket_1: 491282
Non-critical_ROB_Stalls_Percent_1_Bucket_1: 78744
Critical_ROB_Stalls_Percent_1_Bucket_2: 23657
Non-critical_ROB_Stalls_Percent_1_Bucket_2: 10386
Critical_ROB_Stalls_Percent_1_Bucket_3: 15589
Non-critical_ROB_Stalls_Percent_1_Bucket_3: 13613
Critical_ROB_Stalls_Percent_1_Bucket_4: 9806
Non-critical_ROB_Stalls_Percent_1_Bucket_4: 10345
Critical_ROB_Stalls_Percent_1_Bucket_5: 15128
Non-critical_ROB_Stalls_Percent_1_Bucket_5: 8744
Critical_ROB_Stalls_Percent_1_Bucket_6: 84848
Non-critical_ROB_Stalls_Percent_1_Bucket_6: 43361
Critical_ROB_Stalls_Percent_2_Bucket_0: 1884245
Non-critical_ROB_Stalls_Percent_2_Bucket_0: 1380024
Critical_ROB_Stalls_Percent_2_Bucket_1: 491685
Non-critical_ROB_Stalls_Percent_2_Bucket_1: 78341
Critical_ROB_Stalls_Percent_2_Bucket_2: 24013
Non-critical_ROB_Stalls_Percent_2_Bucket_2: 10030
Critical_ROB_Stalls_Percent_2_Bucket_3: 15891
Non-critical_ROB_Stalls_Percent_2_Bucket_3: 13311
Critical_ROB_Stalls_Percent_2_Bucket_4: 10023
Non-critical_ROB_Stalls_Percent_2_Bucket_4: 10128
Critical_ROB_Stalls_Percent_2_Bucket_5: 15527
Non-critical_ROB_Stalls_Percent_2_Bucket_5: 8345
Critical_ROB_Stalls_Percent_2_Bucket_6: 87632
Non-critical_ROB_Stalls_Percent_2_Bucket_6: 40577
Critical_ROB_Stalls_Percent_3_Bucket_0: 2013740
Non-critical_ROB_Stalls_Percent_3_Bucket_0: 1250529
Critical_ROB_Stalls_Percent_3_Bucket_1: 491765
Non-critical_ROB_Stalls_Percent_3_Bucket_1: 78261
Critical_ROB_Stalls_Percent_3_Bucket_2: 24091
Non-critical_ROB_Stalls_Percent_3_Bucket_2: 9952
Critical_ROB_Stalls_Percent_3_Bucket_3: 15898
Non-critical_ROB_Stalls_Percent_3_Bucket_3: 13304
Critical_ROB_Stalls_Percent_3_Bucket_4: 10037
Non-critical_ROB_Stalls_Percent_3_Bucket_4: 10114
Critical_ROB_Stalls_Percent_3_Bucket_5: 15554
Non-critical_ROB_Stalls_Percent_3_Bucket_5: 8318
Critical_ROB_Stalls_Percent_3_Bucket_6: 87816
Non-critical_ROB_Stalls_Percent_3_Bucket_6: 40393
Critical_ROB_Stalls_Percent_4_Bucket_0: 2264600
Non-critical_ROB_Stalls_Percent_4_Bucket_0: 999669
Critical_ROB_Stalls_Percent_4_Bucket_1: 494330
Non-critical_ROB_Stalls_Percent_4_Bucket_1: 75696
Critical_ROB_Stalls_Percent_4_Bucket_2: 24155
Non-critical_ROB_Stalls_Percent_4_Bucket_2: 9888
Critical_ROB_Stalls_Percent_4_Bucket_3: 15959
Non-critical_ROB_Stalls_Percent_4_Bucket_3: 13243
Critical_ROB_Stalls_Percent_4_Bucket_4: 10117
Non-critical_ROB_Stalls_Percent_4_Bucket_4: 10034
Critical_ROB_Stalls_Percent_4_Bucket_5: 15629
Non-critical_ROB_Stalls_Percent_4_Bucket_5: 8243
Critical_ROB_Stalls_Percent_4_Bucket_6: 88423
Non-critical_ROB_Stalls_Percent_4_Bucket_6: 39786
Critical_ROB_Stalls_Percent_5_Bucket_0: 2502163
Non-critical_ROB_Stalls_Percent_5_Bucket_0: 762106
Critical_ROB_Stalls_Percent_5_Bucket_1: 494437
Non-critical_ROB_Stalls_Percent_5_Bucket_1: 75589
Critical_ROB_Stalls_Percent_5_Bucket_2: 24627
Non-critical_ROB_Stalls_Percent_5_Bucket_2: 9416
Critical_ROB_Stalls_Percent_5_Bucket_3: 16455
Non-critical_ROB_Stalls_Percent_5_Bucket_3: 12747
Critical_ROB_Stalls_Percent_5_Bucket_4: 10462
Non-critical_ROB_Stalls_Percent_5_Bucket_4: 9689
Critical_ROB_Stalls_Percent_5_Bucket_5: 15694
Non-critical_ROB_Stalls_Percent_5_Bucket_5: 8178
Critical_ROB_Stalls_Percent_5_Bucket_6: 88518
Non-critical_ROB_Stalls_Percent_5_Bucket_6: 39691
Critical_ROB_Stalls_Percent_6_Bucket_0: 2610902
Non-critical_ROB_Stalls_Percent_6_Bucket_0: 653367
Critical_ROB_Stalls_Percent_6_Bucket_1: 494459
Non-critical_ROB_Stalls_Percent_6_Bucket_1: 75567
Critical_ROB_Stalls_Percent_6_Bucket_2: 24656
Non-critical_ROB_Stalls_Percent_6_Bucket_2: 9387
Critical_ROB_Stalls_Percent_6_Bucket_3: 16571
Non-critical_ROB_Stalls_Percent_6_Bucket_3: 12631
Critical_ROB_Stalls_Percent_6_Bucket_4: 10521
Non-critical_ROB_Stalls_Percent_6_Bucket_4: 9630
Critical_ROB_Stalls_Percent_6_Bucket_5: 15771
Non-critical_ROB_Stalls_Percent_6_Bucket_5: 8101
Critical_ROB_Stalls_Percent_6_Bucket_6: 88530
Non-critical_ROB_Stalls_Percent_6_Bucket_6: 39679
Critical_ROB_Stalls_Percent_7_Bucket_0: 2814966
Non-critical_ROB_Stalls_Percent_7_Bucket_0: 449303
Critical_ROB_Stalls_Percent_7_Bucket_1: 494707
Non-critical_ROB_Stalls_Percent_7_Bucket_1: 75319
Critical_ROB_Stalls_Percent_7_Bucket_2: 24952
Non-critical_ROB_Stalls_Percent_7_Bucket_2: 9091
Critical_ROB_Stalls_Percent_7_Bucket_3: 17254
Non-critical_ROB_Stalls_Percent_7_Bucket_3: 11948
Critical_ROB_Stalls_Percent_7_Bucket_4: 10738
Non-critical_ROB_Stalls_Percent_7_Bucket_4: 9413
Critical_ROB_Stalls_Percent_7_Bucket_5: 15852
Non-critical_ROB_Stalls_Percent_7_Bucket_5: 8020
Critical_ROB_Stalls_Percent_7_Bucket_6: 88910
Non-critical_ROB_Stalls_Percent_7_Bucket_6: 39299
Critical_ROB_Stalls_Percent_8_Bucket_0: 2968634
Non-critical_ROB_Stalls_Percent_8_Bucket_0: 295635
Critical_ROB_Stalls_Percent_8_Bucket_1: 524645
Non-critical_ROB_Stalls_Percent_8_Bucket_1: 45381
Critical_ROB_Stalls_Percent_8_Bucket_2: 27160
Non-critical_ROB_Stalls_Percent_8_Bucket_2: 6883
Critical_ROB_Stalls_Percent_8_Bucket_3: 18697
Non-critical_ROB_Stalls_Percent_8_Bucket_3: 10505
Critical_ROB_Stalls_Percent_8_Bucket_4: 12575
Non-critical_ROB_Stalls_Percent_8_Bucket_4: 7576
Critical_ROB_Stalls_Percent_8_Bucket_5: 17372
Non-critical_ROB_Stalls_Percent_8_Bucket_5: 6500
Critical_ROB_Stalls_Percent_8_Bucket_6: 94188
Non-critical_ROB_Stalls_Percent_8_Bucket_6: 34021
Average ROB occupancy Load Stall Begin: 39.6317
Average ROB occupancy Load Stall End: 47.8122
Min ROB occupancy Load Stall Begin: 2
Max ROB occupancy Load Stall Begin: 352
Min ROB occupancy Load Stall End: 2
Max ROB occupancy Load Stall End: 352
Average ROB occupancy Critical Load Stall Begin: -nan
Average ROB occupancy Critical Load Stall End: -nan
Min ROB occupancy Critical Load Stall Begin: 400
Max ROB occupancy Critical Load Stall Begin: 0
Min ROB occupancy Critical Load Stall End: 400
Max ROB occupancy Critical Load Stall End: 0
 ROB Load Stall Begin Bucket Count 0: 3634452
 ROB Load Stall End Bucket Count 0: 3264269
 ROB Critical Load Stall Begin Bucket Count 0: 0
 ROB Critical Load Stall End Bucket Count 0: 0
 ROB Load Stall Begin Bucket Count 1: 236599
 ROB Load Stall End Bucket Count 1: 570026
 ROB Critical Load Stall Begin Bucket Count 1: 0
 ROB Critical Load Stall End Bucket Count 1: 0
 ROB Load Stall Begin Bucket Count 2: 28101
 ROB Load Stall End Bucket Count 2: 34043
 ROB Critical Load Stall Begin Bucket Count 2: 0
 ROB Critical Load Stall End Bucket Count 2: 0
 ROB Load Stall Begin Bucket Count 3: 27175
 ROB Load Stall End Bucket Count 3: 29202
 ROB Critical Load Stall Begin Bucket Count 3: 0
 ROB Critical Load Stall End Bucket Count 3: 0
 ROB Load Stall Begin Bucket Count 4: 19725
 ROB Load Stall End Bucket Count 4: 20151
 ROB Critical Load Stall Begin Bucket Count 4: 0
 ROB Critical Load Stall End Bucket Count 4: 0
 ROB Load Stall Begin Bucket Count 5: 26885
 ROB Load Stall End Bucket Count 5: 23872
 ROB Critical Load Stall Begin Bucket Count 5: 0
 ROB Critical Load Stall End Bucket Count 5: 0
 ROB Load Stall Begin Bucket Count 6: 96835
 ROB Load Stall End Bucket Count 6: 128209
 ROB Critical Load Stall Begin Bucket Count 6: 0
 ROB Critical Load Stall End Bucket Count 6: 0
PIST Tag Read Accesses: 496202
PIST Read Accesses: 248101
PIST Tag Write Accesses: 496202
PIST Write Accesses: 248101
Criticality detector called times: 2953266
Max global_stall_cycles_count: 537163
Threshold Modified: 1 times, factor: -1
Sturdy critical IP cache stats: 
 Unused entries: 0
CIC Tag Read Accesses: 0
CIC Read Accesses: 0
CIC Tag Write Accesses: 0
CIC Write Accesses: 0
Wobbly critical IP cache stats: 
 Unused entries: 118
CIC Tag Read Accesses: 174489888
CIC Read Accesses: 0
CIC Tag Write Accesses: 533843
CIC Write Accesses: 0
ITLB TOTAL     ACCESS:   13109559  HIT:   13109559  MISS:          0  HIT %:        100  MISS %:          0   MPKI: 0
ITLB LOAD TRANSLATION ACCESS:   13109559  HIT:   13109559  MISS:          0  HIT %:        100  MISS %:          0   MPKI: 0
ITLB PREFETCH  REQUESTED:          0  ISSUED:          0  USEFUL:          0  USELESS:          0
ITLB USEFUL LOAD PREFETCHES:          0 PREFETCH ISSUED TO LOWER LEVEL:          0  ACCURACY: -nan
ITLB TIMELY PREFETCHES:          0 LATE PREFETCHES: 0 DROPPED PREFETCHES: 0
ITLB PREFETCHES SAME FILL-ORIGIN LEVEL: 0 DIFFERENT FILL-ORIGIN LEVEL: 0
ITLB AVERAGE MISS LATENCY: -nan cycles
ITLB RQ	ACCESS:   17089281	FORWARD:          0	MERGED:    3979723	TO_CACHE:   13109558

DTLB TOTAL     ACCESS:   17685707  HIT:   17598809  MISS:      86898  HIT %:    99.5087  MISS %:   0.491346   MPKI: 0.86898
DTLB LOAD TRANSLATION ACCESS:   17685707  HIT:   17598809  MISS:      86898  HIT %:    99.5087  MISS %:   0.491346   MPKI: 0.86898
DTLB PREFETCH  REQUESTED:          0  ISSUED:          0  USEFUL:          0  USELESS:          0
DTLB USEFUL LOAD PREFETCHES:          0 PREFETCH ISSUED TO LOWER LEVEL:          0  ACCURACY: -nan
DTLB TIMELY PREFETCHES:          0 LATE PREFETCHES: 0 DROPPED PREFETCHES: 0
DTLB PREFETCHES SAME FILL-ORIGIN LEVEL: 0 DIFFERENT FILL-ORIGIN LEVEL: 0
DTLB AVERAGE MISS LATENCY: 112.644 cycles
DTLB RQ	ACCESS:   25840237	FORWARD:          0	MERGED:    8131017	TO_CACHE:   17709220

STLB TOTAL     ACCESS:     398257  HIT:     351106  MISS:      47151  HIT %:    88.1607  MISS %:    11.8393   MPKI: 0.47151
STLB LOAD TRANSLATION ACCESS:      86898  HIT:      39747  MISS:      47151  HIT %:    45.7398  MISS %:    54.2602   MPKI: 0.47151
STLB TRANSLATION FROM L1D PREFETCHER ACCESS:     311359  HIT:     311359  MISS:          0  HIT %:        100  MISS %:          0   MPKI: 0
STLB PREFETCH  REQUESTED:          0  ISSUED:          0  USEFUL:          0  USELESS:          0
STLB USEFUL LOAD PREFETCHES:          0 PREFETCH ISSUED TO LOWER LEVEL:          0  ACCURACY: -nan
STLB TIMELY PREFETCHES:          0 LATE PREFETCHES: 0 DROPPED PREFETCHES: 0
STLB PREFETCHES SAME FILL-ORIGIN LEVEL: 0 DIFFERENT FILL-ORIGIN LEVEL: 0
STLB AVERAGE MISS LATENCY: 187.013 cycles
STLB RQ	ACCESS:     819394	FORWARD:          0	MERGED:     421137	TO_CACHE:     398257

STLB Hit, L1D data hit: 0
STLB Hit, L2C data hit: 0
STLB Hit, LLC data hit: 0
STLB Hit, LLC data miss: 0
STLB STLB hints to L2: 0
L1D TOTAL     ACCESS:   26374393  HIT:   21396685  MISS:    4977708  HIT %:    81.1267  MISS %:    18.8733   MPKI: 49.7771
L1D LOAD      ACCESS:   10618760  HIT:   10433766  MISS:     184994  HIT %:    98.2579  MISS %:    1.74214   MPKI: 1.84994
L1D RFO       ACCESS:   15124589  HIT:   10901094  MISS:    4223495  HIT %:    72.0753  MISS %:    27.9247   MPKI: 42.2349
L1D PREFETCH  ACCESS:     631044  HIT:      61825  MISS:     569219  HIT %:    9.79726  MISS %:    90.2027   MPKI: 5.69219
L1D PREFETCH  REQUESTED:    1475731  ISSUED:    1464992  USEFUL:     569218  USELESS:          0
L1D USEFUL LOAD PREFETCHES:     569218 PREFETCH ISSUED TO LOWER LEVEL:     600133  ACCURACY: 94.8486
L1D TIMELY PREFETCHES:     569218 LATE PREFETCHES: 30510 DROPPED PREFETCHES: 0
L1D PREFETCHES SAME FILL-ORIGIN LEVEL: 600133 DIFFERENT FILL-ORIGIN LEVEL: 0
L1D AVERAGE MISS LATENCY: 445813 cycles
L1D RQ	ACCESS:   23560555	FORWARD:          0	MERGED:   10884732	TO_CACHE:   10659781
L1D WQ	ACCESS:   16054211	FORWARD:    2016042	MERGED:     873755	TO_CACHE:   15180456
L1D PQ	ACCESS:     732496	FORWARD:          0	MERGED:          0	TO_CACHE:     732496

L1D UNIQUE REGIONS ACCESSED: 0
L1D REGIONS CONFLICTS: 0
L1D Cross Page Prefetch Requests: 0
L1D Same Page Prefetch Requests: 1301229
L1D ROI Sum of L1D PQ occupancy: 389133762
L1D PREFETCHES PUSHED FROM L2C: 0
L1I TOTAL     ACCESS:   17089281  HIT:   17089281  MISS:          0  HIT %:        100  MISS %:          0   MPKI: 0
L1I LOAD      ACCESS:   17089281  HIT:   17089281  MISS:          0  HIT %:        100  MISS %:          0   MPKI: 0
L1I PREFETCH  REQUESTED:          0  ISSUED:          0  USEFUL:          0  USELESS:          0
L1I USEFUL LOAD PREFETCHES:          0 PREFETCH ISSUED TO LOWER LEVEL:          0  ACCURACY: -nan
L1I TIMELY PREFETCHES:          0 LATE PREFETCHES: 0 DROPPED PREFETCHES: 0
L1I PREFETCHES SAME FILL-ORIGIN LEVEL: 0 DIFFERENT FILL-ORIGIN LEVEL: 0
L1I AVERAGE MISS LATENCY: -nan cycles
L1I RQ	ACCESS:   24213070	FORWARD:          0	MERGED:    7123789	TO_CACHE:   17089281

BTB TOTAL     ACCESS:    1309811  HIT:    1309805  MISS:          6  HIT %:    99.9995  MISS %: 0.000458081   MPKI: 6e-05
BTB BRANCH_DIRECT_JUMP	ACCESS:      99276  HIT:      99275  MISS:          1
BTB BRANCH_INDIRECT	ACCESS:          0  HIT:          0  MISS:          0
BTB BRANCH_CONDITIONAL	ACCESS:    1210535  HIT:    1210530  MISS:          5
BTB BRANCH_DIRECT_CALL	ACCESS:          0  HIT:          0  MISS:          0
BTB BRANCH_INDIRECT_CALL	ACCESS:          0  HIT:          0  MISS:          0
BTB BRANCH_RETURN	ACCESS:          0  HIT:          0  MISS:          0
BTB BRANCH_OTHER ACCESS:          0  HIT:          0  MISS:          0

L2C TOTAL     ACCESS:   10146252  HIT:    6807130  MISS:    3339122  HIT %:    67.0901  MISS %:    32.9099   MPKI: 33.3912
L2C LOAD      ACCESS:     154484  HIT:      81301  MISS:      73183  HIT %:    52.6275  MISS %:    47.3725   MPKI: 0.73183
L2C DATA LOAD MPKI: 0.73183
L2C INSTRUCTION LOAD MPKI: 0
L2C RFO       ACCESS:    4223494  HIT:    1898832  MISS:    2324662  HIT %:    44.9588  MISS %:    55.0412   MPKI: 23.2466
L2C PREFETCH  ACCESS:    1497626  HIT:     816384  MISS:     681242  HIT %:    54.5119  MISS %:    45.4881   MPKI: 6.81242
L2C DATA PREFETCH MPKI: 6.81242
L2C INSTRUCTION PREFETCH MPKI: 0
L2C WRITEBACK ACCESS:    4223495  HIT:    3969656  MISS:     253839  HIT %:    93.9898  MISS %:    6.01016   MPKI: 2.53839
L2C LOAD TRANSLATION ACCESS:      47153  HIT:      40957  MISS:       6196  HIT %:    86.8598  MISS %:    13.1402   MPKI: 0.06196
L2C PREFETCH  REQUESTED:    1954503  ISSUED:    1954464  USEFUL:      81301  USELESS:     601320
L2C USEFUL LOAD PREFETCHES:      81301 PREFETCH ISSUED TO LOWER LEVEL:     698118  ACCURACY: 11.6457
L2C TIMELY PREFETCHES:      81301 LATE PREFETCHES: 16874 DROPPED PREFETCHES: 0
L2C PREFETCHES SAME FILL-ORIGIN LEVEL: 569476 DIFFERENT FILL-ORIGIN LEVEL: 0
L2C AVERAGE MISS LATENCY: 550.415 cycles
L2C RQ	ACCESS:    4425143	FORWARD:          0	MERGED:          0	TO_CACHE:    4425142
L2C WQ	ACCESS:    4223496	FORWARD:          1	MERGED:          0	TO_CACHE:    4223496
L2C PQ	ACCESS:    2554193	FORWARD:          0	MERGED:     713821	TO_CACHE:    1840372

L2C Instructions Evicting Data 0
L2C Translations Evicting Data 6139
L2C Data Evicting Data 3073360
L2C Instructions Evicting Instructions 0
L2C Translations Evicting Instructions 0
L2C Data Evicting Instructions 0
L2C Instructions Evicting Translations 0
L2C Translations Evicting Translations 57
L2C Data Evicting Translations 5727
L2C Dense regions hint from L2: 0
PSCL5 TOTAL     ACCESS:      47151  HIT:      47151  MISS:          0  HIT %:        100  MISS %:          0   MPKI: 0
PSCL5 LOAD TRANSLATION ACCESS:      47151  HIT:      47151  MISS:          0  HIT %:        100  MISS %:          0   MPKI: 0
PSCL5 PREFETCH  REQUESTED:          0  ISSUED:          0  USEFUL:          0  USELESS:          0
PSCL5 USEFUL LOAD PREFETCHES:          0 PREFETCH ISSUED TO LOWER LEVEL:          0  ACCURACY: -nan
PSCL5 TIMELY PREFETCHES:          0 LATE PREFETCHES: 0 DROPPED PREFETCHES: 0
PSCL5 PREFETCHES SAME FILL-ORIGIN LEVEL: 0 DIFFERENT FILL-ORIGIN LEVEL: 0

PSCL4 TOTAL     ACCESS:      47151  HIT:      47151  MISS:          0  HIT %:        100  MISS %:          0   MPKI: 0
PSCL4 LOAD TRANSLATION ACCESS:      47151  HIT:      47151  MISS:          0  HIT %:        100  MISS %:          0   MPKI: 0
PSCL4 PREFETCH  REQUESTED:          0  ISSUED:          0  USEFUL:          0  USELESS:          0
PSCL4 USEFUL LOAD PREFETCHES:          0 PREFETCH ISSUED TO LOWER LEVEL:          0  ACCURACY: -nan
PSCL4 TIMELY PREFETCHES:          0 LATE PREFETCHES: 0 DROPPED PREFETCHES: 0
PSCL4 PREFETCHES SAME FILL-ORIGIN LEVEL: 0 DIFFERENT FILL-ORIGIN LEVEL: 0

PSCL3 TOTAL     ACCESS:      47151  HIT:      47151  MISS:          0  HIT %:        100  MISS %:          0   MPKI: 0
PSCL3 LOAD TRANSLATION ACCESS:      47151  HIT:      47151  MISS:          0  HIT %:        100  MISS %:          0   MPKI: 0
PSCL3 PREFETCH  REQUESTED:          0  ISSUED:          0  USEFUL:          0  USELESS:          0
PSCL3 USEFUL LOAD PREFETCHES:          0 PREFETCH ISSUED TO LOWER LEVEL:          0  ACCURACY: -nan
PSCL3 TIMELY PREFETCHES:          0 LATE PREFETCHES: 0 DROPPED PREFETCHES: 0
PSCL3 PREFETCHES SAME FILL-ORIGIN LEVEL: 0 DIFFERENT FILL-ORIGIN LEVEL: 0

PSCL2 TOTAL     ACCESS:      47151  HIT:      47103  MISS:         48  HIT %:    99.8982  MISS %:   0.101801   MPKI: 0.00048
PSCL2 LOAD TRANSLATION ACCESS:      47151  HIT:      47103  MISS:         48  HIT %:    99.8982  MISS %:   0.101801   MPKI: 0.00048
PSCL2 PREFETCH  REQUESTED:          0  ISSUED:          0  USEFUL:          0  USELESS:          0
PSCL2 USEFUL LOAD PREFETCHES:          0 PREFETCH ISSUED TO LOWER LEVEL:          0  ACCURACY: -nan
PSCL2 TIMELY PREFETCHES:          0 LATE PREFETCHES: 0 DROPPED PREFETCHES: 0
PSCL2 PREFETCHES SAME FILL-ORIGIN LEVEL: 0 DIFFERENT FILL-ORIGIN LEVEL: 0

LLC TOTAL     ACCESS:    5415903  HIT:    2338308  MISS:    3077595  HIT %:    43.1749  MISS %:    56.8251   MPKI: 30.7759
LLC LOAD      ACCESS:      56309  HIT:         16  MISS:      56293  HIT %:  0.0284146  MISS %:    99.9716   MPKI: 0.56293
LLC RFO       ACCESS:    2324643  HIT:      62088  MISS:    2262555  HIT %:    2.67086  MISS %:    97.3291   MPKI: 22.6255
LLC PREFETCH  ACCESS:     698116  HIT:        190  MISS:     697926  HIT %:  0.0272161  MISS %:    99.9728   MPKI: 6.97926
LLC WRITEBACK ACCESS:    2330639  HIT:    2275778  MISS:      54861  HIT %:    97.6461  MISS %:     2.3539   MPKI: 0.54861
LLC LOAD TRANSLATION ACCESS:       6196  HIT:        236  MISS:       5960  HIT %:    3.80891  MISS %:    96.1911   MPKI: 0.0596
LLC PREFETCH  REQUESTED:          0  ISSUED:          0  USEFUL:         16  USELESS:     698122
LLC USEFUL LOAD PREFETCHES:         16 PREFETCH ISSUED TO LOWER LEVEL:     697928  ACCURACY: 0.0022925
LLC TIMELY PREFETCHES:         16 LATE PREFETCHES: 0 DROPPED PREFETCHES: 0
LLC PREFETCHES SAME FILL-ORIGIN LEVEL: 0 DIFFERENT FILL-ORIGIN LEVEL: 0
LLC AVERAGE MISS LATENCY: 569.383 cycles
LLC RQ	ACCESS:    2387176	FORWARD:          0	MERGED:          0	TO_CACHE:    2387157
LLC WQ	ACCESS:    2330639	FORWARD:         19	MERGED:          0	TO_CACHE:    2330639
LLC PQ	ACCESS:     698118	FORWARD:          0	MERGED:          0	TO_CACHE:     698118

LLC Dense regions hint to LLC: 0

RAW hits: 688897
Loads Generated: 24249455
Loads sent to L1D: 23560555
Stores Generated: 16054191
Stores sent to L1D: 16054211
Major fault: 0 Minor fault: 43296
Allocated PAGES: 43296

stream: 
stream:times selected: 5167320
stream:pref_filled: 464776
stream:pref_useful: 464771
stream:pref_late: 25292
stream:misses: 42080
stream:misses_by_poll: 0

CS: 
CS:times selected: 841386
CS:pref_filled: 234576
CS:pref_useful: 234576
CS:pref_late: 5012
CS:misses: 70115
CS:misses_by_poll: 797

CPLX: 
CPLX:times selected: 4322354
CPLX:pref_filled: 370549
CPLX:pref_useful: 370547
CPLX:pref_late: 8992
CPLX:misses: 133285
CPLX:misses_by_poll: 1394

NL_L1: 
NL:times selected: 2276
NL:pref_filled: 103
NL:pref_useful: 103
NL:pref_late: 19
NL:misses: 182
NL:misses_by_poll: 0

total selections: 10333336
total_filled: 569219
total_useful: 569218
total_late: 40866
total_polluted: 2191
total_misses_after_warmup: 226014
conflicts: 260710
Degree Incremented Times: 179018
Degree Decremented Times: 0

L1 IP Table Write Accesses: 9403286
L1 IP Table Read Accesses: 9142576
L1 RST Write Accesses: 3201069
L1 RST Read Accesses: 6402138
L1 CSPT Write Accesses: 3201069
L1 CSPT Read Accesses: 10346294
L1 RR Filter Tag Write Accesses: 743235
L1 RR Filter Tag Read Accesses: 110195110
L1 IP Table Tag Write Accesses: 10659780
L1 IP Table Tag Read Accesses: 10659780
L1 RST Tag Write Accesses: 0
L1 RST Tag Read Accesses: 28890252
L1 RR Filter Write Accesses: 0
L1 RR Filter Read Accesses: 4013134
test: 621367
L2 IP Table Read Accesses: 1199913
L2 IP Table Write Accesses: 1045437
L2 IP Table Tag Read Accesses: 599966
L2 IP Table Tag Write Accesses: 599966

DRAM Statistics
 CHANNEL 0
 RQ ROW_BUFFER_HIT:     244601  ROW_BUFFER_MISS:    2778133
 DBUS_CONGESTED:          0
 WQ ROW_BUFFER_HIT:     337304  ROW_BUFFER_MISS:    1925211  FULL:        448

 AVG_CONGESTED_CYCLE: -
 All warmup complete: 2
Channel 0 Bank busy for read cycles: 0
Channel 0 Bank busy for write cycles: 0
Channel 0
Rank 0
0banks busy for read cycles: 15824
0banks busy for write cycles: 0
1banks busy for read cycles: 1276409
1banks busy for write cycles: 224029
2banks busy for read cycles: 1947356
2banks busy for write cycles: 224028
3banks busy for read cycles: 4135442
3banks busy for write cycles: 224025
4banks busy for read cycles: 6843755
4banks busy for write cycles: 224024
5banks busy for read cycles: 12434643
5banks busy for write cycles: 224119
6banks busy for read cycles: 16264974
6banks busy for write cycles: 231076
7banks busy for read cycles: 18988131
7banks busy for write cycles: 2684292
8banks busy for read cycles: 18783889
8banks busy for write cycles: 49923093

CPU 0 Branch Prediction Accuracy: 98.6967% MPKI: 0.17071 Average ROB Occupancy at Mispredict: 129.813
Branch types
NOT_BRANCH: 98689842 98.6898%
BRANCH_DIRECT_JUMP: 99276 0.099276%
BRANCH_INDIRECT: 0 0%
BRANCH_CONDITIONAL: 1210545 1.21054%
BRANCH_DIRECT_CALL: 0 0%
BRANCH_INDIRECT_CALL: 0 0%
BRANCH_RETURN: 0 0%
BRANCH_OTHER: 0 0%

DRAM PAGES: 1048576
Allocated PAGES: 43296
