
*** ChampSim Multicore Out-of-Order Simulator ***

Warmup Instructions: 50000000
Simulation Instructions: 100000000
Number of CPUs: 1
LLC sets: 2048
LLC ways: 16
Off-chip DRAM Size: 4096 MB Channels: 1 Width: 64-bit Data Rate: 6400 MT/s
CPU 0 runs ../SPEC2017//619.lbm_s-4268B.champsimtrace.xz
.xz
NUM_OF_IPS_IN_CRITICAL_IP_TRAINING: 64
NUM_OF_CRITICAL_IP_TRAINING_TABLE_WAYS: 2
NUM_OF_CRITICAL_IP_TRAINING_TABLE_SETS: 32
WOBBLY_CRITICAL_IP_CACHE_SETS: 32
WOBBLY_CRITICAL_IP_CACHE_WAYS: 4
BTB has LRU replacement policy
ITLB has LRU replacement policy
DTLB has LRU replacement policy
STLB has LRU replacement policy
L1I has LRU replacement policy
IP Table Entries: 64
L1D has LRU replacement policy
Initialize SRRIP state for L2C
Initialize DRRIP state for LLC
Heartbeat CPU 0 instructions: 10000000 cycles: 2904987 heartbeat IPC: 3.44236 cumulative IPC: 3.44236 (Simulation time: 0 hr 7 min 48 sec) 
Heartbeat CPU 0 instructions: 20000001 cycles: 5808602 heartbeat IPC: 3.44398 cumulative IPC: 3.44317 (Simulation time: 0 hr 15 min 0 sec) 
Heartbeat CPU 0 instructions: 30000000 cycles: 8708177 heartbeat IPC: 3.44878 cumulative IPC: 3.44504 (Simulation time: 0 hr 22 min 3 sec) 
Heartbeat CPU 0 instructions: 40000000 cycles: 11614078 heartbeat IPC: 3.44127 cumulative IPC: 3.4441 (Simulation time: 0 hr 29 min 0 sec) 
Heartbeat CPU 0 instructions: 50000002 cycles: 14520907 heartbeat IPC: 3.44018 cumulative IPC: 3.44331 (Simulation time: 0 hr 35 min 36 sec) 

Warmup complete CPU 0 instructions: 50000002 cycles: 14520907 (Simulation time: 0 hr 35 min 36 sec) 

% increase in all ip prefetch 506.068
% increase in all ip prefetch 32.1548
% increase in all ip prefetch 19.9959
% increase in all ip prefetch -7.15841
Heartbeat CPU 0 instructions: 60000000 cycles: 35149457 heartbeat IPC: 0.484765 cumulative IPC: 0.484765 (Simulation time: 0 hr 48 min 43 sec) 
Heartbeat CPU 0 instructions: 70000000 cycles: 55395288 heartbeat IPC: 0.493929 cumulative IPC: 0.489304 (Simulation time: 0 hr 59 min 45 sec) 
Heartbeat CPU 0 instructions: 80000000 cycles: 75419833 heartbeat IPC: 0.499387 cumulative IPC: 0.492619 (Simulation time: 1 hr 8 min 52 sec) 
Heartbeat CPU 0 instructions: 90000001 cycles: 95706796 heartbeat IPC: 0.492927 cumulative IPC: 0.492696 (Simulation time: 1 hr 16 min 29 sec) 
Heartbeat CPU 0 instructions: 100000001 cycles: 115599554 heartbeat IPC: 0.502696 cumulative IPC: 0.494664 (Simulation time: 1 hr 21 min 11 sec) 
Heartbeat CPU 0 instructions: 110000000 cycles: 135802318 heartbeat IPC: 0.494982 cumulative IPC: 0.494717 (Simulation time: 1 hr 24 min 34 sec) 
Heartbeat CPU 0 instructions: 120000001 cycles: 156303876 heartbeat IPC: 0.487768 cumulative IPC: 0.493712 (Simulation time: 1 hr 27 min 13 sec) 
Heartbeat CPU 0 instructions: 130000002 cycles: 176196586 heartbeat IPC: 0.502697 cumulative IPC: 0.494818 (Simulation time: 1 hr 28 min 40 sec) 
Heartbeat CPU 0 instructions: 140000000 cycles: 196430698 heartbeat IPC: 0.494215 cumulative IPC: 0.494751 (Simulation time: 1 hr 30 min 12 sec) 
Heartbeat CPU 0 instructions: 150000001 cycles: 216822301 heartbeat IPC: 0.490398 cumulative IPC: 0.494312 (Simulation time: 1 hr 31 min 44 sec) 
Finished CPU 0 instructions: 100000003 cycles: 202301395 cumulative IPC: 0.494312 (Simulation time: 1 hr 31 min 44 sec) 

ChampSim completed all CPUs

Region of Interest Statistics

CPU 0 cumulative IPC: 0.494312 instructions: 100000003 cycles: 202301395

CPU 0 Average Load ROB stall cycles: 2.66019e+07
CPU 0 Fraction of times ROB stalled by Loads: 22.9356
CPU 0 Percentage of Load stall cycles in Total stall cycles: 2.63928e+08
Issued all: 117431784
Issued LT all: 104555213
rob_not_full_when_issued_lt_all: 34757324
Issued LT one: 96419369
rob_not_full_when_issued_lt_one: 28832720
 Total stall cycles: 132055605
 Total load stall cycles: 348531198581880
CPU 0 NUM of IPS identified critical: 0
CPU 0 Num of Load IPs stalling ROB: 128
Threshold modification factor: -3
Max PIST entries: 62
Min PIST entries: 0
Avg PIST entries: 35.2067
Trouble in retire width: 0.761083
MaC = Marked as critical.
lt_50_percent_before_Mac: 0
gt_90_percent_before_Mac: 0
gt_75_percent_before_Mac: 0
gt_50_percent_before_Mac: 0
stall_proportion_bin_same_before_after: 0
stall_proportion_bin_lower_before_after: 0
stall_proportion_bin_upper_before_after: 0
average_stall_proportion_before: -nan
average_stall_proportion_after: -nan
Critical IP stalls, total frequency: 0
Non-critical IP stalls, total frequency: 3004956
Total Freq all stalling IPs: 3004956
stat_90_percent_critical_ip_stalls_freq: 2710013
stat_90_percent_non_critical_ip_stalls_freq: 294943
Critical_IP_ROB_Stalls_Bucket_0: 0
Non-critical_IP_ROB_Stalls_Bucket_0: 2248377
Critical_IP_ROB_Stalls_Bucket_1: 0
Non-critical_IP_ROB_Stalls_Bucket_1: 305547
Critical_IP_ROB_Stalls_Bucket_2: 0
Non-critical_IP_ROB_Stalls_Bucket_2: 50425
Critical_IP_ROB_Stalls_Bucket_3: 0
Non-critical_IP_ROB_Stalls_Bucket_3: 53077
Critical_IP_ROB_Stalls_Bucket_4: 0
Non-critical_IP_ROB_Stalls_Bucket_4: 45358
Critical_IP_ROB_Stalls_Bucket_5: 0
Non-critical_IP_ROB_Stalls_Bucket_5: 52039
Critical_IP_ROB_Stalls_Bucket_6: 0
Non-critical_IP_ROB_Stalls_Bucket_6: 250133
0 => IPs accounting for >50 percent of stalls, 1 => 55, 2 => 60, 3 => 65 and so on till 90.
percent50: 51.0664 num IPs:  13
percent55: 56.3196 num IPs: 15
percent60: 61.4835 num IPs: 17
percent65: 66.4041 num IPs: 19
percent70: 71.0255 num IPs: 21
percent75: 76.4524 num IPs: 24
percent80: 80.2987 num IPs: 27
percent85: 85.1667 num IPs: 32
percent90: 90.1848 num IPs: 39
Critical_ROB_Stalls_Percent_0_Bucket_0: 1007308
Non-critical_ROB_Stalls_Percent_0_Bucket_0: 1241069
Critical_ROB_Stalls_Percent_0_Bucket_1: 246883
Non-critical_ROB_Stalls_Percent_0_Bucket_1: 58664
Critical_ROB_Stalls_Percent_0_Bucket_2: 29732
Non-critical_ROB_Stalls_Percent_0_Bucket_2: 20693
Critical_ROB_Stalls_Percent_0_Bucket_3: 25848
Non-critical_ROB_Stalls_Percent_0_Bucket_3: 27229
Critical_ROB_Stalls_Percent_0_Bucket_4: 22375
Non-critical_ROB_Stalls_Percent_0_Bucket_4: 22983
Critical_ROB_Stalls_Percent_0_Bucket_5: 32493
Non-critical_ROB_Stalls_Percent_0_Bucket_5: 19546
Critical_ROB_Stalls_Percent_0_Bucket_6: 169884
Non-critical_ROB_Stalls_Percent_0_Bucket_6: 80249
Critical_ROB_Stalls_Percent_1_Bucket_0: 1159330
Non-critical_ROB_Stalls_Percent_1_Bucket_0: 1089047
Critical_ROB_Stalls_Percent_1_Bucket_1: 247214
Non-critical_ROB_Stalls_Percent_1_Bucket_1: 58333
Critical_ROB_Stalls_Percent_1_Bucket_2: 30356
Non-critical_ROB_Stalls_Percent_1_Bucket_2: 20069
Critical_ROB_Stalls_Percent_1_Bucket_3: 27187
Non-critical_ROB_Stalls_Percent_1_Bucket_3: 25890
Critical_ROB_Stalls_Percent_1_Bucket_4: 24355
Non-critical_ROB_Stalls_Percent_1_Bucket_4: 21003
Critical_ROB_Stalls_Percent_1_Bucket_5: 33267
Non-critical_ROB_Stalls_Percent_1_Bucket_5: 18772
Critical_ROB_Stalls_Percent_1_Bucket_6: 170670
Non-critical_ROB_Stalls_Percent_1_Bucket_6: 79463
Critical_ROB_Stalls_Percent_2_Bucket_0: 1313199
Non-critical_ROB_Stalls_Percent_2_Bucket_0: 935178
Critical_ROB_Stalls_Percent_2_Bucket_1: 247350
Non-critical_ROB_Stalls_Percent_2_Bucket_1: 58197
Critical_ROB_Stalls_Percent_2_Bucket_2: 30650
Non-critical_ROB_Stalls_Percent_2_Bucket_2: 19775
Critical_ROB_Stalls_Percent_2_Bucket_3: 27611
Non-critical_ROB_Stalls_Percent_2_Bucket_3: 25466
Critical_ROB_Stalls_Percent_2_Bucket_4: 24503
Non-critical_ROB_Stalls_Percent_2_Bucket_4: 20855
Critical_ROB_Stalls_Percent_2_Bucket_5: 33380
Non-critical_ROB_Stalls_Percent_2_Bucket_5: 18659
Critical_ROB_Stalls_Percent_2_Bucket_6: 170858
Non-critical_ROB_Stalls_Percent_2_Bucket_6: 79275
Critical_ROB_Stalls_Percent_3_Bucket_0: 1457546
Non-critical_ROB_Stalls_Percent_3_Bucket_0: 790831
Critical_ROB_Stalls_Percent_3_Bucket_1: 248907
Non-critical_ROB_Stalls_Percent_3_Bucket_1: 56640
Critical_ROB_Stalls_Percent_3_Bucket_2: 31150
Non-critical_ROB_Stalls_Percent_3_Bucket_2: 19275
Critical_ROB_Stalls_Percent_3_Bucket_3: 28141
Non-critical_ROB_Stalls_Percent_3_Bucket_3: 24936
Critical_ROB_Stalls_Percent_3_Bucket_4: 24717
Non-critical_ROB_Stalls_Percent_3_Bucket_4: 20641
Critical_ROB_Stalls_Percent_3_Bucket_5: 33567
Non-critical_ROB_Stalls_Percent_3_Bucket_5: 18472
Critical_ROB_Stalls_Percent_3_Bucket_6: 171386
Non-critical_ROB_Stalls_Percent_3_Bucket_6: 78747
Critical_ROB_Stalls_Percent_4_Bucket_0: 1593045
Non-critical_ROB_Stalls_Percent_4_Bucket_0: 655332
Critical_ROB_Stalls_Percent_4_Bucket_1: 250431
Non-critical_ROB_Stalls_Percent_4_Bucket_1: 55116
Critical_ROB_Stalls_Percent_4_Bucket_2: 31316
Non-critical_ROB_Stalls_Percent_4_Bucket_2: 19109
Critical_ROB_Stalls_Percent_4_Bucket_3: 28290
Non-critical_ROB_Stalls_Percent_4_Bucket_3: 24787
Critical_ROB_Stalls_Percent_4_Bucket_4: 24873
Non-critical_ROB_Stalls_Percent_4_Bucket_4: 20485
Critical_ROB_Stalls_Percent_4_Bucket_5: 33718
Non-critical_ROB_Stalls_Percent_4_Bucket_5: 18321
Critical_ROB_Stalls_Percent_4_Bucket_6: 172613
Non-critical_ROB_Stalls_Percent_4_Bucket_6: 77520
Critical_ROB_Stalls_Percent_5_Bucket_0: 1753247
Non-critical_ROB_Stalls_Percent_5_Bucket_0: 495130
Critical_ROB_Stalls_Percent_5_Bucket_1: 250656
Non-critical_ROB_Stalls_Percent_5_Bucket_1: 54891
Critical_ROB_Stalls_Percent_5_Bucket_2: 31666
Non-critical_ROB_Stalls_Percent_5_Bucket_2: 18759
Critical_ROB_Stalls_Percent_5_Bucket_3: 29275
Non-critical_ROB_Stalls_Percent_5_Bucket_3: 23802
Critical_ROB_Stalls_Percent_5_Bucket_4: 25662
Non-critical_ROB_Stalls_Percent_5_Bucket_4: 19696
Critical_ROB_Stalls_Percent_5_Bucket_5: 34025
Non-critical_ROB_Stalls_Percent_5_Bucket_5: 18014
Critical_ROB_Stalls_Percent_5_Bucket_6: 172831
Non-critical_ROB_Stalls_Percent_5_Bucket_6: 77302
Critical_ROB_Stalls_Percent_6_Bucket_0: 1856563
Non-critical_ROB_Stalls_Percent_6_Bucket_0: 391814
Critical_ROB_Stalls_Percent_6_Bucket_1: 252749
Non-critical_ROB_Stalls_Percent_6_Bucket_1: 52798
Critical_ROB_Stalls_Percent_6_Bucket_2: 32688
Non-critical_ROB_Stalls_Percent_6_Bucket_2: 17737
Critical_ROB_Stalls_Percent_6_Bucket_3: 32127
Non-critical_ROB_Stalls_Percent_6_Bucket_3: 20950
Critical_ROB_Stalls_Percent_6_Bucket_4: 29024
Non-critical_ROB_Stalls_Percent_6_Bucket_4: 16334
Critical_ROB_Stalls_Percent_6_Bucket_5: 35458
Non-critical_ROB_Stalls_Percent_6_Bucket_5: 16581
Critical_ROB_Stalls_Percent_6_Bucket_6: 174332
Non-critical_ROB_Stalls_Percent_6_Bucket_6: 75801
Critical_ROB_Stalls_Percent_7_Bucket_0: 1979157
Non-critical_ROB_Stalls_Percent_7_Bucket_0: 269220
Critical_ROB_Stalls_Percent_7_Bucket_1: 254256
Non-critical_ROB_Stalls_Percent_7_Bucket_1: 51291
Critical_ROB_Stalls_Percent_7_Bucket_2: 34536
Non-critical_ROB_Stalls_Percent_7_Bucket_2: 15889
Critical_ROB_Stalls_Percent_7_Bucket_3: 34919
Non-critical_ROB_Stalls_Percent_7_Bucket_3: 18158
Critical_ROB_Stalls_Percent_7_Bucket_4: 31290
Non-critical_ROB_Stalls_Percent_7_Bucket_4: 14068
Critical_ROB_Stalls_Percent_7_Bucket_5: 37417
Non-critical_ROB_Stalls_Percent_7_Bucket_5: 14622
Critical_ROB_Stalls_Percent_7_Bucket_6: 187647
Non-critical_ROB_Stalls_Percent_7_Bucket_6: 62486
Critical_ROB_Stalls_Percent_8_Bucket_0: 2075476
Non-critical_ROB_Stalls_Percent_8_Bucket_0: 172901
Critical_ROB_Stalls_Percent_8_Bucket_1: 271518
Non-critical_ROB_Stalls_Percent_8_Bucket_1: 34029
Critical_ROB_Stalls_Percent_8_Bucket_2: 37799
Non-critical_ROB_Stalls_Percent_8_Bucket_2: 12626
Critical_ROB_Stalls_Percent_8_Bucket_3: 38763
Non-critical_ROB_Stalls_Percent_8_Bucket_3: 14314
Critical_ROB_Stalls_Percent_8_Bucket_4: 34756
Non-critical_ROB_Stalls_Percent_8_Bucket_4: 10602
Critical_ROB_Stalls_Percent_8_Bucket_5: 42381
Non-critical_ROB_Stalls_Percent_8_Bucket_5: 9658
Critical_ROB_Stalls_Percent_8_Bucket_6: 209320
Non-critical_ROB_Stalls_Percent_8_Bucket_6: 40813
Average ROB occupancy Load Stall Begin: 58.5343
Average ROB occupancy Load Stall End: 69.5157
Min ROB occupancy Load Stall Begin: 2
Max ROB occupancy Load Stall Begin: 352
Min ROB occupancy Load Stall End: 2
Max ROB occupancy Load Stall End: 352
Average ROB occupancy Critical Load Stall Begin: -nan
Average ROB occupancy Critical Load Stall End: -nan
Min ROB occupancy Critical Load Stall Begin: 400
Max ROB occupancy Critical Load Stall Begin: 0
Min ROB occupancy Critical Load Stall End: 400
Max ROB occupancy Critical Load Stall End: 0
 ROB Load Stall Begin Bucket Count 0: 2458975
 ROB Load Stall End Bucket Count 0: 2248377
 ROB Critical Load Stall Begin Bucket Count 0: 0
 ROB Critical Load Stall End Bucket Count 0: 0
 ROB Load Stall Begin Bucket Count 1: 146661
 ROB Load Stall End Bucket Count 1: 305547
 ROB Critical Load Stall Begin Bucket Count 1: 0
 ROB Critical Load Stall End Bucket Count 1: 0
 ROB Load Stall Begin Bucket Count 2: 52300
 ROB Load Stall End Bucket Count 2: 50425
 ROB Critical Load Stall Begin Bucket Count 2: 0
 ROB Critical Load Stall End Bucket Count 2: 0
 ROB Load Stall Begin Bucket Count 3: 50434
 ROB Load Stall End Bucket Count 3: 53077
 ROB Critical Load Stall Begin Bucket Count 3: 0
 ROB Critical Load Stall End Bucket Count 3: 0
 ROB Load Stall Begin Bucket Count 4: 45819
 ROB Load Stall End Bucket Count 4: 45358
 ROB Critical Load Stall Begin Bucket Count 4: 0
 ROB Critical Load Stall End Bucket Count 4: 0
 ROB Load Stall Begin Bucket Count 5: 60490
 ROB Load Stall End Bucket Count 5: 52039
 ROB Critical Load Stall Begin Bucket Count 5: 0
 ROB Critical Load Stall End Bucket Count 5: 0
 ROB Load Stall Begin Bucket Count 6: 190277
 ROB Load Stall End Bucket Count 6: 250133
 ROB Critical Load Stall Begin Bucket Count 6: 0
 ROB Critical Load Stall End Bucket Count 6: 0
PIST Tag Read Accesses: 653958
PIST Read Accesses: 326979
PIST Tag Write Accesses: 653958
PIST Write Accesses: 326979
Criticality detector called times: 896281
Max global_stall_cycles_count: 802588
Threshold Modified: 3 times, factor: -3
Sturdy critical IP cache stats: 
 Unused entries: 0
CIC Tag Read Accesses: 0
CIC Read Accesses: 0
CIC Tag Write Accesses: 0
CIC Write Accesses: 0
Wobbly critical IP cache stats: 
 Unused entries: 96
CIC Tag Read Accesses: 189410537
CIC Read Accesses: 0
CIC Tag Write Accesses: 5216754
CIC Write Accesses: 0
ITLB TOTAL     ACCESS:   13492758  HIT:   13492758  MISS:          0  HIT %:        100  MISS %:          0   MPKI: 0
ITLB LOAD TRANSLATION ACCESS:   13492758  HIT:   13492758  MISS:          0  HIT %:        100  MISS %:          0   MPKI: 0
ITLB PREFETCH  REQUESTED:          0  ISSUED:          0  USEFUL:          0  USELESS:          0
ITLB USEFUL LOAD PREFETCHES:          0 PREFETCH ISSUED TO LOWER LEVEL:          0  ACCURACY: -nan
ITLB TIMELY PREFETCHES:          0 LATE PREFETCHES: 0 DROPPED PREFETCHES: 0
ITLB PREFETCHES SAME FILL-ORIGIN LEVEL: 0 DIFFERENT FILL-ORIGIN LEVEL: 0
ITLB AVERAGE MISS LATENCY: -nan cycles
ITLB RQ	ACCESS:   17384704	FORWARD:          0	MERGED:    3891946	TO_CACHE:   13492758

DTLB TOTAL     ACCESS:   17714612  HIT:   17577539  MISS:     137073  HIT %:    99.2262  MISS %:   0.773785   MPKI: 1.37073
DTLB LOAD TRANSLATION ACCESS:   17714612  HIT:   17577539  MISS:     137073  HIT %:    99.2262  MISS %:   0.773785   MPKI: 1.37073
DTLB PREFETCH  REQUESTED:          0  ISSUED:          0  USEFUL:          0  USELESS:          0
DTLB USEFUL LOAD PREFETCHES:          0 PREFETCH ISSUED TO LOWER LEVEL:          0  ACCURACY: -nan
DTLB TIMELY PREFETCHES:          0 LATE PREFETCHES: 0 DROPPED PREFETCHES: 0
DTLB PREFETCHES SAME FILL-ORIGIN LEVEL: 0 DIFFERENT FILL-ORIGIN LEVEL: 0
DTLB AVERAGE MISS LATENCY: 117.789 cycles
DTLB RQ	ACCESS:   24744812	FORWARD:          0	MERGED:    6975389	TO_CACHE:   17769423

STLB TOTAL     ACCESS:     774041  HIT:     699664  MISS:      74377  HIT %:    90.3911  MISS %:    9.60892   MPKI: 0.74377
STLB LOAD TRANSLATION ACCESS:     137073  HIT:      62696  MISS:      74377  HIT %:    45.7391  MISS %:    54.2609   MPKI: 0.74377
STLB TRANSLATION FROM L1D PREFETCHER ACCESS:     636968  HIT:     636968  MISS:          0  HIT %:        100  MISS %:          0   MPKI: 0
STLB PREFETCH  REQUESTED:          0  ISSUED:          0  USEFUL:          0  USELESS:          0
STLB USEFUL LOAD PREFETCHES:          0 PREFETCH ISSUED TO LOWER LEVEL:          0  ACCURACY: -nan
STLB TIMELY PREFETCHES:          0 LATE PREFETCHES: 0 DROPPED PREFETCHES: 0
STLB PREFETCHES SAME FILL-ORIGIN LEVEL: 0 DIFFERENT FILL-ORIGIN LEVEL: 0
STLB AVERAGE MISS LATENCY: 197.989 cycles
STLB RQ	ACCESS:    1302138	FORWARD:          0	MERGED:     528096	TO_CACHE:     774042

STLB Hit, L1D data hit: 0
STLB Hit, L2C data hit: 0
STLB Hit, LLC data hit: 0
STLB Hit, LLC data miss: 0
STLB STLB hints to L2: 0
L1D TOTAL     ACCESS:   25361911  HIT:   17509591  MISS:    7852320  HIT %:    69.0389  MISS %:    30.9611   MPKI: 78.5232
L1D LOAD      ACCESS:    8336921  HIT:    7874459  MISS:     462462  HIT %:    94.4528  MISS %:    5.54716   MPKI: 4.62462
L1D RFO       ACCESS:   16130573  HIT:    9468172  MISS:    6662401  HIT %:    58.6971  MISS %:    41.3029   MPKI: 66.624
L1D PREFETCH  ACCESS:     894417  HIT:     166960  MISS:     727457  HIT %:    18.6669  MISS %:    81.3331   MPKI: 7.27457
L1D PREFETCH  REQUESTED:    2361863  ISSUED:    2330131  USEFUL:     727464  USELESS:          0
L1D USEFUL LOAD PREFETCHES:     727464 PREFETCH ISSUED TO LOWER LEVEL:     816321  ACCURACY: 89.1149
L1D TIMELY PREFETCHES:     727464 LATE PREFETCHES: 88436 DROPPED PREFETCHES: 0
L1D PREFETCHES SAME FILL-ORIGIN LEVEL: 816321 DIFFERENT FILL-ORIGIN LEVEL: 0
L1D AVERAGE MISS LATENCY: 1.29794e+06 cycles
L1D RQ	ACCESS:   24853184	FORWARD:          0	MERGED:   11928899	TO_CACHE:    8470705
L1D WQ	ACCESS:   18427539	FORWARD:    4453580	MERGED:    2153432	TO_CACHE:   16274107
L1D PQ	ACCESS:    1165067	FORWARD:          0	MERGED:          3	TO_CACHE:    1165064

L1D UNIQUE REGIONS ACCESSED: 0
L1D REGIONS CONFLICTS: 0
L1D Cross Page Prefetch Requests: 0
L1D Same Page Prefetch Requests: 1773450
L1D ROI Sum of L1D PQ occupancy: 1094305650
L1D PREFETCHES PUSHED FROM L2C: 0
L1I TOTAL     ACCESS:   17384703  HIT:   17384703  MISS:          0  HIT %:        100  MISS %:          0   MPKI: 0
L1I LOAD      ACCESS:   17384703  HIT:   17384703  MISS:          0  HIT %:        100  MISS %:          0   MPKI: 0
L1I PREFETCH  REQUESTED:          0  ISSUED:          0  USEFUL:          0  USELESS:          0
L1I USEFUL LOAD PREFETCHES:          0 PREFETCH ISSUED TO LOWER LEVEL:          0  ACCURACY: -nan
L1I TIMELY PREFETCHES:          0 LATE PREFETCHES: 0 DROPPED PREFETCHES: 0
L1I PREFETCHES SAME FILL-ORIGIN LEVEL: 0 DIFFERENT FILL-ORIGIN LEVEL: 0
L1I AVERAGE MISS LATENCY: -nan cycles
L1I RQ	ACCESS:   25134830	FORWARD:          0	MERGED:    7750126	TO_CACHE:   17384704

BTB TOTAL     ACCESS:    1795670  HIT:    1795664  MISS:          6  HIT %:    99.9997  MISS %: 0.000334137   MPKI: 6e-05
BTB BRANCH_DIRECT_JUMP	ACCESS:     291819  HIT:     291818  MISS:          1
BTB BRANCH_INDIRECT	ACCESS:          0  HIT:          0  MISS:          0
BTB BRANCH_CONDITIONAL	ACCESS:    1503851  HIT:    1503846  MISS:          5
BTB BRANCH_DIRECT_CALL	ACCESS:          0  HIT:          0  MISS:          0
BTB BRANCH_INDIRECT_CALL	ACCESS:          0  HIT:          0  MISS:          0
BTB BRANCH_RETURN	ACCESS:          0  HIT:          0  MISS:          0
BTB BRANCH_OTHER ACCESS:          0  HIT:          0  MISS:          0

L2C TOTAL     ACCESS:   15945012  HIT:   10772179  MISS:    5172833  HIT %:    67.5583  MISS %:    32.4417   MPKI: 51.7283
L2C LOAD      ACCESS:     374028  HIT:     186006  MISS:     188022  HIT %:    49.7305  MISS %:    50.2695   MPKI: 1.88022
L2C DATA LOAD MPKI: 1.88022
L2C INSTRUCTION LOAD MPKI: 0
L2C RFO       ACCESS:    6662394  HIT:    3017130  MISS:    3645264  HIT %:     45.286  MISS %:     54.714   MPKI: 36.4526
L2C PREFETCH  ACCESS:    2171809  HIT:    1169584  MISS:    1002225  HIT %:     53.853  MISS %:     46.147   MPKI: 10.0222
L2C DATA PREFETCH MPKI: 10.0222
L2C INSTRUCTION PREFETCH MPKI: 0
L2C WRITEBACK ACCESS:    6662400  HIT:    6334798  MISS:     327602  HIT %:    95.0828  MISS %:    4.91718   MPKI: 3.27602
L2C LOAD TRANSLATION ACCESS:      74381  HIT:      64661  MISS:       9720  HIT %:    86.9321  MISS %:    13.0679   MPKI: 0.0972
L2C PREFETCH  REQUESTED:    2141483  ISSUED:    2141363  USEFUL:     185951  USELESS:     817032
L2C USEFUL LOAD PREFETCHES:     185951 PREFETCH ISSUED TO LOWER LEVEL:    1040959  ACCURACY: 17.8634
L2C TIMELY PREFETCHES:     185951 LATE PREFETCHES: 38731 DROPPED PREFETCHES: 0
L2C PREFETCHES SAME FILL-ORIGIN LEVEL: 735852 DIFFERENT FILL-ORIGIN LEVEL: 0
L2C AVERAGE MISS LATENCY: 626.292 cycles
L2C RQ	ACCESS:    7110825	FORWARD:          0	MERGED:          0	TO_CACHE:    7110818
L2C WQ	ACCESS:    6662402	FORWARD:          7	MERGED:          0	TO_CACHE:    6662402
L2C PQ	ACCESS:    2957256	FORWARD:          0	MERGED:     393740	TO_CACHE:    2563516

L2C Instructions Evicting Data 0
L2C Translations Evicting Data 9691
L2C Data Evicting Data 4826353
L2C Instructions Evicting Instructions 0
L2C Translations Evicting Instructions 0
L2C Data Evicting Instructions 0
L2C Instructions Evicting Translations 0
L2C Translations Evicting Translations 29
L2C Data Evicting Translations 9158
L2C Dense regions hint from L2: 0
PSCL5 TOTAL     ACCESS:      74378  HIT:      74378  MISS:          0  HIT %:        100  MISS %:          0   MPKI: 0
PSCL5 LOAD TRANSLATION ACCESS:      74378  HIT:      74378  MISS:          0  HIT %:        100  MISS %:          0   MPKI: 0
PSCL5 PREFETCH  REQUESTED:          0  ISSUED:          0  USEFUL:          0  USELESS:          0
PSCL5 USEFUL LOAD PREFETCHES:          0 PREFETCH ISSUED TO LOWER LEVEL:          0  ACCURACY: -nan
PSCL5 TIMELY PREFETCHES:          0 LATE PREFETCHES: 0 DROPPED PREFETCHES: 0
PSCL5 PREFETCHES SAME FILL-ORIGIN LEVEL: 0 DIFFERENT FILL-ORIGIN LEVEL: 0

PSCL4 TOTAL     ACCESS:      74378  HIT:      74378  MISS:          0  HIT %:        100  MISS %:          0   MPKI: 0
PSCL4 LOAD TRANSLATION ACCESS:      74378  HIT:      74378  MISS:          0  HIT %:        100  MISS %:          0   MPKI: 0
PSCL4 PREFETCH  REQUESTED:          0  ISSUED:          0  USEFUL:          0  USELESS:          0
PSCL4 USEFUL LOAD PREFETCHES:          0 PREFETCH ISSUED TO LOWER LEVEL:          0  ACCURACY: -nan
PSCL4 TIMELY PREFETCHES:          0 LATE PREFETCHES: 0 DROPPED PREFETCHES: 0
PSCL4 PREFETCHES SAME FILL-ORIGIN LEVEL: 0 DIFFERENT FILL-ORIGIN LEVEL: 0

PSCL3 TOTAL     ACCESS:      74378  HIT:      74378  MISS:          0  HIT %:        100  MISS %:          0   MPKI: 0
PSCL3 LOAD TRANSLATION ACCESS:      74378  HIT:      74378  MISS:          0  HIT %:        100  MISS %:          0   MPKI: 0
PSCL3 PREFETCH  REQUESTED:          0  ISSUED:          0  USEFUL:          0  USELESS:          0
PSCL3 USEFUL LOAD PREFETCHES:          0 PREFETCH ISSUED TO LOWER LEVEL:          0  ACCURACY: -nan
PSCL3 TIMELY PREFETCHES:          0 LATE PREFETCHES: 0 DROPPED PREFETCHES: 0
PSCL3 PREFETCHES SAME FILL-ORIGIN LEVEL: 0 DIFFERENT FILL-ORIGIN LEVEL: 0

PSCL2 TOTAL     ACCESS:      74378  HIT:      74302  MISS:         76  HIT %:    99.8978  MISS %:   0.102181   MPKI: 0.00076
PSCL2 LOAD TRANSLATION ACCESS:      74378  HIT:      74302  MISS:         76  HIT %:    99.8978  MISS %:   0.102181   MPKI: 0.00076
PSCL2 PREFETCH  REQUESTED:          0  ISSUED:          0  USEFUL:          0  USELESS:          0
PSCL2 USEFUL LOAD PREFETCHES:          0 PREFETCH ISSUED TO LOWER LEVEL:          0  ACCURACY: -nan
PSCL2 TIMELY PREFETCHES:          0 LATE PREFETCHES: 0 DROPPED PREFETCHES: 0
PSCL2 PREFETCHES SAME FILL-ORIGIN LEVEL: 0 DIFFERENT FILL-ORIGIN LEVEL: 0

LLC TOTAL     ACCESS:    8498310  HIT:    3674864  MISS:    4823446  HIT %:    43.2423  MISS %:    56.7577   MPKI: 48.2345
LLC LOAD      ACCESS:     149291  HIT:        128  MISS:     149163  HIT %:  0.0857386  MISS %:    99.9143   MPKI: 1.49163
LLC RFO       ACCESS:    3645163  HIT:      76238  MISS:    3568925  HIT %:    2.09148  MISS %:    97.9085   MPKI: 35.6892
LLC PREFETCH  ACCESS:    1040956  HIT:        353  MISS:    1040603  HIT %:  0.0339111  MISS %:    99.9661   MPKI: 10.406
LLC WRITEBACK ACCESS:    3653180  HIT:    3597826  MISS:      55354  HIT %:    98.4848  MISS %:    1.51523   MPKI: 0.55354
LLC LOAD TRANSLATION ACCESS:       9720  HIT:        319  MISS:       9401  HIT %:    3.28189  MISS %:    96.7181   MPKI: 0.09401
LLC PREFETCH  REQUESTED:          0  ISSUED:          0  USEFUL:         37  USELESS:    1041706
LLC USEFUL LOAD PREFETCHES:         37 PREFETCH ISSUED TO LOWER LEVEL:    1040606  ACCURACY: 0.00355562
LLC TIMELY PREFETCHES:         37 LATE PREFETCHES: 0 DROPPED PREFETCHES: 0
LLC PREFETCHES SAME FILL-ORIGIN LEVEL: 0 DIFFERENT FILL-ORIGIN LEVEL: 0
LLC AVERAGE MISS LATENCY: 644.628 cycles
LLC RQ	ACCESS:    3804286	FORWARD:          0	MERGED:          0	TO_CACHE:    3804185
LLC WQ	ACCESS:    3653182	FORWARD:        101	MERGED:          0	TO_CACHE:    3653182
LLC PQ	ACCESS:    1040959	FORWARD:          0	MERGED:          0	TO_CACHE:    1040959

LLC Dense regions hint to LLC: 0

RAW hits: 1227890
Loads Generated: 26081076
Loads sent to L1D: 24853184
Stores Generated: 18427531
Stores sent to L1D: 18427539
Major fault: 0 Minor fault: 58800
Allocated PAGES: 58800

stream: 
stream:times selected: 4317070
stream:pref_filled: 316602
stream:pref_useful: 316602
stream:pref_late: 45470
stream:misses: 67903
stream:misses_by_poll: 0

CS: 
CS:times selected: 780398
CS:pref_filled: 472698
CS:pref_useful: 472694
CS:pref_late: 15388
CS:misses: 142607
CS:misses_by_poll: 2300

CPLX: 
CPLX:times selected: 3533275
CPLX:pref_filled: 493832
CPLX:pref_useful: 493832
CPLX:pref_late: 36669
CPLX:misses: 348916
CPLX:misses_by_poll: 1733

NL_L1: 
NL:times selected: 1569
NL:pref_filled: 79
NL:pref_useful: 79
NL:pref_late: 39
NL:misses: 246
NL:misses_by_poll: 0

total selections: 8632312
total_filled: 727457
total_useful: 727464
total_late: 100867
total_polluted: 4033
total_misses_after_warmup: 596246
conflicts: 826254
Degree Incremented Times: 165293
Degree Decremented Times: 0

L1 IP Table Write Accesses: 6304571
L1 IP Table Read Accesses: 5478317
L1 RST Write Accesses: 2893256
L1 RST Read Accesses: 5786512
L1 CSPT Write Accesses: 2893256
L1 CSPT Read Accesses: 9200687
L1 RR Filter Tag Write Accesses: 1196799
L1 RR Filter Tag Read Accesses: 345508338
L1 IP Table Tag Write Accesses: 8470705
L1 IP Table Tag Read Accesses: 8470705
L1 RST Tag Write Accesses: 0
L1 RST Tag Read Accesses: 26032383
L1 RR Filter Write Accesses: 0
L1 RR Filter Read Accesses: 13672692
test: 582960
L2 IP Table Read Accesses: 2036564
L2 IP Table Write Accesses: 1662810
L2 IP Table Tag Read Accesses: 1018482
L2 IP Table Tag Write Accesses: 1018482

DRAM Statistics
 CHANNEL 0
 RQ ROW_BUFFER_HIT:     430447  ROW_BUFFER_MISS:    4337645
 DBUS_CONGESTED:          1
 WQ ROW_BUFFER_HIT:     552408  ROW_BUFFER_MISS:    3016087  FULL:        116

 AVG_CONGESTED_CYCLE: 7
 All warmup complete: 2
Channel 0 Bank busy for read cycles: 0
Channel 0 Bank busy for write cycles: 0
Channel 0
Rank 0
0banks busy for read cycles: 13061
0banks busy for write cycles: 0
1banks busy for read cycles: 1109122
1banks busy for write cycles: 346026
2banks busy for read cycles: 1409472
2banks busy for write cycles: 346026
3banks busy for read cycles: 2603085
3banks busy for write cycles: 346024
4banks busy for read cycles: 4455728
4banks busy for write cycles: 346023
5banks busy for read cycles: 12838887
5banks busy for write cycles: 346048
6banks busy for read cycles: 22248509
6banks busy for write cycles: 354573
7banks busy for read cycles: 33529903
7banks busy for write cycles: 4168035
8banks busy for read cycles: 39483721
8banks busy for write cycles: 78357153

CPU 0 Branch Prediction Accuracy: 97.1168% MPKI: 0.51773 Average ROB Occupancy at Mispredict: 176.114
Branch types
NOT_BRANCH: 98204130 98.2041%
BRANCH_DIRECT_JUMP: 291819 0.291819%
BRANCH_INDIRECT: 0 0%
BRANCH_CONDITIONAL: 1503851 1.50385%
BRANCH_DIRECT_CALL: 0 0%
BRANCH_INDIRECT_CALL: 0 0%
BRANCH_RETURN: 0 0%
BRANCH_OTHER: 0 0%

DRAM PAGES: 1048576
Allocated PAGES: 58800
