
*** ChampSim Multicore Out-of-Order Simulator ***

Warmup Instructions: 50000000
Simulation Instructions: 100000000
Number of CPUs: 1
LLC sets: 2048
LLC ways: 16
Off-chip DRAM Size: 4096 MB Channels: 1 Width: 64-bit Data Rate: 6400 MT/s
CPU 0 runs ../SPEC2017//619.lbm_s-2677B.champsimtrace.xz
.xz
NUM_OF_IPS_IN_CRITICAL_IP_TRAINING: 64
NUM_OF_CRITICAL_IP_TRAINING_TABLE_WAYS: 2
NUM_OF_CRITICAL_IP_TRAINING_TABLE_SETS: 32
WOBBLY_CRITICAL_IP_CACHE_SETS: 32
WOBBLY_CRITICAL_IP_CACHE_WAYS: 4
BTB has LRU replacement policy
ITLB has LRU replacement policy
DTLB has LRU replacement policy
STLB has LRU replacement policy
L1I has LRU replacement policy
L1D has LRU replacement policy
Bingo PHT WAYS: 16 and PHT_SIZE: 16384
Initialize SRRIP state for L2C
Initialize DRRIP state for LLC
Heartbeat CPU 0 instructions: 10000001 cycles: 2923001 heartbeat IPC: 3.42114 cumulative IPC: 3.42114 (Simulation time: 0 hr 5 min 51 sec) 
Heartbeat CPU 0 instructions: 20000001 cycles: 5835546 heartbeat IPC: 3.43342 cumulative IPC: 3.42727 (Simulation time: 0 hr 11 min 24 sec) 
Heartbeat CPU 0 instructions: 30000000 cycles: 8755668 heartbeat IPC: 3.42451 cumulative IPC: 3.42635 (Simulation time: 0 hr 16 min 17 sec) 
Heartbeat CPU 0 instructions: 40000000 cycles: 11672749 heartbeat IPC: 3.42808 cumulative IPC: 3.42678 (Simulation time: 0 hr 20 min 36 sec) 
Heartbeat CPU 0 instructions: 50000001 cycles: 14598496 heartbeat IPC: 3.41793 cumulative IPC: 3.42501 (Simulation time: 0 hr 24 min 36 sec) 

Warmup complete CPU 0 instructions: 50000001 cycles: 14598496 (Simulation time: 0 hr 24 min 36 sec) 

Heartbeat CPU 0 instructions: 60000001 cycles: 35158561 heartbeat IPC: 0.48638 cumulative IPC: 0.48638 (Simulation time: 0 hr 31 min 29 sec) 
Heartbeat CPU 0 instructions: 70000002 cycles: 55411173 heartbeat IPC: 0.493764 cumulative IPC: 0.490044 (Simulation time: 0 hr 37 min 57 sec) 
Heartbeat CPU 0 instructions: 80000001 cycles: 75757186 heartbeat IPC: 0.491497 cumulative IPC: 0.490527 (Simulation time: 0 hr 43 min 35 sec) 
Heartbeat CPU 0 instructions: 90000002 cycles: 96485605 heartbeat IPC: 0.48243 cumulative IPC: 0.488477 (Simulation time: 0 hr 48 min 24 sec) 
Heartbeat CPU 0 instructions: 100000000 cycles: 117040903 heartbeat IPC: 0.486492 cumulative IPC: 0.488079 (Simulation time: 0 hr 54 min 7 sec) 
Heartbeat CPU 0 instructions: 110000000 cycles: 137863648 heartbeat IPC: 0.480244 cumulative IPC: 0.486756 (Simulation time: 1 hr 0 min 24 sec) 
Heartbeat CPU 0 instructions: 120000000 cycles: 158284364 heartbeat IPC: 0.489699 cumulative IPC: 0.487174 (Simulation time: 1 hr 5 min 1 sec) 
Heartbeat CPU 0 instructions: 130000001 cycles: 178648240 heartbeat IPC: 0.491066 cumulative IPC: 0.487657 (Simulation time: 1 hr 9 min 19 sec) 
Heartbeat CPU 0 instructions: 140000003 cycles: 198983465 heartbeat IPC: 0.491758 cumulative IPC: 0.488109 (Simulation time: 1 hr 12 min 44 sec) 
Heartbeat CPU 0 instructions: 150000000 cycles: 219727217 heartbeat IPC: 0.482073 cumulative IPC: 0.487499 (Simulation time: 1 hr 14 min 9 sec) 
Finished CPU 0 instructions: 100000000 cycles: 205128722 cumulative IPC: 0.487499 (Simulation time: 1 hr 14 min 9 sec) 

ChampSim completed all CPUs

Region of Interest Statistics

CPU 0 cumulative IPC: 0.487499 instructions: 100000000 cycles: 205128722

CPU 0 Average Load ROB stall cycles: 2.94067e+07
CPU 0 Fraction of times ROB stalled by Loads: 25.0594
CPU 0 Percentage of Load stall cycles in Total stall cycles: 2.05509e+08
Issued all: 120413062
Issued LT all: 107581040
rob_not_full_when_issued_lt_all: 34737907
Issued LT one: 99500852
rob_not_full_when_issued_lt_one: 28759902
 Total stall cycles: 177718327
 Total load stall cycles: 365226461780966
CPU 0 NUM of IPS identified critical: 0
CPU 0 Num of Load IPs stalling ROB: 128
Threshold modification factor: 0
Max PIST entries: 62
Min PIST entries: 0
Avg PIST entries: 40.64
Trouble in retire width: 0.768541
MaC = Marked as critical.
lt_50_percent_before_Mac: 0
gt_90_percent_before_Mac: 0
gt_75_percent_before_Mac: 0
gt_50_percent_before_Mac: 0
stall_proportion_bin_same_before_after: 0
stall_proportion_bin_lower_before_after: 0
stall_proportion_bin_upper_before_after: 0
average_stall_proportion_before: -nan
average_stall_proportion_after: -nan
Critical IP stalls, total frequency: 0
Non-critical IP stalls, total frequency: 3112344
Total Freq all stalling IPs: 3112344
stat_90_percent_critical_ip_stalls_freq: 2802992
stat_90_percent_non_critical_ip_stalls_freq: 309352
Critical_IP_ROB_Stalls_Bucket_0: 0
Non-critical_IP_ROB_Stalls_Bucket_0: 1900788
Critical_IP_ROB_Stalls_Bucket_1: 0
Non-critical_IP_ROB_Stalls_Bucket_1: 370631
Critical_IP_ROB_Stalls_Bucket_2: 0
Non-critical_IP_ROB_Stalls_Bucket_2: 114773
Critical_IP_ROB_Stalls_Bucket_3: 0
Non-critical_IP_ROB_Stalls_Bucket_3: 90120
Critical_IP_ROB_Stalls_Bucket_4: 0
Non-critical_IP_ROB_Stalls_Bucket_4: 66839
Critical_IP_ROB_Stalls_Bucket_5: 0
Non-critical_IP_ROB_Stalls_Bucket_5: 79971
Critical_IP_ROB_Stalls_Bucket_6: 0
Non-critical_IP_ROB_Stalls_Bucket_6: 489222
0 => IPs accounting for >50 percent of stalls, 1 => 55, 2 => 60, 3 => 65 and so on till 90.
percent50: 52.7848 num IPs:  12
percent55: 55.9017 num IPs: 13
percent60: 61.9291 num IPs: 15
percent65: 67.6221 num IPs: 17
percent70: 70.1761 num IPs: 18
percent75: 77.2213 num IPs: 21
percent80: 81.2937 num IPs: 23
percent85: 86.4272 num IPs: 26
percent90: 90.0605 num IPs: 31
Critical_ROB_Stalls_Percent_0_Bucket_0: 916292
Non-critical_ROB_Stalls_Percent_0_Bucket_0: 984496
Critical_ROB_Stalls_Percent_0_Bucket_1: 244366
Non-critical_ROB_Stalls_Percent_0_Bucket_1: 126265
Critical_ROB_Stalls_Percent_0_Bucket_2: 75467
Non-critical_ROB_Stalls_Percent_0_Bucket_2: 39306
Critical_ROB_Stalls_Percent_0_Bucket_3: 41918
Non-critical_ROB_Stalls_Percent_0_Bucket_3: 48202
Critical_ROB_Stalls_Percent_0_Bucket_4: 29133
Non-critical_ROB_Stalls_Percent_0_Bucket_4: 37706
Critical_ROB_Stalls_Percent_0_Bucket_5: 39687
Non-critical_ROB_Stalls_Percent_0_Bucket_5: 40284
Critical_ROB_Stalls_Percent_0_Bucket_6: 295982
Non-critical_ROB_Stalls_Percent_0_Bucket_6: 193240
Critical_ROB_Stalls_Percent_1_Bucket_0: 1001955
Non-critical_ROB_Stalls_Percent_1_Bucket_0: 898833
Critical_ROB_Stalls_Percent_1_Bucket_1: 244999
Non-critical_ROB_Stalls_Percent_1_Bucket_1: 125632
Critical_ROB_Stalls_Percent_1_Bucket_2: 75849
Non-critical_ROB_Stalls_Percent_1_Bucket_2: 38924
Critical_ROB_Stalls_Percent_1_Bucket_3: 42319
Non-critical_ROB_Stalls_Percent_1_Bucket_3: 47801
Critical_ROB_Stalls_Percent_1_Bucket_4: 30610
Non-critical_ROB_Stalls_Percent_1_Bucket_4: 36229
Critical_ROB_Stalls_Percent_1_Bucket_5: 43692
Non-critical_ROB_Stalls_Percent_1_Bucket_5: 36279
Critical_ROB_Stalls_Percent_1_Bucket_6: 300430
Non-critical_ROB_Stalls_Percent_1_Bucket_6: 188792
Critical_ROB_Stalls_Percent_2_Bucket_0: 1185600
Non-critical_ROB_Stalls_Percent_2_Bucket_0: 715188
Critical_ROB_Stalls_Percent_2_Bucket_1: 247043
Non-critical_ROB_Stalls_Percent_2_Bucket_1: 123588
Critical_ROB_Stalls_Percent_2_Bucket_2: 76190
Non-critical_ROB_Stalls_Percent_2_Bucket_2: 38583
Critical_ROB_Stalls_Percent_2_Bucket_3: 43420
Non-critical_ROB_Stalls_Percent_2_Bucket_3: 46700
Critical_ROB_Stalls_Percent_2_Bucket_4: 31033
Non-critical_ROB_Stalls_Percent_2_Bucket_4: 35806
Critical_ROB_Stalls_Percent_2_Bucket_5: 43714
Non-critical_ROB_Stalls_Percent_2_Bucket_5: 36257
Critical_ROB_Stalls_Percent_2_Bucket_6: 300448
Non-critical_ROB_Stalls_Percent_2_Bucket_6: 188774
Critical_ROB_Stalls_Percent_3_Bucket_0: 1301385
Non-critical_ROB_Stalls_Percent_3_Bucket_0: 599403
Critical_ROB_Stalls_Percent_3_Bucket_1: 287359
Non-critical_ROB_Stalls_Percent_3_Bucket_1: 83272
Critical_ROB_Stalls_Percent_3_Bucket_2: 78905
Non-critical_ROB_Stalls_Percent_3_Bucket_2: 35868
Critical_ROB_Stalls_Percent_3_Bucket_3: 44626
Non-critical_ROB_Stalls_Percent_3_Bucket_3: 45494
Critical_ROB_Stalls_Percent_3_Bucket_4: 31833
Non-critical_ROB_Stalls_Percent_3_Bucket_4: 35006
Critical_ROB_Stalls_Percent_3_Bucket_5: 45451
Non-critical_ROB_Stalls_Percent_3_Bucket_5: 34520
Critical_ROB_Stalls_Percent_3_Bucket_6: 315072
Non-critical_ROB_Stalls_Percent_3_Bucket_6: 174150
Critical_ROB_Stalls_Percent_4_Bucket_0: 1378560
Non-critical_ROB_Stalls_Percent_4_Bucket_0: 522228
Critical_ROB_Stalls_Percent_4_Bucket_1: 288152
Non-critical_ROB_Stalls_Percent_4_Bucket_1: 82479
Critical_ROB_Stalls_Percent_4_Bucket_2: 79261
Non-critical_ROB_Stalls_Percent_4_Bucket_2: 35512
Critical_ROB_Stalls_Percent_4_Bucket_3: 45713
Non-critical_ROB_Stalls_Percent_4_Bucket_3: 44407
Critical_ROB_Stalls_Percent_4_Bucket_4: 31854
Non-critical_ROB_Stalls_Percent_4_Bucket_4: 34985
Critical_ROB_Stalls_Percent_4_Bucket_5: 45485
Non-critical_ROB_Stalls_Percent_4_Bucket_5: 34486
Critical_ROB_Stalls_Percent_4_Bucket_6: 315097
Non-critical_ROB_Stalls_Percent_4_Bucket_6: 174125
Critical_ROB_Stalls_Percent_5_Bucket_0: 1467798
Non-critical_ROB_Stalls_Percent_5_Bucket_0: 432990
Critical_ROB_Stalls_Percent_5_Bucket_1: 296617
Non-critical_ROB_Stalls_Percent_5_Bucket_1: 74014
Critical_ROB_Stalls_Percent_5_Bucket_2: 86986
Non-critical_ROB_Stalls_Percent_5_Bucket_2: 27787
Critical_ROB_Stalls_Percent_5_Bucket_3: 58933
Non-critical_ROB_Stalls_Percent_5_Bucket_3: 31187
Critical_ROB_Stalls_Percent_5_Bucket_4: 44346
Non-critical_ROB_Stalls_Percent_5_Bucket_4: 22493
Critical_ROB_Stalls_Percent_5_Bucket_5: 60049
Non-critical_ROB_Stalls_Percent_5_Bucket_5: 19922
Critical_ROB_Stalls_Percent_5_Bucket_6: 388664
Non-critical_ROB_Stalls_Percent_5_Bucket_6: 100558
Critical_ROB_Stalls_Percent_6_Bucket_0: 1591261
Non-critical_ROB_Stalls_Percent_6_Bucket_0: 309527
Critical_ROB_Stalls_Percent_6_Bucket_1: 296719
Non-critical_ROB_Stalls_Percent_6_Bucket_1: 73912
Critical_ROB_Stalls_Percent_6_Bucket_2: 87184
Non-critical_ROB_Stalls_Percent_6_Bucket_2: 27589
Critical_ROB_Stalls_Percent_6_Bucket_3: 60048
Non-critical_ROB_Stalls_Percent_6_Bucket_3: 30072
Critical_ROB_Stalls_Percent_6_Bucket_4: 45834
Non-critical_ROB_Stalls_Percent_6_Bucket_4: 21005
Critical_ROB_Stalls_Percent_6_Bucket_5: 60316
Non-critical_ROB_Stalls_Percent_6_Bucket_5: 19655
Critical_ROB_Stalls_Percent_6_Bucket_6: 388777
Non-critical_ROB_Stalls_Percent_6_Bucket_6: 100445
Critical_ROB_Stalls_Percent_7_Bucket_0: 1677440
Non-critical_ROB_Stalls_Percent_7_Bucket_0: 223348
Critical_ROB_Stalls_Percent_7_Bucket_1: 316289
Non-critical_ROB_Stalls_Percent_7_Bucket_1: 54342
Critical_ROB_Stalls_Percent_7_Bucket_2: 95333
Non-critical_ROB_Stalls_Percent_7_Bucket_2: 19440
Critical_ROB_Stalls_Percent_7_Bucket_3: 62290
Non-critical_ROB_Stalls_Percent_7_Bucket_3: 27830
Critical_ROB_Stalls_Percent_7_Bucket_4: 47771
Non-critical_ROB_Stalls_Percent_7_Bucket_4: 19068
Critical_ROB_Stalls_Percent_7_Bucket_5: 63675
Non-critical_ROB_Stalls_Percent_7_Bucket_5: 16296
Critical_ROB_Stalls_Percent_7_Bucket_6: 427113
Non-critical_ROB_Stalls_Percent_7_Bucket_6: 62109
Critical_ROB_Stalls_Percent_8_Bucket_0: 1748007
Non-critical_ROB_Stalls_Percent_8_Bucket_0: 152781
Critical_ROB_Stalls_Percent_8_Bucket_1: 320729
Non-critical_ROB_Stalls_Percent_8_Bucket_1: 49902
Critical_ROB_Stalls_Percent_8_Bucket_2: 99278
Non-critical_ROB_Stalls_Percent_8_Bucket_2: 15495
Critical_ROB_Stalls_Percent_8_Bucket_3: 67141
Non-critical_ROB_Stalls_Percent_8_Bucket_3: 22979
Critical_ROB_Stalls_Percent_8_Bucket_4: 52345
Non-critical_ROB_Stalls_Percent_8_Bucket_4: 14494
Critical_ROB_Stalls_Percent_8_Bucket_5: 67065
Non-critical_ROB_Stalls_Percent_8_Bucket_5: 12906
Critical_ROB_Stalls_Percent_8_Bucket_6: 448427
Non-critical_ROB_Stalls_Percent_8_Bucket_6: 40795
Average ROB occupancy Load Stall Begin: 87.2968
Average ROB occupancy Load Stall End: 101.877
Min ROB occupancy Load Stall Begin: 2
Max ROB occupancy Load Stall Begin: 352
Min ROB occupancy Load Stall End: 2
Max ROB occupancy Load Stall End: 352
Average ROB occupancy Critical Load Stall Begin: -nan
Average ROB occupancy Critical Load Stall End: -nan
Min ROB occupancy Critical Load Stall Begin: 400
Max ROB occupancy Critical Load Stall Begin: 0
Min ROB occupancy Critical Load Stall End: 400
Max ROB occupancy Critical Load Stall End: 0
 ROB Load Stall Begin Bucket Count 0: 2138076
 ROB Load Stall End Bucket Count 0: 1900788
 ROB Critical Load Stall Begin Bucket Count 0: 0
 ROB Critical Load Stall End Bucket Count 0: 0
 ROB Load Stall Begin Bucket Count 1: 230517
 ROB Load Stall End Bucket Count 1: 370631
 ROB Critical Load Stall Begin Bucket Count 1: 0
 ROB Critical Load Stall End Bucket Count 1: 0
 ROB Load Stall Begin Bucket Count 2: 120402
 ROB Load Stall End Bucket Count 2: 114773
 ROB Critical Load Stall Begin Bucket Count 2: 0
 ROB Critical Load Stall End Bucket Count 2: 0
 ROB Load Stall Begin Bucket Count 3: 80176
 ROB Load Stall End Bucket Count 3: 90120
 ROB Critical Load Stall Begin Bucket Count 3: 0
 ROB Critical Load Stall End Bucket Count 3: 0
 ROB Load Stall Begin Bucket Count 4: 61685
 ROB Load Stall End Bucket Count 4: 66839
 ROB Critical Load Stall Begin Bucket Count 4: 0
 ROB Critical Load Stall End Bucket Count 4: 0
 ROB Load Stall Begin Bucket Count 5: 95429
 ROB Load Stall End Bucket Count 5: 79971
 ROB Critical Load Stall Begin Bucket Count 5: 0
 ROB Critical Load Stall End Bucket Count 5: 0
 ROB Load Stall Begin Bucket Count 6: 386059
 ROB Load Stall End Bucket Count 6: 489222
 ROB Critical Load Stall Begin Bucket Count 6: 0
 ROB Critical Load Stall End Bucket Count 6: 0
PIST Tag Read Accesses: 389862
PIST Read Accesses: 194931
PIST Tag Write Accesses: 389862
PIST Write Accesses: 194931
Criticality detector called times: 1582202
Max global_stall_cycles_count: 844725
Threshold Modified: 0 times, factor: 0
Sturdy critical IP cache stats: 
 Unused entries: 0
CIC Tag Read Accesses: 0
CIC Read Accesses: 0
CIC Tag Write Accesses: 0
CIC Write Accesses: 0
Wobbly critical IP cache stats: 
 Unused entries: 113
CIC Tag Read Accesses: 273581441
CIC Read Accesses: 0
CIC Tag Write Accesses: 1297707
CIC Write Accesses: 0
ITLB TOTAL     ACCESS:   13433911  HIT:   13433911  MISS:          0  HIT %:        100  MISS %:          0   MPKI: 0
ITLB LOAD TRANSLATION ACCESS:   13433911  HIT:   13433911  MISS:          0  HIT %:        100  MISS %:          0   MPKI: 0
ITLB PREFETCH  REQUESTED:          0  ISSUED:          0  USEFUL:          0  USELESS:          0
ITLB USEFUL LOAD PREFETCHES:          0 PREFETCH ISSUED TO LOWER LEVEL:          0  ACCURACY: -nan
ITLB TIMELY PREFETCHES:          0 LATE PREFETCHES: 0 DROPPED PREFETCHES: 0
ITLB PREFETCHES SAME FILL-ORIGIN LEVEL: 0 DIFFERENT FILL-ORIGIN LEVEL: 0
ITLB AVERAGE MISS LATENCY: -nan cycles
ITLB RQ	ACCESS:   17350905	FORWARD:          0	MERGED:    3916994	TO_CACHE:   13433911

DTLB TOTAL     ACCESS:   19035409  HIT:   18897577  MISS:     137832  HIT %:    99.2759  MISS %:   0.724082   MPKI: 1.37832
DTLB LOAD TRANSLATION ACCESS:   19035409  HIT:   18897577  MISS:     137832  HIT %:    99.2759  MISS %:   0.724082   MPKI: 1.37832
DTLB PREFETCH  REQUESTED:          0  ISSUED:          0  USEFUL:          0  USELESS:          0
DTLB USEFUL LOAD PREFETCHES:          0 PREFETCH ISSUED TO LOWER LEVEL:          0  ACCURACY: -nan
DTLB TIMELY PREFETCHES:          0 LATE PREFETCHES: 0 DROPPED PREFETCHES: 0
DTLB PREFETCHES SAME FILL-ORIGIN LEVEL: 0 DIFFERENT FILL-ORIGIN LEVEL: 0
DTLB AVERAGE MISS LATENCY: 110.268 cycles
DTLB RQ	ACCESS:   27742952	FORWARD:          0	MERGED:    8646044	TO_CACHE:   19096908

STLB TOTAL     ACCESS:     137832  HIT:      63044  MISS:      74788  HIT %:    45.7397  MISS %:    54.2603   MPKI: 0.74788
STLB LOAD TRANSLATION ACCESS:     137832  HIT:      63044  MISS:      74788  HIT %:    45.7397  MISS %:    54.2603   MPKI: 0.74788
STLB PREFETCH  REQUESTED:          0  ISSUED:          0  USEFUL:          0  USELESS:          0
STLB USEFUL LOAD PREFETCHES:          0 PREFETCH ISSUED TO LOWER LEVEL:          0  ACCURACY: -nan
STLB TIMELY PREFETCHES:          0 LATE PREFETCHES: 0 DROPPED PREFETCHES: 0
STLB PREFETCHES SAME FILL-ORIGIN LEVEL: 0 DIFFERENT FILL-ORIGIN LEVEL: 0
STLB AVERAGE MISS LATENCY: 185.969 cycles
STLB RQ	ACCESS:     137832	FORWARD:          0	MERGED:          0	TO_CACHE:     137832

STLB Hit, L1D data hit: 0
STLB Hit, L2C data hit: 0
STLB Hit, LLC data hit: 0
STLB Hit, LLC data miss: 0
STLB STLB hints to L2: 0
L1D TOTAL     ACCESS:   27497105  HIT:   19601530  MISS:    7895575  HIT %:    71.2858  MISS %:    28.7142   MPKI: 78.9557
L1D LOAD      ACCESS:    9638494  HIT:    8442116  MISS:    1196378  HIT %:    87.5875  MISS %:    12.4125   MPKI: 11.9638
L1D RFO       ACCESS:   17858611  HIT:   11159414  MISS:    6699197  HIT %:    62.4876  MISS %:    37.5124   MPKI: 66.992
L1D PREFETCH  REQUESTED:          0  ISSUED:          0  USEFUL:          0  USELESS:          0
L1D USEFUL LOAD PREFETCHES:          0 PREFETCH ISSUED TO LOWER LEVEL:          0  ACCURACY: -nan
L1D TIMELY PREFETCHES:          0 LATE PREFETCHES: 0 DROPPED PREFETCHES: 0
L1D PREFETCHES SAME FILL-ORIGIN LEVEL: 0 DIFFERENT FILL-ORIGIN LEVEL: 0
L1D AVERAGE MISS LATENCY: 342.616 cycles
L1D RQ	ACCESS:   24751975	FORWARD:          0	MERGED:   13149907	TO_CACHE:    9769652
L1D WQ	ACCESS:   18463455	FORWARD:    1832416	MERGED:     490155	TO_CACHE:   17973300

L1D UNIQUE REGIONS ACCESSED: 0
L1D REGIONS CONFLICTS: 0
L1D Cross Page Prefetch Requests: 0
L1D Same Page Prefetch Requests: 0
L1D ROI Sum of L1D PQ occupancy: 0
L1D PREFETCHES PUSHED FROM L2C: 0
L1I TOTAL     ACCESS:   17350904  HIT:   17350904  MISS:          0  HIT %:        100  MISS %:          0   MPKI: 0
L1I LOAD      ACCESS:   17350904  HIT:   17350904  MISS:          0  HIT %:        100  MISS %:          0   MPKI: 0
L1I PREFETCH  REQUESTED:          0  ISSUED:          0  USEFUL:          0  USELESS:          0
L1I USEFUL LOAD PREFETCHES:          0 PREFETCH ISSUED TO LOWER LEVEL:          0  ACCURACY: -nan
L1I TIMELY PREFETCHES:          0 LATE PREFETCHES: 0 DROPPED PREFETCHES: 0
L1I PREFETCHES SAME FILL-ORIGIN LEVEL: 0 DIFFERENT FILL-ORIGIN LEVEL: 0
L1I AVERAGE MISS LATENCY: -nan cycles
L1I RQ	ACCESS:   25010520	FORWARD:          0	MERGED:    7659615	TO_CACHE:   17350905

BTB TOTAL     ACCESS:    1803004  HIT:    1802998  MISS:          6  HIT %:    99.9997  MISS %: 0.000332778   MPKI: 6e-05
BTB BRANCH_DIRECT_JUMP	ACCESS:     294732  HIT:     294731  MISS:          1
BTB BRANCH_INDIRECT	ACCESS:          0  HIT:          0  MISS:          0
BTB BRANCH_CONDITIONAL	ACCESS:    1508272  HIT:    1508267  MISS:          5
BTB BRANCH_DIRECT_CALL	ACCESS:          0  HIT:          0  MISS:          0
BTB BRANCH_INDIRECT_CALL	ACCESS:          0  HIT:          0  MISS:          0
BTB BRANCH_RETURN	ACCESS:          0  HIT:          0  MISS:          0
BTB BRANCH_OTHER ACCESS:          0  HIT:          0  MISS:          0

L2C TOTAL     ACCESS:   15774199  HIT:   10454963  MISS:    5319236  HIT %:    66.2789  MISS %:    33.7211   MPKI: 53.1924
L2C LOAD      ACCESS:    1196378  HIT:    1060389  MISS:     135989  HIT %:    88.6333  MISS %:    11.3667   MPKI: 1.35989
L2C DATA LOAD MPKI: 1.35989
L2C INSTRUCTION LOAD MPKI: 0
L2C RFO       ACCESS:    6699192  HIT:    3016744  MISS:    3682448  HIT %:    45.0315  MISS %:    54.9685   MPKI: 36.8245
L2C PREFETCH  ACCESS:    1104631  HIT:      41735  MISS:    1062896  HIT %:    3.77818  MISS %:    96.2218   MPKI: 10.629
L2C DATA PREFETCH MPKI: 10.629
L2C INSTRUCTION PREFETCH MPKI: 0
L2C WRITEBACK ACCESS:    6699206  HIT:    6271135  MISS:     428071  HIT %:    93.6101  MISS %:    6.38988   MPKI: 4.28071
L2C LOAD TRANSLATION ACCESS:      74792  HIT:      64960  MISS:       9832  HIT %:    86.8542  MISS %:    13.1458   MPKI: 0.09832
L2C PREFETCH  REQUESTED:    1201989  ISSUED:    1201989  USEFUL:    1060383  USELESS:       2495
L2C USEFUL LOAD PREFETCHES:    1060383 PREFETCH ISSUED TO LOWER LEVEL:    1133015  ACCURACY: 93.5895
L2C TIMELY PREFETCHES:    1060383 LATE PREFETCHES: 70119 DROPPED PREFETCHES: 0
L2C PREFETCHES SAME FILL-ORIGIN LEVEL: 1133015 DIFFERENT FILL-ORIGIN LEVEL: 0
L2C AVERAGE MISS LATENCY: 632.479 cycles
L2C RQ	ACCESS:    7970382	FORWARD:          0	MERGED:          0	TO_CACHE:    7970378
L2C WQ	ACCESS:    6699206	FORWARD:          4	MERGED:          0	TO_CACHE:    6699206
L2C PQ	ACCESS:    1201989	FORWARD:          0	MERGED:          0	TO_CACHE:    1201989

L2C Instructions Evicting Data 0
L2C Translations Evicting Data 9804
L2C Data Evicting Data 4872149
L2C Instructions Evicting Instructions 0
L2C Translations Evicting Instructions 0
L2C Data Evicting Instructions 0
L2C Instructions Evicting Translations 0
L2C Translations Evicting Translations 28
L2C Data Evicting Translations 9184
L2C Dense regions hint from L2: 0
PSCL5 TOTAL     ACCESS:      74788  HIT:      74788  MISS:          0  HIT %:        100  MISS %:          0   MPKI: 0
PSCL5 LOAD TRANSLATION ACCESS:      74788  HIT:      74788  MISS:          0  HIT %:        100  MISS %:          0   MPKI: 0
PSCL5 PREFETCH  REQUESTED:          0  ISSUED:          0  USEFUL:          0  USELESS:          0
PSCL5 USEFUL LOAD PREFETCHES:          0 PREFETCH ISSUED TO LOWER LEVEL:          0  ACCURACY: -nan
PSCL5 TIMELY PREFETCHES:          0 LATE PREFETCHES: 0 DROPPED PREFETCHES: 0
PSCL5 PREFETCHES SAME FILL-ORIGIN LEVEL: 0 DIFFERENT FILL-ORIGIN LEVEL: 0

PSCL4 TOTAL     ACCESS:      74788  HIT:      74788  MISS:          0  HIT %:        100  MISS %:          0   MPKI: 0
PSCL4 LOAD TRANSLATION ACCESS:      74788  HIT:      74788  MISS:          0  HIT %:        100  MISS %:          0   MPKI: 0
PSCL4 PREFETCH  REQUESTED:          0  ISSUED:          0  USEFUL:          0  USELESS:          0
PSCL4 USEFUL LOAD PREFETCHES:          0 PREFETCH ISSUED TO LOWER LEVEL:          0  ACCURACY: -nan
PSCL4 TIMELY PREFETCHES:          0 LATE PREFETCHES: 0 DROPPED PREFETCHES: 0
PSCL4 PREFETCHES SAME FILL-ORIGIN LEVEL: 0 DIFFERENT FILL-ORIGIN LEVEL: 0

PSCL3 TOTAL     ACCESS:      74788  HIT:      74788  MISS:          0  HIT %:        100  MISS %:          0   MPKI: 0
PSCL3 LOAD TRANSLATION ACCESS:      74788  HIT:      74788  MISS:          0  HIT %:        100  MISS %:          0   MPKI: 0
PSCL3 PREFETCH  REQUESTED:          0  ISSUED:          0  USEFUL:          0  USELESS:          0
PSCL3 USEFUL LOAD PREFETCHES:          0 PREFETCH ISSUED TO LOWER LEVEL:          0  ACCURACY: -nan
PSCL3 TIMELY PREFETCHES:          0 LATE PREFETCHES: 0 DROPPED PREFETCHES: 0
PSCL3 PREFETCHES SAME FILL-ORIGIN LEVEL: 0 DIFFERENT FILL-ORIGIN LEVEL: 0

PSCL2 TOTAL     ACCESS:      74788  HIT:      74710  MISS:         78  HIT %:    99.8957  MISS %:   0.104295   MPKI: 0.00078
PSCL2 LOAD TRANSLATION ACCESS:      74788  HIT:      74710  MISS:         78  HIT %:    99.8957  MISS %:   0.104295   MPKI: 0.00078
PSCL2 PREFETCH  REQUESTED:          0  ISSUED:          0  USEFUL:          0  USELESS:          0
PSCL2 USEFUL LOAD PREFETCHES:          0 PREFETCH ISSUED TO LOWER LEVEL:          0  ACCURACY: -nan
PSCL2 TIMELY PREFETCHES:          0 LATE PREFETCHES: 0 DROPPED PREFETCHES: 0
PSCL2 PREFETCHES SAME FILL-ORIGIN LEVEL: 0 DIFFERENT FILL-ORIGIN LEVEL: 0

LLC TOTAL     ACCESS:    8585650  HIT:    3446480  MISS:    5139170  HIT %:    40.1423  MISS %:    59.8577   MPKI: 51.3917
LLC LOAD      ACCESS:      65870  HIT:        359  MISS:      65511  HIT %:   0.545013  MISS %:     99.455   MPKI: 0.65511
LLC RFO       ACCESS:    3682411  HIT:      93706  MISS:    3588705  HIT %:    2.54469  MISS %:    97.4553   MPKI: 35.8871
LLC PREFETCH  ACCESS:    1133015  HIT:       2059  MISS:    1130956  HIT %:   0.181728  MISS %:    99.8183   MPKI: 11.3096
LLC WRITEBACK ACCESS:    3694522  HIT:    3349993  MISS:     344529  HIT %:    90.6746  MISS %:     9.3254   MPKI: 3.44529
LLC LOAD TRANSLATION ACCESS:       9832  HIT:        363  MISS:       9469  HIT %:    3.69203  MISS %:     96.308   MPKI: 0.09469
LLC PREFETCH  REQUESTED:          0  ISSUED:          0  USEFUL:        323  USELESS:    1129909
LLC USEFUL LOAD PREFETCHES:        323 PREFETCH ISSUED TO LOWER LEVEL:    1130956  ACCURACY: 0.0285599
LLC TIMELY PREFETCHES:        323 LATE PREFETCHES: 0 DROPPED PREFETCHES: 0
LLC PREFETCHES SAME FILL-ORIGIN LEVEL: 0 DIFFERENT FILL-ORIGIN LEVEL: 0
LLC AVERAGE MISS LATENCY: 631.32 cycles
LLC RQ	ACCESS:    3758166	FORWARD:          0	MERGED:          0	TO_CACHE:    3758129
LLC WQ	ACCESS:    3694522	FORWARD:         37	MERGED:          0	TO_CACHE:    3694522
LLC PQ	ACCESS:    1133015	FORWARD:          0	MERGED:          0	TO_CACHE:    1133015

LLC Dense regions hint to LLC: 0

RAW hits: 1356781
Loads Generated: 26108757
Loads sent to L1D: 24751975
Stores Generated: 18463447
Stores sent to L1D: 18463455
Major fault: 0 Minor fault: 59092
Allocated PAGES: 59092
[Bingo] PHT Access: 40314
[Bingo] PHT Hit PC+Addr: 220
[Bingo] PHT Hit PC+Offs: 39827
[Bingo] PHT Miss: 267
[Bingo] Prefetch PC+Addr: 0
[Bingo] Prefetch PC+Offs: 0
[Bingo] Useful PC+Addr: 0
[Bingo] Useful PC+Offs: 0
[Bingo] Useless PC+Addr: 0
[Bingo] Useless PC+Offs: 0
[Bingo] L1 Prefetch per Region: 0
[Bingo] L2 Prefetch per Region: 31.0959
[Bingo] L3 Prefetch per Region: 0
[Bingo] No Prefetch per Region: 0.904113
[Bingo] Number of Voters Mean: 15.588
[Bingo] Number of Voters SD: 2.10637
PHT read accesses: 622910
PHT write accesses: 40194
AT read accesses: 1194646
AT write accesses: 1194669
FT read accesses: 120748
FT write accesses: 40314
PS read accesses: 221359
PS write accesses: 40047
PHT tag read accesses: 1908791
PHT tag write accesses: 40414
AT tag read accesses: 105601026
AT tag write accesses: 1234863
FT tag read accesses: 87711626
FT tag write accesses: 120845
PS tag read accesses: 20431466
PS tag write accesses: 261033

DRAM Statistics
 CHANNEL 0
 RQ ROW_BUFFER_HIT:     680900  ROW_BUFFER_MISS:    4113741
 DBUS_CONGESTED:          0
 WQ ROW_BUFFER_HIT:     556700  ROW_BUFFER_MISS:    3019267  FULL:       1704

 AVG_CONGESTED_CYCLE: -
 All warmup complete: 2
Channel 0 Bank busy for read cycles: 0
Channel 0 Bank busy for write cycles: 0
Channel 0
Rank 0
0banks busy for read cycles: 26554
0banks busy for write cycles: 0
1banks busy for read cycles: 1699998
1banks busy for write cycles: 353287
2banks busy for read cycles: 2897595
2banks busy for write cycles: 353260
3banks busy for read cycles: 5767382
3banks busy for write cycles: 353256
4banks busy for read cycles: 7912740
4banks busy for write cycles: 353254
5banks busy for read cycles: 18489925
5banks busy for write cycles: 353481
6banks busy for read cycles: 21899336
6banks busy for write cycles: 363829
7banks busy for read cycles: 24096565
7banks busy for write cycles: 4215504
8banks busy for read cycles: 37476937
8banks busy for write cycles: 78515820

CPU 0 Branch Prediction Accuracy: 97.1108% MPKI: 0.52092 Average ROB Occupancy at Mispredict: 185.703
Branch types
NOT_BRANCH: 98196649 98.1966%
BRANCH_DIRECT_JUMP: 294732 0.294732%
BRANCH_INDIRECT: 0 0%
BRANCH_CONDITIONAL: 1508284 1.50828%
BRANCH_DIRECT_CALL: 0 0%
BRANCH_INDIRECT_CALL: 0 0%
BRANCH_RETURN: 0 0%
BRANCH_OTHER: 0 0%

DRAM PAGES: 1048576
Allocated PAGES: 59092
