
*** ChampSim Multicore Out-of-Order Simulator ***

Warmup Instructions: 50000000
Simulation Instructions: 100000000
Number of CPUs: 1
LLC sets: 2048
LLC ways: 16
Off-chip DRAM Size: 4096 MB Channels: 1 Width: 64-bit Data Rate: 6400 MT/s
CPU 0 runs ../SPEC2017//619.lbm_s-2676B.champsimtrace.xz
.xz
BTB has LRU replacement policy
ITLB has LRU replacement policy
DTLB has LRU replacement policy
STLB has LRU replacement policy
L1I has LRU replacement policy
IP Table Entries: 64
L1D has LRU replacement policy
Initialize SRRIP state for L2C
Initialize DRRIP state for LLC
Heartbeat CPU 0 instructions: 10000003 cycles: 2898688 heartbeat IPC: 3.44984 cumulative IPC: 3.44984 (Simulation time: 0 hr 5 min 37 sec) 
Heartbeat CPU 0 instructions: 20000003 cycles: 5792399 heartbeat IPC: 3.45577 cumulative IPC: 3.4528 (Simulation time: 0 hr 10 min 51 sec) 
Heartbeat CPU 0 instructions: 30000003 cycles: 8677260 heartbeat IPC: 3.46637 cumulative IPC: 3.45731 (Simulation time: 0 hr 15 min 49 sec) 
Heartbeat CPU 0 instructions: 40000002 cycles: 11548177 heartbeat IPC: 3.48321 cumulative IPC: 3.46375 (Simulation time: 0 hr 20 min 3 sec) 
Heartbeat CPU 0 instructions: 50000001 cycles: 14406624 heartbeat IPC: 3.4984 cumulative IPC: 3.47063 (Simulation time: 0 hr 24 min 4 sec) 

Warmup complete CPU 0 instructions: 50000001 cycles: 14406624 (Simulation time: 0 hr 24 min 4 sec) 

Heartbeat CPU 0 instructions: 60000001 cycles: 30511230 heartbeat IPC: 0.62094 cumulative IPC: 0.62094 (Simulation time: 0 hr 32 min 22 sec) 
Heartbeat CPU 0 instructions: 70000003 cycles: 45924156 heartbeat IPC: 0.648806 cumulative IPC: 0.634567 (Simulation time: 0 hr 39 min 56 sec) 
Heartbeat CPU 0 instructions: 80000002 cycles: 60080260 heartbeat IPC: 0.706409 cumulative IPC: 0.656834 (Simulation time: 0 hr 46 min 30 sec) 
Heartbeat CPU 0 instructions: 90000001 cycles: 74230104 heartbeat IPC: 0.706721 cumulative IPC: 0.668634 (Simulation time: 0 hr 52 min 16 sec) 
Heartbeat CPU 0 instructions: 100000003 cycles: 87611715 heartbeat IPC: 0.747294 cumulative IPC: 0.683013 (Simulation time: 0 hr 57 min 20 sec) 
Heartbeat CPU 0 instructions: 110000000 cycles: 100762022 heartbeat IPC: 0.760438 cumulative IPC: 0.694803 (Simulation time: 1 hr 1 min 39 sec) 
Heartbeat CPU 0 instructions: 120000003 cycles: 113340650 heartbeat IPC: 0.794999 cumulative IPC: 0.707542 (Simulation time: 1 hr 9 min 5 sec) 
Heartbeat CPU 0 instructions: 130000002 cycles: 125484035 heartbeat IPC: 0.823494 cumulative IPC: 0.720218 (Simulation time: 1 hr 16 min 52 sec) 
Heartbeat CPU 0 instructions: 140000003 cycles: 137542540 heartbeat IPC: 0.82929 cumulative IPC: 0.7309 (Simulation time: 1 hr 24 min 8 sec) 
Heartbeat CPU 0 instructions: 150000000 cycles: 149178786 heartbeat IPC: 0.859383 cumulative IPC: 0.741993 (Simulation time: 1 hr 30 min 43 sec) 
Finished CPU 0 instructions: 100000002 cycles: 134772165 cumulative IPC: 0.741993 (Simulation time: 1 hr 30 min 43 sec) 

ChampSim completed all CPUs

Region of Interest Statistics

CPU 0 cumulative IPC: 0.741993 instructions: 100000002 cycles: 134772165

CPU 0 Average Load ROB stall cycles: 1.97567e+07
CPU 0 Fraction of times ROB stalled by Loads: 22.5215
CPU 0 Percentage of Load stall cycles in Total stall cycles: 3.47691e+08
Issued all: 78181999
Issued LT all: 64235799
rob_not_full_when_issued_lt_all: 35621560
Issued LT one: 58109456
rob_not_full_when_issued_lt_one: 30362482
FVP critical_dynamic_instances_0: 9086291
FVP unique_critical_ips_0: 108
 Total stall cycles: 101097338
 Total load stall cycles: 351506812521438
Unique Load IPs: 128
CPU 0 NUM of IPS identified critical: 0
CPU 0 Num of Load IPs stalling ROB: 0
Threshold modification factor: 0
Trouble in retire width: -nan
MaC = Marked as critical.
lt_50_percent_before_Mac: 0
gt_90_percent_before_Mac: 0
gt_75_percent_before_Mac: 0
gt_50_percent_before_Mac: 0
stall_proportion_bin_same_before_after: 0
stall_proportion_bin_lower_before_after: 0
stall_proportion_bin_upper_before_after: 0
average_stall_proportion_before: -nan
average_stall_proportion_after: -nan
Critical IP stalls, total frequency: 0
Non-critical IP stalls, total frequency: 0
Total Freq all stalling IPs: 0
Critical_IP_Detector_Accuracy_70: 0.00925926
Critical_IP_Detector_Accuracy_80: 0.00925926
Critical_IP_Detector_Accuracy_90: 0.00925926
Critical_IP_Detector_Coverage_70: 1
Critical_IP_Detector_Coverage_80: 1
Critical_IP_Detector_Coverage_90: 1
stat_90_percent_critical_ip_stalls_freq: 201119
stat_90_percent_non_critical_ip_stalls_freq: 18446744073709350497
AVERAGE_ROB_Occupancy_90_Percent_Critical_IP_Stalls: 84.3369
AVERAGE_ROB_Occupancy_90_Percent_Non_Critical_IP_Stalls: 9.48018e-12
Critical_IP_ROB_Stalls_Bucket_0: 0
Non-critical_IP_ROB_Stalls_Bucket_0: 3246987
Critical_IP_ROB_Stalls_Bucket_1: 0
Non-critical_IP_ROB_Stalls_Bucket_1: 519807
Critical_IP_ROB_Stalls_Bucket_2: 0
Non-critical_IP_ROB_Stalls_Bucket_2: 34298
Critical_IP_ROB_Stalls_Bucket_3: 0
Non-critical_IP_ROB_Stalls_Bucket_3: 30611
Critical_IP_ROB_Stalls_Bucket_4: 0
Non-critical_IP_ROB_Stalls_Bucket_4: 21471
Critical_IP_ROB_Stalls_Bucket_5: 0
Non-critical_IP_ROB_Stalls_Bucket_5: 23300
Critical_IP_ROB_Stalls_Bucket_6: 0
Non-critical_IP_ROB_Stalls_Bucket_6: 130499
0 => IPs accounting for >50 percent of stalls, 1 => 55, 2 => 60, 3 => 65 and so on till 90.
percent50: inf num IPs:  1
percent55: inf num IPs: 1
percent60: inf num IPs: 1
percent65: inf num IPs: 1
percent70: inf num IPs: 1
percent75: inf num IPs: 1
percent80: inf num IPs: 1
percent85: inf num IPs: 1
percent90: inf num IPs: 1
Critical_ROB_Stalls_Percent_0_Bucket_0: 158444
Non-critical_ROB_Stalls_Percent_0_Bucket_0: 3088543
Critical_ROB_Stalls_Percent_0_Bucket_1: 1848
Non-critical_ROB_Stalls_Percent_0_Bucket_1: 517959
Critical_ROB_Stalls_Percent_0_Bucket_2: 3038
Non-critical_ROB_Stalls_Percent_0_Bucket_2: 31260
Critical_ROB_Stalls_Percent_0_Bucket_3: 3212
Non-critical_ROB_Stalls_Percent_0_Bucket_3: 27399
Critical_ROB_Stalls_Percent_0_Bucket_4: 2666
Non-critical_ROB_Stalls_Percent_0_Bucket_4: 18805
Critical_ROB_Stalls_Percent_0_Bucket_5: 2697
Non-critical_ROB_Stalls_Percent_0_Bucket_5: 20603
Critical_ROB_Stalls_Percent_0_Bucket_6: 29214
Non-critical_ROB_Stalls_Percent_0_Bucket_6: 101285
Critical_ROB_Stalls_Percent_1_Bucket_0: 158444
Non-critical_ROB_Stalls_Percent_1_Bucket_0: 3088543
Critical_ROB_Stalls_Percent_1_Bucket_1: 1848
Non-critical_ROB_Stalls_Percent_1_Bucket_1: 517959
Critical_ROB_Stalls_Percent_1_Bucket_2: 3038
Non-critical_ROB_Stalls_Percent_1_Bucket_2: 31260
Critical_ROB_Stalls_Percent_1_Bucket_3: 3212
Non-critical_ROB_Stalls_Percent_1_Bucket_3: 27399
Critical_ROB_Stalls_Percent_1_Bucket_4: 2666
Non-critical_ROB_Stalls_Percent_1_Bucket_4: 18805
Critical_ROB_Stalls_Percent_1_Bucket_5: 2697
Non-critical_ROB_Stalls_Percent_1_Bucket_5: 20603
Critical_ROB_Stalls_Percent_1_Bucket_6: 29214
Non-critical_ROB_Stalls_Percent_1_Bucket_6: 101285
Critical_ROB_Stalls_Percent_2_Bucket_0: 158444
Non-critical_ROB_Stalls_Percent_2_Bucket_0: 3088543
Critical_ROB_Stalls_Percent_2_Bucket_1: 1848
Non-critical_ROB_Stalls_Percent_2_Bucket_1: 517959
Critical_ROB_Stalls_Percent_2_Bucket_2: 3038
Non-critical_ROB_Stalls_Percent_2_Bucket_2: 31260
Critical_ROB_Stalls_Percent_2_Bucket_3: 3212
Non-critical_ROB_Stalls_Percent_2_Bucket_3: 27399
Critical_ROB_Stalls_Percent_2_Bucket_4: 2666
Non-critical_ROB_Stalls_Percent_2_Bucket_4: 18805
Critical_ROB_Stalls_Percent_2_Bucket_5: 2697
Non-critical_ROB_Stalls_Percent_2_Bucket_5: 20603
Critical_ROB_Stalls_Percent_2_Bucket_6: 29214
Non-critical_ROB_Stalls_Percent_2_Bucket_6: 101285
Critical_ROB_Stalls_Percent_3_Bucket_0: 158444
Non-critical_ROB_Stalls_Percent_3_Bucket_0: 3088543
Critical_ROB_Stalls_Percent_3_Bucket_1: 1848
Non-critical_ROB_Stalls_Percent_3_Bucket_1: 517959
Critical_ROB_Stalls_Percent_3_Bucket_2: 3038
Non-critical_ROB_Stalls_Percent_3_Bucket_2: 31260
Critical_ROB_Stalls_Percent_3_Bucket_3: 3212
Non-critical_ROB_Stalls_Percent_3_Bucket_3: 27399
Critical_ROB_Stalls_Percent_3_Bucket_4: 2666
Non-critical_ROB_Stalls_Percent_3_Bucket_4: 18805
Critical_ROB_Stalls_Percent_3_Bucket_5: 2697
Non-critical_ROB_Stalls_Percent_3_Bucket_5: 20603
Critical_ROB_Stalls_Percent_3_Bucket_6: 29214
Non-critical_ROB_Stalls_Percent_3_Bucket_6: 101285
Critical_ROB_Stalls_Percent_4_Bucket_0: 158444
Non-critical_ROB_Stalls_Percent_4_Bucket_0: 3088543
Critical_ROB_Stalls_Percent_4_Bucket_1: 1848
Non-critical_ROB_Stalls_Percent_4_Bucket_1: 517959
Critical_ROB_Stalls_Percent_4_Bucket_2: 3038
Non-critical_ROB_Stalls_Percent_4_Bucket_2: 31260
Critical_ROB_Stalls_Percent_4_Bucket_3: 3212
Non-critical_ROB_Stalls_Percent_4_Bucket_3: 27399
Critical_ROB_Stalls_Percent_4_Bucket_4: 2666
Non-critical_ROB_Stalls_Percent_4_Bucket_4: 18805
Critical_ROB_Stalls_Percent_4_Bucket_5: 2697
Non-critical_ROB_Stalls_Percent_4_Bucket_5: 20603
Critical_ROB_Stalls_Percent_4_Bucket_6: 29214
Non-critical_ROB_Stalls_Percent_4_Bucket_6: 101285
Critical_ROB_Stalls_Percent_5_Bucket_0: 158444
Non-critical_ROB_Stalls_Percent_5_Bucket_0: 3088543
Critical_ROB_Stalls_Percent_5_Bucket_1: 1848
Non-critical_ROB_Stalls_Percent_5_Bucket_1: 517959
Critical_ROB_Stalls_Percent_5_Bucket_2: 3038
Non-critical_ROB_Stalls_Percent_5_Bucket_2: 31260
Critical_ROB_Stalls_Percent_5_Bucket_3: 3212
Non-critical_ROB_Stalls_Percent_5_Bucket_3: 27399
Critical_ROB_Stalls_Percent_5_Bucket_4: 2666
Non-critical_ROB_Stalls_Percent_5_Bucket_4: 18805
Critical_ROB_Stalls_Percent_5_Bucket_5: 2697
Non-critical_ROB_Stalls_Percent_5_Bucket_5: 20603
Critical_ROB_Stalls_Percent_5_Bucket_6: 29214
Non-critical_ROB_Stalls_Percent_5_Bucket_6: 101285
Critical_ROB_Stalls_Percent_6_Bucket_0: 158444
Non-critical_ROB_Stalls_Percent_6_Bucket_0: 3088543
Critical_ROB_Stalls_Percent_6_Bucket_1: 1848
Non-critical_ROB_Stalls_Percent_6_Bucket_1: 517959
Critical_ROB_Stalls_Percent_6_Bucket_2: 3038
Non-critical_ROB_Stalls_Percent_6_Bucket_2: 31260
Critical_ROB_Stalls_Percent_6_Bucket_3: 3212
Non-critical_ROB_Stalls_Percent_6_Bucket_3: 27399
Critical_ROB_Stalls_Percent_6_Bucket_4: 2666
Non-critical_ROB_Stalls_Percent_6_Bucket_4: 18805
Critical_ROB_Stalls_Percent_6_Bucket_5: 2697
Non-critical_ROB_Stalls_Percent_6_Bucket_5: 20603
Critical_ROB_Stalls_Percent_6_Bucket_6: 29214
Non-critical_ROB_Stalls_Percent_6_Bucket_6: 101285
Critical_ROB_Stalls_Percent_7_Bucket_0: 158444
Non-critical_ROB_Stalls_Percent_7_Bucket_0: 3088543
Critical_ROB_Stalls_Percent_7_Bucket_1: 1848
Non-critical_ROB_Stalls_Percent_7_Bucket_1: 517959
Critical_ROB_Stalls_Percent_7_Bucket_2: 3038
Non-critical_ROB_Stalls_Percent_7_Bucket_2: 31260
Critical_ROB_Stalls_Percent_7_Bucket_3: 3212
Non-critical_ROB_Stalls_Percent_7_Bucket_3: 27399
Critical_ROB_Stalls_Percent_7_Bucket_4: 2666
Non-critical_ROB_Stalls_Percent_7_Bucket_4: 18805
Critical_ROB_Stalls_Percent_7_Bucket_5: 2697
Non-critical_ROB_Stalls_Percent_7_Bucket_5: 20603
Critical_ROB_Stalls_Percent_7_Bucket_6: 29214
Non-critical_ROB_Stalls_Percent_7_Bucket_6: 101285
Critical_ROB_Stalls_Percent_8_Bucket_0: 158444
Non-critical_ROB_Stalls_Percent_8_Bucket_0: 3088543
Critical_ROB_Stalls_Percent_8_Bucket_1: 1848
Non-critical_ROB_Stalls_Percent_8_Bucket_1: 517959
Critical_ROB_Stalls_Percent_8_Bucket_2: 3038
Non-critical_ROB_Stalls_Percent_8_Bucket_2: 31260
Critical_ROB_Stalls_Percent_8_Bucket_3: 3212
Non-critical_ROB_Stalls_Percent_8_Bucket_3: 27399
Critical_ROB_Stalls_Percent_8_Bucket_4: 2666
Non-critical_ROB_Stalls_Percent_8_Bucket_4: 18805
Critical_ROB_Stalls_Percent_8_Bucket_5: 2697
Non-critical_ROB_Stalls_Percent_8_Bucket_5: 20603
Critical_ROB_Stalls_Percent_8_Bucket_6: 29214
Non-critical_ROB_Stalls_Percent_8_Bucket_6: 101285
Average ROB occupancy Load Stall Begin: 39.8846
Average ROB occupancy Load Stall End: 47.8766
Min ROB occupancy Load Stall Begin: 2
Max ROB occupancy Load Stall Begin: 352
Min ROB occupancy Load Stall End: 2
Max ROB occupancy Load Stall End: 352
Average ROB occupancy Critical Load Stall Begin: -nan
Average ROB occupancy Critical Load Stall End: -nan
Min ROB occupancy Critical Load Stall Begin: 400
Max ROB occupancy Critical Load Stall Begin: 0
Min ROB occupancy Critical Load Stall End: 400
Max ROB occupancy Critical Load Stall End: 0
 ROB Load Stall Begin Bucket Count 0: 3583237
 ROB Load Stall End Bucket Count 0: 3246987
 ROB Critical Load Stall Begin Bucket Count 0: 0
 ROB Critical Load Stall End Bucket Count 0: 0
 ROB Load Stall Begin Bucket Count 1: 218264
 ROB Load Stall End Bucket Count 1: 519807
 ROB Critical Load Stall Begin Bucket Count 1: 0
 ROB Critical Load Stall End Bucket Count 1: 0
 ROB Load Stall Begin Bucket Count 2: 28918
 ROB Load Stall End Bucket Count 2: 34298
 ROB Critical Load Stall Begin Bucket Count 2: 0
 ROB Critical Load Stall End Bucket Count 2: 0
 ROB Load Stall Begin Bucket Count 3: 28883
 ROB Load Stall End Bucket Count 3: 30611
 ROB Critical Load Stall Begin Bucket Count 3: 0
 ROB Critical Load Stall End Bucket Count 3: 0
 ROB Load Stall Begin Bucket Count 4: 20593
 ROB Load Stall End Bucket Count 4: 21471
 ROB Critical Load Stall Begin Bucket Count 4: 0
 ROB Critical Load Stall End Bucket Count 4: 0
 ROB Load Stall Begin Bucket Count 5: 25398
 ROB Load Stall End Bucket Count 5: 23300
 ROB Critical Load Stall Begin Bucket Count 5: 0
 ROB Critical Load Stall End Bucket Count 5: 0
 ROB Load Stall Begin Bucket Count 6: 101680
 ROB Load Stall End Bucket Count 6: 130499
 ROB Critical Load Stall Begin Bucket Count 6: 0
 ROB Critical Load Stall End Bucket Count 6: 0
PIST Tag Read Accesses: 0
PIST Read Accesses: 0
PIST Tag Write Accesses: 0
PIST Write Accesses: 0
Criticality detector called times: 0
Max global_stall_cycles_count: 0
Threshold Modified: 0 times, factor: 0
ITLB TOTAL     ACCESS:   13111536  HIT:   13111536  MISS:          0  HIT %:        100  MISS %:          0   MPKI: 0
ITLB LOAD TRANSLATION ACCESS:   13111536  HIT:   13111536  MISS:          0  HIT %:        100  MISS %:          0   MPKI: 0
ITLB PREFETCH  REQUESTED:          0  ISSUED:          0  USEFUL:          0  USELESS:          0
ITLB USEFUL LOAD PREFETCHES:          0 PREFETCH ISSUED TO LOWER LEVEL:          0  ACCURACY: -nan
ITLB TIMELY PREFETCHES:          0 LATE PREFETCHES: 0 DROPPED PREFETCHES: 0
ITLB PREFETCHES SAME FILL-ORIGIN LEVEL: 0 DIFFERENT FILL-ORIGIN LEVEL: 0
ITLB AVERAGE MISS LATENCY: -nan cycles
ITLB RQ	ACCESS:   17086045	FORWARD:          0	MERGED:    3974510	TO_CACHE:   13111535

DTLB TOTAL     ACCESS:   17309483  HIT:   17222585  MISS:      86898  HIT %:     99.498  MISS %:   0.502025   MPKI: 0.86898
DTLB LOAD TRANSLATION ACCESS:   17309483  HIT:   17222585  MISS:      86898  HIT %:     99.498  MISS %:   0.502025   MPKI: 0.86898
DTLB PREFETCH  REQUESTED:          0  ISSUED:          0  USEFUL:          0  USELESS:          0
DTLB USEFUL LOAD PREFETCHES:          0 PREFETCH ISSUED TO LOWER LEVEL:          0  ACCURACY: -nan
DTLB TIMELY PREFETCHES:          0 LATE PREFETCHES: 0 DROPPED PREFETCHES: 0
DTLB PREFETCHES SAME FILL-ORIGIN LEVEL: 0 DIFFERENT FILL-ORIGIN LEVEL: 0
DTLB AVERAGE MISS LATENCY: 112.759 cycles
DTLB RQ	ACCESS:   25160560	FORWARD:          0	MERGED:    7827349	TO_CACHE:   17333211

STLB TOTAL     ACCESS:     493752  HIT:     446601  MISS:      47151  HIT %:    90.4505  MISS %:    9.54953   MPKI: 0.47151
STLB LOAD TRANSLATION ACCESS:      86898  HIT:      39747  MISS:      47151  HIT %:    45.7398  MISS %:    54.2602   MPKI: 0.47151
STLB TRANSLATION FROM L1D PREFETCHER ACCESS:     406854  HIT:     406854  MISS:          0  HIT %:        100  MISS %:          0   MPKI: 0
STLB PREFETCH  REQUESTED:          0  ISSUED:          0  USEFUL:          0  USELESS:          0
STLB USEFUL LOAD PREFETCHES:          0 PREFETCH ISSUED TO LOWER LEVEL:          0  ACCURACY: -nan
STLB TIMELY PREFETCHES:          0 LATE PREFETCHES: 0 DROPPED PREFETCHES: 0
STLB PREFETCHES SAME FILL-ORIGIN LEVEL: 0 DIFFERENT FILL-ORIGIN LEVEL: 0
STLB AVERAGE MISS LATENCY: 186.998 cycles
STLB RQ	ACCESS:     830394	FORWARD:          0	MERGED:     336642	TO_CACHE:     493752

STLB Hit, L1D data hit: 0
STLB Hit, L2C data hit: 0
STLB Hit, LLC data hit: 0
STLB Hit, LLC data miss: 0
STLB STLB hints to L2: 0
L1D TOTAL     ACCESS:   25693803  HIT:   20716084  MISS:    4977719  HIT %:    80.6268  MISS %:    19.3732   MPKI: 49.7772
L1D LOAD      ACCESS:   10258549  HIT:   10076056  MISS:     182493  HIT %:    98.2211  MISS %:    1.77894   MPKI: 1.82493
L1D RFO       ACCESS:   14815136  HIT:   10591637  MISS:    4223499  HIT %:     71.492  MISS %:     28.508   MPKI: 42.235
L1D PREFETCH  ACCESS:     620118  HIT:      48391  MISS:     571727  HIT %:    7.80351  MISS %:    92.1965   MPKI: 5.71727
L1D PREFETCH  REQUESTED:    1489646  ISSUED:    1486992  USEFUL:     571723  USELESS:          0
L1D USEFUL LOAD PREFETCHES:     571723 PREFETCH ISSUED TO LOWER LEVEL:     610929  ACCURACY: 93.5826
L1D TIMELY PREFETCHES:     571723 LATE PREFETCHES: 39198 DROPPED PREFETCHES: 0
L1D PREFETCHES SAME FILL-ORIGIN LEVEL: 610929 DIFFERENT FILL-ORIGIN LEVEL: 0
L1D AVERAGE MISS LATENCY: 575369 cycles
L1D RQ	ACCESS:   23542012	FORWARD:          0	MERGED:   10638856	TO_CACHE:   10297573
L1D WQ	ACCESS:   16054211	FORWARD:    2605583	MERGED:    1191224	TO_CACHE:   14862987
L1D PQ	ACCESS:     743496	FORWARD:          0	MERGED:          0	TO_CACHE:     743496

L1D UNIQUE REGIONS ACCESSED: 0
L1D REGIONS CONFLICTS: 0
L1D Cross Page Prefetch Requests: 0
L1D Same Page Prefetch Requests: 1208028
L1D ROI Sum of L1D PQ occupancy: 328332657
L1D PREFETCHES PUSHED FROM L2C: 0
L1I TOTAL     ACCESS:   17086045  HIT:   17086045  MISS:          0  HIT %:        100  MISS %:          0   MPKI: 0
L1I LOAD      ACCESS:   17086045  HIT:   17086045  MISS:          0  HIT %:        100  MISS %:          0   MPKI: 0
L1I PREFETCH  REQUESTED:          0  ISSUED:          0  USEFUL:          0  USELESS:          0
L1I USEFUL LOAD PREFETCHES:          0 PREFETCH ISSUED TO LOWER LEVEL:          0  ACCURACY: -nan
L1I TIMELY PREFETCHES:          0 LATE PREFETCHES: 0 DROPPED PREFETCHES: 0
L1I PREFETCHES SAME FILL-ORIGIN LEVEL: 0 DIFFERENT FILL-ORIGIN LEVEL: 0
L1I AVERAGE MISS LATENCY: -nan cycles
L1I RQ	ACCESS:   24229563	FORWARD:          0	MERGED:    7143518	TO_CACHE:   17086045

BTB TOTAL     ACCESS:    1309811  HIT:    1309805  MISS:          6  HIT %:    99.9995  MISS %: 0.000458081   MPKI: 6e-05
BTB BRANCH_DIRECT_JUMP	ACCESS:      99276  HIT:      99275  MISS:          1
BTB BRANCH_INDIRECT	ACCESS:          0  HIT:          0  MISS:          0
BTB BRANCH_CONDITIONAL	ACCESS:    1210535  HIT:    1210530  MISS:          5
BTB BRANCH_DIRECT_CALL	ACCESS:          0  HIT:          0  MISS:          0
BTB BRANCH_INDIRECT_CALL	ACCESS:          0  HIT:          0  MISS:          0
BTB BRANCH_RETURN	ACCESS:          0  HIT:          0  MISS:          0
BTB BRANCH_OTHER ACCESS:          0  HIT:          0  MISS:          0

L2C TOTAL     ACCESS:    9948042  HIT:    6620726  MISS:    3327316  HIT %:    66.5531  MISS %:    33.4469   MPKI: 33.2732
L2C LOAD      ACCESS:     143295  HIT:      67645  MISS:      75650  HIT %:    47.2068  MISS %:    52.7932   MPKI: 0.7565
L2C DATA LOAD MPKI: 0.7565
L2C INSTRUCTION LOAD MPKI: 0
L2C RFO       ACCESS:    4223499  HIT:    1901583  MISS:    2321916  HIT %:    45.0239  MISS %:    54.9761   MPKI: 23.2192
L2C PREFETCH  ACCESS:    1310594  HIT:     631855  MISS:     678739  HIT %:    48.2113  MISS %:    51.7887   MPKI: 6.78739
L2C DATA PREFETCH MPKI: 6.78739
L2C INSTRUCTION PREFETCH MPKI: 0
L2C WRITEBACK ACCESS:    4223501  HIT:    3978680  MISS:     244821  HIT %:    94.2034  MISS %:    5.79664   MPKI: 2.44821
L2C LOAD TRANSLATION ACCESS:      47153  HIT:      40963  MISS:       6190  HIT %:    86.8725  MISS %:    13.1275   MPKI: 0.0619
L2C PREFETCH  REQUESTED:    1324314  ISSUED:    1324310  USEFUL:      67645  USELESS:     611701
L2C USEFUL LOAD PREFETCHES:      67645 PREFETCH ISSUED TO LOWER LEVEL:     699357  ACCURACY: 9.67246
L2C TIMELY PREFETCHES:      67645 LATE PREFETCHES: 20615 DROPPED PREFETCHES: 0
L2C PREFETCHES SAME FILL-ORIGIN LEVEL: 510240 DIFFERENT FILL-ORIGIN LEVEL: 0
L2C AVERAGE MISS LATENCY: 561.462 cycles
L2C RQ	ACCESS:    4413953	FORWARD:          0	MERGED:          0	TO_CACHE:    4413953
L2C WQ	ACCESS:    4223502	FORWARD:          0	MERGED:          0	TO_CACHE:    4223502
L2C PQ	ACCESS:    1935236	FORWARD:          0	MERGED:     322977	TO_CACHE:    1612259

L2C Instructions Evicting Data 0
L2C Translations Evicting Data 6132
L2C Data Evicting Data 3070578
L2C Instructions Evicting Instructions 0
L2C Translations Evicting Instructions 0
L2C Data Evicting Instructions 0
L2C Instructions Evicting Translations 0
L2C Translations Evicting Translations 58
L2C Data Evicting Translations 5727
L2C Dense regions hint from L2: 0
PSCL5 TOTAL     ACCESS:      47151  HIT:      47151  MISS:          0  HIT %:        100  MISS %:          0   MPKI: 0
PSCL5 LOAD TRANSLATION ACCESS:      47151  HIT:      47151  MISS:          0  HIT %:        100  MISS %:          0   MPKI: 0
PSCL5 PREFETCH  REQUESTED:          0  ISSUED:          0  USEFUL:          0  USELESS:          0
PSCL5 USEFUL LOAD PREFETCHES:          0 PREFETCH ISSUED TO LOWER LEVEL:          0  ACCURACY: -nan
PSCL5 TIMELY PREFETCHES:          0 LATE PREFETCHES: 0 DROPPED PREFETCHES: 0
PSCL5 PREFETCHES SAME FILL-ORIGIN LEVEL: 0 DIFFERENT FILL-ORIGIN LEVEL: 0

PSCL4 TOTAL     ACCESS:      47151  HIT:      47151  MISS:          0  HIT %:        100  MISS %:          0   MPKI: 0
PSCL4 LOAD TRANSLATION ACCESS:      47151  HIT:      47151  MISS:          0  HIT %:        100  MISS %:          0   MPKI: 0
PSCL4 PREFETCH  REQUESTED:          0  ISSUED:          0  USEFUL:          0  USELESS:          0
PSCL4 USEFUL LOAD PREFETCHES:          0 PREFETCH ISSUED TO LOWER LEVEL:          0  ACCURACY: -nan
PSCL4 TIMELY PREFETCHES:          0 LATE PREFETCHES: 0 DROPPED PREFETCHES: 0
PSCL4 PREFETCHES SAME FILL-ORIGIN LEVEL: 0 DIFFERENT FILL-ORIGIN LEVEL: 0

PSCL3 TOTAL     ACCESS:      47151  HIT:      47151  MISS:          0  HIT %:        100  MISS %:          0   MPKI: 0
PSCL3 LOAD TRANSLATION ACCESS:      47151  HIT:      47151  MISS:          0  HIT %:        100  MISS %:          0   MPKI: 0
PSCL3 PREFETCH  REQUESTED:          0  ISSUED:          0  USEFUL:          0  USELESS:          0
PSCL3 USEFUL LOAD PREFETCHES:          0 PREFETCH ISSUED TO LOWER LEVEL:          0  ACCURACY: -nan
PSCL3 TIMELY PREFETCHES:          0 LATE PREFETCHES: 0 DROPPED PREFETCHES: 0
PSCL3 PREFETCHES SAME FILL-ORIGIN LEVEL: 0 DIFFERENT FILL-ORIGIN LEVEL: 0

PSCL2 TOTAL     ACCESS:      47151  HIT:      47103  MISS:         48  HIT %:    99.8982  MISS %:   0.101801   MPKI: 0.00048
PSCL2 LOAD TRANSLATION ACCESS:      47151  HIT:      47103  MISS:         48  HIT %:    99.8982  MISS %:   0.101801   MPKI: 0.00048
PSCL2 PREFETCH  REQUESTED:          0  ISSUED:          0  USEFUL:          0  USELESS:          0
PSCL2 USEFUL LOAD PREFETCHES:          0 PREFETCH ISSUED TO LOWER LEVEL:          0  ACCURACY: -nan
PSCL2 TIMELY PREFETCHES:          0 LATE PREFETCHES: 0 DROPPED PREFETCHES: 0
PSCL2 PREFETCHES SAME FILL-ORIGIN LEVEL: 0 DIFFERENT FILL-ORIGIN LEVEL: 0

LLC TOTAL     ACCESS:    5409573  HIT:    2338549  MISS:    3071024  HIT %:    43.2298  MISS %:    56.7702   MPKI: 30.7102
LLC LOAD      ACCESS:      55035  HIT:         20  MISS:      55015  HIT %:  0.0363405  MISS %:    99.9637   MPKI: 0.55015
LLC RFO       ACCESS:    2321872  HIT:      59312  MISS:    2262560  HIT %:    2.55449  MISS %:    97.4455   MPKI: 22.6256
LLC PREFETCH  ACCESS:     699354  HIT:        148  MISS:     699206  HIT %:  0.0211624  MISS %:    99.9788   MPKI: 6.99206
LLC WRITEBACK ACCESS:    2327122  HIT:    2278841  MISS:      48281  HIT %:    97.9253  MISS %:    2.07471   MPKI: 0.48281
LLC LOAD TRANSLATION ACCESS:       6190  HIT:        228  MISS:       5962  HIT %:    3.68336  MISS %:    96.3166   MPKI: 0.05962
LLC PREFETCH  REQUESTED:          0  ISSUED:          0  USEFUL:         18  USELESS:     698314
LLC USEFUL LOAD PREFETCHES:         18 PREFETCH ISSUED TO LOWER LEVEL:     699209  ACCURACY: 0.00257434
LLC TIMELY PREFETCHES:         18 LATE PREFETCHES: 0 DROPPED PREFETCHES: 0
LLC PREFETCHES SAME FILL-ORIGIN LEVEL: 0 DIFFERENT FILL-ORIGIN LEVEL: 0
LLC AVERAGE MISS LATENCY: 581.072 cycles
LLC RQ	ACCESS:    2383145	FORWARD:          0	MERGED:          0	TO_CACHE:    2383101
LLC WQ	ACCESS:    2327122	FORWARD:         44	MERGED:          0	TO_CACHE:    2327122
LLC PQ	ACCESS:     699357	FORWARD:          0	MERGED:          0	TO_CACHE:     699357

LLC Dense regions hint to LLC: 0

RAW hits: 707440
Loads Generated: 24249455
Loads sent to L1D: 23542012
Stores Generated: 16054191
Stores sent to L1D: 16054211
Major fault: 0 Minor fault: 43296
Allocated PAGES: 43296

stream: 
stream:times selected: 1308003
stream:pref_filled: 580377
stream:pref_useful: 580372
stream:pref_late: 63283
stream:misses: 28699
stream:misses_by_poll: 0

CS: 
CS:times selected: 93282
CS:pref_filled: 71587
CS:pref_useful: 71587
CS:pref_late: 1958
CS:misses: 18116
CS:misses_by_poll: 302

CPLX: 
CPLX:times selected: 1212804
CPLX:pref_filled: 224125
CPLX:pref_useful: 224123
CPLX:pref_late: 7933
CPLX:misses: 134504
CPLX:misses_by_poll: 4184

NL_L1: 
NL:times selected: 1685
NL:pref_filled: 262
NL:pref_useful: 262
NL:pref_late: 118
NL:misses: 728
NL:misses_by_poll: 0

total selections: 2615774
total_filled: 571727
total_useful: 571723
total_late: 77158
total_polluted: 4486
total_misses_after_warmup: 112201
conflicts: 33774
Degree Incremented Times: 1376465
Degree Decremented Times: 0

L1 IP Table Write Accesses: 3338923
L1 IP Table Read Accesses: 3305149
L1 RST Write Accesses: 1036989
L1 RST Read Accesses: 2073978
L1 CSPT Write Accesses: 1036989
L1 CSPT Read Accesses: 3699763
L1 RR Filter Tag Write Accesses: 746150
L1 RR Filter Tag Read Accesses: 221249363
L1 IP Table Tag Write Accesses: 3864487
L1 IP Table Tag Read Accesses: 3864487
L1 RST Tag Write Accesses: 0
L1 RST Tag Read Accesses: 9260908
L1 RR Filter Write Accesses: 0
L1 RR Filter Read Accesses: 8122098
test: 219039
L2 IP Table Read Accesses: 1030382
L2 IP Table Write Accesses: 944725
L2 IP Table Tag Read Accesses: 515239
L2 IP Table Tag Write Accesses: 515239

DRAM Statistics
 CHANNEL 0
 RQ ROW_BUFFER_HIT:     258615  ROW_BUFFER_MISS:    2764128
 DBUS_CONGESTED:          0
 WQ ROW_BUFFER_HIT:     335200  ROW_BUFFER_MISS:    1927280  FULL:        496

 AVG_CONGESTED_CYCLE: -
 All warmup complete: 2
Channel 0 Bank busy for read cycles: 0
Channel 0 Bank busy for write cycles: 0
Channel 0
Rank 0
0banks busy for read cycles: 14217
0banks busy for write cycles: 0
1banks busy for read cycles: 1132300
1banks busy for write cycles: 224617
2banks busy for read cycles: 1916706
2banks busy for write cycles: 224615
3banks busy for read cycles: 4005440
3banks busy for write cycles: 224612
4banks busy for read cycles: 7159271
4banks busy for write cycles: 224630
5banks busy for read cycles: 12878850
5banks busy for write cycles: 224668
6banks busy for read cycles: 15857096
6banks busy for write cycles: 232477
7banks busy for read cycles: 18901361
7banks busy for write cycles: 2698817
8banks busy for read cycles: 18924065
8banks busy for write cycles: 49928424

CPU 0 Branch Prediction Accuracy: 98.6967% MPKI: 0.17071 Average ROB Occupancy at Mispredict: 132.047
Branch types
NOT_BRANCH: 98689842 98.6898%
BRANCH_DIRECT_JUMP: 99276 0.099276%
BRANCH_INDIRECT: 0 0%
BRANCH_CONDITIONAL: 1210545 1.21054%
BRANCH_DIRECT_CALL: 0 0%
BRANCH_INDIRECT_CALL: 0 0%
BRANCH_RETURN: 0 0%
BRANCH_OTHER: 0 0%

DRAM PAGES: 1048576
Allocated PAGES: 43296
