
*** ChampSim Multicore Out-of-Order Simulator ***

Warmup Instructions: 50000000
Simulation Instructions: 100000000
Number of CPUs: 1
LLC sets: 2048
LLC ways: 16
Off-chip DRAM Size: 4096 MB Channels: 1 Width: 64-bit Data Rate: 6400 MT/s
CPU 0 runs ../SPEC2017//619.lbm_s-2676B.champsimtrace.xz
.xz
BTB has LRU replacement policy
ITLB has LRU replacement policy
DTLB has LRU replacement policy
STLB has LRU replacement policy
L1I has LRU replacement policy
L1D has LRU replacement policy
Bingo PHT WAYS: 16 and PHT_SIZE: 16384
Initialize SRRIP state for L2C
Initialize DRRIP state for LLC
Heartbeat CPU 0 instructions: 10000003 cycles: 2902092 heartbeat IPC: 3.44579 cumulative IPC: 3.44579 (Simulation time: 0 hr 7 min 14 sec) 
Heartbeat CPU 0 instructions: 20000003 cycles: 5799079 heartbeat IPC: 3.45186 cumulative IPC: 3.44882 (Simulation time: 0 hr 13 min 55 sec) 
Heartbeat CPU 0 instructions: 30000003 cycles: 8687816 heartbeat IPC: 3.46172 cumulative IPC: 3.45311 (Simulation time: 0 hr 19 min 34 sec) 
Heartbeat CPU 0 instructions: 40000002 cycles: 11562061 heartbeat IPC: 3.47917 cumulative IPC: 3.45959 (Simulation time: 0 hr 24 min 31 sec) 
Heartbeat CPU 0 instructions: 50000001 cycles: 14423386 heartbeat IPC: 3.49488 cumulative IPC: 3.46659 (Simulation time: 0 hr 29 min 12 sec) 

Warmup complete CPU 0 instructions: 50000001 cycles: 14423386 (Simulation time: 0 hr 29 min 12 sec) 

Heartbeat CPU 0 instructions: 60000001 cycles: 32326963 heartbeat IPC: 0.558548 cumulative IPC: 0.558548 (Simulation time: 0 hr 36 min 40 sec) 
Heartbeat CPU 0 instructions: 70000002 cycles: 49571707 heartbeat IPC: 0.579887 cumulative IPC: 0.569017 (Simulation time: 0 hr 43 min 8 sec) 
Heartbeat CPU 0 instructions: 80000002 cycles: 65608543 heartbeat IPC: 0.623564 cumulative IPC: 0.586107 (Simulation time: 0 hr 49 min 14 sec) 
Heartbeat CPU 0 instructions: 90000001 cycles: 81622890 heartbeat IPC: 0.62444 cumulative IPC: 0.595243 (Simulation time: 0 hr 55 min 2 sec) 
Heartbeat CPU 0 instructions: 100000001 cycles: 96920930 heartbeat IPC: 0.653679 cumulative IPC: 0.606079 (Simulation time: 0 hr 59 min 58 sec) 
Heartbeat CPU 0 instructions: 110000000 cycles: 111912725 heartbeat IPC: 0.667031 cumulative IPC: 0.615452 (Simulation time: 1 hr 4 min 4 sec) 
Heartbeat CPU 0 instructions: 120000003 cycles: 126394319 heartbeat IPC: 0.690532 cumulative IPC: 0.625162 (Simulation time: 1 hr 7 min 55 sec) 
Heartbeat CPU 0 instructions: 130000003 cycles: 140406824 heartbeat IPC: 0.713648 cumulative IPC: 0.635004 (Simulation time: 1 hr 11 min 2 sec) 
Heartbeat CPU 0 instructions: 140000003 cycles: 154357556 heartbeat IPC: 0.716808 cumulative IPC: 0.64316 (Simulation time: 1 hr 13 min 39 sec) 
Heartbeat CPU 0 instructions: 150000003 cycles: 167821142 heartbeat IPC: 0.742744 cumulative IPC: 0.6519 (Simulation time: 1 hr 15 min 54 sec) 
Finished CPU 0 instructions: 100000002 cycles: 153397756 cumulative IPC: 0.6519 (Simulation time: 1 hr 15 min 54 sec) 

ChampSim completed all CPUs

Region of Interest Statistics

CPU 0 cumulative IPC: 0.6519 instructions: 100000002 cycles: 153397756

CPU 0 Average Load ROB stall cycles: 2.1375e+07
CPU 0 Fraction of times ROB stalled by Loads: 22.9963
CPU 0 Percentage of Load stall cycles in Total stall cycles: 1.58214e+08
Issued all: 97757879
Issued LT all: 84722537
rob_not_full_when_issued_lt_all: 33955786
Issued LT one: 76569967
rob_not_full_when_issued_lt_one: 28789830
FVP critical_dynamic_instances_0: 8121352
FVP unique_critical_ips_0: 105
 Total stall cycles: 129223772
 Total load stall cycles: 204449992009929
Unique Load IPs: 128
CPU 0 NUM of IPS identified critical: 0
CPU 0 Num of Load IPs stalling ROB: 0
Threshold modification factor: 0
Trouble in retire width: -nan
MaC = Marked as critical.
lt_50_percent_before_Mac: 0
gt_90_percent_before_Mac: 0
gt_75_percent_before_Mac: 0
gt_50_percent_before_Mac: 0
stall_proportion_bin_same_before_after: 0
stall_proportion_bin_lower_before_after: 0
stall_proportion_bin_upper_before_after: 0
average_stall_proportion_before: -nan
average_stall_proportion_after: -nan
Critical IP stalls, total frequency: 0
Non-critical IP stalls, total frequency: 0
Total Freq all stalling IPs: 0
Critical_IP_Detector_Accuracy_70: 0.00952381
Critical_IP_Detector_Accuracy_80: 0.00952381
Critical_IP_Detector_Accuracy_90: 0.00952381
Critical_IP_Detector_Coverage_70: 1
Critical_IP_Detector_Coverage_80: 1
Critical_IP_Detector_Coverage_90: 1
stat_90_percent_critical_ip_stalls_freq: 199162
stat_90_percent_non_critical_ip_stalls_freq: 18446744073709352454
AVERAGE_ROB_Occupancy_90_Percent_Critical_IP_Stalls: 253.141
AVERAGE_ROB_Occupancy_90_Percent_Non_Critical_IP_Stalls: 1.67258e-11
Critical_IP_ROB_Stalls_Bucket_0: 0
Non-critical_IP_ROB_Stalls_Bucket_0: 910147
Critical_IP_ROB_Stalls_Bucket_1: 0
Non-critical_IP_ROB_Stalls_Bucket_1: 154933
Critical_IP_ROB_Stalls_Bucket_2: 0
Non-critical_IP_ROB_Stalls_Bucket_2: 132873
Critical_IP_ROB_Stalls_Bucket_3: 0
Non-critical_IP_ROB_Stalls_Bucket_3: 139695
Critical_IP_ROB_Stalls_Bucket_4: 0
Non-critical_IP_ROB_Stalls_Bucket_4: 91445
Critical_IP_ROB_Stalls_Bucket_5: 0
Non-critical_IP_ROB_Stalls_Bucket_5: 87583
Critical_IP_ROB_Stalls_Bucket_6: 0
Non-critical_IP_ROB_Stalls_Bucket_6: 682909
0 => IPs accounting for >50 percent of stalls, 1 => 55, 2 => 60, 3 => 65 and so on till 90.
percent50: inf num IPs:  1
percent55: inf num IPs: 1
percent60: inf num IPs: 1
percent65: inf num IPs: 1
percent70: inf num IPs: 1
percent75: inf num IPs: 1
percent80: inf num IPs: 1
percent85: inf num IPs: 1
percent90: inf num IPs: 1
Critical_ROB_Stalls_Percent_0_Bucket_0: 21029
Non-critical_ROB_Stalls_Percent_0_Bucket_0: 889118
Critical_ROB_Stalls_Percent_0_Bucket_1: 25449
Non-critical_ROB_Stalls_Percent_0_Bucket_1: 129484
Critical_ROB_Stalls_Percent_0_Bucket_2: 7437
Non-critical_ROB_Stalls_Percent_0_Bucket_2: 125436
Critical_ROB_Stalls_Percent_0_Bucket_3: 1574
Non-critical_ROB_Stalls_Percent_0_Bucket_3: 138121
Critical_ROB_Stalls_Percent_0_Bucket_4: 7710
Non-critical_ROB_Stalls_Percent_0_Bucket_4: 83735
Critical_ROB_Stalls_Percent_0_Bucket_5: 13285
Non-critical_ROB_Stalls_Percent_0_Bucket_5: 74298
Critical_ROB_Stalls_Percent_0_Bucket_6: 122678
Non-critical_ROB_Stalls_Percent_0_Bucket_6: 560231
Critical_ROB_Stalls_Percent_1_Bucket_0: 21029
Non-critical_ROB_Stalls_Percent_1_Bucket_0: 889118
Critical_ROB_Stalls_Percent_1_Bucket_1: 25449
Non-critical_ROB_Stalls_Percent_1_Bucket_1: 129484
Critical_ROB_Stalls_Percent_1_Bucket_2: 7437
Non-critical_ROB_Stalls_Percent_1_Bucket_2: 125436
Critical_ROB_Stalls_Percent_1_Bucket_3: 1574
Non-critical_ROB_Stalls_Percent_1_Bucket_3: 138121
Critical_ROB_Stalls_Percent_1_Bucket_4: 7710
Non-critical_ROB_Stalls_Percent_1_Bucket_4: 83735
Critical_ROB_Stalls_Percent_1_Bucket_5: 13285
Non-critical_ROB_Stalls_Percent_1_Bucket_5: 74298
Critical_ROB_Stalls_Percent_1_Bucket_6: 122678
Non-critical_ROB_Stalls_Percent_1_Bucket_6: 560231
Critical_ROB_Stalls_Percent_2_Bucket_0: 21029
Non-critical_ROB_Stalls_Percent_2_Bucket_0: 889118
Critical_ROB_Stalls_Percent_2_Bucket_1: 25449
Non-critical_ROB_Stalls_Percent_2_Bucket_1: 129484
Critical_ROB_Stalls_Percent_2_Bucket_2: 7437
Non-critical_ROB_Stalls_Percent_2_Bucket_2: 125436
Critical_ROB_Stalls_Percent_2_Bucket_3: 1574
Non-critical_ROB_Stalls_Percent_2_Bucket_3: 138121
Critical_ROB_Stalls_Percent_2_Bucket_4: 7710
Non-critical_ROB_Stalls_Percent_2_Bucket_4: 83735
Critical_ROB_Stalls_Percent_2_Bucket_5: 13285
Non-critical_ROB_Stalls_Percent_2_Bucket_5: 74298
Critical_ROB_Stalls_Percent_2_Bucket_6: 122678
Non-critical_ROB_Stalls_Percent_2_Bucket_6: 560231
Critical_ROB_Stalls_Percent_3_Bucket_0: 21029
Non-critical_ROB_Stalls_Percent_3_Bucket_0: 889118
Critical_ROB_Stalls_Percent_3_Bucket_1: 25449
Non-critical_ROB_Stalls_Percent_3_Bucket_1: 129484
Critical_ROB_Stalls_Percent_3_Bucket_2: 7437
Non-critical_ROB_Stalls_Percent_3_Bucket_2: 125436
Critical_ROB_Stalls_Percent_3_Bucket_3: 1574
Non-critical_ROB_Stalls_Percent_3_Bucket_3: 138121
Critical_ROB_Stalls_Percent_3_Bucket_4: 7710
Non-critical_ROB_Stalls_Percent_3_Bucket_4: 83735
Critical_ROB_Stalls_Percent_3_Bucket_5: 13285
Non-critical_ROB_Stalls_Percent_3_Bucket_5: 74298
Critical_ROB_Stalls_Percent_3_Bucket_6: 122678
Non-critical_ROB_Stalls_Percent_3_Bucket_6: 560231
Critical_ROB_Stalls_Percent_4_Bucket_0: 21029
Non-critical_ROB_Stalls_Percent_4_Bucket_0: 889118
Critical_ROB_Stalls_Percent_4_Bucket_1: 25449
Non-critical_ROB_Stalls_Percent_4_Bucket_1: 129484
Critical_ROB_Stalls_Percent_4_Bucket_2: 7437
Non-critical_ROB_Stalls_Percent_4_Bucket_2: 125436
Critical_ROB_Stalls_Percent_4_Bucket_3: 1574
Non-critical_ROB_Stalls_Percent_4_Bucket_3: 138121
Critical_ROB_Stalls_Percent_4_Bucket_4: 7710
Non-critical_ROB_Stalls_Percent_4_Bucket_4: 83735
Critical_ROB_Stalls_Percent_4_Bucket_5: 13285
Non-critical_ROB_Stalls_Percent_4_Bucket_5: 74298
Critical_ROB_Stalls_Percent_4_Bucket_6: 122678
Non-critical_ROB_Stalls_Percent_4_Bucket_6: 560231
Critical_ROB_Stalls_Percent_5_Bucket_0: 21029
Non-critical_ROB_Stalls_Percent_5_Bucket_0: 889118
Critical_ROB_Stalls_Percent_5_Bucket_1: 25449
Non-critical_ROB_Stalls_Percent_5_Bucket_1: 129484
Critical_ROB_Stalls_Percent_5_Bucket_2: 7437
Non-critical_ROB_Stalls_Percent_5_Bucket_2: 125436
Critical_ROB_Stalls_Percent_5_Bucket_3: 1574
Non-critical_ROB_Stalls_Percent_5_Bucket_3: 138121
Critical_ROB_Stalls_Percent_5_Bucket_4: 7710
Non-critical_ROB_Stalls_Percent_5_Bucket_4: 83735
Critical_ROB_Stalls_Percent_5_Bucket_5: 13285
Non-critical_ROB_Stalls_Percent_5_Bucket_5: 74298
Critical_ROB_Stalls_Percent_5_Bucket_6: 122678
Non-critical_ROB_Stalls_Percent_5_Bucket_6: 560231
Critical_ROB_Stalls_Percent_6_Bucket_0: 21029
Non-critical_ROB_Stalls_Percent_6_Bucket_0: 889118
Critical_ROB_Stalls_Percent_6_Bucket_1: 25449
Non-critical_ROB_Stalls_Percent_6_Bucket_1: 129484
Critical_ROB_Stalls_Percent_6_Bucket_2: 7437
Non-critical_ROB_Stalls_Percent_6_Bucket_2: 125436
Critical_ROB_Stalls_Percent_6_Bucket_3: 1574
Non-critical_ROB_Stalls_Percent_6_Bucket_3: 138121
Critical_ROB_Stalls_Percent_6_Bucket_4: 7710
Non-critical_ROB_Stalls_Percent_6_Bucket_4: 83735
Critical_ROB_Stalls_Percent_6_Bucket_5: 13285
Non-critical_ROB_Stalls_Percent_6_Bucket_5: 74298
Critical_ROB_Stalls_Percent_6_Bucket_6: 122678
Non-critical_ROB_Stalls_Percent_6_Bucket_6: 560231
Critical_ROB_Stalls_Percent_7_Bucket_0: 21029
Non-critical_ROB_Stalls_Percent_7_Bucket_0: 889118
Critical_ROB_Stalls_Percent_7_Bucket_1: 25449
Non-critical_ROB_Stalls_Percent_7_Bucket_1: 129484
Critical_ROB_Stalls_Percent_7_Bucket_2: 7437
Non-critical_ROB_Stalls_Percent_7_Bucket_2: 125436
Critical_ROB_Stalls_Percent_7_Bucket_3: 1574
Non-critical_ROB_Stalls_Percent_7_Bucket_3: 138121
Critical_ROB_Stalls_Percent_7_Bucket_4: 7710
Non-critical_ROB_Stalls_Percent_7_Bucket_4: 83735
Critical_ROB_Stalls_Percent_7_Bucket_5: 13285
Non-critical_ROB_Stalls_Percent_7_Bucket_5: 74298
Critical_ROB_Stalls_Percent_7_Bucket_6: 122678
Non-critical_ROB_Stalls_Percent_7_Bucket_6: 560231
Critical_ROB_Stalls_Percent_8_Bucket_0: 21029
Non-critical_ROB_Stalls_Percent_8_Bucket_0: 889118
Critical_ROB_Stalls_Percent_8_Bucket_1: 25449
Non-critical_ROB_Stalls_Percent_8_Bucket_1: 129484
Critical_ROB_Stalls_Percent_8_Bucket_2: 7437
Non-critical_ROB_Stalls_Percent_8_Bucket_2: 125436
Critical_ROB_Stalls_Percent_8_Bucket_3: 1574
Non-critical_ROB_Stalls_Percent_8_Bucket_3: 138121
Critical_ROB_Stalls_Percent_8_Bucket_4: 7710
Non-critical_ROB_Stalls_Percent_8_Bucket_4: 83735
Critical_ROB_Stalls_Percent_8_Bucket_5: 13285
Non-critical_ROB_Stalls_Percent_8_Bucket_5: 74298
Critical_ROB_Stalls_Percent_8_Bucket_6: 122678
Non-critical_ROB_Stalls_Percent_8_Bucket_6: 560231
Average ROB occupancy Load Stall Begin: 139.028
Average ROB occupancy Load Stall End: 163.191
Min ROB occupancy Load Stall Begin: 2
Max ROB occupancy Load Stall Begin: 352
Min ROB occupancy Load Stall End: 2
Max ROB occupancy Load Stall End: 352
Average ROB occupancy Critical Load Stall Begin: -nan
Average ROB occupancy Critical Load Stall End: -nan
Min ROB occupancy Critical Load Stall Begin: 400
Max ROB occupancy Critical Load Stall Begin: 0
Min ROB occupancy Critical Load Stall End: 400
Max ROB occupancy Critical Load Stall End: 0
 ROB Load Stall Begin Bucket Count 0: 1009453
 ROB Load Stall End Bucket Count 0: 910147
 ROB Critical Load Stall Begin Bucket Count 0: 0
 ROB Critical Load Stall End Bucket Count 0: 0
 ROB Load Stall Begin Bucket Count 1: 153255
 ROB Load Stall End Bucket Count 1: 154933
 ROB Critical Load Stall Begin Bucket Count 1: 0
 ROB Critical Load Stall End Bucket Count 1: 0
 ROB Load Stall Begin Bucket Count 2: 206576
 ROB Load Stall End Bucket Count 2: 132873
 ROB Critical Load Stall Begin Bucket Count 2: 0
 ROB Critical Load Stall End Bucket Count 2: 0
 ROB Load Stall Begin Bucket Count 3: 134130
 ROB Load Stall End Bucket Count 3: 139695
 ROB Critical Load Stall Begin Bucket Count 3: 0
 ROB Critical Load Stall End Bucket Count 3: 0
 ROB Load Stall Begin Bucket Count 4: 85653
 ROB Load Stall End Bucket Count 4: 91445
 ROB Critical Load Stall Begin Bucket Count 4: 0
 ROB Critical Load Stall End Bucket Count 4: 0
 ROB Load Stall Begin Bucket Count 5: 104893
 ROB Load Stall End Bucket Count 5: 87583
 ROB Critical Load Stall Begin Bucket Count 5: 0
 ROB Critical Load Stall End Bucket Count 5: 0
 ROB Load Stall Begin Bucket Count 6: 505625
 ROB Load Stall End Bucket Count 6: 682909
 ROB Critical Load Stall Begin Bucket Count 6: 0
 ROB Critical Load Stall End Bucket Count 6: 0
PIST Tag Read Accesses: 0
PIST Read Accesses: 0
PIST Tag Write Accesses: 0
PIST Write Accesses: 0
Criticality detector called times: 0
Max global_stall_cycles_count: 0
Threshold Modified: 0 times, factor: 0
ITLB TOTAL     ACCESS:   13228539  HIT:   13228539  MISS:          0  HIT %:        100  MISS %:          0   MPKI: 0
ITLB LOAD TRANSLATION ACCESS:   13228539  HIT:   13228539  MISS:          0  HIT %:        100  MISS %:          0   MPKI: 0
ITLB PREFETCH  REQUESTED:          0  ISSUED:          0  USEFUL:          0  USELESS:          0
ITLB USEFUL LOAD PREFETCHES:          0 PREFETCH ISSUED TO LOWER LEVEL:          0  ACCURACY: -nan
ITLB TIMELY PREFETCHES:          0 LATE PREFETCHES: 0 DROPPED PREFETCHES: 0
ITLB PREFETCHES SAME FILL-ORIGIN LEVEL: 0 DIFFERENT FILL-ORIGIN LEVEL: 0
ITLB AVERAGE MISS LATENCY: -nan cycles
ITLB RQ	ACCESS:   17222151	FORWARD:          0	MERGED:    3993613	TO_CACHE:   13228538

DTLB TOTAL     ACCESS:   16279318  HIT:   16192420  MISS:      86898  HIT %:    99.4662  MISS %:   0.533794   MPKI: 0.86898
DTLB LOAD TRANSLATION ACCESS:   16279318  HIT:   16192420  MISS:      86898  HIT %:    99.4662  MISS %:   0.533794   MPKI: 0.86898
DTLB PREFETCH  REQUESTED:          0  ISSUED:          0  USEFUL:          0  USELESS:          0
DTLB USEFUL LOAD PREFETCHES:          0 PREFETCH ISSUED TO LOWER LEVEL:          0  ACCURACY: -nan
DTLB TIMELY PREFETCHES:          0 LATE PREFETCHES: 0 DROPPED PREFETCHES: 0
DTLB PREFETCHES SAME FILL-ORIGIN LEVEL: 0 DIFFERENT FILL-ORIGIN LEVEL: 0
DTLB AVERAGE MISS LATENCY: 91.5784 cycles
DTLB RQ	ACCESS:   25222128	FORWARD:          0	MERGED:    8921754	TO_CACHE:   16300374

STLB TOTAL     ACCESS:      86898  HIT:      39747  MISS:      47151  HIT %:    45.7398  MISS %:    54.2602   MPKI: 0.47151
STLB LOAD TRANSLATION ACCESS:      86898  HIT:      39747  MISS:      47151  HIT %:    45.7398  MISS %:    54.2602   MPKI: 0.47151
STLB PREFETCH  REQUESTED:          0  ISSUED:          0  USEFUL:          0  USELESS:          0
STLB USEFUL LOAD PREFETCHES:          0 PREFETCH ISSUED TO LOWER LEVEL:          0  ACCURACY: -nan
STLB TIMELY PREFETCHES:          0 LATE PREFETCHES: 0 DROPPED PREFETCHES: 0
STLB PREFETCHES SAME FILL-ORIGIN LEVEL: 0 DIFFERENT FILL-ORIGIN LEVEL: 0
STLB AVERAGE MISS LATENCY: 150.824 cycles
STLB RQ	ACCESS:      86898	FORWARD:          0	MERGED:          0	TO_CACHE:      86898

STLB Hit, L1D data hit: 0
STLB Hit, L2C data hit: 0
STLB Hit, LLC data hit: 0
STLB Hit, LLC data miss: 0
STLB STLB hints to L2: 0
L1D TOTAL     ACCESS:   25043923  HIT:   20066210  MISS:    4977713  HIT %:    80.1241  MISS %:    19.8759   MPKI: 49.7771
L1D LOAD      ACCESS:    9060810  HIT:    8306593  MISS:     754217  HIT %:    91.6761  MISS %:    8.32395   MPKI: 7.54217
L1D RFO       ACCESS:   15983113  HIT:   11759617  MISS:    4223496  HIT %:    73.5753  MISS %:    26.4247   MPKI: 42.235
L1D PREFETCH  REQUESTED:          0  ISSUED:          0  USEFUL:          0  USELESS:          0
L1D USEFUL LOAD PREFETCHES:          0 PREFETCH ISSUED TO LOWER LEVEL:          0  ACCURACY: -nan
L1D TIMELY PREFETCHES:          0 LATE PREFETCHES: 0 DROPPED PREFETCHES: 0
L1D PREFETCHES SAME FILL-ORIGIN LEVEL: 0 DIFFERENT FILL-ORIGIN LEVEL: 0
L1D AVERAGE MISS LATENCY: 245.421 cycles
L1D RQ	ACCESS:   22139931	FORWARD:          0	MERGED:   12269080	TO_CACHE:    9210905
L1D WQ	ACCESS:   16054211	FORWARD:     659946	MERGED:      42988	TO_CACHE:   16011223

L1D UNIQUE REGIONS ACCESSED: 0
L1D REGIONS CONFLICTS: 0
L1D Cross Page Prefetch Requests: 0
L1D Same Page Prefetch Requests: 0
L1D ROI Sum of L1D PQ occupancy: 0
L1D PREFETCHES PUSHED FROM L2C: 0
L1I TOTAL     ACCESS:   17222150  HIT:   17222150  MISS:          0  HIT %:        100  MISS %:          0   MPKI: 0
L1I LOAD      ACCESS:   17222150  HIT:   17222150  MISS:          0  HIT %:        100  MISS %:          0   MPKI: 0
L1I PREFETCH  REQUESTED:          0  ISSUED:          0  USEFUL:          0  USELESS:          0
L1I USEFUL LOAD PREFETCHES:          0 PREFETCH ISSUED TO LOWER LEVEL:          0  ACCURACY: -nan
L1I TIMELY PREFETCHES:          0 LATE PREFETCHES: 0 DROPPED PREFETCHES: 0
L1I PREFETCHES SAME FILL-ORIGIN LEVEL: 0 DIFFERENT FILL-ORIGIN LEVEL: 0
L1I AVERAGE MISS LATENCY: -nan cycles
L1I RQ	ACCESS:   24743832	FORWARD:          0	MERGED:    7521681	TO_CACHE:   17222151

BTB TOTAL     ACCESS:    1309816  HIT:    1309810  MISS:          6  HIT %:    99.9995  MISS %: 0.00045808   MPKI: 6e-05
BTB BRANCH_DIRECT_JUMP	ACCESS:      99276  HIT:      99275  MISS:          1
BTB BRANCH_INDIRECT	ACCESS:          0  HIT:          0  MISS:          0
BTB BRANCH_CONDITIONAL	ACCESS:    1210540  HIT:    1210535  MISS:          5
BTB BRANCH_DIRECT_CALL	ACCESS:          0  HIT:          0  MISS:          0
BTB BRANCH_INDIRECT_CALL	ACCESS:          0  HIT:          0  MISS:          0
BTB BRANCH_RETURN	ACCESS:          0  HIT:          0  MISS:          0
BTB BRANCH_OTHER ACCESS:          0  HIT:          0  MISS:          0

L2C TOTAL     ACCESS:    9753505  HIT:    6413825  MISS:    3339680  HIT %:    65.7592  MISS %:    34.2408   MPKI: 33.3968
L2C LOAD      ACCESS:     754217  HIT:     495022  MISS:     259195  HIT %:    65.6339  MISS %:    34.3661   MPKI: 2.59195
L2C DATA LOAD MPKI: 2.59195
L2C INSTRUCTION LOAD MPKI: 0
L2C RFO       ACCESS:    4223496  HIT:    1899310  MISS:    2324186  HIT %:    44.9701  MISS %:    55.0299   MPKI: 23.2419
L2C PREFETCH  ACCESS:     505145  HIT:       9404  MISS:     495741  HIT %:    1.86164  MISS %:    98.1384   MPKI: 4.95741
L2C DATA PREFETCH MPKI: 4.95741
L2C INSTRUCTION PREFETCH MPKI: 0
L2C WRITEBACK ACCESS:    4223494  HIT:    3969135  MISS:     254359  HIT %:    93.9775  MISS %:    6.02248   MPKI: 2.54359
L2C LOAD TRANSLATION ACCESS:      47153  HIT:      40954  MISS:       6199  HIT %:    86.8534  MISS %:    13.1466   MPKI: 0.06199
L2C PREFETCH  REQUESTED:     530630  ISSUED:     530630  USEFUL:     495021  USELESS:        708
L2C USEFUL LOAD PREFETCHES:     495021 PREFETCH ISSUED TO LOWER LEVEL:     512180  ACCURACY: 96.6498
L2C TIMELY PREFETCHES:     495021 LATE PREFETCHES: 16439 DROPPED PREFETCHES: 0
L2C PREFETCHES SAME FILL-ORIGIN LEVEL: 512180 DIFFERENT FILL-ORIGIN LEVEL: 0
L2C AVERAGE MISS LATENCY: 425.343 cycles
L2C RQ	ACCESS:    5024869	FORWARD:          0	MERGED:          0	TO_CACHE:    5024869
L2C WQ	ACCESS:    4223494	FORWARD:          0	MERGED:          0	TO_CACHE:    4223494
L2C PQ	ACCESS:     530630	FORWARD:          0	MERGED:          0	TO_CACHE:     530630

L2C Instructions Evicting Data 0
L2C Translations Evicting Data 6151
L2C Data Evicting Data 3073395
L2C Instructions Evicting Instructions 0
L2C Translations Evicting Instructions 0
L2C Data Evicting Instructions 0
L2C Instructions Evicting Translations 0
L2C Translations Evicting Translations 48
L2C Data Evicting Translations 5727
L2C Dense regions hint from L2: 0
PSCL5 TOTAL     ACCESS:      47151  HIT:      47151  MISS:          0  HIT %:        100  MISS %:          0   MPKI: 0
PSCL5 LOAD TRANSLATION ACCESS:      47151  HIT:      47151  MISS:          0  HIT %:        100  MISS %:          0   MPKI: 0
PSCL5 PREFETCH  REQUESTED:          0  ISSUED:          0  USEFUL:          0  USELESS:          0
PSCL5 USEFUL LOAD PREFETCHES:          0 PREFETCH ISSUED TO LOWER LEVEL:          0  ACCURACY: -nan
PSCL5 TIMELY PREFETCHES:          0 LATE PREFETCHES: 0 DROPPED PREFETCHES: 0
PSCL5 PREFETCHES SAME FILL-ORIGIN LEVEL: 0 DIFFERENT FILL-ORIGIN LEVEL: 0

PSCL4 TOTAL     ACCESS:      47151  HIT:      47151  MISS:          0  HIT %:        100  MISS %:          0   MPKI: 0
PSCL4 LOAD TRANSLATION ACCESS:      47151  HIT:      47151  MISS:          0  HIT %:        100  MISS %:          0   MPKI: 0
PSCL4 PREFETCH  REQUESTED:          0  ISSUED:          0  USEFUL:          0  USELESS:          0
PSCL4 USEFUL LOAD PREFETCHES:          0 PREFETCH ISSUED TO LOWER LEVEL:          0  ACCURACY: -nan
PSCL4 TIMELY PREFETCHES:          0 LATE PREFETCHES: 0 DROPPED PREFETCHES: 0
PSCL4 PREFETCHES SAME FILL-ORIGIN LEVEL: 0 DIFFERENT FILL-ORIGIN LEVEL: 0

PSCL3 TOTAL     ACCESS:      47151  HIT:      47151  MISS:          0  HIT %:        100  MISS %:          0   MPKI: 0
PSCL3 LOAD TRANSLATION ACCESS:      47151  HIT:      47151  MISS:          0  HIT %:        100  MISS %:          0   MPKI: 0
PSCL3 PREFETCH  REQUESTED:          0  ISSUED:          0  USEFUL:          0  USELESS:          0
PSCL3 USEFUL LOAD PREFETCHES:          0 PREFETCH ISSUED TO LOWER LEVEL:          0  ACCURACY: -nan
PSCL3 TIMELY PREFETCHES:          0 LATE PREFETCHES: 0 DROPPED PREFETCHES: 0
PSCL3 PREFETCHES SAME FILL-ORIGIN LEVEL: 0 DIFFERENT FILL-ORIGIN LEVEL: 0

PSCL2 TOTAL     ACCESS:      47151  HIT:      47103  MISS:         48  HIT %:    99.8982  MISS %:   0.101801   MPKI: 0.00048
PSCL2 LOAD TRANSLATION ACCESS:      47151  HIT:      47103  MISS:         48  HIT %:    99.8982  MISS %:   0.101801   MPKI: 0.00048
PSCL2 PREFETCH  REQUESTED:          0  ISSUED:          0  USEFUL:          0  USELESS:          0
PSCL2 USEFUL LOAD PREFETCHES:          0 PREFETCH ISSUED TO LOWER LEVEL:          0  ACCURACY: -nan
PSCL2 TIMELY PREFETCHES:          0 LATE PREFETCHES: 0 DROPPED PREFETCHES: 0
PSCL2 PREFETCHES SAME FILL-ORIGIN LEVEL: 0 DIFFERENT FILL-ORIGIN LEVEL: 0

LLC TOTAL     ACCESS:    5414932  HIT:    2353597  MISS:    3061335  HIT %:    43.4649  MISS %:    56.5351   MPKI: 30.6133
LLC LOAD      ACCESS:     242756  HIT:        280  MISS:     242476  HIT %:   0.115342  MISS %:    99.8847   MPKI: 2.42476
LLC RFO       ACCESS:    2324173  HIT:      61610  MISS:    2262563  HIT %:    2.65084  MISS %:    97.3492   MPKI: 22.6256
LLC PREFETCH  ACCESS:     512180  HIT:        422  MISS:     511758  HIT %:  0.0823929  MISS %:    99.9176   MPKI: 5.11758
LLC WRITEBACK ACCESS:    2329624  HIT:    2291046  MISS:      38578  HIT %:     98.344  MISS %:    1.65598   MPKI: 0.38578
LLC LOAD TRANSLATION ACCESS:       6199  HIT:        239  MISS:       5960  HIT %:    3.85546  MISS %:    96.1445   MPKI: 0.0596
LLC PREFETCH  REQUESTED:          0  ISSUED:          0  USEFUL:        280  USELESS:     510551
LLC USEFUL LOAD PREFETCHES:        280 PREFETCH ISSUED TO LOWER LEVEL:     511758  ACCURACY: 0.0547134
LLC TIMELY PREFETCHES:        280 LATE PREFETCHES: 0 DROPPED PREFETCHES: 0
LLC PREFETCHES SAME FILL-ORIGIN LEVEL: 0 DIFFERENT FILL-ORIGIN LEVEL: 0
LLC AVERAGE MISS LATENCY: 435.091 cycles
LLC RQ	ACCESS:    2573141	FORWARD:          0	MERGED:          0	TO_CACHE:    2573128
LLC WQ	ACCESS:    2329624	FORWARD:         13	MERGED:          0	TO_CACHE:    2329624
LLC PQ	ACCESS:     512180	FORWARD:          0	MERGED:          0	TO_CACHE:     512180

LLC Dense regions hint to LLC: 0

RAW hits: 2109539
Loads Generated: 24249472
Loads sent to L1D: 22139931
Stores Generated: 16054194
Stores sent to L1D: 16054211
Major fault: 0 Minor fault: 43296
Allocated PAGES: 43296
[Bingo] PHT Access: 24979
[Bingo] PHT Hit PC+Addr: 74
[Bingo] PHT Hit PC+Offs: 24883
[Bingo] PHT Miss: 22
[Bingo] Prefetch PC+Addr: 0
[Bingo] Prefetch PC+Offs: 0
[Bingo] Useful PC+Addr: 0
[Bingo] Useful PC+Offs: 0
[Bingo] Useless PC+Addr: 0
[Bingo] Useless PC+Offs: 0
[Bingo] L1 Prefetch per Region: 0
[Bingo] L2 Prefetch per Region: 22.2773
[Bingo] L3 Prefetch per Region: 0
[Bingo] No Prefetch per Region: 9.72268
[Bingo] Number of Voters Mean: 15.8704
[Bingo] Number of Voters SD: 12.5736
PHT read accesses: 395566
PHT write accesses: 24755
AT read accesses: 386437
AT write accesses: 386428
FT read accesses: 74471
FT write accesses: 24979
PS read accesses: 84406
PS write accesses: 24957
PHT tag read accesses: 1187917
PHT tag write accesses: 24829
AT tag read accesses: 60464039
AT tag write accesses: 411183
FT tag read accesses: 55050836
FT tag write accesses: 74704
PS tag read accesses: 7064986
PS tag write accesses: 109292

DRAM Statistics
 CHANNEL 0
 RQ ROW_BUFFER_HIT:     308295  ROW_BUFFER_MISS:    2714462
 DBUS_CONGESTED:          2
 WQ ROW_BUFFER_HIT:     383672  ROW_BUFFER_MISS:    1878867  FULL:          0

 AVG_CONGESTED_CYCLE: 5
 All warmup complete: 2
Channel 0 Bank busy for read cycles: 0
Channel 0 Bank busy for write cycles: 0
Channel 0
Rank 0
0banks busy for read cycles: 133092
0banks busy for write cycles: 51
1banks busy for read cycles: 6329262
1banks busy for write cycles: 263895
2banks busy for read cycles: 7871204
2banks busy for write cycles: 268942
3banks busy for read cycles: 14333903
3banks busy for write cycles: 271654
4banks busy for read cycles: 17975508
4banks busy for write cycles: 279578
5banks busy for read cycles: 22739675
5banks busy for write cycles: 294818
6banks busy for read cycles: 9933660
6banks busy for write cycles: 358271
7banks busy for read cycles: 8812473
7banks busy for write cycles: 3119170
8banks busy for read cycles: 10814966
8banks busy for write cycles: 49597635

CPU 0 Branch Prediction Accuracy: 98.6967% MPKI: 0.17071 Average ROB Occupancy at Mispredict: 224.171
Branch types
NOT_BRANCH: 98690020 98.69%
BRANCH_DIRECT_JUMP: 99276 0.099276%
BRANCH_INDIRECT: 0 0%
BRANCH_CONDITIONAL: 1210550 1.21055%
BRANCH_DIRECT_CALL: 0 0%
BRANCH_INDIRECT_CALL: 0 0%
BRANCH_RETURN: 0 0%
BRANCH_OTHER: 0 0%

DRAM PAGES: 1048576
Allocated PAGES: 43296
