
*** ChampSim Multicore Out-of-Order Simulator ***

Warmup Instructions: 50000000
Simulation Instructions: 100000000
Number of CPUs: 1
LLC sets: 2048
LLC ways: 16
Off-chip DRAM Size: 4096 MB Channels: 1 Width: 64-bit Data Rate: 6400 MT/s
CPU 0 runs ../SPEC2017//619.lbm_s-4268B.champsimtrace.xz
.xz
BTB has LRU replacement policy
ITLB has LRU replacement policy
DTLB has LRU replacement policy
STLB has LRU replacement policy
L1I has LRU replacement policy
IP Table Entries: 64
L1D has LRU replacement policy
Initialize SRRIP state for L2C
Initialize DRRIP state for LLC
Heartbeat CPU 0 instructions: 10000000 cycles: 2908932 heartbeat IPC: 3.43769 cumulative IPC: 3.43769 (Simulation time: 0 hr 2 min 55 sec) 
Heartbeat CPU 0 instructions: 20000001 cycles: 5815425 heartbeat IPC: 3.44057 cumulative IPC: 3.43913 (Simulation time: 0 hr 6 min 22 sec) 
Heartbeat CPU 0 instructions: 30000000 cycles: 8718063 heartbeat IPC: 3.44514 cumulative IPC: 3.44113 (Simulation time: 0 hr 9 min 17 sec) 
Heartbeat CPU 0 instructions: 40000000 cycles: 11627065 heartbeat IPC: 3.43761 cumulative IPC: 3.44025 (Simulation time: 0 hr 12 min 11 sec) 
Heartbeat CPU 0 instructions: 50000002 cycles: 14537743 heartbeat IPC: 3.43563 cumulative IPC: 3.43932 (Simulation time: 0 hr 15 min 1 sec) 

Warmup complete CPU 0 instructions: 50000002 cycles: 14537743 (Simulation time: 0 hr 15 min 1 sec) 

Heartbeat CPU 0 instructions: 60000000 cycles: 35933830 heartbeat IPC: 0.467375 cumulative IPC: 0.467375 (Simulation time: 0 hr 23 min 41 sec) 
Heartbeat CPU 0 instructions: 70000000 cycles: 56994246 heartbeat IPC: 0.474824 cumulative IPC: 0.47107 (Simulation time: 0 hr 33 min 18 sec) 
Heartbeat CPU 0 instructions: 80000003 cycles: 77776400 heartbeat IPC: 0.481182 cumulative IPC: 0.474393 (Simulation time: 0 hr 41 min 50 sec) 
Heartbeat CPU 0 instructions: 90000001 cycles: 98882307 heartbeat IPC: 0.473801 cumulative IPC: 0.474245 (Simulation time: 0 hr 51 min 15 sec) 
Heartbeat CPU 0 instructions: 100000001 cycles: 119556722 heartbeat IPC: 0.48369 cumulative IPC: 0.476104 (Simulation time: 1 hr 4 min 56 sec) 
Heartbeat CPU 0 instructions: 110000000 cycles: 140584171 heartbeat IPC: 0.475569 cumulative IPC: 0.476015 (Simulation time: 1 hr 17 min 16 sec) 
Heartbeat CPU 0 instructions: 120000001 cycles: 161937797 heartbeat IPC: 0.468305 cumulative IPC: 0.474898 (Simulation time: 1 hr 28 min 9 sec) 
Heartbeat CPU 0 instructions: 130000002 cycles: 182668214 heartbeat IPC: 0.482383 cumulative IPC: 0.475821 (Simulation time: 1 hr 38 min 4 sec) 
Heartbeat CPU 0 instructions: 140000000 cycles: 203728226 heartbeat IPC: 0.474833 cumulative IPC: 0.475711 (Simulation time: 1 hr 47 min 19 sec) 
Heartbeat CPU 0 instructions: 150000001 cycles: 224927105 heartbeat IPC: 0.471723 cumulative IPC: 0.475309 (Simulation time: 2 hr 0 min 27 sec) 
Finished CPU 0 instructions: 100000001 cycles: 210389363 cumulative IPC: 0.475309 (Simulation time: 2 hr 0 min 27 sec) 

ChampSim completed all CPUs

Region of Interest Statistics

CPU 0 cumulative IPC: 0.475309 instructions: 100000001 cycles: 210389363

CPU 0 Average Load ROB stall cycles: 2.75635e+07
CPU 0 Fraction of times ROB stalled by Loads: 22.9568
CPU 0 Percentage of Load stall cycles in Total stall cycles: 2.37288e+08
Issued all: 123099792
Issued LT all: 110277202
rob_not_full_when_issued_lt_all: 34665367
Issued LT one: 102074978
rob_not_full_when_issued_lt_one: 28724030
FVP critical_dynamic_instances_0: 9058617
FVP unique_critical_ips_0: 106
 Total stall cycles: 150513542
 Total load stall cycles: 357150868859396
Unique Load IPs: 128
CPU 0 NUM of IPS identified critical: 0
CPU 0 Num of Load IPs stalling ROB: 0
Threshold modification factor: 0
Trouble in retire width: -nan
MaC = Marked as critical.
lt_50_percent_before_Mac: 0
gt_90_percent_before_Mac: 0
gt_75_percent_before_Mac: 0
gt_50_percent_before_Mac: 0
stall_proportion_bin_same_before_after: 0
stall_proportion_bin_lower_before_after: 0
stall_proportion_bin_upper_before_after: 0
average_stall_proportion_before: -nan
average_stall_proportion_after: -nan
Critical IP stalls, total frequency: 0
Non-critical IP stalls, total frequency: 0
Total Freq all stalling IPs: 0
Critical_IP_Detector_Accuracy_70: 0.00943396
Critical_IP_Detector_Accuracy_80: 0.00943396
Critical_IP_Detector_Accuracy_90: 0.00943396
Critical_IP_Detector_Coverage_70: 1
Critical_IP_Detector_Coverage_80: 1
Critical_IP_Detector_Coverage_90: 1
stat_90_percent_critical_ip_stalls_freq: 213135
stat_90_percent_non_critical_ip_stalls_freq: 18446744073709338481
AVERAGE_ROB_Occupancy_90_Percent_Critical_IP_Stalls: 152.811
AVERAGE_ROB_Occupancy_90_Percent_Non_Critical_IP_Stalls: 1.0695e-11
Critical_IP_ROB_Stalls_Bucket_0: 0
Non-critical_IP_ROB_Stalls_Bucket_0: 2152653
Critical_IP_ROB_Stalls_Bucket_1: 0
Non-critical_IP_ROB_Stalls_Bucket_1: 287500
Critical_IP_ROB_Stalls_Bucket_2: 0
Non-critical_IP_ROB_Stalls_Bucket_2: 56817
Critical_IP_ROB_Stalls_Bucket_3: 0
Non-critical_IP_ROB_Stalls_Bucket_3: 61528
Critical_IP_ROB_Stalls_Bucket_4: 0
Non-critical_IP_ROB_Stalls_Bucket_4: 50275
Critical_IP_ROB_Stalls_Bucket_5: 0
Non-critical_IP_ROB_Stalls_Bucket_5: 58716
Critical_IP_ROB_Stalls_Bucket_6: 0
Non-critical_IP_ROB_Stalls_Bucket_6: 307119
0 => IPs accounting for >50 percent of stalls, 1 => 55, 2 => 60, 3 => 65 and so on till 90.
percent50: inf num IPs:  1
percent55: inf num IPs: 1
percent60: inf num IPs: 1
percent65: inf num IPs: 1
percent70: inf num IPs: 1
percent75: inf num IPs: 1
percent80: inf num IPs: 1
percent85: inf num IPs: 1
percent90: inf num IPs: 1
Critical_ROB_Stalls_Percent_0_Bucket_0: 111942
Non-critical_ROB_Stalls_Percent_0_Bucket_0: 2040711
Critical_ROB_Stalls_Percent_0_Bucket_1: 4076
Non-critical_ROB_Stalls_Percent_0_Bucket_1: 283424
Critical_ROB_Stalls_Percent_0_Bucket_2: 8550
Non-critical_ROB_Stalls_Percent_0_Bucket_2: 48267
Critical_ROB_Stalls_Percent_0_Bucket_3: 7907
Non-critical_ROB_Stalls_Percent_0_Bucket_3: 53621
Critical_ROB_Stalls_Percent_0_Bucket_4: 7313
Non-critical_ROB_Stalls_Percent_0_Bucket_4: 42962
Critical_ROB_Stalls_Percent_0_Bucket_5: 8061
Non-critical_ROB_Stalls_Percent_0_Bucket_5: 50655
Critical_ROB_Stalls_Percent_0_Bucket_6: 65286
Non-critical_ROB_Stalls_Percent_0_Bucket_6: 241833
Critical_ROB_Stalls_Percent_1_Bucket_0: 111942
Non-critical_ROB_Stalls_Percent_1_Bucket_0: 2040711
Critical_ROB_Stalls_Percent_1_Bucket_1: 4076
Non-critical_ROB_Stalls_Percent_1_Bucket_1: 283424
Critical_ROB_Stalls_Percent_1_Bucket_2: 8550
Non-critical_ROB_Stalls_Percent_1_Bucket_2: 48267
Critical_ROB_Stalls_Percent_1_Bucket_3: 7907
Non-critical_ROB_Stalls_Percent_1_Bucket_3: 53621
Critical_ROB_Stalls_Percent_1_Bucket_4: 7313
Non-critical_ROB_Stalls_Percent_1_Bucket_4: 42962
Critical_ROB_Stalls_Percent_1_Bucket_5: 8061
Non-critical_ROB_Stalls_Percent_1_Bucket_5: 50655
Critical_ROB_Stalls_Percent_1_Bucket_6: 65286
Non-critical_ROB_Stalls_Percent_1_Bucket_6: 241833
Critical_ROB_Stalls_Percent_2_Bucket_0: 111942
Non-critical_ROB_Stalls_Percent_2_Bucket_0: 2040711
Critical_ROB_Stalls_Percent_2_Bucket_1: 4076
Non-critical_ROB_Stalls_Percent_2_Bucket_1: 283424
Critical_ROB_Stalls_Percent_2_Bucket_2: 8550
Non-critical_ROB_Stalls_Percent_2_Bucket_2: 48267
Critical_ROB_Stalls_Percent_2_Bucket_3: 7907
Non-critical_ROB_Stalls_Percent_2_Bucket_3: 53621
Critical_ROB_Stalls_Percent_2_Bucket_4: 7313
Non-critical_ROB_Stalls_Percent_2_Bucket_4: 42962
Critical_ROB_Stalls_Percent_2_Bucket_5: 8061
Non-critical_ROB_Stalls_Percent_2_Bucket_5: 50655
Critical_ROB_Stalls_Percent_2_Bucket_6: 65286
Non-critical_ROB_Stalls_Percent_2_Bucket_6: 241833
Critical_ROB_Stalls_Percent_3_Bucket_0: 111942
Non-critical_ROB_Stalls_Percent_3_Bucket_0: 2040711
Critical_ROB_Stalls_Percent_3_Bucket_1: 4076
Non-critical_ROB_Stalls_Percent_3_Bucket_1: 283424
Critical_ROB_Stalls_Percent_3_Bucket_2: 8550
Non-critical_ROB_Stalls_Percent_3_Bucket_2: 48267
Critical_ROB_Stalls_Percent_3_Bucket_3: 7907
Non-critical_ROB_Stalls_Percent_3_Bucket_3: 53621
Critical_ROB_Stalls_Percent_3_Bucket_4: 7313
Non-critical_ROB_Stalls_Percent_3_Bucket_4: 42962
Critical_ROB_Stalls_Percent_3_Bucket_5: 8061
Non-critical_ROB_Stalls_Percent_3_Bucket_5: 50655
Critical_ROB_Stalls_Percent_3_Bucket_6: 65286
Non-critical_ROB_Stalls_Percent_3_Bucket_6: 241833
Critical_ROB_Stalls_Percent_4_Bucket_0: 111942
Non-critical_ROB_Stalls_Percent_4_Bucket_0: 2040711
Critical_ROB_Stalls_Percent_4_Bucket_1: 4076
Non-critical_ROB_Stalls_Percent_4_Bucket_1: 283424
Critical_ROB_Stalls_Percent_4_Bucket_2: 8550
Non-critical_ROB_Stalls_Percent_4_Bucket_2: 48267
Critical_ROB_Stalls_Percent_4_Bucket_3: 7907
Non-critical_ROB_Stalls_Percent_4_Bucket_3: 53621
Critical_ROB_Stalls_Percent_4_Bucket_4: 7313
Non-critical_ROB_Stalls_Percent_4_Bucket_4: 42962
Critical_ROB_Stalls_Percent_4_Bucket_5: 8061
Non-critical_ROB_Stalls_Percent_4_Bucket_5: 50655
Critical_ROB_Stalls_Percent_4_Bucket_6: 65286
Non-critical_ROB_Stalls_Percent_4_Bucket_6: 241833
Critical_ROB_Stalls_Percent_5_Bucket_0: 111942
Non-critical_ROB_Stalls_Percent_5_Bucket_0: 2040711
Critical_ROB_Stalls_Percent_5_Bucket_1: 4076
Non-critical_ROB_Stalls_Percent_5_Bucket_1: 283424
Critical_ROB_Stalls_Percent_5_Bucket_2: 8550
Non-critical_ROB_Stalls_Percent_5_Bucket_2: 48267
Critical_ROB_Stalls_Percent_5_Bucket_3: 7907
Non-critical_ROB_Stalls_Percent_5_Bucket_3: 53621
Critical_ROB_Stalls_Percent_5_Bucket_4: 7313
Non-critical_ROB_Stalls_Percent_5_Bucket_4: 42962
Critical_ROB_Stalls_Percent_5_Bucket_5: 8061
Non-critical_ROB_Stalls_Percent_5_Bucket_5: 50655
Critical_ROB_Stalls_Percent_5_Bucket_6: 65286
Non-critical_ROB_Stalls_Percent_5_Bucket_6: 241833
Critical_ROB_Stalls_Percent_6_Bucket_0: 111942
Non-critical_ROB_Stalls_Percent_6_Bucket_0: 2040711
Critical_ROB_Stalls_Percent_6_Bucket_1: 4076
Non-critical_ROB_Stalls_Percent_6_Bucket_1: 283424
Critical_ROB_Stalls_Percent_6_Bucket_2: 8550
Non-critical_ROB_Stalls_Percent_6_Bucket_2: 48267
Critical_ROB_Stalls_Percent_6_Bucket_3: 7907
Non-critical_ROB_Stalls_Percent_6_Bucket_3: 53621
Critical_ROB_Stalls_Percent_6_Bucket_4: 7313
Non-critical_ROB_Stalls_Percent_6_Bucket_4: 42962
Critical_ROB_Stalls_Percent_6_Bucket_5: 8061
Non-critical_ROB_Stalls_Percent_6_Bucket_5: 50655
Critical_ROB_Stalls_Percent_6_Bucket_6: 65286
Non-critical_ROB_Stalls_Percent_6_Bucket_6: 241833
Critical_ROB_Stalls_Percent_7_Bucket_0: 111942
Non-critical_ROB_Stalls_Percent_7_Bucket_0: 2040711
Critical_ROB_Stalls_Percent_7_Bucket_1: 4076
Non-critical_ROB_Stalls_Percent_7_Bucket_1: 283424
Critical_ROB_Stalls_Percent_7_Bucket_2: 8550
Non-critical_ROB_Stalls_Percent_7_Bucket_2: 48267
Critical_ROB_Stalls_Percent_7_Bucket_3: 7907
Non-critical_ROB_Stalls_Percent_7_Bucket_3: 53621
Critical_ROB_Stalls_Percent_7_Bucket_4: 7313
Non-critical_ROB_Stalls_Percent_7_Bucket_4: 42962
Critical_ROB_Stalls_Percent_7_Bucket_5: 8061
Non-critical_ROB_Stalls_Percent_7_Bucket_5: 50655
Critical_ROB_Stalls_Percent_7_Bucket_6: 65286
Non-critical_ROB_Stalls_Percent_7_Bucket_6: 241833
Critical_ROB_Stalls_Percent_8_Bucket_0: 111942
Non-critical_ROB_Stalls_Percent_8_Bucket_0: 2040711
Critical_ROB_Stalls_Percent_8_Bucket_1: 4076
Non-critical_ROB_Stalls_Percent_8_Bucket_1: 283424
Critical_ROB_Stalls_Percent_8_Bucket_2: 8550
Non-critical_ROB_Stalls_Percent_8_Bucket_2: 48267
Critical_ROB_Stalls_Percent_8_Bucket_3: 7907
Non-critical_ROB_Stalls_Percent_8_Bucket_3: 53621
Critical_ROB_Stalls_Percent_8_Bucket_4: 7313
Non-critical_ROB_Stalls_Percent_8_Bucket_4: 42962
Critical_ROB_Stalls_Percent_8_Bucket_5: 8061
Non-critical_ROB_Stalls_Percent_8_Bucket_5: 50655
Critical_ROB_Stalls_Percent_8_Bucket_6: 65286
Non-critical_ROB_Stalls_Percent_8_Bucket_6: 241833
Average ROB occupancy Load Stall Begin: 65.6783
Average ROB occupancy Load Stall End: 77.2734
Min ROB occupancy Load Stall Begin: 2
Max ROB occupancy Load Stall Begin: 352
Min ROB occupancy Load Stall End: 2
Max ROB occupancy Load Stall End: 352
Average ROB occupancy Critical Load Stall Begin: -nan
Average ROB occupancy Critical Load Stall End: -nan
Min ROB occupancy Critical Load Stall Begin: 400
Max ROB occupancy Critical Load Stall Begin: 0
Min ROB occupancy Critical Load Stall End: 400
Max ROB occupancy Critical Load Stall End: 0
 ROB Load Stall Begin Bucket Count 0: 2352873
 ROB Load Stall End Bucket Count 0: 2152653
 ROB Critical Load Stall Begin Bucket Count 0: 0
 ROB Critical Load Stall End Bucket Count 0: 0
 ROB Load Stall Begin Bucket Count 1: 145145
 ROB Load Stall End Bucket Count 1: 287500
 ROB Critical Load Stall Begin Bucket Count 1: 0
 ROB Critical Load Stall End Bucket Count 1: 0
 ROB Load Stall Begin Bucket Count 2: 60965
 ROB Load Stall End Bucket Count 2: 56817
 ROB Critical Load Stall Begin Bucket Count 2: 0
 ROB Critical Load Stall End Bucket Count 2: 0
 ROB Load Stall Begin Bucket Count 3: 59121
 ROB Load Stall End Bucket Count 3: 61528
 ROB Critical Load Stall Begin Bucket Count 3: 0
 ROB Critical Load Stall End Bucket Count 3: 0
 ROB Load Stall Begin Bucket Count 4: 49429
 ROB Load Stall End Bucket Count 4: 50275
 ROB Critical Load Stall Begin Bucket Count 4: 0
 ROB Critical Load Stall End Bucket Count 4: 0
 ROB Load Stall Begin Bucket Count 5: 64933
 ROB Load Stall End Bucket Count 5: 58716
 ROB Critical Load Stall Begin Bucket Count 5: 0
 ROB Critical Load Stall End Bucket Count 5: 0
 ROB Load Stall Begin Bucket Count 6: 242142
 ROB Load Stall End Bucket Count 6: 307119
 ROB Critical Load Stall Begin Bucket Count 6: 0
 ROB Critical Load Stall End Bucket Count 6: 0
PIST Tag Read Accesses: 0
PIST Read Accesses: 0
PIST Tag Write Accesses: 0
PIST Write Accesses: 0
Criticality detector called times: 0
Max global_stall_cycles_count: 0
Threshold Modified: 0 times, factor: 0
ITLB TOTAL     ACCESS:   13461611  HIT:   13461611  MISS:          0  HIT %:        100  MISS %:          0   MPKI: 0
ITLB LOAD TRANSLATION ACCESS:   13461611  HIT:   13461611  MISS:          0  HIT %:        100  MISS %:          0   MPKI: 0
ITLB PREFETCH  REQUESTED:          0  ISSUED:          0  USEFUL:          0  USELESS:          0
ITLB USEFUL LOAD PREFETCHES:          0 PREFETCH ISSUED TO LOWER LEVEL:          0  ACCURACY: -nan
ITLB TIMELY PREFETCHES:          0 LATE PREFETCHES: 0 DROPPED PREFETCHES: 0
ITLB PREFETCHES SAME FILL-ORIGIN LEVEL: 0 DIFFERENT FILL-ORIGIN LEVEL: 0
ITLB AVERAGE MISS LATENCY: -nan cycles
ITLB RQ	ACCESS:   17345951	FORWARD:          0	MERGED:    3884339	TO_CACHE:   13461612

DTLB TOTAL     ACCESS:   17668207  HIT:   17531133  MISS:     137074  HIT %:    99.2242  MISS %:   0.775823   MPKI: 1.37074
DTLB LOAD TRANSLATION ACCESS:   17668207  HIT:   17531133  MISS:     137074  HIT %:    99.2242  MISS %:   0.775823   MPKI: 1.37074
DTLB PREFETCH  REQUESTED:          0  ISSUED:          0  USEFUL:          0  USELESS:          0
DTLB USEFUL LOAD PREFETCHES:          0 PREFETCH ISSUED TO LOWER LEVEL:          0  ACCURACY: -nan
DTLB TIMELY PREFETCHES:          0 LATE PREFETCHES: 0 DROPPED PREFETCHES: 0
DTLB PREFETCHES SAME FILL-ORIGIN LEVEL: 0 DIFFERENT FILL-ORIGIN LEVEL: 0
DTLB AVERAGE MISS LATENCY: 113.786 cycles
DTLB RQ	ACCESS:   24891315	FORWARD:          0	MERGED:    7168772	TO_CACHE:   17722543

STLB TOTAL     ACCESS:     719048  HIT:     644670  MISS:      74378  HIT %:     89.656  MISS %:     10.344   MPKI: 0.74378
STLB LOAD TRANSLATION ACCESS:     137074  HIT:      62696  MISS:      74378  HIT %:    45.7388  MISS %:    54.2612   MPKI: 0.74378
STLB TRANSLATION FROM L1D PREFETCHER ACCESS:     581974  HIT:     581974  MISS:          0  HIT %:        100  MISS %:          0   MPKI: 0
STLB PREFETCH  REQUESTED:          0  ISSUED:          0  USEFUL:          0  USELESS:          0
STLB USEFUL LOAD PREFETCHES:          0 PREFETCH ISSUED TO LOWER LEVEL:          0  ACCURACY: -nan
STLB TIMELY PREFETCHES:          0 LATE PREFETCHES: 0 DROPPED PREFETCHES: 0
STLB PREFETCHES SAME FILL-ORIGIN LEVEL: 0 DIFFERENT FILL-ORIGIN LEVEL: 0
STLB AVERAGE MISS LATENCY: 190.81 cycles
STLB RQ	ACCESS:    1311773	FORWARD:          0	MERGED:     592725	TO_CACHE:     719048

STLB Hit, L1D data hit: 0
STLB Hit, L2C data hit: 0
STLB Hit, LLC data hit: 0
STLB Hit, LLC data miss: 0
STLB STLB hints to L2: 0
L1D TOTAL     ACCESS:   25310605  HIT:   17458276  MISS:    7852329  HIT %:    68.9761  MISS %:    31.0239   MPKI: 78.5233
L1D LOAD      ACCESS:    8346679  HIT:    7793401  MISS:     553278  HIT %:    93.3713  MISS %:    6.62872   MPKI: 5.53278
L1D RFO       ACCESS:   16245966  HIT:    9583547  MISS:    6662419  HIT %:    58.9903  MISS %:    41.0097   MPKI: 66.6242
L1D PREFETCH  ACCESS:     717960  HIT:      81328  MISS:     636632  HIT %:    11.3277  MISS %:    88.6723   MPKI: 6.36632
L1D PREFETCH  REQUESTED:    2355140  ISSUED:    2349398  USEFUL:     636635  USELESS:          0
L1D USEFUL LOAD PREFETCHES:     636635 PREFETCH ISSUED TO LOWER LEVEL:     869670  ACCURACY: 73.2042
L1D TIMELY PREFETCHES:     636635 LATE PREFETCHES: 233036 DROPPED PREFETCHES: 0
L1D PREFETCHES SAME FILL-ORIGIN LEVEL: 869670 DIFFERENT FILL-ORIGIN LEVEL: 0
L1D AVERAGE MISS LATENCY: 3.5482e+06 cycles
L1D RQ	ACCESS:   24813882	FORWARD:          0	MERGED:   11950809	TO_CACHE:    8561935
L1D WQ	ACCESS:   18427538	FORWARD:    4301138	MERGED:    2098158	TO_CACHE:   16329380
L1D PQ	ACCESS:    1174699	FORWARD:          0	MERGED:          0	TO_CACHE:    1174699

L1D UNIQUE REGIONS ACCESSED: 0
L1D REGIONS CONFLICTS: 0
L1D Cross Page Prefetch Requests: 0
L1D Same Page Prefetch Requests: 1702668
L1D ROI Sum of L1D PQ occupancy: 869021963
L1D PREFETCHES PUSHED FROM L2C: 0
L1I TOTAL     ACCESS:   17345950  HIT:   17345950  MISS:          0  HIT %:        100  MISS %:          0   MPKI: 0
L1I LOAD      ACCESS:   17345950  HIT:   17345950  MISS:          0  HIT %:        100  MISS %:          0   MPKI: 0
L1I PREFETCH  REQUESTED:          0  ISSUED:          0  USEFUL:          0  USELESS:          0
L1I USEFUL LOAD PREFETCHES:          0 PREFETCH ISSUED TO LOWER LEVEL:          0  ACCURACY: -nan
L1I TIMELY PREFETCHES:          0 LATE PREFETCHES: 0 DROPPED PREFETCHES: 0
L1I PREFETCHES SAME FILL-ORIGIN LEVEL: 0 DIFFERENT FILL-ORIGIN LEVEL: 0
L1I AVERAGE MISS LATENCY: -nan cycles
L1I RQ	ACCESS:   25101344	FORWARD:          0	MERGED:    7755393	TO_CACHE:   17345951

BTB TOTAL     ACCESS:    1795670  HIT:    1795664  MISS:          6  HIT %:    99.9997  MISS %: 0.000334137   MPKI: 6e-05
BTB BRANCH_DIRECT_JUMP	ACCESS:     291819  HIT:     291818  MISS:          1
BTB BRANCH_INDIRECT	ACCESS:          0  HIT:          0  MISS:          0
BTB BRANCH_CONDITIONAL	ACCESS:    1503851  HIT:    1503846  MISS:          5
BTB BRANCH_DIRECT_CALL	ACCESS:          0  HIT:          0  MISS:          0
BTB BRANCH_INDIRECT_CALL	ACCESS:          0  HIT:          0  MISS:          0
BTB BRANCH_RETURN	ACCESS:          0  HIT:          0  MISS:          0
BTB BRANCH_OTHER ACCESS:          0  HIT:          0  MISS:          0

L2C TOTAL     ACCESS:   14589126  HIT:    9474306  MISS:    5114820  HIT %:    64.9409  MISS %:    35.0591   MPKI: 51.1482
L2C LOAD      ACCESS:     320242  HIT:         63  MISS:     320179  HIT %:  0.0196726  MISS %:    99.9803   MPKI: 3.20179
L2C DATA LOAD MPKI: 3.20179
L2C INSTRUCTION LOAD MPKI: 0
L2C RFO       ACCESS:    6662409  HIT:    3028163  MISS:    3634246  HIT %:    45.4515  MISS %:    54.5485   MPKI: 36.3425
L2C PREFETCH  ACCESS:     869668  HIT:          0  MISS:     869668  HIT %:          0  MISS %:        100   MPKI: 8.69668
L2C DATA PREFETCH MPKI: 8.69668
L2C INSTRUCTION PREFETCH MPKI: 0
L2C WRITEBACK ACCESS:    6662425  HIT:    6381352  MISS:     281073  HIT %:    95.7812  MISS %:    4.21878   MPKI: 2.81073
L2C LOAD TRANSLATION ACCESS:      74382  HIT:      64728  MISS:       9654  HIT %:    87.0211  MISS %:    12.9789   MPKI: 0.09654
L2C PREFETCH  REQUESTED:          0  ISSUED:          0  USEFUL:          0  USELESS:     870140
L2C USEFUL LOAD PREFETCHES:          0 PREFETCH ISSUED TO LOWER LEVEL:     869669  ACCURACY: 0
L2C TIMELY PREFETCHES:          0 LATE PREFETCHES: 0 DROPPED PREFETCHES: 0
L2C PREFETCHES SAME FILL-ORIGIN LEVEL: 0 DIFFERENT FILL-ORIGIN LEVEL: 0
L2C AVERAGE MISS LATENCY: 588.71 cycles
L2C RQ	ACCESS:    7057057	FORWARD:          0	MERGED:          0	TO_CACHE:    7057047
L2C WQ	ACCESS:    6662428	FORWARD:         10	MERGED:          0	TO_CACHE:    6662428
L2C PQ	ACCESS:     869670	FORWARD:          0	MERGED:          0	TO_CACHE:     869670

L2C Instructions Evicting Data 0
L2C Translations Evicting Data 9640
L2C Data Evicting Data 4814974
L2C Instructions Evicting Instructions 0
L2C Translations Evicting Instructions 0
L2C Data Evicting Instructions 0
L2C Instructions Evicting Translations 0
L2C Translations Evicting Translations 14
L2C Data Evicting Translations 9119
L2C Dense regions hint from L2: 0
PSCL5 TOTAL     ACCESS:      74378  HIT:      74378  MISS:          0  HIT %:        100  MISS %:          0   MPKI: 0
PSCL5 LOAD TRANSLATION ACCESS:      74378  HIT:      74378  MISS:          0  HIT %:        100  MISS %:          0   MPKI: 0
PSCL5 PREFETCH  REQUESTED:          0  ISSUED:          0  USEFUL:          0  USELESS:          0
PSCL5 USEFUL LOAD PREFETCHES:          0 PREFETCH ISSUED TO LOWER LEVEL:          0  ACCURACY: -nan
PSCL5 TIMELY PREFETCHES:          0 LATE PREFETCHES: 0 DROPPED PREFETCHES: 0
PSCL5 PREFETCHES SAME FILL-ORIGIN LEVEL: 0 DIFFERENT FILL-ORIGIN LEVEL: 0

PSCL4 TOTAL     ACCESS:      74378  HIT:      74378  MISS:          0  HIT %:        100  MISS %:          0   MPKI: 0
PSCL4 LOAD TRANSLATION ACCESS:      74378  HIT:      74378  MISS:          0  HIT %:        100  MISS %:          0   MPKI: 0
PSCL4 PREFETCH  REQUESTED:          0  ISSUED:          0  USEFUL:          0  USELESS:          0
PSCL4 USEFUL LOAD PREFETCHES:          0 PREFETCH ISSUED TO LOWER LEVEL:          0  ACCURACY: -nan
PSCL4 TIMELY PREFETCHES:          0 LATE PREFETCHES: 0 DROPPED PREFETCHES: 0
PSCL4 PREFETCHES SAME FILL-ORIGIN LEVEL: 0 DIFFERENT FILL-ORIGIN LEVEL: 0

PSCL3 TOTAL     ACCESS:      74378  HIT:      74378  MISS:          0  HIT %:        100  MISS %:          0   MPKI: 0
PSCL3 LOAD TRANSLATION ACCESS:      74378  HIT:      74378  MISS:          0  HIT %:        100  MISS %:          0   MPKI: 0
PSCL3 PREFETCH  REQUESTED:          0  ISSUED:          0  USEFUL:          0  USELESS:          0
PSCL3 USEFUL LOAD PREFETCHES:          0 PREFETCH ISSUED TO LOWER LEVEL:          0  ACCURACY: -nan
PSCL3 TIMELY PREFETCHES:          0 LATE PREFETCHES: 0 DROPPED PREFETCHES: 0
PSCL3 PREFETCHES SAME FILL-ORIGIN LEVEL: 0 DIFFERENT FILL-ORIGIN LEVEL: 0

PSCL2 TOTAL     ACCESS:      74378  HIT:      74302  MISS:         76  HIT %:    99.8978  MISS %:   0.102181   MPKI: 0.00076
PSCL2 LOAD TRANSLATION ACCESS:      74378  HIT:      74302  MISS:         76  HIT %:    99.8978  MISS %:   0.102181   MPKI: 0.00076
PSCL2 PREFETCH  REQUESTED:          0  ISSUED:          0  USEFUL:          0  USELESS:          0
PSCL2 USEFUL LOAD PREFETCHES:          0 PREFETCH ISSUED TO LOWER LEVEL:          0  ACCURACY: -nan
PSCL2 TIMELY PREFETCHES:          0 LATE PREFETCHES: 0 DROPPED PREFETCHES: 0
PSCL2 PREFETCHES SAME FILL-ORIGIN LEVEL: 0 DIFFERENT FILL-ORIGIN LEVEL: 0

LLC TOTAL     ACCESS:    8473235  HIT:    3649036  MISS:    4824199  HIT %:    43.0654  MISS %:    56.9346   MPKI: 48.242
LLC LOAD      ACCESS:     320179  HIT:         74  MISS:     320105  HIT %:  0.0231121  MISS %:    99.9769   MPKI: 3.20105
LLC RFO       ACCESS:    3634168  HIT:      65246  MISS:    3568922  HIT %:    1.79535  MISS %:    98.2047   MPKI: 35.6892
LLC PREFETCH  ACCESS:     869668  HIT:          0  MISS:     869668  HIT %:          0  MISS %:        100   MPKI: 8.69668
LLC WRITEBACK ACCESS:    3639566  HIT:    3583461  MISS:      56105  HIT %:    98.4585  MISS %:    1.54153   MPKI: 0.56105
LLC LOAD TRANSLATION ACCESS:       9654  HIT:        255  MISS:       9399  HIT %:    2.64139  MISS %:    97.3586   MPKI: 0.09399
LLC PREFETCH  REQUESTED:          0  ISSUED:          0  USEFUL:          0  USELESS:     869277
LLC USEFUL LOAD PREFETCHES:          0 PREFETCH ISSUED TO LOWER LEVEL:     869668  ACCURACY: 0
LLC TIMELY PREFETCHES:          0 LATE PREFETCHES: 0 DROPPED PREFETCHES: 0
LLC PREFETCHES SAME FILL-ORIGIN LEVEL: 0 DIFFERENT FILL-ORIGIN LEVEL: 0
LLC AVERAGE MISS LATENCY: 593.388 cycles
LLC RQ	ACCESS:    3964091	FORWARD:          0	MERGED:          0	TO_CACHE:    3964013
LLC WQ	ACCESS:    3639568	FORWARD:         78	MERGED:          0	TO_CACHE:    3639568
LLC PQ	ACCESS:     869669	FORWARD:          0	MERGED:          0	TO_CACHE:     869669

LLC Dense regions hint to LLC: 0

RAW hits: 1267195
Loads Generated: 26081077
Loads sent to L1D: 24813882
Stores Generated: 18427531
Stores sent to L1D: 18427538
Major fault: 0 Minor fault: 58801
Allocated PAGES: 58801

stream: 
stream:times selected: 1700143
stream:pref_filled: 539196
stream:pref_useful: 539196
stream:pref_late: 154317
stream:misses: 47951
stream:misses_by_poll: 0

CS: 
CS:times selected: 188018
CS:pref_filled: 130912
CS:pref_useful: 130910
CS:pref_late: 25977
CS:misses: 68668
CS:misses_by_poll: 648

CPLX: 
CPLX:times selected: 1509502
CPLX:pref_filled: 326206
CPLX:pref_useful: 326206
CPLX:pref_late: 81125
CPLX:misses: 333216
CPLX:misses_by_poll: 3483

NL_L1: 
NL:times selected: 2006
NL:pref_filled: 438
NL:pref_useful: 438
NL:pref_late: 174
NL:misses: 961
NL:misses_by_poll: 0

total selections: 3399669
total_filled: 636632
total_useful: 636635
total_late: 266600
total_polluted: 4131
total_misses_after_warmup: 371785
conflicts: 62281
Degree Incremented Times: 45699
Degree Decremented Times: 0

L1 IP Table Write Accesses: 2935193
L1 IP Table Read Accesses: 2872912
L1 RST Write Accesses: 1377510
L1 RST Read Accesses: 2755020
L1 CSPT Write Accesses: 1377510
L1 CSPT Read Accesses: 4680086
L1 RR Filter Tag Write Accesses: 1180441
L1 RR Filter Tag Read Accesses: 284010435
L1 IP Table Tag Write Accesses: 3345114
L1 IP Table Tag Read Accesses: 3345114
L1 RST Tag Write Accesses: 0
L1 RST Tag Read Accesses: 12495591
L1 RR Filter Write Accesses: 0
L1 RR Filter Read Accesses: 10474858
test: 316350

DRAM Statistics
 CHANNEL 0
 RQ ROW_BUFFER_HIT:     303510  ROW_BUFFER_MISS:    4464584
 DBUS_CONGESTED:          0
 WQ ROW_BUFFER_HIT:     532022  ROW_BUFFER_MISS:    3036427  FULL:          0

 AVG_CONGESTED_CYCLE: -
 All warmup complete: 2
Channel 0 Bank busy for read cycles: 0
Channel 0 Bank busy for write cycles: 0
Channel 0
Rank 0
0banks busy for read cycles: 11574
0banks busy for write cycles: 0
1banks busy for read cycles: 1129386
1banks busy for write cycles: 351937
2banks busy for read cycles: 1334180
2banks busy for write cycles: 351937
3banks busy for read cycles: 2775144
3banks busy for write cycles: 351937
4banks busy for read cycles: 7825444
4banks busy for write cycles: 351933
5banks busy for read cycles: 18498321
5banks busy for write cycles: 351944
6banks busy for read cycles: 27375312
6banks busy for write cycles: 357904
7banks busy for read cycles: 35854629
7banks busy for write cycles: 4104133
8banks busy for read cycles: 30203891
8banks busy for write cycles: 79159758

CPU 0 Branch Prediction Accuracy: 97.1168% MPKI: 0.51773 Average ROB Occupancy at Mispredict: 182.608
Branch types
NOT_BRANCH: 98204331 98.2043%
BRANCH_DIRECT_JUMP: 291819 0.291819%
BRANCH_INDIRECT: 0 0%
BRANCH_CONDITIONAL: 1503851 1.50385%
BRANCH_DIRECT_CALL: 0 0%
BRANCH_INDIRECT_CALL: 0 0%
BRANCH_RETURN: 0 0%
BRANCH_OTHER: 0 0%

DRAM PAGES: 1048576
Allocated PAGES: 58801
