Initialize SIGNATURE TABLE
ST_SET: 1
ST_WAY: 256
ST_TAG_BIT: 16
ST_TAG_MASK: ffff

Initialize PATTERN TABLE
PT_SET: 512
PT_WAY: 4
SIG_DELTA_BIT: 7
C_SIG_BIT: 4
C_DELTA_BIT: 4

Initialize PREFETCH FILTER
FILTER_SET: 1024

*** ChampSim Multicore Out-of-Order Simulator ***

Warmup Instructions: 50000000
Simulation Instructions: 100000000
Number of CPUs: 1
LLC sets: 2048
LLC ways: 16
Off-chip DRAM Size: 4096 MB Channels: 1 Width: 64-bit Data Rate: 6400 MT/s
CPU 0 runs ../SPEC2017//620.omnetpp_s-874B.champsimtrace.xz
.xz
NUM_OF_IPS_IN_CRITICAL_IP_TRAINING: 64
NUM_OF_CRITICAL_IP_TRAINING_TABLE_WAYS: 2
NUM_OF_CRITICAL_IP_TRAINING_TABLE_SETS: 32
WOBBLY_CRITICAL_IP_CACHE_SETS: 32
WOBBLY_CRITICAL_IP_CACHE_WAYS: 4
BTB has LRU replacement policy
ITLB has LRU replacement policy
DTLB has LRU replacement policy
STLB has LRU replacement policy
L1I has LRU replacement policy
L1D has LRU replacement policy
Initialize SRRIP state for L2C
Initialize DRRIP state for LLC
Heartbeat CPU 0 instructions: 10000001 cycles: 3904514 heartbeat IPC: 2.56114 cumulative IPC: 2.56114 (Simulation time: 0 hr 6 min 7 sec) 
Heartbeat CPU 0 instructions: 20000001 cycles: 7805332 heartbeat IPC: 2.56356 cumulative IPC: 2.56235 (Simulation time: 0 hr 11 min 44 sec) 
Heartbeat CPU 0 instructions: 30000003 cycles: 11701475 heartbeat IPC: 2.56664 cumulative IPC: 2.56378 (Simulation time: 0 hr 16 min 41 sec) 
Heartbeat CPU 0 instructions: 40000001 cycles: 15606693 heartbeat IPC: 2.56068 cumulative IPC: 2.563 (Simulation time: 0 hr 21 min 24 sec) 
Heartbeat CPU 0 instructions: 50000000 cycles: 19513774 heartbeat IPC: 2.55946 cumulative IPC: 2.56229 (Simulation time: 0 hr 25 min 22 sec) 

Warmup complete CPU 0 instructions: 50000004 cycles: 19513775 (Simulation time: 0 hr 25 min 22 sec) 

% increase in all ip prefetch 892.052
% increase in all ip prefetch -4.26674
Heartbeat CPU 0 instructions: 60000001 cycles: 62657671 heartbeat IPC: 0.231783 cumulative IPC: 0.231782 (Simulation time: 0 hr 30 min 42 sec) 
Heartbeat CPU 0 instructions: 70000001 cycles: 105247477 heartbeat IPC: 0.234798 cumulative IPC: 0.23328 (Simulation time: 0 hr 35 min 34 sec) 
Heartbeat CPU 0 instructions: 80000002 cycles: 148028963 heartbeat IPC: 0.233746 cumulative IPC: 0.233435 (Simulation time: 0 hr 40 min 20 sec) 
Heartbeat CPU 0 instructions: 90000001 cycles: 190226783 heartbeat IPC: 0.236979 cumulative IPC: 0.234311 (Simulation time: 0 hr 44 min 27 sec) 
Heartbeat CPU 0 instructions: 100000000 cycles: 233379472 heartbeat IPC: 0.231735 cumulative IPC: 0.233792 (Simulation time: 0 hr 48 min 19 sec) 
Heartbeat CPU 0 instructions: 110000000 cycles: 275847449 heartbeat IPC: 0.235472 cumulative IPC: 0.23407 (Simulation time: 0 hr 55 min 43 sec) 
Heartbeat CPU 0 instructions: 120000003 cycles: 318566402 heartbeat IPC: 0.234088 cumulative IPC: 0.234073 (Simulation time: 1 hr 4 min 25 sec) 
Heartbeat CPU 0 instructions: 130000000 cycles: 361353855 heartbeat IPC: 0.233713 cumulative IPC: 0.234028 (Simulation time: 1 hr 12 min 41 sec) 
Heartbeat CPU 0 instructions: 140000001 cycles: 404020845 heartbeat IPC: 0.234373 cumulative IPC: 0.234066 (Simulation time: 1 hr 20 min 21 sec) 
Heartbeat CPU 0 instructions: 150000002 cycles: 446900835 heartbeat IPC: 0.233209 cumulative IPC: 0.23398 (Simulation time: 1 hr 27 min 29 sec) 
Finished CPU 0 instructions: 100000002 cycles: 427387061 cumulative IPC: 0.23398 (Simulation time: 1 hr 27 min 29 sec) 

ChampSim completed all CPUs

Region of Interest Statistics

CPU 0 cumulative IPC: 0.23398 instructions: 100000002 cycles: 427387061

CPU 0 Average Load ROB stall cycles: 1.02568e+08
CPU 0 Fraction of times ROB stalled by Loads: 43.9409
CPU 0 Percentage of Load stall cycles in Total stall cycles: 8.81195e+08
Issued all: 50554919
Issued LT all: 39255855
rob_not_full_when_issued_lt_all: 38448061
Issued LT one: 28343840
rob_not_full_when_issued_lt_one: 27594306
 Total stall cycles: 390479433
 Total load stall cycles: 3440886051635891
CPU 0 NUM of IPS identified critical: 0
CPU 0 Num of Load IPs stalling ROB: 2141
Threshold modification factor: -1
Max PIST entries: 64
Min PIST entries: 0
Avg PIST entries: 42.6667
Trouble in retire width: 0.971353
MaC = Marked as critical.
lt_50_percent_before_Mac: 0
gt_90_percent_before_Mac: 0
gt_75_percent_before_Mac: 0
gt_50_percent_before_Mac: 0
stall_proportion_bin_same_before_after: 0
stall_proportion_bin_lower_before_after: 0
stall_proportion_bin_upper_before_after: 0
average_stall_proportion_before: -nan
average_stall_proportion_after: -nan
Critical IP stalls, total frequency: 0
Non-critical IP stalls, total frequency: 14740941
Total Freq all stalling IPs: 14740941
stat_90_percent_critical_ip_stalls_freq: 13275898
stat_90_percent_non_critical_ip_stalls_freq: 1465043
Critical_IP_ROB_Stalls_Bucket_0: 0
Non-critical_IP_ROB_Stalls_Bucket_0: 8579962
Critical_IP_ROB_Stalls_Bucket_1: 0
Non-critical_IP_ROB_Stalls_Bucket_1: 4020711
Critical_IP_ROB_Stalls_Bucket_2: 0
Non-critical_IP_ROB_Stalls_Bucket_2: 1483298
Critical_IP_ROB_Stalls_Bucket_3: 0
Non-critical_IP_ROB_Stalls_Bucket_3: 464167
Critical_IP_ROB_Stalls_Bucket_4: 0
Non-critical_IP_ROB_Stalls_Bucket_4: 98663
Critical_IP_ROB_Stalls_Bucket_5: 0
Non-critical_IP_ROB_Stalls_Bucket_5: 53537
Critical_IP_ROB_Stalls_Bucket_6: 0
Non-critical_IP_ROB_Stalls_Bucket_6: 40603
0 => IPs accounting for >50 percent of stalls, 1 => 55, 2 => 60, 3 => 65 and so on till 90.
percent50: 50.2344 num IPs:  115
percent55: 55.115 num IPs: 135
percent60: 60.0009 num IPs: 160
percent65: 65.0113 num IPs: 190
percent70: 70.0618 num IPs: 226
percent75: 75.0765 num IPs: 267
percent80: 80.0728 num IPs: 311
percent85: 85.0309 num IPs: 364
percent90: 90.0614 num IPs: 437
Critical_ROB_Stalls_Percent_0_Bucket_0: 4691779
Non-critical_ROB_Stalls_Percent_0_Bucket_0: 3888183
Critical_ROB_Stalls_Percent_0_Bucket_1: 2179796
Non-critical_ROB_Stalls_Percent_0_Bucket_1: 1840915
Critical_ROB_Stalls_Percent_0_Bucket_2: 456903
Non-critical_ROB_Stalls_Percent_0_Bucket_2: 1026395
Critical_ROB_Stalls_Percent_0_Bucket_3: 59016
Non-critical_ROB_Stalls_Percent_0_Bucket_3: 405151
Critical_ROB_Stalls_Percent_0_Bucket_4: 14284
Non-critical_ROB_Stalls_Percent_0_Bucket_4: 84379
Critical_ROB_Stalls_Percent_0_Bucket_5: 1081
Non-critical_ROB_Stalls_Percent_0_Bucket_5: 52456
Critical_ROB_Stalls_Percent_0_Bucket_6: 2163
Non-critical_ROB_Stalls_Percent_0_Bucket_6: 38440
Critical_ROB_Stalls_Percent_1_Bucket_0: 5198064
Non-critical_ROB_Stalls_Percent_1_Bucket_0: 3381898
Critical_ROB_Stalls_Percent_1_Bucket_1: 2360981
Non-critical_ROB_Stalls_Percent_1_Bucket_1: 1659730
Critical_ROB_Stalls_Percent_1_Bucket_2: 469568
Non-critical_ROB_Stalls_Percent_1_Bucket_2: 1013730
Critical_ROB_Stalls_Percent_1_Bucket_3: 78283
Non-critical_ROB_Stalls_Percent_1_Bucket_3: 385884
Critical_ROB_Stalls_Percent_1_Bucket_4: 14293
Non-critical_ROB_Stalls_Percent_1_Bucket_4: 84370
Critical_ROB_Stalls_Percent_1_Bucket_5: 1081
Non-critical_ROB_Stalls_Percent_1_Bucket_5: 52456
Critical_ROB_Stalls_Percent_1_Bucket_6: 2203
Non-critical_ROB_Stalls_Percent_1_Bucket_6: 38400
Critical_ROB_Stalls_Percent_2_Bucket_0: 5568290
Non-critical_ROB_Stalls_Percent_2_Bucket_0: 3011672
Critical_ROB_Stalls_Percent_2_Bucket_1: 2526660
Non-critical_ROB_Stalls_Percent_2_Bucket_1: 1494051
Critical_ROB_Stalls_Percent_2_Bucket_2: 630688
Non-critical_ROB_Stalls_Percent_2_Bucket_2: 852610
Critical_ROB_Stalls_Percent_2_Bucket_3: 82849
Non-critical_ROB_Stalls_Percent_2_Bucket_3: 381318
Critical_ROB_Stalls_Percent_2_Bucket_4: 31778
Non-critical_ROB_Stalls_Percent_2_Bucket_4: 66885
Critical_ROB_Stalls_Percent_2_Bucket_5: 1396
Non-critical_ROB_Stalls_Percent_2_Bucket_5: 52141
Critical_ROB_Stalls_Percent_2_Bucket_6: 3041
Non-critical_ROB_Stalls_Percent_2_Bucket_6: 37562
Critical_ROB_Stalls_Percent_3_Bucket_0: 5820374
Non-critical_ROB_Stalls_Percent_3_Bucket_0: 2759588
Critical_ROB_Stalls_Percent_3_Bucket_1: 2783997
Non-critical_ROB_Stalls_Percent_3_Bucket_1: 1236714
Critical_ROB_Stalls_Percent_3_Bucket_2: 776844
Non-critical_ROB_Stalls_Percent_3_Bucket_2: 706454
Critical_ROB_Stalls_Percent_3_Bucket_3: 151474
Non-critical_ROB_Stalls_Percent_3_Bucket_3: 312693
Critical_ROB_Stalls_Percent_3_Bucket_4: 35320
Non-critical_ROB_Stalls_Percent_3_Bucket_4: 63343
Critical_ROB_Stalls_Percent_3_Bucket_5: 6911
Non-critical_ROB_Stalls_Percent_3_Bucket_5: 46626
Critical_ROB_Stalls_Percent_3_Bucket_6: 8364
Non-critical_ROB_Stalls_Percent_3_Bucket_6: 32239
Critical_ROB_Stalls_Percent_4_Bucket_0: 6239659
Non-critical_ROB_Stalls_Percent_4_Bucket_0: 2340303
Critical_ROB_Stalls_Percent_4_Bucket_1: 2973161
Non-critical_ROB_Stalls_Percent_4_Bucket_1: 1047550
Critical_ROB_Stalls_Percent_4_Bucket_2: 827339
Non-critical_ROB_Stalls_Percent_4_Bucket_2: 655959
Critical_ROB_Stalls_Percent_4_Bucket_3: 217860
Non-critical_ROB_Stalls_Percent_4_Bucket_3: 246307
Critical_ROB_Stalls_Percent_4_Bucket_4: 42170
Non-critical_ROB_Stalls_Percent_4_Bucket_4: 56493
Critical_ROB_Stalls_Percent_4_Bucket_5: 17704
Non-critical_ROB_Stalls_Percent_4_Bucket_5: 35833
Critical_ROB_Stalls_Percent_4_Bucket_6: 9885
Non-critical_ROB_Stalls_Percent_4_Bucket_6: 30718
Critical_ROB_Stalls_Percent_5_Bucket_0: 6608837
Non-critical_ROB_Stalls_Percent_5_Bucket_0: 1971125
Critical_ROB_Stalls_Percent_5_Bucket_1: 3219694
Non-critical_ROB_Stalls_Percent_5_Bucket_1: 801017
Critical_ROB_Stalls_Percent_5_Bucket_2: 919152
Non-critical_ROB_Stalls_Percent_5_Bucket_2: 564146
Critical_ROB_Stalls_Percent_5_Bucket_3: 240994
Non-critical_ROB_Stalls_Percent_5_Bucket_3: 223173
Critical_ROB_Stalls_Percent_5_Bucket_4: 44486
Non-critical_ROB_Stalls_Percent_5_Bucket_4: 54177
Critical_ROB_Stalls_Percent_5_Bucket_5: 23934
Non-critical_ROB_Stalls_Percent_5_Bucket_5: 29603
Critical_ROB_Stalls_Percent_5_Bucket_6: 9897
Non-critical_ROB_Stalls_Percent_5_Bucket_6: 30706
Critical_ROB_Stalls_Percent_6_Bucket_0: 6992659
Non-critical_ROB_Stalls_Percent_6_Bucket_0: 1587303
Critical_ROB_Stalls_Percent_6_Bucket_1: 3415825
Non-critical_ROB_Stalls_Percent_6_Bucket_1: 604886
Critical_ROB_Stalls_Percent_6_Bucket_2: 1037067
Non-critical_ROB_Stalls_Percent_6_Bucket_2: 446231
Critical_ROB_Stalls_Percent_6_Bucket_3: 251817
Non-critical_ROB_Stalls_Percent_6_Bucket_3: 212350
Critical_ROB_Stalls_Percent_6_Bucket_4: 51703
Non-critical_ROB_Stalls_Percent_6_Bucket_4: 46960
Critical_ROB_Stalls_Percent_6_Bucket_5: 28573
Non-critical_ROB_Stalls_Percent_6_Bucket_5: 24964
Critical_ROB_Stalls_Percent_6_Bucket_6: 25838
Non-critical_ROB_Stalls_Percent_6_Bucket_6: 14765
Critical_ROB_Stalls_Percent_7_Bucket_0: 7425700
Non-critical_ROB_Stalls_Percent_7_Bucket_0: 1154262
Critical_ROB_Stalls_Percent_7_Bucket_1: 3520206
Non-critical_ROB_Stalls_Percent_7_Bucket_1: 500505
Critical_ROB_Stalls_Percent_7_Bucket_2: 1129663
Non-critical_ROB_Stalls_Percent_7_Bucket_2: 353635
Critical_ROB_Stalls_Percent_7_Bucket_3: 318543
Non-critical_ROB_Stalls_Percent_7_Bucket_3: 145624
Critical_ROB_Stalls_Percent_7_Bucket_4: 68623
Non-critical_ROB_Stalls_Percent_7_Bucket_4: 30040
Critical_ROB_Stalls_Percent_7_Bucket_5: 45145
Non-critical_ROB_Stalls_Percent_7_Bucket_5: 8392
Critical_ROB_Stalls_Percent_7_Bucket_6: 26480
Non-critical_ROB_Stalls_Percent_7_Bucket_6: 14123
Critical_ROB_Stalls_Percent_8_Bucket_0: 7825078
Non-critical_ROB_Stalls_Percent_8_Bucket_0: 754884
Critical_ROB_Stalls_Percent_8_Bucket_1: 3666195
Non-critical_ROB_Stalls_Percent_8_Bucket_1: 354516
Critical_ROB_Stalls_Percent_8_Bucket_2: 1300918
Non-critical_ROB_Stalls_Percent_8_Bucket_2: 182380
Critical_ROB_Stalls_Percent_8_Bucket_3: 337610
Non-critical_ROB_Stalls_Percent_8_Bucket_3: 126557
Critical_ROB_Stalls_Percent_8_Bucket_4: 74033
Non-critical_ROB_Stalls_Percent_8_Bucket_4: 24630
Critical_ROB_Stalls_Percent_8_Bucket_5: 45312
Non-critical_ROB_Stalls_Percent_8_Bucket_5: 8225
Critical_ROB_Stalls_Percent_8_Bucket_6: 26752
Non-critical_ROB_Stalls_Percent_8_Bucket_6: 13851
Average ROB occupancy Load Stall Begin: 47.2733
Average ROB occupancy Load Stall End: 51.7202
Min ROB occupancy Load Stall Begin: 1
Max ROB occupancy Load Stall Begin: 352
Min ROB occupancy Load Stall End: 1
Max ROB occupancy Load Stall End: 352
Average ROB occupancy Critical Load Stall Begin: -nan
Average ROB occupancy Critical Load Stall End: -nan
Min ROB occupancy Critical Load Stall Begin: 400
Max ROB occupancy Critical Load Stall Begin: 0
Min ROB occupancy Critical Load Stall End: 400
Max ROB occupancy Critical Load Stall End: 0
 ROB Load Stall Begin Bucket Count 0: 9185855
 ROB Load Stall End Bucket Count 0: 8579962
 ROB Critical Load Stall Begin Bucket Count 0: 0
 ROB Critical Load Stall End Bucket Count 0: 0
 ROB Load Stall Begin Bucket Count 1: 3704902
 ROB Load Stall End Bucket Count 1: 4020711
 ROB Critical Load Stall Begin Bucket Count 1: 0
 ROB Critical Load Stall End Bucket Count 1: 0
 ROB Load Stall Begin Bucket Count 2: 1274352
 ROB Load Stall End Bucket Count 2: 1483298
 ROB Critical Load Stall Begin Bucket Count 2: 0
 ROB Critical Load Stall End Bucket Count 2: 0
 ROB Load Stall Begin Bucket Count 3: 410870
 ROB Load Stall End Bucket Count 3: 464167
 ROB Critical Load Stall Begin Bucket Count 3: 0
 ROB Critical Load Stall End Bucket Count 3: 0
 ROB Load Stall Begin Bucket Count 4: 85033
 ROB Load Stall End Bucket Count 4: 98663
 ROB Critical Load Stall Begin Bucket Count 4: 0
 ROB Critical Load Stall End Bucket Count 4: 0
 ROB Load Stall Begin Bucket Count 5: 44381
 ROB Load Stall End Bucket Count 5: 53537
 ROB Critical Load Stall Begin Bucket Count 5: 0
 ROB Critical Load Stall End Bucket Count 5: 0
 ROB Load Stall Begin Bucket Count 6: 35548
 ROB Load Stall End Bucket Count 6: 40603
 ROB Critical Load Stall Begin Bucket Count 6: 0
 ROB Critical Load Stall End Bucket Count 6: 0
PIST Tag Read Accesses: 14102630
PIST Read Accesses: 7051315
PIST Tag Write Accesses: 14102630
PIST Write Accesses: 7051315
Criticality detector called times: 14711697
Max global_stall_cycles_count: 7524379
Threshold Modified: 1 times, factor: -1
Sturdy critical IP cache stats: 
 Unused entries: 0
CIC Tag Read Accesses: 0
CIC Read Accesses: 0
CIC Tag Write Accesses: 0
CIC Write Accesses: 0
Wobbly critical IP cache stats: 
 Unused entries: 125
CIC Tag Read Accesses: 257643820
CIC Read Accesses: 0
CIC Tag Write Accesses: 3
CIC Write Accesses: 0
ITLB TOTAL     ACCESS:   16448388  HIT:   16290255  MISS:     158133  HIT %:    99.0386  MISS %:   0.961389   MPKI: 1.58133
ITLB LOAD TRANSLATION ACCESS:   16448388  HIT:   16290255  MISS:     158133  HIT %:    99.0386  MISS %:   0.961389   MPKI: 1.58133
ITLB PREFETCH  REQUESTED:          0  ISSUED:          0  USEFUL:          0  USELESS:          0
ITLB USEFUL LOAD PREFETCHES:          0 PREFETCH ISSUED TO LOWER LEVEL:          0  ACCURACY: -nan
ITLB TIMELY PREFETCHES:          0 LATE PREFETCHES: 0 DROPPED PREFETCHES: 0
ITLB PREFETCHES SAME FILL-ORIGIN LEVEL: 0 DIFFERENT FILL-ORIGIN LEVEL: 0
ITLB AVERAGE MISS LATENCY: 9.78795 cycles
ITLB RQ	ACCESS:   18531401	FORWARD:          0	MERGED:    2035046	TO_CACHE:   16496355

DTLB TOTAL     ACCESS:   38242321  HIT:   36339605  MISS:    1902716  HIT %:    95.0246  MISS %:    4.97542   MPKI: 19.0272
DTLB LOAD TRANSLATION ACCESS:   38242321  HIT:   36339605  MISS:    1902716  HIT %:    95.0246  MISS %:    4.97542   MPKI: 19.0272
DTLB PREFETCH  REQUESTED:          0  ISSUED:          0  USEFUL:          0  USELESS:          0
DTLB USEFUL LOAD PREFETCHES:          0 PREFETCH ISSUED TO LOWER LEVEL:          0  ACCURACY: -nan
DTLB TIMELY PREFETCHES:          0 LATE PREFETCHES: 0 DROPPED PREFETCHES: 0
DTLB PREFETCHES SAME FILL-ORIGIN LEVEL: 0 DIFFERENT FILL-ORIGIN LEVEL: 0
DTLB AVERAGE MISS LATENCY: 23.3767 cycles
DTLB RQ	ACCESS:   43213207	FORWARD:          0	MERGED:    4930530	TO_CACHE:   38282677

STLB TOTAL     ACCESS:    2060849  HIT:    1633363  MISS:     427486  HIT %:    79.2568  MISS %:    20.7432   MPKI: 4.27486
STLB LOAD TRANSLATION ACCESS:    2060849  HIT:    1633363  MISS:     427486  HIT %:    79.2568  MISS %:    20.7432   MPKI: 4.27486
STLB PREFETCH  REQUESTED:          0  ISSUED:          0  USEFUL:          0  USELESS:          0
STLB USEFUL LOAD PREFETCHES:          0 PREFETCH ISSUED TO LOWER LEVEL:          0  ACCURACY: -nan
STLB TIMELY PREFETCHES:          0 LATE PREFETCHES: 0 DROPPED PREFETCHES: 0
STLB PREFETCHES SAME FILL-ORIGIN LEVEL: 0 DIFFERENT FILL-ORIGIN LEVEL: 0
STLB AVERAGE MISS LATENCY: 64.1294 cycles
STLB RQ	ACCESS:    2060849	FORWARD:          0	MERGED:          0	TO_CACHE:    2060849

STLB Hit, L1D data hit: 0
STLB Hit, L2C data hit: 0
STLB Hit, LLC data hit: 0
STLB Hit, LLC data miss: 0
STLB STLB hints to L2: 0
L1D TOTAL     ACCESS:   42692947  HIT:   40879254  MISS:    1813693  HIT %:    95.7518  MISS %:    4.24823   MPKI: 18.1369
L1D LOAD      ACCESS:   24715123  HIT:   23145321  MISS:    1569802  HIT %:    93.6484  MISS %:    6.35158   MPKI: 15.698
L1D RFO       ACCESS:   17977824  HIT:   17733933  MISS:     243891  HIT %:    98.6434  MISS %:    1.35662   MPKI: 2.43891
L1D PREFETCH  REQUESTED:          0  ISSUED:          0  USEFUL:          0  USELESS:          0
L1D USEFUL LOAD PREFETCHES:          0 PREFETCH ISSUED TO LOWER LEVEL:          0  ACCURACY: -nan
L1D TIMELY PREFETCHES:          0 LATE PREFETCHES: 0 DROPPED PREFETCHES: 0
L1D PREFETCHES SAME FILL-ORIGIN LEVEL: 0 DIFFERENT FILL-ORIGIN LEVEL: 0
L1D AVERAGE MISS LATENCY: 119.404 cycles
L1D RQ	ACCESS:   32115275	FORWARD:          0	MERGED:    5938410	TO_CACHE:   24866127
L1D WQ	ACCESS:   18550778	FORWARD:    1310738	MERGED:     203698	TO_CACHE:   18347080

L1D UNIQUE REGIONS ACCESSED: 0
L1D REGIONS CONFLICTS: 0
L1D Cross Page Prefetch Requests: 0
L1D Same Page Prefetch Requests: 0
L1D ROI Sum of L1D PQ occupancy: 0
L1D PREFETCHES PUSHED FROM L2C: 0
L1I TOTAL     ACCESS:   18516321  HIT:   18477149  MISS:      39172  HIT %:    99.7884  MISS %:   0.211554   MPKI: 0.39172
L1I LOAD      ACCESS:   18516321  HIT:   18477149  MISS:      39172  HIT %:    99.7884  MISS %:   0.211554   MPKI: 0.39172
L1I PREFETCH  REQUESTED:          0  ISSUED:          0  USEFUL:          0  USELESS:          0
L1I USEFUL LOAD PREFETCHES:          0 PREFETCH ISSUED TO LOWER LEVEL:          0  ACCURACY: -nan
L1I TIMELY PREFETCHES:          0 LATE PREFETCHES: 0 DROPPED PREFETCHES: 0
L1I PREFETCHES SAME FILL-ORIGIN LEVEL: 0 DIFFERENT FILL-ORIGIN LEVEL: 0
L1I AVERAGE MISS LATENCY: 25.5801 cycles
L1I RQ	ACCESS:   28466579	FORWARD:          0	MERGED:    9935178	TO_CACHE:   18531401

BTB TOTAL     ACCESS:   16030212  HIT:   15084521  MISS:     945691  HIT %:    94.1006  MISS %:    5.89943   MPKI: 9.45691
BTB BRANCH_DIRECT_JUMP	ACCESS:    1133882  HIT:    1133764  MISS:        118
BTB BRANCH_INDIRECT	ACCESS:     335027  HIT:     292229  MISS:      42798
BTB BRANCH_CONDITIONAL	ACCESS:    8619449  HIT:    8618983  MISS:        466
BTB BRANCH_DIRECT_CALL	ACCESS:    1779569  HIT:    1779320  MISS:        249
BTB BRANCH_INDIRECT_CALL	ACCESS:    1191357  HIT:    1187230  MISS:       4127
BTB BRANCH_RETURN	ACCESS:    2970928  HIT:    2072995  MISS:     897933
BTB BRANCH_OTHER ACCESS:          0  HIT:          0  MISS:          0

L2C TOTAL     ACCESS:    3360512  HIT:    1877011  MISS:    1483501  HIT %:    55.8549  MISS %:    44.1451   MPKI: 14.835
L2C LOAD      ACCESS:    1608952  HIT:     537522  MISS:    1071430  HIT %:    33.4082  MISS %:    66.5918   MPKI: 10.7143
L2C DATA LOAD MPKI: 10.6493
L2C INSTRUCTION LOAD MPKI: 0.06497
L2C RFO       ACCESS:     243888  HIT:      88374  MISS:     155514  HIT %:    36.2355  MISS %:    63.7645   MPKI: 1.55514
L2C PREFETCH  ACCESS:       2963  HIT:       2882  MISS:         81  HIT %:    97.2663  MISS %:    2.73372   MPKI: 0.00081
L2C DATA PREFETCH MPKI: 0.00081
L2C INSTRUCTION PREFETCH MPKI: 0
L2C WRITEBACK ACCESS:     899706  HIT:     882629  MISS:      17077  HIT %:    98.1019  MISS %:    1.89806   MPKI: 0.17077
L2C LOAD TRANSLATION ACCESS:     605003  HIT:     365604  MISS:     239399  HIT %:    60.4301  MISS %:    39.5699   MPKI: 2.39399
L2C PREFETCH  REQUESTED:      15562  ISSUED:      15562  USEFUL:         50  USELESS:         31
L2C USEFUL LOAD PREFETCHES:         50 PREFETCH ISSUED TO LOWER LEVEL:      10771  ACCURACY: 0.464209
L2C TIMELY PREFETCHES:         50 LATE PREFETCHES: 18 DROPPED PREFETCHES: 0
L2C PREFETCHES SAME FILL-ORIGIN LEVEL: 99 DIFFERENT FILL-ORIGIN LEVEL: 10672
L2C AVERAGE MISS LATENCY: 137.984 cycles
L2C RQ	ACCESS:    2457868	FORWARD:          0	MERGED:          0	TO_CACHE:    2457843
L2C WQ	ACCESS:     899706	FORWARD:         25	MERGED:          0	TO_CACHE:     899706
L2C PQ	ACCESS:      15562	FORWARD:          0	MERGED:        266	TO_CACHE:      15296

L2C Instructions Evicting Data 5234
L2C Translations Evicting Data 198951
L2C Data Evicting Data 1018439
L2C Instructions Evicting Instructions 504
L2C Translations Evicting Instructions 751
L2C Data Evicting Instructions 5106
L2C Instructions Evicting Translations 759
L2C Translations Evicting Translations 39697
L2C Data Evicting Translations 196983
L2C Dense regions hint from L2: 0
PSCL5 TOTAL     ACCESS:     427486  HIT:     427486  MISS:          0  HIT %:        100  MISS %:          0   MPKI: 0
PSCL5 LOAD TRANSLATION ACCESS:     427486  HIT:     427486  MISS:          0  HIT %:        100  MISS %:          0   MPKI: 0
PSCL5 PREFETCH  REQUESTED:          0  ISSUED:          0  USEFUL:          0  USELESS:          0
PSCL5 USEFUL LOAD PREFETCHES:          0 PREFETCH ISSUED TO LOWER LEVEL:          0  ACCURACY: -nan
PSCL5 TIMELY PREFETCHES:          0 LATE PREFETCHES: 0 DROPPED PREFETCHES: 0
PSCL5 PREFETCHES SAME FILL-ORIGIN LEVEL: 0 DIFFERENT FILL-ORIGIN LEVEL: 0

PSCL4 TOTAL     ACCESS:     427486  HIT:     427486  MISS:          0  HIT %:        100  MISS %:          0   MPKI: 0
PSCL4 LOAD TRANSLATION ACCESS:     427486  HIT:     427486  MISS:          0  HIT %:        100  MISS %:          0   MPKI: 0
PSCL4 PREFETCH  REQUESTED:          0  ISSUED:          0  USEFUL:          0  USELESS:          0
PSCL4 USEFUL LOAD PREFETCHES:          0 PREFETCH ISSUED TO LOWER LEVEL:          0  ACCURACY: -nan
PSCL4 TIMELY PREFETCHES:          0 LATE PREFETCHES: 0 DROPPED PREFETCHES: 0
PSCL4 PREFETCHES SAME FILL-ORIGIN LEVEL: 0 DIFFERENT FILL-ORIGIN LEVEL: 0

PSCL3 TOTAL     ACCESS:     427486  HIT:     427486  MISS:          0  HIT %:        100  MISS %:          0   MPKI: 0
PSCL3 LOAD TRANSLATION ACCESS:     427486  HIT:     427486  MISS:          0  HIT %:        100  MISS %:          0   MPKI: 0
PSCL3 PREFETCH  REQUESTED:          0  ISSUED:          0  USEFUL:          0  USELESS:          0
PSCL3 USEFUL LOAD PREFETCHES:          0 PREFETCH ISSUED TO LOWER LEVEL:          0  ACCURACY: -nan
PSCL3 TIMELY PREFETCHES:          0 LATE PREFETCHES: 0 DROPPED PREFETCHES: 0
PSCL3 PREFETCHES SAME FILL-ORIGIN LEVEL: 0 DIFFERENT FILL-ORIGIN LEVEL: 0

PSCL2 TOTAL     ACCESS:     427486  HIT:     249969  MISS:     177517  HIT %:    58.4742  MISS %:    41.5258   MPKI: 1.77517
PSCL2 LOAD TRANSLATION ACCESS:     427486  HIT:     249969  MISS:     177517  HIT %:    58.4742  MISS %:    41.5258   MPKI: 1.77517
PSCL2 PREFETCH  REQUESTED:          0  ISSUED:          0  USEFUL:          0  USELESS:          0
PSCL2 USEFUL LOAD PREFETCHES:          0 PREFETCH ISSUED TO LOWER LEVEL:          0  ACCURACY: -nan
PSCL2 TIMELY PREFETCHES:          0 LATE PREFETCHES: 0 DROPPED PREFETCHES: 0
PSCL2 PREFETCHES SAME FILL-ORIGIN LEVEL: 0 DIFFERENT FILL-ORIGIN LEVEL: 0

LLC TOTAL     ACCESS:    2056161  HIT:    1049064  MISS:    1007097  HIT %:    51.0205  MISS %:    48.9795   MPKI: 10.071
LLC LOAD      ACCESS:    1071412  HIT:     237559  MISS:     833853  HIT %:    22.1725  MISS %:    77.8275   MPKI: 8.33853
LLC RFO       ACCESS:     155514  HIT:      57651  MISS:      97863  HIT %:    37.0713  MISS %:    62.9287   MPKI: 0.97863
LLC PREFETCH  ACCESS:      10172  HIT:       2090  MISS:       8082  HIT %:    20.5466  MISS %:    79.4534   MPKI: 0.08082
LLC WRITEBACK ACCESS:     579664  HIT:     557559  MISS:      22105  HIT %:    96.1866  MISS %:    3.81342   MPKI: 0.22105
LLC LOAD TRANSLATION ACCESS:     239399  HIT:     194205  MISS:      45194  HIT %:    81.1219  MISS %:    18.8781   MPKI: 0.45194
LLC PREFETCH  REQUESTED:          0  ISSUED:          0  USEFUL:       2507  USELESS:      10260
LLC USEFUL LOAD PREFETCHES:       2507 PREFETCH ISSUED TO LOWER LEVEL:       8615  ACCURACY: 29.1004
LLC TIMELY PREFETCHES:       2507 LATE PREFETCHES: 533 DROPPED PREFETCHES: 0
LLC PREFETCHES SAME FILL-ORIGIN LEVEL: 8534 DIFFERENT FILL-ORIGIN LEVEL: 0
LLC AVERAGE MISS LATENCY: 160.884 cycles
LLC RQ	ACCESS:    1466325	FORWARD:          0	MERGED:          0	TO_CACHE:    1466325
LLC WQ	ACCESS:     579664	FORWARD:          0	MERGED:          0	TO_CACHE:     579664
LLC PQ	ACCESS:      10771	FORWARD:          0	MERGED:         48	TO_CACHE:      10723

LLC Dense regions hint to LLC: 0

RAW hits: 1605207
Loads Generated: 33720482
Loads sent to L1D: 32115275
Stores Generated: 18550778
Stores sent to L1D: 18550778
Major fault: 0 Minor fault: 46708
Allocated PAGES: 46708
 All Calls: 2361540
 Critical Calls: 2361540
------------------
Depth Distribution
------------------
depth 0: 0
depth 1: 413301
depth 2: 10021
depth 3: 60
depth 4: 11
depth 5: 0
depth 6: 0
depth 7: 0
depth 8: 0
depth 9: 0
depth 10: 0
depth 11: 0
depth 12: 0
depth 13: 0
depth 14: 0
depth 15: 0
depth 16: 0
depth 17: 0
depth 18: 0
depth 19: 0
depth 20: 0
depth 21: 0
depth 22: 0
depth 23: 0
depth 24: 0
depth 25: 0
depth 26: 0
depth 27: 0
depth 28: 0
depth 29: 0
Total: 423393
-----------------------------
-----------------------------
	Captured at Filter
-----------------------------
depth 0: 0
depth 1: 1815
depth 2: 16
depth 3: 0
depth 4: 0
depth 5: 0
depth 6: 0
depth 7: 0
depth 8: 0
depth 9: 0
depth 10: 0
depth 11: 0
depth 12: 0
depth 13: 0
depth 14: 0
depth 15: 0
depth 16: 0
depth 17: 0
depth 18: 0
depth 19: 0
depth 20: 0
depth 21: 0
depth 22: 0
depth 23: 0
depth 24: 0
depth 25: 0
depth 26: 0
depth 27: 0
depth 28: 0
depth 29: 0
-----------------------------
-----------------------------
		Lost at Page
-----------------------------
depth 0: 0
depth 1: 55486
depth 2: 1258
depth 3: 5
depth 4: 1
depth 5: 0
depth 6: 0
depth 7: 0
depth 8: 0
depth 9: 0
depth 10: 0
depth 11: 0
depth 12: 0
depth 13: 0
depth 14: 0
depth 15: 0
depth 16: 0
depth 17: 0
depth 18: 0
depth 19: 0
depth 20: 0
depth 21: 0
depth 22: 0
depth 23: 0
depth 24: 0
depth 25: 0
depth 26: 0
depth 27: 0
depth 28: 0
depth 29: 0
-----------------------------
-----------------------------
	Lost due to PQ Size
-----------------------------
657245
-----------------------------
ST read accesses: 954514
ST write accesses: 615266
PT read accesses: 12951121
PT write accesses: 1109810
FILTER read accesses: 3727220
FILTER write accesses: 1506334
GHR read accesses: 5215082
GHR write accesses: 32017
GHR counter read accesses: 12017856
GHR counter write accesses: 1574513
ST tag read accesses: 918384374
ST tag write accesses: 177529512

DRAM Statistics
 CHANNEL 0
 RQ ROW_BUFFER_HIT:      74819  ROW_BUFFER_MISS:     910171
 DBUS_CONGESTED:        241
 WQ ROW_BUFFER_HIT:      99287  ROW_BUFFER_MISS:     339554  FULL:          0

 AVG_CONGESTED_CYCLE: 5
 All warmup complete: 2
Channel 0 Bank busy for read cycles: 0
Channel 0 Bank busy for write cycles: 0
Channel 0
Rank 0
0banks busy for read cycles: 263146121
0banks busy for write cycles: 237834
1banks busy for read cycles: 81099048
1banks busy for write cycles: 37199557
2banks busy for read cycles: 18602064
2banks busy for write cycles: 13896456
3banks busy for read cycles: 5205639
3banks busy for write cycles: 4691931
4banks busy for read cycles: 1514642
4banks busy for write cycles: 1343826
5banks busy for read cycles: 46938
5banks busy for write cycles: 311284
6banks busy for read cycles: 7643
6banks busy for write cycles: 68601
7banks busy for read cycles: 1108
7banks busy for write cycles: 13869
8banks busy for read cycles: 118
8banks busy for write cycles: 383

CPU 0 Branch Prediction Accuracy: 98.2098% MPKI: 3.72425 Average ROB Occupancy at Mispredict: 35.1811
Branch types
NOT_BRANCH: 79195747 79.1957%
BRANCH_DIRECT_JUMP: 1133882 1.13388%
BRANCH_INDIRECT: 335027 0.335027%
BRANCH_CONDITIONAL: 13393127 13.3931%
BRANCH_DIRECT_CALL: 1779569 1.77957%
BRANCH_INDIRECT_CALL: 1191357 1.19136%
BRANCH_RETURN: 2970928 2.97093%
BRANCH_OTHER: 0 0%

DRAM PAGES: 1048576
Allocated PAGES: 46708
