
*** ChampSim Multicore Out-of-Order Simulator ***

Warmup Instructions: 50000000
Simulation Instructions: 100000000
Number of CPUs: 1
LLC sets: 2048
LLC ways: 16
Off-chip DRAM Size: 4096 MB Channels: 1 Width: 64-bit Data Rate: 6400 MT/s
CPU 0 runs ../SPEC2017//620.omnetpp_s-141B.champsimtrace.xz
.xz
NUM_OF_IPS_IN_CRITICAL_IP_TRAINING: 64
NUM_OF_CRITICAL_IP_TRAINING_TABLE_WAYS: 2
NUM_OF_CRITICAL_IP_TRAINING_TABLE_SETS: 32
WOBBLY_CRITICAL_IP_CACHE_SETS: 32
WOBBLY_CRITICAL_IP_CACHE_WAYS: 4
BTB has LRU replacement policy
ITLB has LRU replacement policy
DTLB has LRU replacement policy
STLB has LRU replacement policy
L1I has LRU replacement policy
L1D has LRU replacement policy
Bingo PHT WAYS: 16 and PHT_SIZE: 16384
Initialize SRRIP state for L2C
Initialize DRRIP state for LLC
Heartbeat CPU 0 instructions: 10000001 cycles: 3912117 heartbeat IPC: 2.55616 cumulative IPC: 2.55616 (Simulation time: 0 hr 7 min 48 sec) 
Heartbeat CPU 0 instructions: 20000003 cycles: 7837092 heartbeat IPC: 2.54779 cumulative IPC: 2.55197 (Simulation time: 0 hr 14 min 25 sec) 
Heartbeat CPU 0 instructions: 30000000 cycles: 11766218 heartbeat IPC: 2.54509 cumulative IPC: 2.54967 (Simulation time: 0 hr 19 min 59 sec) 
Heartbeat CPU 0 instructions: 40000001 cycles: 15685160 heartbeat IPC: 2.55171 cumulative IPC: 2.55018 (Simulation time: 0 hr 25 min 29 sec) 
Heartbeat CPU 0 instructions: 50000003 cycles: 19616888 heartbeat IPC: 2.54341 cumulative IPC: 2.54882 (Simulation time: 0 hr 30 min 29 sec) 

Warmup complete CPU 0 instructions: 50000003 cycles: 19616888 (Simulation time: 0 hr 30 min 29 sec) 

% increase in all ip prefetch 814.759
% increase in all ip prefetch -7.7645
Heartbeat CPU 0 instructions: 60000001 cycles: 62444598 heartbeat IPC: 0.233494 cumulative IPC: 0.233494 (Simulation time: 0 hr 35 min 51 sec) 
Heartbeat CPU 0 instructions: 70000000 cycles: 105330350 heartbeat IPC: 0.233178 cumulative IPC: 0.233336 (Simulation time: 0 hr 40 min 40 sec) 
Heartbeat CPU 0 instructions: 80000003 cycles: 147913261 heartbeat IPC: 0.234836 cumulative IPC: 0.233834 (Simulation time: 0 hr 44 min 47 sec) 
Heartbeat CPU 0 instructions: 90000003 cycles: 190630685 heartbeat IPC: 0.234097 cumulative IPC: 0.233899 (Simulation time: 0 hr 48 min 37 sec) 
Heartbeat CPU 0 instructions: 100000000 cycles: 232952468 heartbeat IPC: 0.236285 cumulative IPC: 0.234373 (Simulation time: 0 hr 51 min 50 sec) 
Heartbeat CPU 0 instructions: 110000000 cycles: 275534680 heartbeat IPC: 0.23484 cumulative IPC: 0.23445 (Simulation time: 0 hr 54 min 2 sec) 
Heartbeat CPU 0 instructions: 120000000 cycles: 318063751 heartbeat IPC: 0.235133 cumulative IPC: 0.234548 (Simulation time: 0 hr 55 min 37 sec) 
Heartbeat CPU 0 instructions: 130000000 cycles: 360913879 heartbeat IPC: 0.233372 cumulative IPC: 0.2344 (Simulation time: 0 hr 56 min 57 sec) 
Heartbeat CPU 0 instructions: 140000000 cycles: 403549750 heartbeat IPC: 0.234544 cumulative IPC: 0.234416 (Simulation time: 0 hr 58 min 18 sec) 
Heartbeat CPU 0 instructions: 150000003 cycles: 446567242 heartbeat IPC: 0.232464 cumulative IPC: 0.234219 (Simulation time: 0 hr 59 min 23 sec) 
Finished CPU 0 instructions: 100000000 cycles: 426950354 cumulative IPC: 0.234219 (Simulation time: 0 hr 59 min 23 sec) 

ChampSim completed all CPUs

Region of Interest Statistics

CPU 0 cumulative IPC: 0.234219 instructions: 100000000 cycles: 426950354

CPU 0 Average Load ROB stall cycles: 1.24411e+07
CPU 0 Fraction of times ROB stalled by Loads: 5.33724
CPU 0 Percentage of Load stall cycles in Total stall cycles: 1.06379e+08
 Total stall cycles: 324807604
 Total load stall cycles: 345528366196609
CPU 0 NUM of IPS identified critical: 0

Threshold modification factor: -1
Max PIST entries: 64
Min PIST entries: 0
Avg PIST entries: 40.28
Average ROB occupancy Load Stall Begin: 45.7924
Average ROB occupancy Load Stall End: 50.1227
Min ROB occupancy Load Stall Begin: 1
Max ROB occupancy Load Stall Begin: 351
Min ROB occupancy Load Stall End: 1
Max ROB occupancy Load Stall End: 352
Average ROB occupancy Critical Load Stall Begin: -nan
Average ROB occupancy Critical Load Stall End: -nan
Min ROB occupancy Critical Load Stall Begin: 400
Max ROB occupancy Critical Load Stall Begin: 0
Min ROB occupancy Critical Load Stall End: 400
Max ROB occupancy Critical Load Stall End: 0
 ROB Load Stall Begin Bucket Count 0: 991888
 ROB Load Stall End Bucket Count 0: 978792
 ROB Critical Load Stall Begin Bucket Count 0: 0
 ROB Critical Load Stall End Bucket Count 0: 0
 ROB Load Stall Begin Bucket Count 1: 319976
 ROB Load Stall End Bucket Count 1: 326275
 ROB Critical Load Stall Begin Bucket Count 1: 0
 ROB Critical Load Stall End Bucket Count 1: 0
 ROB Load Stall Begin Bucket Count 2: 116509
 ROB Load Stall End Bucket Count 2: 117519
 ROB Critical Load Stall Begin Bucket Count 2: 0
 ROB Critical Load Stall End Bucket Count 2: 0
 ROB Load Stall Begin Bucket Count 3: 36248
 ROB Load Stall End Bucket Count 3: 39296
 ROB Critical Load Stall Begin Bucket Count 3: 0
 ROB Critical Load Stall End Bucket Count 3: 0
 ROB Load Stall Begin Bucket Count 4: 9367
 ROB Load Stall End Bucket Count 4: 11168
 ROB Critical Load Stall Begin Bucket Count 4: 0
 ROB Critical Load Stall End Bucket Count 4: 0
 ROB Load Stall Begin Bucket Count 5: 4129
 ROB Load Stall End Bucket Count 5: 4973
 ROB Critical Load Stall Begin Bucket Count 5: 0
 ROB Critical Load Stall End Bucket Count 5: 0
 ROB Load Stall Begin Bucket Count 6: 4199
 ROB Load Stall End Bucket Count 6: 4293
 ROB Critical Load Stall Begin Bucket Count 6: 0
 ROB Critical Load Stall End Bucket Count 6: 0
PIST Tag Read Accesses: 234490
PIST Read Accesses: 117245
PIST Tag Write Accesses: 234490
PIST Write Accesses: 117245
Criticality detector called times: 506987
Max global_stall_cycles_count: 168329
Threshold Modified: 1 times, factor: -1
Sturdy critical IP cache stats: 
 Unused entries: 0
CIC Tag Read Accesses: 0
CIC Read Accesses: 0
CIC Tag Write Accesses: 0
CIC Write Accesses: 0
Wobbly critical IP cache stats: 
 Unused entries: 123
CIC Tag Read Accesses: 199835584
CIC Read Accesses: 0
CIC Tag Write Accesses: 5
CIC Write Accesses: 0
ITLB TOTAL     ACCESS:   16657993  HIT:   16500770  MISS:     157223  HIT %:    99.0562  MISS %:   0.943829   MPKI: 1.57223
ITLB LOAD TRANSLATION ACCESS:   16657993  HIT:   16500770  MISS:     157223  HIT %:    99.0562  MISS %:   0.943829   MPKI: 1.57223
ITLB PREFETCHES SAME FILL-ORIGIN LEVEL: 0 DIFFERENT FILL-ORIGIN LEVEL: 0
ITLB AVERAGE MISS LATENCY: 9.69692 cycles
ITLB RQ	ACCESS:   18727491	FORWARD:          0	MERGED:    2027925	TO_CACHE:   16699566

DTLB TOTAL     ACCESS:   38599925  HIT:   36509421  MISS:    2090504  HIT %:    94.5842  MISS %:    5.41582   MPKI: 20.905
DTLB LOAD TRANSLATION ACCESS:   38599925  HIT:   36509421  MISS:    2090504  HIT %:    94.5842  MISS %:    5.41582   MPKI: 20.905
DTLB PREFETCHES SAME FILL-ORIGIN LEVEL: 0 DIFFERENT FILL-ORIGIN LEVEL: 0
DTLB AVERAGE MISS LATENCY: 30.3774 cycles
DTLB RQ	ACCESS:   43659349	FORWARD:          0	MERGED:    5009580	TO_CACHE:   38649769

STLB TOTAL     ACCESS:    2247727  HIT:    1761565  MISS:     486162  HIT %:    78.3709  MISS %:    21.6291   MPKI: 4.86162
STLB LOAD TRANSLATION ACCESS:    2247727  HIT:    1761565  MISS:     486162  HIT %:    78.3709  MISS %:    21.6291   MPKI: 4.86162
STLB PREFETCHES SAME FILL-ORIGIN LEVEL: 0 DIFFERENT FILL-ORIGIN LEVEL: 0
STLB AVERAGE MISS LATENCY: 91.9412 cycles
STLB RQ	ACCESS:    2247728	FORWARD:          0	MERGED:          0	TO_CACHE:    2247728

STLB Hit, L1D data hit: 0
STLB Hit, L2C data hit: 0
STLB Hit, LLC data hit: 0
STLB Hit, LLC data miss: 0
STLB STLB hints to L2: 0
L1D TOTAL     ACCESS:   43179788  HIT:   41327296  MISS:    1852492  HIT %:    95.7098  MISS %:    4.29018   MPKI: 18.5249
L1D LOAD      ACCESS:   25206286  HIT:   23596023  MISS:    1610263  HIT %:    93.6117  MISS %:    6.38834   MPKI: 16.1026
L1D RFO       ACCESS:   17973502  HIT:   17731273  MISS:     242229  HIT %:    98.6523  MISS %:     1.3477   MPKI: 2.42229
L1D PREFETCHES SAME FILL-ORIGIN LEVEL: 0 DIFFERENT FILL-ORIGIN LEVEL: 0
L1D AVERAGE MISS LATENCY: 90.792 cycles
L1D RQ	ACCESS:   31782943	FORWARD:          0	MERGED:    5128160	TO_CACHE:   25299678
L1D WQ	ACCESS:   18562772	FORWARD:    1355105	MERGED:     203101	TO_CACHE:   18359671

L1D UNIQUE REGIONS ACCESSED: 0
L1D REGIONS CONFLICTS: 0
L1D Cross Page Prefetch Requests: 0
L1D Same Page Prefetch Requests: 0
L1D ROI Sum of L1D PQ occupancy: 0
L1D PREFETCHES PUSHED FROM L2C: 0
L1I TOTAL     ACCESS:   18708290  HIT:   18646559  MISS:      61731  HIT %:      99.67  MISS %:   0.329966   MPKI: 0.61731
L1I LOAD      ACCESS:   18708290  HIT:   18646559  MISS:      61731  HIT %:      99.67  MISS %:   0.329966   MPKI: 0.61731
L1I PREFETCHES SAME FILL-ORIGIN LEVEL: 0 DIFFERENT FILL-ORIGIN LEVEL: 0
L1I AVERAGE MISS LATENCY: 26.5886 cycles
L1I RQ	ACCESS:   28291908	FORWARD:          0	MERGED:    9564417	TO_CACHE:   18727491

BTB TOTAL     ACCESS:   16448157  HIT:   15486307  MISS:     961850  HIT %:    94.1522  MISS %:    5.84777   MPKI: 9.6185
BTB BRANCH_DIRECT_JUMP	ACCESS:    1168023  HIT:    1167900  MISS:        123
BTB BRANCH_INDIRECT	ACCESS:     336927  HIT:     285546  MISS:      51381
BTB BRANCH_CONDITIONAL	ACCESS:    8865977  HIT:    8865508  MISS:        469
BTB BRANCH_DIRECT_CALL	ACCESS:    1854319  HIT:    1854075  MISS:        244
BTB BRANCH_INDIRECT_CALL	ACCESS:    1184296  HIT:    1179921  MISS:       4375
BTB BRANCH_RETURN	ACCESS:    3038615  HIT:    2133357  MISS:     905258
BTB BRANCH_OTHER ACCESS:          0  HIT:          0  MISS:          0

L2C TOTAL     ACCESS:    5478208  HIT:    2633319  MISS:    2844889  HIT %:     48.069  MISS %:     51.931   MPKI: 28.4489
L2C LOAD      ACCESS:    1671956  HIT:     890548  MISS:     781408  HIT %:    53.2638  MISS %:    46.7362   MPKI: 7.81408
L2C DATA LOAD MPKI: 7.66974
L2C INSTRUCTION LOAD MPKI: 0.14434
L2C RFO       ACCESS:     242226  HIT:      82985  MISS:     159241  HIT %:    34.2593  MISS %:    65.7407   MPKI: 1.59241
L2C PREFETCH  ACCESS:    1960427  HIT:     425358  MISS:    1535069  HIT %:    21.6972  MISS %:    78.3028   MPKI: 15.3507
L2C DATA PREFETCH MPKI: 15.3507
L2C INSTRUCTION PREFETCH MPKI: 0
L2C WRITEBACK ACCESS:     907644  HIT:     885258  MISS:      22386  HIT %:    97.5336  MISS %:    2.46639   MPKI: 0.22386
L2C LOAD TRANSLATION ACCESS:     695955  HIT:     349170  MISS:     346785  HIT %:    50.1713  MISS %:    49.8287   MPKI: 3.46785
L2C PREFETCH  REQUESTED:    2023995  ISSUED:    2023995  USEFUL:     508757  USELESS:    1026237
L2C USEFUL LOAD PREFETCHES:     508757 PREFETCH ISSUED TO LOWER LEVEL:    1542605  ACCURACY: 32.9804
L2C TIMELY PREFETCHES:     508757 LATE PREFETCHES: 7536 DROPPED PREFETCHES: 0
L2C PREFETCHES SAME FILL-ORIGIN LEVEL: 1542605 DIFFERENT FILL-ORIGIN LEVEL: 0
L2C AVERAGE MISS LATENCY: 146.177 cycles
L2C RQ	ACCESS:    2610177	FORWARD:          0	MERGED:          0	TO_CACHE:    2610137
L2C WQ	ACCESS:     907644	FORWARD:         43	MERGED:          0	TO_CACHE:     907644
L2C PQ	ACCESS:    2023995	FORWARD:          0	MERGED:          0	TO_CACHE:    2023992

L2C Instructions Evicting Data12680
L2C Translations Evicting Data302410
L2C Data Evicting Data2148562
L2C Instructions Evicting Instructions221
L2C Translations Evicting Instructions1602
L2C Data Evicting Instructions12464
L2C Instructions Evicting Translations1533
L2C Translations Evicting Translations42773
L2C Data Evicting Translations300258
L2C Dense regions hint from L2: 0
PSCL5 TOTAL     ACCESS:     486162  HIT:     486162  MISS:          0  HIT %:        100  MISS %:          0   MPKI: 0
PSCL5 LOAD TRANSLATION ACCESS:     486162  HIT:     486162  MISS:          0  HIT %:        100  MISS %:          0   MPKI: 0
PSCL5 PREFETCHES SAME FILL-ORIGIN LEVEL: 0 DIFFERENT FILL-ORIGIN LEVEL: 0

PSCL4 TOTAL     ACCESS:     486162  HIT:     486162  MISS:          0  HIT %:        100  MISS %:          0   MPKI: 0
PSCL4 LOAD TRANSLATION ACCESS:     486162  HIT:     486162  MISS:          0  HIT %:        100  MISS %:          0   MPKI: 0
PSCL4 PREFETCHES SAME FILL-ORIGIN LEVEL: 0 DIFFERENT FILL-ORIGIN LEVEL: 0

PSCL3 TOTAL     ACCESS:     486162  HIT:     486162  MISS:          0  HIT %:        100  MISS %:          0   MPKI: 0
PSCL3 LOAD TRANSLATION ACCESS:     486162  HIT:     486162  MISS:          0  HIT %:        100  MISS %:          0   MPKI: 0
PSCL3 PREFETCHES SAME FILL-ORIGIN LEVEL: 0 DIFFERENT FILL-ORIGIN LEVEL: 0

PSCL2 TOTAL     ACCESS:     486162  HIT:     276369  MISS:     209793  HIT %:    56.8471  MISS %:    43.1529   MPKI: 2.09793
PSCL2 LOAD TRANSLATION ACCESS:     486162  HIT:     276369  MISS:     209793  HIT %:    56.8471  MISS %:    43.1529   MPKI: 2.09793
PSCL2 PREFETCHES SAME FILL-ORIGIN LEVEL: 0 DIFFERENT FILL-ORIGIN LEVEL: 0

LLC TOTAL     ACCESS:    3515301  HIT:    1574123  MISS:    1941178  HIT %:    44.7792  MISS %:    55.2208   MPKI: 19.4118
LLC LOAD      ACCESS:     775783  HIT:     215653  MISS:     560130  HIT %:    27.7981  MISS %:    72.2019   MPKI: 5.6013
LLC RFO       ACCESS:     157328  HIT:      47858  MISS:     109470  HIT %:    30.4193  MISS %:    69.5807   MPKI: 1.0947
LLC PREFETCH  ACCESS:    1542604  HIT:     405384  MISS:    1137220  HIT %:    26.2792  MISS %:    73.7208   MPKI: 11.3722
LLC WRITEBACK ACCESS:     692801  HIT:     657866  MISS:      34935  HIT %:    94.9574  MISS %:    5.04257   MPKI: 0.34935
LLC LOAD TRANSLATION ACCESS:     346785  HIT:     247362  MISS:      99423  HIT %:    71.3301  MISS %:    28.6699   MPKI: 0.99423
LLC PREFETCHES SAME FILL-ORIGIN LEVEL: 0 DIFFERENT FILL-ORIGIN LEVEL: 0
LLC AVERAGE MISS LATENCY: 171.048 cycles
LLC RQ	ACCESS:    1279898	FORWARD:          0	MERGED:          0	TO_CACHE:    1279896
LLC WQ	ACCESS:     692801	FORWARD:          3	MERGED:          0	TO_CACHE:     692801
LLC PQ	ACCESS:    1542605	FORWARD:          0	MERGED:          0	TO_CACHE:    1542604

LLC Dense regions hint to LLC: 0

RAW hits: 1640901
Loads Generated: 33423844
Loads sent to L1D: 31782943
Stores Generated: 18562758
Stores sent to L1D: 18562772
Major fault: 0 Minor fault: 50818
Allocated PAGES: 50818
[Bingo] PHT Access: 774388
[Bingo] PHT Hit PC+Addr: 93361
[Bingo] PHT Hit PC+Offs: 627284
[Bingo] PHT Miss: 53743
[Bingo] Prefetch PC+Addr: 0
[Bingo] Prefetch PC+Offs: 0
[Bingo] Useful PC+Addr: 0
[Bingo] Useful PC+Offs: 0
[Bingo] Useless PC+Addr: 0
[Bingo] Useless PC+Offs: 0
[Bingo] L1 Prefetch per Region: 0
[Bingo] L2 Prefetch per Region: 3.81606
[Bingo] L3 Prefetch per Region: 0
[Bingo] No Prefetch per Region: 28.1839
[Bingo] Number of Voters Mean: 11.1978
[Bingo] Number of Voters SD: 8.88709
PHT read accesses: 11467999
PHT write accesses: 267294
AT read accesses: 912015
AT write accesses: 1102432
FT read accesses: 825277
FT write accesses: 774388
PS read accesses: 1447580
PS write accesses: 720645
PHT tag read accesses: 19443416
PHT tag write accesses: 360655
AT tag read accesses: 83532793
AT tag write accesses: 1179310
FT tag read accesses: 89049338
FT tag write accesses: 1331670
PS tag read accesses: 53542497
PS tag write accesses: 2167175

DRAM Statistics
 CHANNEL 0
 RQ ROW_BUFFER_HIT:     292674  ROW_BUFFER_MISS:    1613556
 DBUS_CONGESTED:        108
 WQ ROW_BUFFER_HIT:      81287  ROW_BUFFER_MISS:     437422  FULL:          0

 AVG_CONGESTED_CYCLE: 4
 All warmup complete: 2
Channel 0 Bank busy for read cycles: 0
Channel 0 Bank busy for write cycles: 0
Channel 0
Rank 0
0banks busy for read cycles: 261188847
0banks busy for write cycles: 212505
1banks busy for read cycles: 52635856
1banks busy for write cycles: 28805386
2banks busy for read cycles: 21764430
2banks busy for write cycles: 12704931
3banks busy for read cycles: 18953788
3banks busy for write cycles: 6248831
4banks busy for read cycles: 5724816
4banks busy for write cycles: 3252814
5banks busy for read cycles: 4059263
5banks busy for write cycles: 1687977
6banks busy for read cycles: 3467092
6banks busy for write cycles: 754133
7banks busy for read cycles: 2035267
7banks busy for write cycles: 235044
8banks busy for read cycles: 3174803
8banks busy for write cycles: 44572

CPU 0 Branch Prediction Accuracy: 98.1675% MPKI: 3.84889 Average ROB Occupancy at Mispredict: 37.6554
Branch types
NOT_BRANCH: 78995608 78.9956%
BRANCH_DIRECT_JUMP: 1168023 1.16802%
BRANCH_INDIRECT: 336927 0.336927%
BRANCH_CONDITIONAL: 13421845 13.4218%
BRANCH_DIRECT_CALL: 1854319 1.85432%
BRANCH_INDIRECT_CALL: 1184296 1.1843%
BRANCH_RETURN: 3038615 3.03862%
BRANCH_OTHER: 0 0%

DRAM PAGES: 1048576
Allocated PAGES: 50818
