
*** ChampSim Multicore Out-of-Order Simulator ***

Warmup Instructions: 50000000
Simulation Instructions: 100000000
Number of CPUs: 1
LLC sets: 2048
LLC ways: 16
Off-chip DRAM Size: 4096 MB Channels: 1 Width: 64-bit Data Rate: 6400 MT/s
CPU 0 runs ../SPEC_2006_2017//620.omnetpp_s-874B.champsimtrace.xz
.xz
NUM_OF_IPS_IN_CRITICAL_IP_TRAINING: 64
NUM_OF_CRITICAL_IP_TRAINING_TABLE_WAYS: 2
NUM_OF_CRITICAL_IP_TRAINING_TABLE_SETS: 32
WOBBLY_CRITICAL_IP_CACHE_SETS: 32
WOBBLY_CRITICAL_IP_CACHE_WAYS: 4
BTB has LRU replacement policy
ITLB has LRU replacement policy
DTLB has LRU replacement policy
STLB has LRU replacement policy
L1I has LRU replacement policy
IP Table Entries: 64
L1D has LRU replacement policy
Initialize SRRIP state for L2C
Initialize DRRIP state for LLC
Heartbeat CPU 0 instructions: 10000001 cycles: 3908120 heartbeat IPC: 2.55878 cumulative IPC: 2.55878 (Simulation time: 0 hr 6 min 46 sec) 
Heartbeat CPU 0 instructions: 20000000 cycles: 7811954 heartbeat IPC: 2.56158 cumulative IPC: 2.56018 (Simulation time: 0 hr 13 min 15 sec) 
Heartbeat CPU 0 instructions: 30000003 cycles: 11711180 heartbeat IPC: 2.56461 cumulative IPC: 2.56166 (Simulation time: 0 hr 19 min 27 sec) 
Heartbeat CPU 0 instructions: 40000001 cycles: 15619231 heartbeat IPC: 2.55882 cumulative IPC: 2.56095 (Simulation time: 0 hr 25 min 13 sec) 
Heartbeat CPU 0 instructions: 50000000 cycles: 19529104 heartbeat IPC: 2.55763 cumulative IPC: 2.56028 (Simulation time: 0 hr 30 min 43 sec) 

Warmup complete CPU 0 instructions: 50000004 cycles: 19529105 (Simulation time: 0 hr 30 min 43 sec) 

% increase in all ip prefetch 885.771
% increase in all ip prefetch -5.23882
Heartbeat CPU 0 instructions: 60000001 cycles: 62687342 heartbeat IPC: 0.231706 cumulative IPC: 0.231705 (Simulation time: 0 hr 36 min 1 sec) 
Heartbeat CPU 0 instructions: 70000001 cycles: 105265909 heartbeat IPC: 0.23486 cumulative IPC: 0.233272 (Simulation time: 0 hr 41 min 6 sec) 
Heartbeat CPU 0 instructions: 80000002 cycles: 148043672 heartbeat IPC: 0.233766 cumulative IPC: 0.233437 (Simulation time: 0 hr 46 min 0 sec) 
Heartbeat CPU 0 instructions: 90000001 cycles: 190250721 heartbeat IPC: 0.236927 cumulative IPC: 0.2343 (Simulation time: 0 hr 50 min 45 sec) 
Heartbeat CPU 0 instructions: 100000000 cycles: 233422779 heartbeat IPC: 0.231631 cumulative IPC: 0.233761 (Simulation time: 0 hr 54 min 56 sec) 
Heartbeat CPU 0 instructions: 110000000 cycles: 275928202 heartbeat IPC: 0.235264 cumulative IPC: 0.23401 (Simulation time: 0 hr 58 min 39 sec) 
Heartbeat CPU 0 instructions: 120000003 cycles: 318644891 heartbeat IPC: 0.234101 cumulative IPC: 0.234023 (Simulation time: 1 hr 1 min 30 sec) 
Heartbeat CPU 0 instructions: 130000000 cycles: 361388959 heartbeat IPC: 0.233951 cumulative IPC: 0.234014 (Simulation time: 1 hr 3 min 35 sec) 
Heartbeat CPU 0 instructions: 140000001 cycles: 404025688 heartbeat IPC: 0.23454 cumulative IPC: 0.234072 (Simulation time: 1 hr 5 min 31 sec) 
Heartbeat CPU 0 instructions: 150000002 cycles: 446869735 heartbeat IPC: 0.233405 cumulative IPC: 0.234005 (Simulation time: 1 hr 7 min 7 sec) 
Finished CPU 0 instructions: 100000002 cycles: 427340631 cumulative IPC: 0.234005 (Simulation time: 1 hr 7 min 7 sec) 

ChampSim completed all CPUs

Region of Interest Statistics

CPU 0 cumulative IPC: 0.234005 instructions: 100000002 cycles: 427340631

CPU 0 Average Load ROB stall cycles: 1.02587e+08
CPU 0 Fraction of times ROB stalled by Loads: 43.9411
CPU 0 Percentage of Load stall cycles in Total stall cycles: 8.81237e+08
Issued all: 50551242
Issued LT all: 39252150
rob_not_full_when_issued_lt_all: 38447925
Issued LT one: 28340199
rob_not_full_when_issued_lt_one: 27594306
 Total stall cycles: 390436239
 Total load stall cycles: 3440668598685331
CPU 0 NUM of IPS identified critical: 0
CPU 0 Num of Load IPs stalling ROB: 2142
Threshold modification factor: -1
Max PIST entries: 64
Min PIST entries: 0
Avg PIST entries: 42.6667
Trouble in retire width: 0.97134
MaC = Marked as critical.
lt_50_percent_before_Mac: 0
gt_90_percent_before_Mac: 0
gt_75_percent_before_Mac: 0
gt_50_percent_before_Mac: 0
stall_proportion_bin_same_before_after: 0
stall_proportion_bin_lower_before_after: 0
stall_proportion_bin_upper_before_after: 0
average_stall_proportion_before: -nan
average_stall_proportion_after: -nan
Critical IP stalls, total frequency: 0
Non-critical IP stalls, total frequency: 14737432
Total Freq all stalling IPs: 14737432
stat_90_percent_critical_ip_stalls_freq: 13264104
stat_90_percent_non_critical_ip_stalls_freq: 1473328
Critical_IP_ROB_Stalls_Bucket_0: 0
Non-critical_IP_ROB_Stalls_Bucket_0: 8575873
Critical_IP_ROB_Stalls_Bucket_1: 0
Non-critical_IP_ROB_Stalls_Bucket_1: 4020888
Critical_IP_ROB_Stalls_Bucket_2: 0
Non-critical_IP_ROB_Stalls_Bucket_2: 1483497
Critical_IP_ROB_Stalls_Bucket_3: 0
Non-critical_IP_ROB_Stalls_Bucket_3: 463974
Critical_IP_ROB_Stalls_Bucket_4: 0
Non-critical_IP_ROB_Stalls_Bucket_4: 98850
Critical_IP_ROB_Stalls_Bucket_5: 0
Non-critical_IP_ROB_Stalls_Bucket_5: 53464
Critical_IP_ROB_Stalls_Bucket_6: 0
Non-critical_IP_ROB_Stalls_Bucket_6: 40886
0 => IPs accounting for >50 percent of stalls, 1 => 55, 2 => 60, 3 => 65 and so on till 90.
percent50: 50.2456 num IPs:  115
percent55: 55.1256 num IPs: 135
percent60: 60.0112 num IPs: 160
percent65: 65.0211 num IPs: 190
percent70: 70.073 num IPs: 226
percent75: 75.088 num IPs: 267
percent80: 80.0837 num IPs: 311
percent85: 85.0423 num IPs: 364
percent90: 90.0028 num IPs: 436
Critical_ROB_Stalls_Percent_0_Bucket_0: 4691259
Non-critical_ROB_Stalls_Percent_0_Bucket_0: 3884614
Critical_ROB_Stalls_Percent_0_Bucket_1: 2179968
Non-critical_ROB_Stalls_Percent_0_Bucket_1: 1840920
Critical_ROB_Stalls_Percent_0_Bucket_2: 457034
Non-critical_ROB_Stalls_Percent_0_Bucket_2: 1026463
Critical_ROB_Stalls_Percent_0_Bucket_3: 59103
Non-critical_ROB_Stalls_Percent_0_Bucket_3: 404871
Critical_ROB_Stalls_Percent_0_Bucket_4: 14298
Non-critical_ROB_Stalls_Percent_0_Bucket_4: 84552
Critical_ROB_Stalls_Percent_0_Bucket_5: 1082
Non-critical_ROB_Stalls_Percent_0_Bucket_5: 52382
Critical_ROB_Stalls_Percent_0_Bucket_6: 2171
Non-critical_ROB_Stalls_Percent_0_Bucket_6: 38715
Critical_ROB_Stalls_Percent_1_Bucket_0: 5197117
Non-critical_ROB_Stalls_Percent_1_Bucket_0: 3378756
Critical_ROB_Stalls_Percent_1_Bucket_1: 2361389
Non-critical_ROB_Stalls_Percent_1_Bucket_1: 1659499
Critical_ROB_Stalls_Percent_1_Bucket_2: 469699
Non-critical_ROB_Stalls_Percent_1_Bucket_2: 1013798
Critical_ROB_Stalls_Percent_1_Bucket_3: 78300
Non-critical_ROB_Stalls_Percent_1_Bucket_3: 385674
Critical_ROB_Stalls_Percent_1_Bucket_4: 14307
Non-critical_ROB_Stalls_Percent_1_Bucket_4: 84543
Critical_ROB_Stalls_Percent_1_Bucket_5: 1082
Non-critical_ROB_Stalls_Percent_1_Bucket_5: 52382
Critical_ROB_Stalls_Percent_1_Bucket_6: 2211
Non-critical_ROB_Stalls_Percent_1_Bucket_6: 38675
Critical_ROB_Stalls_Percent_2_Bucket_0: 5566925
Non-critical_ROB_Stalls_Percent_2_Bucket_0: 3008948
Critical_ROB_Stalls_Percent_2_Bucket_1: 2527256
Non-critical_ROB_Stalls_Percent_2_Bucket_1: 1493632
Critical_ROB_Stalls_Percent_2_Bucket_2: 630877
Non-critical_ROB_Stalls_Percent_2_Bucket_2: 852620
Critical_ROB_Stalls_Percent_2_Bucket_3: 82824
Non-critical_ROB_Stalls_Percent_2_Bucket_3: 381150
Critical_ROB_Stalls_Percent_2_Bucket_4: 31794
Non-critical_ROB_Stalls_Percent_2_Bucket_4: 67056
Critical_ROB_Stalls_Percent_2_Bucket_5: 1396
Non-critical_ROB_Stalls_Percent_2_Bucket_5: 52068
Critical_ROB_Stalls_Percent_2_Bucket_6: 3040
Non-critical_ROB_Stalls_Percent_2_Bucket_6: 37846
Critical_ROB_Stalls_Percent_3_Bucket_0: 5818837
Non-critical_ROB_Stalls_Percent_3_Bucket_0: 2757036
Critical_ROB_Stalls_Percent_3_Bucket_1: 2784636
Non-critical_ROB_Stalls_Percent_3_Bucket_1: 1236252
Critical_ROB_Stalls_Percent_3_Bucket_2: 776952
Non-critical_ROB_Stalls_Percent_3_Bucket_2: 706545
Critical_ROB_Stalls_Percent_3_Bucket_3: 151418
Non-critical_ROB_Stalls_Percent_3_Bucket_3: 312556
Critical_ROB_Stalls_Percent_3_Bucket_4: 35336
Non-critical_ROB_Stalls_Percent_3_Bucket_4: 63514
Critical_ROB_Stalls_Percent_3_Bucket_5: 6831
Non-critical_ROB_Stalls_Percent_3_Bucket_5: 46633
Critical_ROB_Stalls_Percent_3_Bucket_6: 8438
Non-critical_ROB_Stalls_Percent_3_Bucket_6: 32448
Critical_ROB_Stalls_Percent_4_Bucket_0: 6244986
Non-critical_ROB_Stalls_Percent_4_Bucket_0: 2330887
Critical_ROB_Stalls_Percent_4_Bucket_1: 2982575
Non-critical_ROB_Stalls_Percent_4_Bucket_1: 1038313
Critical_ROB_Stalls_Percent_4_Bucket_2: 823922
Non-critical_ROB_Stalls_Percent_4_Bucket_2: 659575
Critical_ROB_Stalls_Percent_4_Bucket_3: 206303
Non-critical_ROB_Stalls_Percent_4_Bucket_3: 257671
Critical_ROB_Stalls_Percent_4_Bucket_4: 41606
Non-critical_ROB_Stalls_Percent_4_Bucket_4: 57244
Critical_ROB_Stalls_Percent_4_Bucket_5: 17625
Non-critical_ROB_Stalls_Percent_4_Bucket_5: 35839
Critical_ROB_Stalls_Percent_4_Bucket_6: 9949
Non-critical_ROB_Stalls_Percent_4_Bucket_6: 30937
Critical_ROB_Stalls_Percent_5_Bucket_0: 6616535
Non-critical_ROB_Stalls_Percent_5_Bucket_0: 1959338
Critical_ROB_Stalls_Percent_5_Bucket_1: 3211205
Non-critical_ROB_Stalls_Percent_5_Bucket_1: 809683
Critical_ROB_Stalls_Percent_5_Bucket_2: 919089
Non-critical_ROB_Stalls_Percent_5_Bucket_2: 564408
Critical_ROB_Stalls_Percent_5_Bucket_3: 240946
Non-critical_ROB_Stalls_Percent_5_Bucket_3: 223028
Critical_ROB_Stalls_Percent_5_Bucket_4: 44487
Non-critical_ROB_Stalls_Percent_5_Bucket_4: 54363
Critical_ROB_Stalls_Percent_5_Bucket_5: 23824
Non-critical_ROB_Stalls_Percent_5_Bucket_5: 29640
Critical_ROB_Stalls_Percent_5_Bucket_6: 9963
Non-critical_ROB_Stalls_Percent_5_Bucket_6: 30923
Critical_ROB_Stalls_Percent_6_Bucket_0: 6990831
Non-critical_ROB_Stalls_Percent_6_Bucket_0: 1585042
Critical_ROB_Stalls_Percent_6_Bucket_1: 3416437
Non-critical_ROB_Stalls_Percent_6_Bucket_1: 604451
Critical_ROB_Stalls_Percent_6_Bucket_2: 1037143
Non-critical_ROB_Stalls_Percent_6_Bucket_2: 446354
Critical_ROB_Stalls_Percent_6_Bucket_3: 251546
Non-critical_ROB_Stalls_Percent_6_Bucket_3: 212428
Critical_ROB_Stalls_Percent_6_Bucket_4: 51665
Non-critical_ROB_Stalls_Percent_6_Bucket_4: 47185
Critical_ROB_Stalls_Percent_6_Bucket_5: 28547
Non-critical_ROB_Stalls_Percent_6_Bucket_5: 24917
Critical_ROB_Stalls_Percent_6_Bucket_6: 26122
Non-critical_ROB_Stalls_Percent_6_Bucket_6: 14764
Critical_ROB_Stalls_Percent_7_Bucket_0: 7423660
Non-critical_ROB_Stalls_Percent_7_Bucket_0: 1152213
Critical_ROB_Stalls_Percent_7_Bucket_1: 3520991
Non-critical_ROB_Stalls_Percent_7_Bucket_1: 499897
Critical_ROB_Stalls_Percent_7_Bucket_2: 1129680
Non-critical_ROB_Stalls_Percent_7_Bucket_2: 353817
Critical_ROB_Stalls_Percent_7_Bucket_3: 318268
Non-critical_ROB_Stalls_Percent_7_Bucket_3: 145706
Critical_ROB_Stalls_Percent_7_Bucket_4: 68603
Non-critical_ROB_Stalls_Percent_7_Bucket_4: 30247
Critical_ROB_Stalls_Percent_7_Bucket_5: 45091
Non-critical_ROB_Stalls_Percent_7_Bucket_5: 8373
Critical_ROB_Stalls_Percent_7_Bucket_6: 26761
Non-critical_ROB_Stalls_Percent_7_Bucket_6: 14125
Critical_ROB_Stalls_Percent_8_Bucket_0: 7815777
Non-critical_ROB_Stalls_Percent_8_Bucket_0: 760096
Critical_ROB_Stalls_Percent_8_Bucket_1: 3665771
Non-critical_ROB_Stalls_Percent_8_Bucket_1: 355117
Critical_ROB_Stalls_Percent_8_Bucket_2: 1299700
Non-critical_ROB_Stalls_Percent_8_Bucket_2: 183797
Critical_ROB_Stalls_Percent_8_Bucket_3: 337096
Non-critical_ROB_Stalls_Percent_8_Bucket_3: 126878
Critical_ROB_Stalls_Percent_8_Bucket_4: 73855
Non-critical_ROB_Stalls_Percent_8_Bucket_4: 24995
Critical_ROB_Stalls_Percent_8_Bucket_5: 45129
Non-critical_ROB_Stalls_Percent_8_Bucket_5: 8335
Critical_ROB_Stalls_Percent_8_Bucket_6: 26776
Non-critical_ROB_Stalls_Percent_8_Bucket_6: 14110
Average ROB occupancy Load Stall Begin: 47.2867
Average ROB occupancy Load Stall End: 51.736
Min ROB occupancy Load Stall Begin: 1
Max ROB occupancy Load Stall Begin: 352
Min ROB occupancy Load Stall End: 1
Max ROB occupancy Load Stall End: 352
Average ROB occupancy Critical Load Stall Begin: -nan
Average ROB occupancy Critical Load Stall End: -nan
Min ROB occupancy Critical Load Stall Begin: 400
Max ROB occupancy Critical Load Stall Begin: 0
Min ROB occupancy Critical Load Stall End: 400
Max ROB occupancy Critical Load Stall End: 0
 ROB Load Stall Begin Bucket Count 0: 9181875
 ROB Load Stall End Bucket Count 0: 8575873
 ROB Critical Load Stall Begin Bucket Count 0: 0
 ROB Critical Load Stall End Bucket Count 0: 0
 ROB Load Stall Begin Bucket Count 1: 3705101
 ROB Load Stall End Bucket Count 1: 4020888
 ROB Critical Load Stall Begin Bucket Count 1: 0
 ROB Critical Load Stall End Bucket Count 1: 0
 ROB Load Stall Begin Bucket Count 2: 1274529
 ROB Load Stall End Bucket Count 2: 1483497
 ROB Critical Load Stall Begin Bucket Count 2: 0
 ROB Critical Load Stall End Bucket Count 2: 0
 ROB Load Stall Begin Bucket Count 3: 410592
 ROB Load Stall End Bucket Count 3: 463974
 ROB Critical Load Stall Begin Bucket Count 3: 0
 ROB Critical Load Stall End Bucket Count 3: 0
 ROB Load Stall Begin Bucket Count 4: 85206
 ROB Load Stall End Bucket Count 4: 98850
 ROB Critical Load Stall Begin Bucket Count 4: 0
 ROB Critical Load Stall End Bucket Count 4: 0
 ROB Load Stall Begin Bucket Count 5: 44332
 ROB Load Stall End Bucket Count 5: 53464
 ROB Critical Load Stall Begin Bucket Count 5: 0
 ROB Critical Load Stall End Bucket Count 5: 0
 ROB Load Stall Begin Bucket Count 6: 35797
 ROB Load Stall End Bucket Count 6: 40886
 ROB Critical Load Stall Begin Bucket Count 6: 0
 ROB Critical Load Stall End Bucket Count 6: 0
PIST Tag Read Accesses: 14103478
PIST Read Accesses: 7051739
PIST Tag Write Accesses: 14103478
PIST Write Accesses: 7051739
Criticality detector called times: 14708169
Max global_stall_cycles_count: 7520932
Threshold Modified: 1 times, factor: -1
Sturdy critical IP cache stats: 
 Unused entries: 0
CIC Tag Read Accesses: 0
CIC Read Accesses: 0
CIC Tag Write Accesses: 0
CIC Write Accesses: 0
Wobbly critical IP cache stats: 
 Unused entries: 125
CIC Tag Read Accesses: 257629079
CIC Read Accesses: 0
CIC Tag Write Accesses: 3
CIC Write Accesses: 0
ITLB TOTAL     ACCESS:   16448404  HIT:   16290271  MISS:     158133  HIT %:    99.0386  MISS %:   0.961388   MPKI: 1.58133
ITLB LOAD TRANSLATION ACCESS:   16448404  HIT:   16290271  MISS:     158133  HIT %:    99.0386  MISS %:   0.961388   MPKI: 1.58133
ITLB PREFETCH  REQUESTED:          0  ISSUED:          0  USEFUL:          0  USELESS:          0
ITLB USEFUL LOAD PREFETCHES:          0 PREFETCH ISSUED TO LOWER LEVEL:          0  ACCURACY: -nan
ITLB TIMELY PREFETCHES:          0 LATE PREFETCHES: 0 DROPPED PREFETCHES: 0
ITLB PREFETCHES SAME FILL-ORIGIN LEVEL: 0 DIFFERENT FILL-ORIGIN LEVEL: 0
ITLB AVERAGE MISS LATENCY: 9.77057 cycles
ITLB RQ	ACCESS:   18531409	FORWARD:          0	MERGED:    2035041	TO_CACHE:   16496368

DTLB TOTAL     ACCESS:   38239918  HIT:   36337179  MISS:    1902739  HIT %:    95.0242  MISS %:    4.97579   MPKI: 19.0274
DTLB LOAD TRANSLATION ACCESS:   38239918  HIT:   36337179  MISS:    1902739  HIT %:    95.0242  MISS %:    4.97579   MPKI: 19.0274
DTLB PREFETCH  REQUESTED:          0  ISSUED:          0  USEFUL:          0  USELESS:          0
DTLB USEFUL LOAD PREFETCHES:          0 PREFETCH ISSUED TO LOWER LEVEL:          0  ACCURACY: -nan
DTLB TIMELY PREFETCHES:          0 LATE PREFETCHES: 0 DROPPED PREFETCHES: 0
DTLB PREFETCHES SAME FILL-ORIGIN LEVEL: 0 DIFFERENT FILL-ORIGIN LEVEL: 0
DTLB AVERAGE MISS LATENCY: 23.4696 cycles
DTLB RQ	ACCESS:   43212220	FORWARD:          0	MERGED:    4931917	TO_CACHE:   38280303

STLB TOTAL     ACCESS:    2133401  HIT:    1705915  MISS:     427486  HIT %:    79.9622  MISS %:    20.0378   MPKI: 4.27486
STLB LOAD TRANSLATION ACCESS:    2060872  HIT:    1633386  MISS:     427486  HIT %:     79.257  MISS %:     20.743   MPKI: 4.27486
STLB TRANSLATION FROM L1D PREFETCHER ACCESS:      72529  HIT:      72529  MISS:          0  HIT %:        100  MISS %:          0   MPKI: 0
STLB PREFETCH  REQUESTED:          0  ISSUED:          0  USEFUL:          0  USELESS:          0
STLB USEFUL LOAD PREFETCHES:          0 PREFETCH ISSUED TO LOWER LEVEL:          0  ACCURACY: -nan
STLB TIMELY PREFETCHES:          0 LATE PREFETCHES: 0 DROPPED PREFETCHES: 0
STLB PREFETCHES SAME FILL-ORIGIN LEVEL: 0 DIFFERENT FILL-ORIGIN LEVEL: 0
STLB AVERAGE MISS LATENCY: 64.539 cycles
STLB RQ	ACCESS:    2142286	FORWARD:          0	MERGED:       8885	TO_CACHE:    2133401

STLB Hit, L1D data hit: 0
STLB Hit, L2C data hit: 0
STLB Hit, LLC data hit: 0
STLB Hit, LLC data miss: 0
STLB STLB hints to L2: 0
L1D TOTAL     ACCESS:   42786136  HIT:   40928914  MISS:    1857222  HIT %:    95.6593  MISS %:    4.34071   MPKI: 18.5722
L1D LOAD      ACCESS:   24714295  HIT:   23140961  MISS:    1573334  HIT %:    93.6339  MISS %:    6.36609   MPKI: 15.7333
L1D RFO       ACCESS:   17993162  HIT:   17752479  MISS:     240683  HIT %:    98.6624  MISS %:    1.33764   MPKI: 2.40683
L1D PREFETCH  ACCESS:      78679  HIT:      35474  MISS:      43205  HIT %:     45.087  MISS %:     54.913   MPKI: 0.43205
L1D PREFETCH  REQUESTED:     162852  ISSUED:     162852  USEFUL:       7008  USELESS:      36375
L1D USEFUL LOAD PREFETCHES:       7008 PREFETCH ISSUED TO LOWER LEVEL:      43525  ACCURACY: 16.1011
L1D TIMELY PREFETCHES:       7008 LATE PREFETCHES: 286 DROPPED PREFETCHES: 0
L1D PREFETCHES SAME FILL-ORIGIN LEVEL: 43525 DIFFERENT FILL-ORIGIN LEVEL: 0
L1D AVERAGE MISS LATENCY: 10444.1 cycles
L1D RQ	ACCESS:   32114721	FORWARD:          0	MERGED:    5938835	TO_CACHE:   24865673
L1D WQ	ACCESS:   18550778	FORWARD:    1310237	MERGED:     204231	TO_CACHE:   18346547
L1D PQ	ACCESS:      81438	FORWARD:          0	MERGED:          0	TO_CACHE:      81414

L1D UNIQUE REGIONS ACCESSED: 0
L1D REGIONS CONFLICTS: 0
L1D Cross Page Prefetch Requests: 0
L1D Same Page Prefetch Requests: 1358614
L1D ROI Sum of L1D PQ occupancy: 1060652
L1D PREFETCHES PUSHED FROM L2C: 0
L1I TOTAL     ACCESS:   18516287  HIT:   18477115  MISS:      39172  HIT %:    99.7884  MISS %:   0.211554   MPKI: 0.39172
L1I LOAD      ACCESS:   18516287  HIT:   18477115  MISS:      39172  HIT %:    99.7884  MISS %:   0.211554   MPKI: 0.39172
L1I PREFETCH  REQUESTED:          0  ISSUED:          0  USEFUL:          0  USELESS:          0
L1I USEFUL LOAD PREFETCHES:          0 PREFETCH ISSUED TO LOWER LEVEL:          0  ACCURACY: -nan
L1I TIMELY PREFETCHES:          0 LATE PREFETCHES: 0 DROPPED PREFETCHES: 0
L1I PREFETCHES SAME FILL-ORIGIN LEVEL: 0 DIFFERENT FILL-ORIGIN LEVEL: 0
L1I AVERAGE MISS LATENCY: 25.7375 cycles
L1I RQ	ACCESS:   28466601	FORWARD:          0	MERGED:    9935192	TO_CACHE:   18531409

BTB TOTAL     ACCESS:   16030212  HIT:   15084521  MISS:     945691  HIT %:    94.1006  MISS %:    5.89943   MPKI: 9.45691
BTB BRANCH_DIRECT_JUMP	ACCESS:    1133882  HIT:    1133764  MISS:        118
BTB BRANCH_INDIRECT	ACCESS:     335027  HIT:     292229  MISS:      42798
BTB BRANCH_CONDITIONAL	ACCESS:    8619449  HIT:    8618983  MISS:        466
BTB BRANCH_DIRECT_CALL	ACCESS:    1779569  HIT:    1779320  MISS:        249
BTB BRANCH_INDIRECT_CALL	ACCESS:    1191357  HIT:    1187230  MISS:       4127
BTB BRANCH_RETURN	ACCESS:    2970928  HIT:    2072995  MISS:     897933
BTB BRANCH_OTHER ACCESS:          0  HIT:          0  MISS:          0

L2C TOTAL     ACCESS:    3403473  HIT:    1884524  MISS:    1518949  HIT %:    55.3706  MISS %:    44.6294   MPKI: 15.1895
L2C LOAD      ACCESS:    1612194  HIT:     541410  MISS:    1070784  HIT %:    33.5822  MISS %:    66.4178   MPKI: 10.7078
L2C DATA LOAD MPKI: 10.6424
L2C INSTRUCTION LOAD MPKI: 0.06548
L2C RFO       ACCESS:     240644  HIT:      88241  MISS:     152403  HIT %:    36.6687  MISS %:    63.3313   MPKI: 1.52403
L2C PREFETCH  ACCESS:      43525  HIT:       5846  MISS:      37679  HIT %:    13.4314  MISS %:    86.5686   MPKI: 0.37679
L2C DATA PREFETCH MPKI: 0.37679
L2C INSTRUCTION PREFETCH MPKI: 0
L2C WRITEBACK ACCESS:     902116  HIT:     885283  MISS:      16833  HIT %:    98.1341  MISS %:    1.86595   MPKI: 0.16833
L2C LOAD TRANSLATION ACCESS:     604994  HIT:     363744  MISS:     241250  HIT %:    60.1236  MISS %:    39.8764   MPKI: 2.4125
L2C PREFETCH  REQUESTED:          0  ISSUED:          0  USEFUL:       1921  USELESS:      37112
L2C USEFUL LOAD PREFETCHES:       1921 PREFETCH ISSUED TO LOWER LEVEL:      37679  ACCURACY: 5.09833
L2C TIMELY PREFETCHES:       1921 LATE PREFETCHES: 0 DROPPED PREFETCHES: 0
L2C PREFETCHES SAME FILL-ORIGIN LEVEL: 0 DIFFERENT FILL-ORIGIN LEVEL: 0
L2C AVERAGE MISS LATENCY: 138.931 cycles
L2C RQ	ACCESS:    2457863	FORWARD:          0	MERGED:          0	TO_CACHE:    2457832
L2C WQ	ACCESS:     902116	FORWARD:         31	MERGED:          0	TO_CACHE:     902116
L2C PQ	ACCESS:      43525	FORWARD:          0	MERGED:          0	TO_CACHE:      43525

L2C Instructions Evicting Data 5284
L2C Translations Evicting Data 201881
L2C Data Evicting Data 1049448
L2C Instructions Evicting Instructions 513
L2C Translations Evicting Instructions 799
L2C Data Evicting Instructions 5114
L2C Instructions Evicting Translations 751
L2C Translations Evicting Translations 38570
L2C Data Evicting Translations 199756
L2C Dense regions hint from L2: 0
PSCL5 TOTAL     ACCESS:     427486  HIT:     427486  MISS:          0  HIT %:        100  MISS %:          0   MPKI: 0
PSCL5 LOAD TRANSLATION ACCESS:     427486  HIT:     427486  MISS:          0  HIT %:        100  MISS %:          0   MPKI: 0
PSCL5 PREFETCH  REQUESTED:          0  ISSUED:          0  USEFUL:          0  USELESS:          0
PSCL5 USEFUL LOAD PREFETCHES:          0 PREFETCH ISSUED TO LOWER LEVEL:          0  ACCURACY: -nan
PSCL5 TIMELY PREFETCHES:          0 LATE PREFETCHES: 0 DROPPED PREFETCHES: 0
PSCL5 PREFETCHES SAME FILL-ORIGIN LEVEL: 0 DIFFERENT FILL-ORIGIN LEVEL: 0

PSCL4 TOTAL     ACCESS:     427486  HIT:     427486  MISS:          0  HIT %:        100  MISS %:          0   MPKI: 0
PSCL4 LOAD TRANSLATION ACCESS:     427486  HIT:     427486  MISS:          0  HIT %:        100  MISS %:          0   MPKI: 0
PSCL4 PREFETCH  REQUESTED:          0  ISSUED:          0  USEFUL:          0  USELESS:          0
PSCL4 USEFUL LOAD PREFETCHES:          0 PREFETCH ISSUED TO LOWER LEVEL:          0  ACCURACY: -nan
PSCL4 TIMELY PREFETCHES:          0 LATE PREFETCHES: 0 DROPPED PREFETCHES: 0
PSCL4 PREFETCHES SAME FILL-ORIGIN LEVEL: 0 DIFFERENT FILL-ORIGIN LEVEL: 0

PSCL3 TOTAL     ACCESS:     427486  HIT:     427486  MISS:          0  HIT %:        100  MISS %:          0   MPKI: 0
PSCL3 LOAD TRANSLATION ACCESS:     427486  HIT:     427486  MISS:          0  HIT %:        100  MISS %:          0   MPKI: 0
PSCL3 PREFETCH  REQUESTED:          0  ISSUED:          0  USEFUL:          0  USELESS:          0
PSCL3 USEFUL LOAD PREFETCHES:          0 PREFETCH ISSUED TO LOWER LEVEL:          0  ACCURACY: -nan
PSCL3 TIMELY PREFETCHES:          0 LATE PREFETCHES: 0 DROPPED PREFETCHES: 0
PSCL3 PREFETCHES SAME FILL-ORIGIN LEVEL: 0 DIFFERENT FILL-ORIGIN LEVEL: 0

PSCL2 TOTAL     ACCESS:     427486  HIT:     249978  MISS:     177508  HIT %:    58.4763  MISS %:    41.5237   MPKI: 1.77508
PSCL2 LOAD TRANSLATION ACCESS:     427486  HIT:     249978  MISS:     177508  HIT %:    58.4763  MISS %:    41.5237   MPKI: 1.77508
PSCL2 PREFETCH  REQUESTED:          0  ISSUED:          0  USEFUL:          0  USELESS:          0
PSCL2 USEFUL LOAD PREFETCHES:          0 PREFETCH ISSUED TO LOWER LEVEL:          0  ACCURACY: -nan
PSCL2 TIMELY PREFETCHES:          0 LATE PREFETCHES: 0 DROPPED PREFETCHES: 0
PSCL2 PREFETCHES SAME FILL-ORIGIN LEVEL: 0 DIFFERENT FILL-ORIGIN LEVEL: 0

LLC TOTAL     ACCESS:    2082874  HIT:    1052440  MISS:    1030434  HIT %:    50.5283  MISS %:    49.4717   MPKI: 10.3043
LLC LOAD      ACCESS:    1070783  HIT:     236494  MISS:     834289  HIT %:    22.0861  MISS %:    77.9139   MPKI: 8.34289
LLC RFO       ACCESS:     152403  HIT:      55893  MISS:      96510  HIT %:    36.6745  MISS %:    63.3255   MPKI: 0.9651
LLC PREFETCH  ACCESS:      37679  HIT:       5913  MISS:      31766  HIT %:    15.6931  MISS %:    84.3069   MPKI: 0.31766
LLC WRITEBACK ACCESS:     580759  HIT:     558625  MISS:      22134  HIT %:    96.1888  MISS %:    3.81122   MPKI: 0.22134
LLC LOAD TRANSLATION ACCESS:     241250  HIT:     195515  MISS:      45735  HIT %:    81.0425  MISS %:    18.9575   MPKI: 0.45735
LLC PREFETCH  REQUESTED:          0  ISSUED:          0  USEFUL:       1615  USELESS:      36444
LLC USEFUL LOAD PREFETCHES:       1615 PREFETCH ISSUED TO LOWER LEVEL:      31766  ACCURACY: 5.08405
LLC TIMELY PREFETCHES:       1615 LATE PREFETCHES: 0 DROPPED PREFETCHES: 0
LLC PREFETCHES SAME FILL-ORIGIN LEVEL: 0 DIFFERENT FILL-ORIGIN LEVEL: 0
LLC AVERAGE MISS LATENCY: 161.053 cycles
LLC RQ	ACCESS:    1464437	FORWARD:          0	MERGED:          0	TO_CACHE:    1464436
LLC WQ	ACCESS:     580759	FORWARD:          1	MERGED:          0	TO_CACHE:     580759
LLC PQ	ACCESS:      37679	FORWARD:          0	MERGED:          0	TO_CACHE:      37679

LLC Dense regions hint to LLC: 0

RAW hits: 1605761
Loads Generated: 33720482
Loads sent to L1D: 32114721
Stores Generated: 18550778
Stores sent to L1D: 18550778
Major fault: 0 Minor fault: 46708
Allocated PAGES: 46708

stream: 
stream:times selected: 1672844
stream:pref_filled: 353998
stream:pref_useful: 41212
stream:pref_late: 5382
stream:misses: 78182
stream:misses_by_poll: 0

CS: 
CS:times selected: 3746
CS:pref_filled: 1153
CS:pref_useful: 112
CS:pref_late: 1
CS:misses: 50
CS:misses_by_poll: 0

CPLX: 
CPLX:times selected: 1656287
CPLX:pref_filled: 106037
CPLX:pref_useful: 4104
CPLX:pref_late: 44
CPLX:misses: 223347
CPLX:misses_by_poll: 5

NL_L1: 
NL:times selected: 8593
NL:pref_filled: 3700
NL:pref_useful: 412
NL:pref_late: 104
NL:misses: 2847
NL:misses_by_poll: 0

total selections: 3341470
total_filled: 43205
total_useful: 7008
total_late: 5750
total_polluted: 5
total_misses_after_warmup: 56169
conflicts: 176729
Degree Incremented Times: 0
Degree Decremented Times: 210496

L1 IP Table Write Accesses: 348103
L1 IP Table Read Accesses: 171374
L1 RST Write Accesses: 101782
L1 RST Read Accesses: 203564
L1 CSPT Write Accesses: 101782
L1 CSPT Read Accesses: 202599
L1 RR Filter Tag Write Accesses: 81438
L1 RR Filter Tag Read Accesses: 3423171
L1 IP Table Tag Write Accesses: 544498
L1 IP Table Tag Read Accesses: 544498
L1 RST Tag Write Accesses: 0
L1 RST Tag Read Accesses: 923288
L1 RR Filter Write Accesses: 0
L1 RR Filter Read Accesses: 113449
test: 856546

DRAM Statistics
 CHANNEL 0
 RQ ROW_BUFFER_HIT:      76367  ROW_BUFFER_MISS:     931932
 DBUS_CONGESTED:        240
 WQ ROW_BUFFER_HIT:     101911  ROW_BUFFER_MISS:     338390  FULL:          0

 AVG_CONGESTED_CYCLE: 5
 All warmup complete: 2
Channel 0 Bank busy for read cycles: 0
Channel 0 Bank busy for write cycles: 0
Channel 0
Rank 0
0banks busy for read cycles: 261935662
0banks busy for write cycles: 235934
1banks busy for read cycles: 80257279
1banks busy for write cycles: 36747383
2banks busy for read cycles: 20423767
2banks busy for write cycles: 14124069
3banks busy for read cycles: 5403683
3banks busy for write cycles: 4848959
4banks busy for read cycles: 1515698
4banks busy for write cycles: 1390550
5banks busy for read cycles: 42372
5banks busy for write cycles: 328430
6banks busy for read cycles: 2645
6banks busy for write cycles: 69075
7banks busy for read cycles: 435
7banks busy for write cycles: 11679
8banks busy for read cycles: 11
8banks busy for write cycles: 3001

CPU 0 Branch Prediction Accuracy: 98.2098% MPKI: 3.72425 Average ROB Occupancy at Mispredict: 35.193
Branch types
NOT_BRANCH: 79195747 79.1957%
BRANCH_DIRECT_JUMP: 1133882 1.13388%
BRANCH_INDIRECT: 335027 0.335027%
BRANCH_CONDITIONAL: 13393127 13.3931%
BRANCH_DIRECT_CALL: 1779569 1.77957%
BRANCH_INDIRECT_CALL: 1191357 1.19136%
BRANCH_RETURN: 2970928 2.97093%
BRANCH_OTHER: 0 0%

DRAM PAGES: 1048576
Allocated PAGES: 46708
