
*** ChampSim Multicore Out-of-Order Simulator ***

Warmup Instructions: 50000000
Simulation Instructions: 100000000
Number of CPUs: 1
LLC sets: 2048
LLC ways: 16
Off-chip DRAM Size: 4096 MB Channels: 1 Width: 64-bit Data Rate: 6400 MT/s
CPU 0 runs ../SPEC2017//620.omnetpp_s-141B.champsimtrace.xz
.xz
BTB has LRU replacement policy
ITLB has LRU replacement policy
DTLB has LRU replacement policy
STLB has LRU replacement policy
L1I has LRU replacement policy
L1D has LRU replacement policy
Bingo PHT WAYS: 16 and PHT_SIZE: 16384
Initialize SRRIP state for L2C
Initialize DRRIP state for LLC
Heartbeat CPU 0 instructions: 10000001 cycles: 3913568 heartbeat IPC: 2.55521 cumulative IPC: 2.55521 (Simulation time: 0 hr 8 min 36 sec) 
Heartbeat CPU 0 instructions: 20000003 cycles: 7839740 heartbeat IPC: 2.54701 cumulative IPC: 2.55111 (Simulation time: 0 hr 16 min 32 sec) 
Heartbeat CPU 0 instructions: 30000000 cycles: 11770423 heartbeat IPC: 2.54409 cumulative IPC: 2.54876 (Simulation time: 0 hr 23 min 28 sec) 
Heartbeat CPU 0 instructions: 40000001 cycles: 15689898 heartbeat IPC: 2.55136 cumulative IPC: 2.54941 (Simulation time: 0 hr 29 min 44 sec) 
Heartbeat CPU 0 instructions: 50000003 cycles: 19622905 heartbeat IPC: 2.54258 cumulative IPC: 2.54804 (Simulation time: 0 hr 35 min 24 sec) 

Warmup complete CPU 0 instructions: 50000003 cycles: 19622905 (Simulation time: 0 hr 35 min 24 sec) 

Heartbeat CPU 0 instructions: 60000001 cycles: 63904051 heartbeat IPC: 0.22583 cumulative IPC: 0.22583 (Simulation time: 0 hr 42 min 51 sec) 
Heartbeat CPU 0 instructions: 70000000 cycles: 108625963 heartbeat IPC: 0.223604 cumulative IPC: 0.224711 (Simulation time: 0 hr 49 min 43 sec) 
Heartbeat CPU 0 instructions: 80000003 cycles: 153042501 heartbeat IPC: 0.225141 cumulative IPC: 0.224855 (Simulation time: 0 hr 55 min 58 sec) 
Heartbeat CPU 0 instructions: 90000003 cycles: 197682205 heartbeat IPC: 0.224016 cumulative IPC: 0.224644 (Simulation time: 1 hr 1 min 23 sec) 
Heartbeat CPU 0 instructions: 100000003 cycles: 241869722 heartbeat IPC: 0.226308 cumulative IPC: 0.224975 (Simulation time: 1 hr 6 min 5 sec) 
Heartbeat CPU 0 instructions: 110000000 cycles: 286390397 heartbeat IPC: 0.224615 cumulative IPC: 0.224915 (Simulation time: 1 hr 10 min 18 sec) 
Heartbeat CPU 0 instructions: 120000000 cycles: 330760880 heartbeat IPC: 0.225375 cumulative IPC: 0.224981 (Simulation time: 1 hr 13 min 40 sec) 
Heartbeat CPU 0 instructions: 130000000 cycles: 375240788 heartbeat IPC: 0.224821 cumulative IPC: 0.224961 (Simulation time: 1 hr 16 min 21 sec) 
Heartbeat CPU 0 instructions: 140000000 cycles: 419604054 heartbeat IPC: 0.225412 cumulative IPC: 0.225011 (Simulation time: 1 hr 18 min 51 sec) 
Heartbeat CPU 0 instructions: 150000003 cycles: 464446694 heartbeat IPC: 0.223002 cumulative IPC: 0.224808 (Simulation time: 1 hr 21 min 1 sec) 
Finished CPU 0 instructions: 100000000 cycles: 444823789 cumulative IPC: 0.224808 (Simulation time: 1 hr 21 min 1 sec) 

ChampSim completed all CPUs

Region of Interest Statistics

CPU 0 cumulative IPC: 0.224808 instructions: 100000000 cycles: 444823789

CPU 0 Average Load ROB stall cycles: 1.07957e+08
CPU 0 Fraction of times ROB stalled by Loads: 44.6252
CPU 0 Percentage of Load stall cycles in Total stall cycles: 8.7939e+08
Issued all: 53858844
Issued LT all: 42371714
rob_not_full_when_issued_lt_all: 38591144
Issued LT one: 31541386
rob_not_full_when_issued_lt_one: 27944057
FVP critical_dynamic_instances_0: 6751322
FVP unique_critical_ips_0: 1409
 Total stall cycles: 406586190
 Total load stall cycles: 3575478154003474
Unique Load IPs: 2080
CPU 0 NUM of IPS identified critical: 0
CPU 0 Num of Load IPs stalling ROB: 0
Threshold modification factor: 0
Trouble in retire width: -nan
MaC = Marked as critical.
lt_50_percent_before_Mac: 0
gt_90_percent_before_Mac: 0
gt_75_percent_before_Mac: 0
gt_50_percent_before_Mac: 0
stall_proportion_bin_same_before_after: 0
stall_proportion_bin_lower_before_after: 0
stall_proportion_bin_upper_before_after: 0
average_stall_proportion_before: -nan
average_stall_proportion_after: -nan
Critical IP stalls, total frequency: 0
Non-critical IP stalls, total frequency: 0
Total Freq all stalling IPs: 0
Critical_IP_Detector_Accuracy_70: 0.000709723
Critical_IP_Detector_Accuracy_80: 0.000709723
Critical_IP_Detector_Accuracy_90: 0.000709723
Critical_IP_Detector_Coverage_70: 1
Critical_IP_Detector_Coverage_80: 1
Critical_IP_Detector_Coverage_90: 1
stat_90_percent_critical_ip_stalls_freq: 454852
stat_90_percent_non_critical_ip_stalls_freq: 18446744073709096764
AVERAGE_ROB_Occupancy_90_Percent_Critical_IP_Stalls: 37.2342
AVERAGE_ROB_Occupancy_90_Percent_Non_Critical_IP_Stalls: 4.01744e-11
Critical_IP_ROB_Stalls_Bucket_0: 0
Non-critical_IP_ROB_Stalls_Bucket_0: 8706835
Critical_IP_ROB_Stalls_Bucket_1: 0
Non-critical_IP_ROB_Stalls_Bucket_1: 4042747
Critical_IP_ROB_Stalls_Bucket_2: 0
Non-critical_IP_ROB_Stalls_Bucket_2: 1394485
Critical_IP_ROB_Stalls_Bucket_3: 0
Non-critical_IP_ROB_Stalls_Bucket_3: 387885
Critical_IP_ROB_Stalls_Bucket_4: 0
Non-critical_IP_ROB_Stalls_Bucket_4: 140964
Critical_IP_ROB_Stalls_Bucket_5: 0
Non-critical_IP_ROB_Stalls_Bucket_5: 44873
Critical_IP_ROB_Stalls_Bucket_6: 0
Non-critical_IP_ROB_Stalls_Bucket_6: 61878
0 => IPs accounting for >50 percent of stalls, 1 => 55, 2 => 60, 3 => 65 and so on till 90.
percent50: inf num IPs:  1
percent55: inf num IPs: 1
percent60: inf num IPs: 1
percent65: inf num IPs: 1
percent70: inf num IPs: 1
percent75: inf num IPs: 1
percent80: inf num IPs: 1
percent85: inf num IPs: 1
percent90: inf num IPs: 1
Critical_ROB_Stalls_Percent_0_Bucket_0: 284052
Non-critical_ROB_Stalls_Percent_0_Bucket_0: 8422783
Critical_ROB_Stalls_Percent_0_Bucket_1: 155276
Non-critical_ROB_Stalls_Percent_0_Bucket_1: 3887471
Critical_ROB_Stalls_Percent_0_Bucket_2: 14261
Non-critical_ROB_Stalls_Percent_0_Bucket_2: 1380224
Critical_ROB_Stalls_Percent_0_Bucket_3: 1049
Non-critical_ROB_Stalls_Percent_0_Bucket_3: 386836
Critical_ROB_Stalls_Percent_0_Bucket_4: 159
Non-critical_ROB_Stalls_Percent_0_Bucket_4: 140805
Critical_ROB_Stalls_Percent_0_Bucket_5: 38
Non-critical_ROB_Stalls_Percent_0_Bucket_5: 44835
Critical_ROB_Stalls_Percent_0_Bucket_6: 17
Non-critical_ROB_Stalls_Percent_0_Bucket_6: 61861
Critical_ROB_Stalls_Percent_1_Bucket_0: 284052
Non-critical_ROB_Stalls_Percent_1_Bucket_0: 8422783
Critical_ROB_Stalls_Percent_1_Bucket_1: 155276
Non-critical_ROB_Stalls_Percent_1_Bucket_1: 3887471
Critical_ROB_Stalls_Percent_1_Bucket_2: 14261
Non-critical_ROB_Stalls_Percent_1_Bucket_2: 1380224
Critical_ROB_Stalls_Percent_1_Bucket_3: 1049
Non-critical_ROB_Stalls_Percent_1_Bucket_3: 386836
Critical_ROB_Stalls_Percent_1_Bucket_4: 159
Non-critical_ROB_Stalls_Percent_1_Bucket_4: 140805
Critical_ROB_Stalls_Percent_1_Bucket_5: 38
Non-critical_ROB_Stalls_Percent_1_Bucket_5: 44835
Critical_ROB_Stalls_Percent_1_Bucket_6: 17
Non-critical_ROB_Stalls_Percent_1_Bucket_6: 61861
Critical_ROB_Stalls_Percent_2_Bucket_0: 284052
Non-critical_ROB_Stalls_Percent_2_Bucket_0: 8422783
Critical_ROB_Stalls_Percent_2_Bucket_1: 155276
Non-critical_ROB_Stalls_Percent_2_Bucket_1: 3887471
Critical_ROB_Stalls_Percent_2_Bucket_2: 14261
Non-critical_ROB_Stalls_Percent_2_Bucket_2: 1380224
Critical_ROB_Stalls_Percent_2_Bucket_3: 1049
Non-critical_ROB_Stalls_Percent_2_Bucket_3: 386836
Critical_ROB_Stalls_Percent_2_Bucket_4: 159
Non-critical_ROB_Stalls_Percent_2_Bucket_4: 140805
Critical_ROB_Stalls_Percent_2_Bucket_5: 38
Non-critical_ROB_Stalls_Percent_2_Bucket_5: 44835
Critical_ROB_Stalls_Percent_2_Bucket_6: 17
Non-critical_ROB_Stalls_Percent_2_Bucket_6: 61861
Critical_ROB_Stalls_Percent_3_Bucket_0: 284052
Non-critical_ROB_Stalls_Percent_3_Bucket_0: 8422783
Critical_ROB_Stalls_Percent_3_Bucket_1: 155276
Non-critical_ROB_Stalls_Percent_3_Bucket_1: 3887471
Critical_ROB_Stalls_Percent_3_Bucket_2: 14261
Non-critical_ROB_Stalls_Percent_3_Bucket_2: 1380224
Critical_ROB_Stalls_Percent_3_Bucket_3: 1049
Non-critical_ROB_Stalls_Percent_3_Bucket_3: 386836
Critical_ROB_Stalls_Percent_3_Bucket_4: 159
Non-critical_ROB_Stalls_Percent_3_Bucket_4: 140805
Critical_ROB_Stalls_Percent_3_Bucket_5: 38
Non-critical_ROB_Stalls_Percent_3_Bucket_5: 44835
Critical_ROB_Stalls_Percent_3_Bucket_6: 17
Non-critical_ROB_Stalls_Percent_3_Bucket_6: 61861
Critical_ROB_Stalls_Percent_4_Bucket_0: 284052
Non-critical_ROB_Stalls_Percent_4_Bucket_0: 8422783
Critical_ROB_Stalls_Percent_4_Bucket_1: 155276
Non-critical_ROB_Stalls_Percent_4_Bucket_1: 3887471
Critical_ROB_Stalls_Percent_4_Bucket_2: 14261
Non-critical_ROB_Stalls_Percent_4_Bucket_2: 1380224
Critical_ROB_Stalls_Percent_4_Bucket_3: 1049
Non-critical_ROB_Stalls_Percent_4_Bucket_3: 386836
Critical_ROB_Stalls_Percent_4_Bucket_4: 159
Non-critical_ROB_Stalls_Percent_4_Bucket_4: 140805
Critical_ROB_Stalls_Percent_4_Bucket_5: 38
Non-critical_ROB_Stalls_Percent_4_Bucket_5: 44835
Critical_ROB_Stalls_Percent_4_Bucket_6: 17
Non-critical_ROB_Stalls_Percent_4_Bucket_6: 61861
Critical_ROB_Stalls_Percent_5_Bucket_0: 284052
Non-critical_ROB_Stalls_Percent_5_Bucket_0: 8422783
Critical_ROB_Stalls_Percent_5_Bucket_1: 155276
Non-critical_ROB_Stalls_Percent_5_Bucket_1: 3887471
Critical_ROB_Stalls_Percent_5_Bucket_2: 14261
Non-critical_ROB_Stalls_Percent_5_Bucket_2: 1380224
Critical_ROB_Stalls_Percent_5_Bucket_3: 1049
Non-critical_ROB_Stalls_Percent_5_Bucket_3: 386836
Critical_ROB_Stalls_Percent_5_Bucket_4: 159
Non-critical_ROB_Stalls_Percent_5_Bucket_4: 140805
Critical_ROB_Stalls_Percent_5_Bucket_5: 38
Non-critical_ROB_Stalls_Percent_5_Bucket_5: 44835
Critical_ROB_Stalls_Percent_5_Bucket_6: 17
Non-critical_ROB_Stalls_Percent_5_Bucket_6: 61861
Critical_ROB_Stalls_Percent_6_Bucket_0: 284052
Non-critical_ROB_Stalls_Percent_6_Bucket_0: 8422783
Critical_ROB_Stalls_Percent_6_Bucket_1: 155276
Non-critical_ROB_Stalls_Percent_6_Bucket_1: 3887471
Critical_ROB_Stalls_Percent_6_Bucket_2: 14261
Non-critical_ROB_Stalls_Percent_6_Bucket_2: 1380224
Critical_ROB_Stalls_Percent_6_Bucket_3: 1049
Non-critical_ROB_Stalls_Percent_6_Bucket_3: 386836
Critical_ROB_Stalls_Percent_6_Bucket_4: 159
Non-critical_ROB_Stalls_Percent_6_Bucket_4: 140805
Critical_ROB_Stalls_Percent_6_Bucket_5: 38
Non-critical_ROB_Stalls_Percent_6_Bucket_5: 44835
Critical_ROB_Stalls_Percent_6_Bucket_6: 17
Non-critical_ROB_Stalls_Percent_6_Bucket_6: 61861
Critical_ROB_Stalls_Percent_7_Bucket_0: 284052
Non-critical_ROB_Stalls_Percent_7_Bucket_0: 8422783
Critical_ROB_Stalls_Percent_7_Bucket_1: 155276
Non-critical_ROB_Stalls_Percent_7_Bucket_1: 3887471
Critical_ROB_Stalls_Percent_7_Bucket_2: 14261
Non-critical_ROB_Stalls_Percent_7_Bucket_2: 1380224
Critical_ROB_Stalls_Percent_7_Bucket_3: 1049
Non-critical_ROB_Stalls_Percent_7_Bucket_3: 386836
Critical_ROB_Stalls_Percent_7_Bucket_4: 159
Non-critical_ROB_Stalls_Percent_7_Bucket_4: 140805
Critical_ROB_Stalls_Percent_7_Bucket_5: 38
Non-critical_ROB_Stalls_Percent_7_Bucket_5: 44835
Critical_ROB_Stalls_Percent_7_Bucket_6: 17
Non-critical_ROB_Stalls_Percent_7_Bucket_6: 61861
Critical_ROB_Stalls_Percent_8_Bucket_0: 284052
Non-critical_ROB_Stalls_Percent_8_Bucket_0: 8422783
Critical_ROB_Stalls_Percent_8_Bucket_1: 155276
Non-critical_ROB_Stalls_Percent_8_Bucket_1: 3887471
Critical_ROB_Stalls_Percent_8_Bucket_2: 14261
Non-critical_ROB_Stalls_Percent_8_Bucket_2: 1380224
Critical_ROB_Stalls_Percent_8_Bucket_3: 1049
Non-critical_ROB_Stalls_Percent_8_Bucket_3: 386836
Critical_ROB_Stalls_Percent_8_Bucket_4: 159
Non-critical_ROB_Stalls_Percent_8_Bucket_4: 140805
Critical_ROB_Stalls_Percent_8_Bucket_5: 38
Non-critical_ROB_Stalls_Percent_8_Bucket_5: 44835
Critical_ROB_Stalls_Percent_8_Bucket_6: 17
Non-critical_ROB_Stalls_Percent_8_Bucket_6: 61861
Average ROB occupancy Load Stall Begin: 46.7627
Average ROB occupancy Load Stall End: 51.2882
Min ROB occupancy Load Stall Begin: 1
Max ROB occupancy Load Stall Begin: 352
Min ROB occupancy Load Stall End: 1
Max ROB occupancy Load Stall End: 352
Average ROB occupancy Critical Load Stall Begin: -nan
Average ROB occupancy Critical Load Stall End: -nan
Min ROB occupancy Critical Load Stall Begin: 400
Max ROB occupancy Critical Load Stall Begin: 0
Min ROB occupancy Critical Load Stall End: 400
Max ROB occupancy Critical Load Stall End: 0
 ROB Load Stall Begin Bucket Count 0: 9316927
 ROB Load Stall End Bucket Count 0: 8706835
 ROB Critical Load Stall Begin Bucket Count 0: 0
 ROB Critical Load Stall End Bucket Count 0: 0
 ROB Load Stall Begin Bucket Count 1: 3738785
 ROB Load Stall End Bucket Count 1: 4042747
 ROB Critical Load Stall Begin Bucket Count 1: 0
 ROB Critical Load Stall End Bucket Count 1: 0
 ROB Load Stall Begin Bucket Count 2: 1153404
 ROB Load Stall End Bucket Count 2: 1394485
 ROB Critical Load Stall Begin Bucket Count 2: 0
 ROB Critical Load Stall End Bucket Count 2: 0
 ROB Load Stall Begin Bucket Count 3: 359456
 ROB Load Stall End Bucket Count 3: 387885
 ROB Critical Load Stall Begin Bucket Count 3: 0
 ROB Critical Load Stall End Bucket Count 3: 0
 ROB Load Stall Begin Bucket Count 4: 117852
 ROB Load Stall End Bucket Count 4: 140964
 ROB Critical Load Stall Begin Bucket Count 4: 0
 ROB Critical Load Stall End Bucket Count 4: 0
 ROB Load Stall Begin Bucket Count 5: 35181
 ROB Load Stall End Bucket Count 5: 44873
 ROB Critical Load Stall Begin Bucket Count 5: 0
 ROB Critical Load Stall End Bucket Count 5: 0
 ROB Load Stall Begin Bucket Count 6: 58062
 ROB Load Stall End Bucket Count 6: 61878
 ROB Critical Load Stall Begin Bucket Count 6: 0
 ROB Critical Load Stall End Bucket Count 6: 0
PIST Tag Read Accesses: 0
PIST Read Accesses: 0
PIST Tag Write Accesses: 0
PIST Write Accesses: 0
Criticality detector called times: 0
Max global_stall_cycles_count: 0
Threshold Modified: 0 times, factor: 0
ITLB TOTAL     ACCESS:   16657560  HIT:   16500337  MISS:     157223  HIT %:    99.0561  MISS %:   0.943854   MPKI: 1.57223
ITLB LOAD TRANSLATION ACCESS:   16657560  HIT:   16500337  MISS:     157223  HIT %:    99.0561  MISS %:   0.943854   MPKI: 1.57223
ITLB PREFETCH  REQUESTED:          0  ISSUED:          0  USEFUL:          0  USELESS:          0
ITLB USEFUL LOAD PREFETCHES:          0 PREFETCH ISSUED TO LOWER LEVEL:          0  ACCURACY: -nan
ITLB TIMELY PREFETCHES:          0 LATE PREFETCHES: 0 DROPPED PREFETCHES: 0
ITLB PREFETCHES SAME FILL-ORIGIN LEVEL: 0 DIFFERENT FILL-ORIGIN LEVEL: 0
ITLB AVERAGE MISS LATENCY: 9.62851 cycles
ITLB RQ	ACCESS:   18726960	FORWARD:          0	MERGED:    2027821	TO_CACHE:   16699139

DTLB TOTAL     ACCESS:   38489108  HIT:   36396883  MISS:    2092225  HIT %:    94.5641  MISS %:    5.43589   MPKI: 20.9222
DTLB LOAD TRANSLATION ACCESS:   38489108  HIT:   36396883  MISS:    2092225  HIT %:    94.5641  MISS %:    5.43589   MPKI: 20.9222
DTLB PREFETCH  REQUESTED:          0  ISSUED:          0  USEFUL:          0  USELESS:          0
DTLB USEFUL LOAD PREFETCHES:          0 PREFETCH ISSUED TO LOWER LEVEL:          0  ACCURACY: -nan
DTLB TIMELY PREFETCHES:          0 LATE PREFETCHES: 0 DROPPED PREFETCHES: 0
DTLB PREFETCHES SAME FILL-ORIGIN LEVEL: 0 DIFFERENT FILL-ORIGIN LEVEL: 0
DTLB AVERAGE MISS LATENCY: 26.5568 cycles
DTLB RQ	ACCESS:   43613042	FORWARD:          0	MERGED:    5074433	TO_CACHE:   38538609

STLB TOTAL     ACCESS:    2249448  HIT:    1763289  MISS:     486159  HIT %:    78.3876  MISS %:    21.6124   MPKI: 4.86159
STLB LOAD TRANSLATION ACCESS:    2249448  HIT:    1763289  MISS:     486159  HIT %:    78.3876  MISS %:    21.6124   MPKI: 4.86159
STLB PREFETCH  REQUESTED:          0  ISSUED:          0  USEFUL:          0  USELESS:          0
STLB USEFUL LOAD PREFETCHES:          0 PREFETCH ISSUED TO LOWER LEVEL:          0  ACCURACY: -nan
STLB TIMELY PREFETCHES:          0 LATE PREFETCHES: 0 DROPPED PREFETCHES: 0
STLB PREFETCHES SAME FILL-ORIGIN LEVEL: 0 DIFFERENT FILL-ORIGIN LEVEL: 0
STLB AVERAGE MISS LATENCY: 75.5763 cycles
STLB RQ	ACCESS:    2249449	FORWARD:          0	MERGED:          0	TO_CACHE:    2249449

STLB Hit, L1D data hit: 0
STLB Hit, L2C data hit: 0
STLB Hit, LLC data hit: 0
STLB Hit, LLC data miss: 0
STLB STLB hints to L2: 0
L1D TOTAL     ACCESS:   43003244  HIT:   41150781  MISS:    1852463  HIT %:    95.6923  MISS %:    4.30773   MPKI: 18.5246
L1D LOAD      ACCESS:   25077485  HIT:   23467210  MISS:    1610275  HIT %:    93.5788  MISS %:     6.4212   MPKI: 16.1028
L1D RFO       ACCESS:   17925759  HIT:   17683571  MISS:     242188  HIT %:    98.6489  MISS %:    1.35106   MPKI: 2.42188
L1D PREFETCH  REQUESTED:          0  ISSUED:          0  USEFUL:          0  USELESS:          0
L1D USEFUL LOAD PREFETCHES:          0 PREFETCH ISSUED TO LOWER LEVEL:          0  ACCURACY: -nan
L1D TIMELY PREFETCHES:          0 LATE PREFETCHES: 0 DROPPED PREFETCHES: 0
L1D PREFETCHES SAME FILL-ORIGIN LEVEL: 0 DIFFERENT FILL-ORIGIN LEVEL: 0
L1D AVERAGE MISS LATENCY: 128.173 cycles
L1D RQ	ACCESS:   31714262	FORWARD:          0	MERGED:    5128413	TO_CACHE:   25249715
L1D WQ	ACCESS:   18562772	FORWARD:    1336134	MERGED:     199445	TO_CACHE:   18363327

L1D UNIQUE REGIONS ACCESSED: 0
L1D REGIONS CONFLICTS: 0
L1D Cross Page Prefetch Requests: 0
L1D Same Page Prefetch Requests: 0
L1D ROI Sum of L1D PQ occupancy: 0
L1D PREFETCHES PUSHED FROM L2C: 0
L1I TOTAL     ACCESS:   18707956  HIT:   18646225  MISS:      61731  HIT %:      99.67  MISS %:   0.329972   MPKI: 0.61731
L1I LOAD      ACCESS:   18707956  HIT:   18646225  MISS:      61731  HIT %:      99.67  MISS %:   0.329972   MPKI: 0.61731
L1I PREFETCH  REQUESTED:          0  ISSUED:          0  USEFUL:          0  USELESS:          0
L1I USEFUL LOAD PREFETCHES:          0 PREFETCH ISSUED TO LOWER LEVEL:          0  ACCURACY: -nan
L1I TIMELY PREFETCHES:          0 LATE PREFETCHES: 0 DROPPED PREFETCHES: 0
L1I PREFETCHES SAME FILL-ORIGIN LEVEL: 0 DIFFERENT FILL-ORIGIN LEVEL: 0
L1I AVERAGE MISS LATENCY: 23.8856 cycles
L1I RQ	ACCESS:   28291436	FORWARD:          0	MERGED:    9564476	TO_CACHE:   18726960

BTB TOTAL     ACCESS:   16448157  HIT:   15486307  MISS:     961850  HIT %:    94.1522  MISS %:    5.84777   MPKI: 9.6185
BTB BRANCH_DIRECT_JUMP	ACCESS:    1168023  HIT:    1167900  MISS:        123
BTB BRANCH_INDIRECT	ACCESS:     336927  HIT:     285546  MISS:      51381
BTB BRANCH_CONDITIONAL	ACCESS:    8865977  HIT:    8865508  MISS:        469
BTB BRANCH_DIRECT_CALL	ACCESS:    1854319  HIT:    1854075  MISS:        244
BTB BRANCH_INDIRECT_CALL	ACCESS:    1184296  HIT:    1179921  MISS:       4375
BTB BRANCH_RETURN	ACCESS:    3038615  HIT:    2133357  MISS:     905258
BTB BRANCH_OTHER ACCESS:          0  HIT:          0  MISS:          0

L2C TOTAL     ACCESS:    4050404  HIT:    1959676  MISS:    2090728  HIT %:    48.3822  MISS %:    51.6178   MPKI: 20.9073
L2C LOAD      ACCESS:    1671970  HIT:     505791  MISS:    1166179  HIT %:    30.2512  MISS %:    69.7488   MPKI: 11.6618
L2C DATA LOAD MPKI: 11.5594
L2C INSTRUCTION LOAD MPKI: 0.10239
L2C RFO       ACCESS:     242186  HIT:      67695  MISS:     174491  HIT %:    27.9517  MISS %:    72.0483   MPKI: 1.74491
L2C PREFETCH  ACCESS:     532748  HIT:     119611  MISS:     413137  HIT %:    22.4517  MISS %:    77.5483   MPKI: 4.13137
L2C DATA PREFETCH MPKI: 4.13137
L2C INSTRUCTION PREFETCH MPKI: 0
L2C WRITEBACK ACCESS:     907588  HIT:     888096  MISS:      19492  HIT %:    97.8523  MISS %:    2.14767   MPKI: 0.19492
L2C LOAD TRANSLATION ACCESS:     695912  HIT:     378483  MISS:     317429  HIT %:    54.3866  MISS %:    45.6134   MPKI: 3.17429
L2C PREFETCH  REQUESTED:     547290  ISSUED:     547290  USEFUL:      58222  USELESS:     354135
L2C USEFUL LOAD PREFETCHES:      58222 PREFETCH ISSUED TO LOWER LEVEL:     414943  ACCURACY: 14.0313
L2C TIMELY PREFETCHES:      58222 LATE PREFETCHES: 1806 DROPPED PREFETCHES: 0
L2C PREFETCHES SAME FILL-ORIGIN LEVEL: 414943 DIFFERENT FILL-ORIGIN LEVEL: 0
L2C AVERAGE MISS LATENCY: 139.741 cycles
L2C RQ	ACCESS:    2610105	FORWARD:          0	MERGED:          0	TO_CACHE:    2610068
L2C WQ	ACCESS:     907588	FORWARD:         38	MERGED:          0	TO_CACHE:     907588
L2C PQ	ACCESS:     547290	FORWARD:          0	MERGED:          0	TO_CACHE:     547289

L2C Instructions Evicting Data 8643
L2C Translations Evicting Data 267161
L2C Data Evicting Data 1470195
L2C Instructions Evicting Instructions 153
L2C Translations Evicting Instructions 1443
L2C Data Evicting Instructions 8516
L2C Instructions Evicting Translations 1443
L2C Translations Evicting Translations 48825
L2C Data Evicting Translations 264857
L2C Dense regions hint from L2: 0
PSCL5 TOTAL     ACCESS:     486159  HIT:     486159  MISS:          0  HIT %:        100  MISS %:          0   MPKI: 0
PSCL5 LOAD TRANSLATION ACCESS:     486159  HIT:     486159  MISS:          0  HIT %:        100  MISS %:          0   MPKI: 0
PSCL5 PREFETCH  REQUESTED:          0  ISSUED:          0  USEFUL:          0  USELESS:          0
PSCL5 USEFUL LOAD PREFETCHES:          0 PREFETCH ISSUED TO LOWER LEVEL:          0  ACCURACY: -nan
PSCL5 TIMELY PREFETCHES:          0 LATE PREFETCHES: 0 DROPPED PREFETCHES: 0
PSCL5 PREFETCHES SAME FILL-ORIGIN LEVEL: 0 DIFFERENT FILL-ORIGIN LEVEL: 0

PSCL4 TOTAL     ACCESS:     486159  HIT:     486159  MISS:          0  HIT %:        100  MISS %:          0   MPKI: 0
PSCL4 LOAD TRANSLATION ACCESS:     486159  HIT:     486159  MISS:          0  HIT %:        100  MISS %:          0   MPKI: 0
PSCL4 PREFETCH  REQUESTED:          0  ISSUED:          0  USEFUL:          0  USELESS:          0
PSCL4 USEFUL LOAD PREFETCHES:          0 PREFETCH ISSUED TO LOWER LEVEL:          0  ACCURACY: -nan
PSCL4 TIMELY PREFETCHES:          0 LATE PREFETCHES: 0 DROPPED PREFETCHES: 0
PSCL4 PREFETCHES SAME FILL-ORIGIN LEVEL: 0 DIFFERENT FILL-ORIGIN LEVEL: 0

PSCL3 TOTAL     ACCESS:     486159  HIT:     486159  MISS:          0  HIT %:        100  MISS %:          0   MPKI: 0
PSCL3 LOAD TRANSLATION ACCESS:     486159  HIT:     486159  MISS:          0  HIT %:        100  MISS %:          0   MPKI: 0
PSCL3 PREFETCH  REQUESTED:          0  ISSUED:          0  USEFUL:          0  USELESS:          0
PSCL3 USEFUL LOAD PREFETCHES:          0 PREFETCH ISSUED TO LOWER LEVEL:          0  ACCURACY: -nan
PSCL3 TIMELY PREFETCHES:          0 LATE PREFETCHES: 0 DROPPED PREFETCHES: 0
PSCL3 PREFETCHES SAME FILL-ORIGIN LEVEL: 0 DIFFERENT FILL-ORIGIN LEVEL: 0

PSCL2 TOTAL     ACCESS:     486159  HIT:     276406  MISS:     209753  HIT %:    56.8551  MISS %:    43.1449   MPKI: 2.09753
PSCL2 LOAD TRANSLATION ACCESS:     486159  HIT:     276406  MISS:     209753  HIT %:    56.8551  MISS %:    43.1449   MPKI: 2.09753
PSCL2 PREFETCH  REQUESTED:          0  ISSUED:          0  USEFUL:          0  USELESS:          0
PSCL2 USEFUL LOAD PREFETCHES:          0 PREFETCH ISSUED TO LOWER LEVEL:          0  ACCURACY: -nan
PSCL2 TIMELY PREFETCHES:          0 LATE PREFETCHES: 0 DROPPED PREFETCHES: 0
PSCL2 PREFETCHES SAME FILL-ORIGIN LEVEL: 0 DIFFERENT FILL-ORIGIN LEVEL: 0

LLC TOTAL     ACCESS:    2731838  HIT:    1328390  MISS:    1403448  HIT %:    48.6262  MISS %:    51.3738   MPKI: 14.0345
LLC LOAD      ACCESS:    1165043  HIT:     259299  MISS:     905744  HIT %:    22.2566  MISS %:    77.7434   MPKI: 9.05744
LLC RFO       ACCESS:     173821  HIT:      53300  MISS:     120521  HIT %:    30.6637  MISS %:    69.3363   MPKI: 1.20521
LLC PREFETCH  ACCESS:     414943  HIT:     138602  MISS:     276341  HIT %:    33.4027  MISS %:    66.5973   MPKI: 2.76341
LLC WRITEBACK ACCESS:     660602  HIT:     628116  MISS:      32486  HIT %:    95.0824  MISS %:    4.91764   MPKI: 0.32486
LLC LOAD TRANSLATION ACCESS:     317429  HIT:     249073  MISS:      68356  HIT %:    78.4657  MISS %:    21.5343   MPKI: 0.68356
LLC PREFETCH  REQUESTED:          0  ISSUED:          0  USEFUL:      18586  USELESS:     252629
LLC USEFUL LOAD PREFETCHES:      18586 PREFETCH ISSUED TO LOWER LEVEL:     276341  ACCURACY: 6.72575
LLC TIMELY PREFETCHES:      18586 LATE PREFETCHES: 0 DROPPED PREFETCHES: 0
LLC PREFETCHES SAME FILL-ORIGIN LEVEL: 0 DIFFERENT FILL-ORIGIN LEVEL: 0
LLC AVERAGE MISS LATENCY: 164.029 cycles
LLC RQ	ACCESS:    1656293	FORWARD:          0	MERGED:          0	TO_CACHE:    1656293
LLC WQ	ACCESS:     660602	FORWARD:          0	MERGED:          0	TO_CACHE:     660602
LLC PQ	ACCESS:     414943	FORWARD:          0	MERGED:          0	TO_CACHE:     414943

LLC Dense regions hint to LLC: 0

RAW hits: 1709582
Loads Generated: 33423844
Loads sent to L1D: 31714262
Stores Generated: 18562758
Stores sent to L1D: 18562772
Major fault: 0 Minor fault: 50818
Allocated PAGES: 50818
[Bingo] PHT Access: 352906
[Bingo] PHT Hit PC+Addr: 9846
[Bingo] PHT Hit PC+Offs: 299776
[Bingo] PHT Miss: 43284
[Bingo] Prefetch PC+Addr: 0
[Bingo] Prefetch PC+Offs: 0
[Bingo] Useful PC+Addr: 0
[Bingo] Useful PC+Offs: 0
[Bingo] Useless PC+Addr: 0
[Bingo] Useless PC+Offs: 0
[Bingo] L1 Prefetch per Region: 0
[Bingo] L2 Prefetch per Region: 2.76761
[Bingo] L3 Prefetch per Region: 0
[Bingo] No Prefetch per Region: 29.2324
[Bingo] Number of Voters Mean: 9.17782
[Bingo] Number of Voters SD: 5.61538
PHT read accesses: 4596969
PHT write accesses: 31049
AT read accesses: 66987
AT write accesses: 69116
FT read accesses: 106249
FT write accesses: 352906
PS read accesses: 619244
PS write accesses: 309622
PHT tag read accesses: 6497219
PHT tag write accesses: 40895
AT tag read accesses: 40940973
AT tag write accesses: 98066
FT tag read accesses: 51089426
FT tag write accesses: 426671
PS tag read accesses: 16495094
PS tag write accesses: 928866

DRAM Statistics
 CHANNEL 0
 RQ ROW_BUFFER_HIT:      85195  ROW_BUFFER_MISS:    1285764
 DBUS_CONGESTED:        191
 WQ ROW_BUFFER_HIT:     134247  ROW_BUFFER_MISS:     375045  FULL:          0

 AVG_CONGESTED_CYCLE: 4
 All warmup complete: 2
Channel 0 Bank busy for read cycles: 0
Channel 0 Bank busy for write cycles: 0
Channel 0
Rank 0
0banks busy for read cycles: 255602074
0banks busy for write cycles: 239860
1banks busy for read cycles: 81568456
1banks busy for write cycles: 37472554
2banks busy for read cycles: 23561567
2banks busy for write cycles: 15841020
3banks busy for read cycles: 15962615
3banks busy for write cycles: 6210135
4banks busy for read cycles: 3257132
4banks busy for write cycles: 2346787
5banks busy for read cycles: 872566
5banks busy for write cycles: 913731
6banks busy for read cycles: 367946
6banks busy for write cycles: 352150
7banks busy for read cycles: 90393
7banks busy for write cycles: 107894
8banks busy for read cycles: 39268
8banks busy for write cycles: 17642

CPU 0 Branch Prediction Accuracy: 98.1675% MPKI: 3.84889 Average ROB Occupancy at Mispredict: 38.0015
Branch types
NOT_BRANCH: 78995608 78.9956%
BRANCH_DIRECT_JUMP: 1168023 1.16802%
BRANCH_INDIRECT: 336927 0.336927%
BRANCH_CONDITIONAL: 13421845 13.4218%
BRANCH_DIRECT_CALL: 1854319 1.85432%
BRANCH_INDIRECT_CALL: 1184296 1.1843%
BRANCH_RETURN: 3038615 3.03862%
BRANCH_OTHER: 0 0%

DRAM PAGES: 1048576
Allocated PAGES: 50818
