
*** ChampSim Multicore Out-of-Order Simulator ***

Warmup Instructions: 50000000
Simulation Instructions: 100000000
Number of CPUs: 1
LLC sets: 2048
LLC ways: 16
Off-chip DRAM Size: 4096 MB Channels: 1 Width: 64-bit Data Rate: 6400 MT/s
CPU 0 runs ../SPEC2017//620.omnetpp_s-141B.champsimtrace.xz
.xz
NUM_OF_IPS_IN_CRITICAL_IP_TRAINING: 64
NUM_OF_CRITICAL_IP_TRAINING_TABLE_WAYS: 2
NUM_OF_CRITICAL_IP_TRAINING_TABLE_SETS: 32
WOBBLY_CRITICAL_IP_CACHE_SETS: 32
WOBBLY_CRITICAL_IP_CACHE_WAYS: 4
BTB has LRU replacement policy
ITLB has LRU replacement policy
DTLB has LRU replacement policy
STLB has LRU replacement policy
L1I has LRU replacement policy
IP Table Entries: 256
L1D has LRU replacement policy
Initialize SRRIP state for L2C
Initialize DRRIP state for LLC
Heartbeat CPU 0 instructions: 10000001 cycles: 3913610 heartbeat IPC: 2.55519 cumulative IPC: 2.55519 (Simulation time: 0 hr 7 min 14 sec) 
Heartbeat CPU 0 instructions: 20000003 cycles: 7839842 heartbeat IPC: 2.54697 cumulative IPC: 2.55107 (Simulation time: 0 hr 13 min 28 sec) 
Heartbeat CPU 0 instructions: 30000000 cycles: 11770600 heartbeat IPC: 2.54404 cumulative IPC: 2.54872 (Simulation time: 0 hr 18 min 51 sec) 
Heartbeat CPU 0 instructions: 40000001 cycles: 15690065 heartbeat IPC: 2.55137 cumulative IPC: 2.54938 (Simulation time: 0 hr 23 min 45 sec) 
Heartbeat CPU 0 instructions: 50000003 cycles: 19623311 heartbeat IPC: 2.54243 cumulative IPC: 2.54799 (Simulation time: 0 hr 28 min 14 sec) 

Warmup complete CPU 0 instructions: 50000003 cycles: 19623311 (Simulation time: 0 hr 28 min 14 sec) 

Heartbeat CPU 0 instructions: 60000001 cycles: 63981672 heartbeat IPC: 0.225437 cumulative IPC: 0.225437 (Simulation time: 0 hr 33 min 58 sec) 
Heartbeat CPU 0 instructions: 70000000 cycles: 108599867 heartbeat IPC: 0.224124 cumulative IPC: 0.224778 (Simulation time: 0 hr 39 min 22 sec) 
Heartbeat CPU 0 instructions: 80000003 cycles: 152916292 heartbeat IPC: 0.22565 cumulative IPC: 0.225068 (Simulation time: 0 hr 44 min 11 sec) 
Heartbeat CPU 0 instructions: 90000003 cycles: 197422815 heartbeat IPC: 0.224686 cumulative IPC: 0.224973 (Simulation time: 0 hr 48 min 30 sec) 
Heartbeat CPU 0 instructions: 100000003 cycles: 241510183 heartbeat IPC: 0.226822 cumulative IPC: 0.22534 (Simulation time: 0 hr 54 min 30 sec) 
Heartbeat CPU 0 instructions: 110000000 cycles: 285893975 heartbeat IPC: 0.225307 cumulative IPC: 0.225335 (Simulation time: 1 hr 3 min 4 sec) 
Heartbeat CPU 0 instructions: 120000000 cycles: 330098794 heartbeat IPC: 0.22622 cumulative IPC: 0.225461 (Simulation time: 1 hr 10 min 25 sec) 
Heartbeat CPU 0 instructions: 130000000 cycles: 374425576 heartbeat IPC: 0.225597 cumulative IPC: 0.225478 (Simulation time: 1 hr 17 min 5 sec) 
Heartbeat CPU 0 instructions: 140000000 cycles: 418673524 heartbeat IPC: 0.225999 cumulative IPC: 0.225536 (Simulation time: 1 hr 22 min 54 sec) 
Heartbeat CPU 0 instructions: 150000003 cycles: 463338306 heartbeat IPC: 0.22389 cumulative IPC: 0.22537 (Simulation time: 1 hr 28 min 31 sec) 
Finished CPU 0 instructions: 100000000 cycles: 443714995 cumulative IPC: 0.22537 (Simulation time: 1 hr 28 min 31 sec) 

ChampSim completed all CPUs

Region of Interest Statistics

CPU 0 cumulative IPC: 0.22537 instructions: 100000000 cycles: 443714995

CPU 0 Average Load ROB stall cycles: 1.07742e+08
CPU 0 Fraction of times ROB stalled by Loads: 44.6149
CPU 0 Percentage of Load stall cycles in Total stall cycles: 8.78963e+08
Issued all: 53776963
Issued LT all: 42289820
rob_not_full_when_issued_lt_all: 38590896
Issued LT one: 31459624
rob_not_full_when_issued_lt_one: 27943877
 Total stall cycles: 405515395
 Total load stall cycles: 3564330022580830
CPU 0 NUM of IPS identified critical: 0
CPU 0 Num of Load IPs stalling ROB: 2006
Threshold modification factor: 0
Max PIST entries: 64
Min PIST entries: 0
Avg PIST entries: 42.6667
Trouble in retire width: 0.968861
MaC = Marked as critical.
lt_50_percent_before_Mac: 0
gt_90_percent_before_Mac: 0
gt_75_percent_before_Mac: 0
gt_50_percent_before_Mac: 0
stall_proportion_bin_same_before_after: 0
stall_proportion_bin_lower_before_after: 0
stall_proportion_bin_upper_before_after: 0
average_stall_proportion_before: -nan
average_stall_proportion_after: -nan
Critical IP stalls, total frequency: 0
Non-critical IP stalls, total frequency: 14759555
Total Freq all stalling IPs: 14759555
stat_90_percent_critical_ip_stalls_freq: 13290209
stat_90_percent_non_critical_ip_stalls_freq: 1469346
Critical_IP_ROB_Stalls_Bucket_0: 0
Non-critical_IP_ROB_Stalls_Bucket_0: 8687964
Critical_IP_ROB_Stalls_Bucket_1: 0
Non-critical_IP_ROB_Stalls_Bucket_1: 4043281
Critical_IP_ROB_Stalls_Bucket_2: 0
Non-critical_IP_ROB_Stalls_Bucket_2: 1394302
Critical_IP_ROB_Stalls_Bucket_3: 0
Non-critical_IP_ROB_Stalls_Bucket_3: 384773
Critical_IP_ROB_Stalls_Bucket_4: 0
Non-critical_IP_ROB_Stalls_Bucket_4: 141365
Critical_IP_ROB_Stalls_Bucket_5: 0
Non-critical_IP_ROB_Stalls_Bucket_5: 46068
Critical_IP_ROB_Stalls_Bucket_6: 0
Non-critical_IP_ROB_Stalls_Bucket_6: 61802
0 => IPs accounting for >50 percent of stalls, 1 => 55, 2 => 60, 3 => 65 and so on till 90.
percent50: 50.006 num IPs:  117
percent55: 55.1681 num IPs: 138
percent60: 60.0277 num IPs: 163
percent65: 65.1517 num IPs: 194
percent70: 70.0037 num IPs: 230
percent75: 75.0796 num IPs: 272
percent80: 80.0319 num IPs: 316
percent85: 85.0615 num IPs: 375
percent90: 90.0448 num IPs: 448
Critical_ROB_Stalls_Percent_0_Bucket_0: 4650789
Non-critical_ROB_Stalls_Percent_0_Bucket_0: 4037175
Critical_ROB_Stalls_Percent_0_Bucket_1: 2137958
Non-critical_ROB_Stalls_Percent_0_Bucket_1: 1905323
Critical_ROB_Stalls_Percent_0_Bucket_2: 470289
Non-critical_ROB_Stalls_Percent_0_Bucket_2: 924013
Critical_ROB_Stalls_Percent_0_Bucket_3: 66213
Non-critical_ROB_Stalls_Percent_0_Bucket_3: 318560
Critical_ROB_Stalls_Percent_0_Bucket_4: 24006
Non-critical_ROB_Stalls_Percent_0_Bucket_4: 117359
Critical_ROB_Stalls_Percent_0_Bucket_5: 7564
Non-critical_ROB_Stalls_Percent_0_Bucket_5: 38504
Critical_ROB_Stalls_Percent_0_Bucket_6: 23838
Non-critical_ROB_Stalls_Percent_0_Bucket_6: 37964
Critical_ROB_Stalls_Percent_1_Bucket_0: 5208416
Non-critical_ROB_Stalls_Percent_1_Bucket_0: 3479548
Critical_ROB_Stalls_Percent_1_Bucket_1: 2339466
Non-critical_ROB_Stalls_Percent_1_Bucket_1: 1703815
Critical_ROB_Stalls_Percent_1_Bucket_2: 471354
Non-critical_ROB_Stalls_Percent_1_Bucket_2: 922948
Critical_ROB_Stalls_Percent_1_Bucket_3: 67761
Non-critical_ROB_Stalls_Percent_1_Bucket_3: 317012
Critical_ROB_Stalls_Percent_1_Bucket_4: 24142
Non-critical_ROB_Stalls_Percent_1_Bucket_4: 117223
Critical_ROB_Stalls_Percent_1_Bucket_5: 7571
Non-critical_ROB_Stalls_Percent_1_Bucket_5: 38497
Critical_ROB_Stalls_Percent_1_Bucket_6: 23859
Non-critical_ROB_Stalls_Percent_1_Bucket_6: 37943
Critical_ROB_Stalls_Percent_2_Bucket_0: 5589394
Non-critical_ROB_Stalls_Percent_2_Bucket_0: 3098570
Critical_ROB_Stalls_Percent_2_Bucket_1: 2493038
Non-critical_ROB_Stalls_Percent_2_Bucket_1: 1550243
Critical_ROB_Stalls_Percent_2_Bucket_2: 625896
Non-critical_ROB_Stalls_Percent_2_Bucket_2: 768406
Critical_ROB_Stalls_Percent_2_Bucket_3: 76338
Non-critical_ROB_Stalls_Percent_2_Bucket_3: 308435
Critical_ROB_Stalls_Percent_2_Bucket_4: 43727
Non-critical_ROB_Stalls_Percent_2_Bucket_4: 97638
Critical_ROB_Stalls_Percent_2_Bucket_5: 7571
Non-critical_ROB_Stalls_Percent_2_Bucket_5: 38497
Critical_ROB_Stalls_Percent_2_Bucket_6: 23859
Non-critical_ROB_Stalls_Percent_2_Bucket_6: 37943
Critical_ROB_Stalls_Percent_3_Bucket_0: 5851367
Non-critical_ROB_Stalls_Percent_3_Bucket_0: 2836597
Critical_ROB_Stalls_Percent_3_Bucket_1: 2807573
Non-critical_ROB_Stalls_Percent_3_Bucket_1: 1235708
Critical_ROB_Stalls_Percent_3_Bucket_2: 727763
Non-critical_ROB_Stalls_Percent_3_Bucket_2: 666539
Critical_ROB_Stalls_Percent_3_Bucket_3: 142345
Non-critical_ROB_Stalls_Percent_3_Bucket_3: 242428
Critical_ROB_Stalls_Percent_3_Bucket_4: 50718
Non-critical_ROB_Stalls_Percent_3_Bucket_4: 90647
Critical_ROB_Stalls_Percent_3_Bucket_5: 10736
Non-critical_ROB_Stalls_Percent_3_Bucket_5: 35332
Critical_ROB_Stalls_Percent_3_Bucket_6: 25597
Non-critical_ROB_Stalls_Percent_3_Bucket_6: 36205
Critical_ROB_Stalls_Percent_4_Bucket_0: 6295464
Non-critical_ROB_Stalls_Percent_4_Bucket_0: 2392500
Critical_ROB_Stalls_Percent_4_Bucket_1: 2975479
Non-critical_ROB_Stalls_Percent_4_Bucket_1: 1067802
Critical_ROB_Stalls_Percent_4_Bucket_2: 771346
Non-critical_ROB_Stalls_Percent_4_Bucket_2: 622956
Critical_ROB_Stalls_Percent_4_Bucket_3: 195869
Non-critical_ROB_Stalls_Percent_4_Bucket_3: 188904
Critical_ROB_Stalls_Percent_4_Bucket_4: 53818
Non-critical_ROB_Stalls_Percent_4_Bucket_4: 87547
Critical_ROB_Stalls_Percent_4_Bucket_5: 14624
Non-critical_ROB_Stalls_Percent_4_Bucket_5: 31444
Critical_ROB_Stalls_Percent_4_Bucket_6: 25641
Non-critical_ROB_Stalls_Percent_4_Bucket_6: 36161
Critical_ROB_Stalls_Percent_5_Bucket_0: 6704921
Non-critical_ROB_Stalls_Percent_5_Bucket_0: 1983043
Critical_ROB_Stalls_Percent_5_Bucket_1: 3194489
Non-critical_ROB_Stalls_Percent_5_Bucket_1: 848792
Critical_ROB_Stalls_Percent_5_Bucket_2: 862372
Non-critical_ROB_Stalls_Percent_5_Bucket_2: 531930
Critical_ROB_Stalls_Percent_5_Bucket_3: 219742
Non-critical_ROB_Stalls_Percent_5_Bucket_3: 165031
Critical_ROB_Stalls_Percent_5_Bucket_4: 57296
Non-critical_ROB_Stalls_Percent_5_Bucket_4: 84069
Critical_ROB_Stalls_Percent_5_Bucket_5: 16948
Non-critical_ROB_Stalls_Percent_5_Bucket_5: 29120
Critical_ROB_Stalls_Percent_5_Bucket_6: 25647
Non-critical_ROB_Stalls_Percent_5_Bucket_6: 36155
Critical_ROB_Stalls_Percent_6_Bucket_0: 7030654
Non-critical_ROB_Stalls_Percent_6_Bucket_0: 1657310
Critical_ROB_Stalls_Percent_6_Bucket_1: 3445937
Non-critical_ROB_Stalls_Percent_6_Bucket_1: 597344
Critical_ROB_Stalls_Percent_6_Bucket_2: 976281
Non-critical_ROB_Stalls_Percent_6_Bucket_2: 418021
Critical_ROB_Stalls_Percent_6_Bucket_3: 230301
Non-critical_ROB_Stalls_Percent_6_Bucket_3: 154472
Critical_ROB_Stalls_Percent_6_Bucket_4: 67730
Non-critical_ROB_Stalls_Percent_6_Bucket_4: 73635
Critical_ROB_Stalls_Percent_6_Bucket_5: 27742
Non-critical_ROB_Stalls_Percent_6_Bucket_5: 18326
Critical_ROB_Stalls_Percent_6_Bucket_6: 33710
Non-critical_ROB_Stalls_Percent_6_Bucket_6: 28092
Critical_ROB_Stalls_Percent_7_Bucket_0: 7487477
Non-critical_ROB_Stalls_Percent_7_Bucket_0: 1200487
Critical_ROB_Stalls_Percent_7_Bucket_1: 3556633
Non-critical_ROB_Stalls_Percent_7_Bucket_1: 486648
Critical_ROB_Stalls_Percent_7_Bucket_2: 1059127
Non-critical_ROB_Stalls_Percent_7_Bucket_2: 335175
Critical_ROB_Stalls_Percent_7_Bucket_3: 276175
Non-critical_ROB_Stalls_Percent_7_Bucket_3: 108598
Critical_ROB_Stalls_Percent_7_Bucket_4: 88248
Non-critical_ROB_Stalls_Percent_7_Bucket_4: 53117
Critical_ROB_Stalls_Percent_7_Bucket_5: 34654
Non-critical_ROB_Stalls_Percent_7_Bucket_5: 11414
Critical_ROB_Stalls_Percent_7_Bucket_6: 52385
Non-critical_ROB_Stalls_Percent_7_Bucket_6: 9417
Critical_ROB_Stalls_Percent_8_Bucket_0: 7867705
Non-critical_ROB_Stalls_Percent_8_Bucket_0: 820259
Critical_ROB_Stalls_Percent_8_Bucket_1: 3709663
Non-critical_ROB_Stalls_Percent_8_Bucket_1: 333618
Critical_ROB_Stalls_Percent_8_Bucket_2: 1227706
Non-critical_ROB_Stalls_Percent_8_Bucket_2: 166596
Critical_ROB_Stalls_Percent_8_Bucket_3: 297223
Non-critical_ROB_Stalls_Percent_8_Bucket_3: 87550
Critical_ROB_Stalls_Percent_8_Bucket_4: 97488
Non-critical_ROB_Stalls_Percent_8_Bucket_4: 43877
Critical_ROB_Stalls_Percent_8_Bucket_5: 35476
Non-critical_ROB_Stalls_Percent_8_Bucket_5: 10592
Critical_ROB_Stalls_Percent_8_Bucket_6: 54948
Non-critical_ROB_Stalls_Percent_8_Bucket_6: 6854
Average ROB occupancy Load Stall Begin: 46.7757
Average ROB occupancy Load Stall End: 51.3074
Min ROB occupancy Load Stall Begin: 1
Max ROB occupancy Load Stall Begin: 352
Min ROB occupancy Load Stall End: 1
Max ROB occupancy Load Stall End: 352
Average ROB occupancy Critical Load Stall Begin: -nan
Average ROB occupancy Critical Load Stall End: -nan
Min ROB occupancy Critical Load Stall Begin: 400
Max ROB occupancy Critical Load Stall Begin: 0
Min ROB occupancy Critical Load Stall End: 400
Max ROB occupancy Critical Load Stall End: 0
 ROB Load Stall Begin Bucket Count 0: 9297926
 ROB Load Stall End Bucket Count 0: 8687964
 ROB Critical Load Stall Begin Bucket Count 0: 0
 ROB Critical Load Stall End Bucket Count 0: 0
 ROB Load Stall Begin Bucket Count 1: 3740195
 ROB Load Stall End Bucket Count 1: 4043281
 ROB Critical Load Stall Begin Bucket Count 1: 0
 ROB Critical Load Stall End Bucket Count 1: 0
 ROB Load Stall Begin Bucket Count 2: 1152576
 ROB Load Stall End Bucket Count 2: 1394302
 ROB Critical Load Stall Begin Bucket Count 2: 0
 ROB Critical Load Stall End Bucket Count 2: 0
 ROB Load Stall Begin Bucket Count 3: 356213
 ROB Load Stall End Bucket Count 3: 384773
 ROB Critical Load Stall Begin Bucket Count 3: 0
 ROB Critical Load Stall End Bucket Count 3: 0
 ROB Load Stall Begin Bucket Count 4: 119607
 ROB Load Stall End Bucket Count 4: 141365
 ROB Critical Load Stall Begin Bucket Count 4: 0
 ROB Critical Load Stall End Bucket Count 4: 0
 ROB Load Stall Begin Bucket Count 5: 35057
 ROB Load Stall End Bucket Count 5: 46068
 ROB Critical Load Stall Begin Bucket Count 5: 0
 ROB Critical Load Stall End Bucket Count 5: 0
 ROB Load Stall Begin Bucket Count 6: 57981
 ROB Load Stall End Bucket Count 6: 61802
 ROB Critical Load Stall Begin Bucket Count 6: 0
 ROB Critical Load Stall End Bucket Count 6: 0
PIST Tag Read Accesses: 11818948
PIST Read Accesses: 5909474
PIST Tag Write Accesses: 11818948
PIST Write Accesses: 5909474
Criticality detector called times: 14629879
Max global_stall_cycles_count: 6681536
Threshold Modified: 0 times, factor: 0
Sturdy critical IP cache stats: 
 Unused entries: 0
CIC Tag Read Accesses: 0
CIC Read Accesses: 0
CIC Tag Write Accesses: 0
CIC Write Accesses: 0
Wobbly critical IP cache stats: 
 Unused entries: 122
CIC Tag Read Accesses: 357759326
CIC Read Accesses: 0
CIC Tag Write Accesses: 6
CIC Write Accesses: 0
ITLB TOTAL     ACCESS:   16657551  HIT:   16500328  MISS:     157223  HIT %:    99.0561  MISS %:   0.943854   MPKI: 1.57223
ITLB LOAD TRANSLATION ACCESS:   16657551  HIT:   16500328  MISS:     157223  HIT %:    99.0561  MISS %:   0.943854   MPKI: 1.57223
ITLB PREFETCH  REQUESTED:          0  ISSUED:          0  USEFUL:          0  USELESS:          0
ITLB USEFUL LOAD PREFETCHES:          0 PREFETCH ISSUED TO LOWER LEVEL:          0  ACCURACY: -nan
ITLB TIMELY PREFETCHES:          0 LATE PREFETCHES: 0 DROPPED PREFETCHES: 0
ITLB PREFETCHES SAME FILL-ORIGIN LEVEL: 0 DIFFERENT FILL-ORIGIN LEVEL: 0
ITLB AVERAGE MISS LATENCY: 9.5893 cycles
ITLB RQ	ACCESS:   18726935	FORWARD:          0	MERGED:    2027795	TO_CACHE:   16699140

DTLB TOTAL     ACCESS:   38480966  HIT:   36388699  MISS:    2092267  HIT %:    94.5629  MISS %:    5.43715   MPKI: 20.9227
DTLB LOAD TRANSLATION ACCESS:   38480966  HIT:   36388699  MISS:    2092267  HIT %:    94.5629  MISS %:    5.43715   MPKI: 20.9227
DTLB PREFETCH  REQUESTED:          0  ISSUED:          0  USEFUL:          0  USELESS:          0
DTLB USEFUL LOAD PREFETCHES:          0 PREFETCH ISSUED TO LOWER LEVEL:          0  ACCURACY: -nan
DTLB TIMELY PREFETCHES:          0 LATE PREFETCHES: 0 DROPPED PREFETCHES: 0
DTLB PREFETCHES SAME FILL-ORIGIN LEVEL: 0 DIFFERENT FILL-ORIGIN LEVEL: 0
DTLB AVERAGE MISS LATENCY: 24.8639 cycles
DTLB RQ	ACCESS:   43603959	FORWARD:          0	MERGED:    5073645	TO_CACHE:   38530314

STLB TOTAL     ACCESS:    2378909  HIT:    1892749  MISS:     486160  HIT %:    79.5637  MISS %:    20.4363   MPKI: 4.8616
STLB LOAD TRANSLATION ACCESS:    2249490  HIT:    1763330  MISS:     486160  HIT %:     78.388  MISS %:     21.612   MPKI: 4.8616
STLB TRANSLATION FROM L1D PREFETCHER ACCESS:     129419  HIT:     129419  MISS:          0  HIT %:        100  MISS %:          0   MPKI: 0
STLB PREFETCH  REQUESTED:          0  ISSUED:          0  USEFUL:          0  USELESS:          0
STLB USEFUL LOAD PREFETCHES:          0 PREFETCH ISSUED TO LOWER LEVEL:          0  ACCURACY: -nan
STLB TIMELY PREFETCHES:          0 LATE PREFETCHES: 0 DROPPED PREFETCHES: 0
STLB PREFETCHES SAME FILL-ORIGIN LEVEL: 0 DIFFERENT FILL-ORIGIN LEVEL: 0
STLB AVERAGE MISS LATENCY: 68.276 cycles
STLB RQ	ACCESS:    2405422	FORWARD:          0	MERGED:      26512	TO_CACHE:    2378910

STLB Hit, L1D data hit: 0
STLB Hit, L2C data hit: 0
STLB Hit, LLC data hit: 0
STLB Hit, LLC data miss: 0
STLB STLB hints to L2: 0
L1D TOTAL     ACCESS:   43168456  HIT:   41222309  MISS:    1946147  HIT %:    95.4917  MISS %:    4.50826   MPKI: 19.4615
L1D LOAD      ACCESS:   25075194  HIT:   23452693  MISS:    1622501  HIT %:    93.5295  MISS %:    6.47054   MPKI: 16.225
L1D RFO       ACCESS:   17944722  HIT:   17704344  MISS:     240378  HIT %:    98.6605  MISS %:    1.33955   MPKI: 2.40378
L1D PREFETCH  ACCESS:     148540  HIT:      65272  MISS:      83268  HIT %:    43.9424  MISS %:    56.0576   MPKI: 0.83268
L1D PREFETCH  REQUESTED:     312086  ISSUED:     311877  USEFUL:      12995  USELESS:      70273
L1D USEFUL LOAD PREFETCHES:      12995 PREFETCH ISSUED TO LOWER LEVEL:      83521  ACCURACY: 15.559
L1D TIMELY PREFETCHES:      12995 LATE PREFETCHES: 252 DROPPED PREFETCHES: 0
L1D PREFETCHES SAME FILL-ORIGIN LEVEL: 83521 DIFFERENT FILL-ORIGIN LEVEL: 0
L1D AVERAGE MISS LATENCY: 36653.8 cycles
L1D RQ	ACCESS:   31711088	FORWARD:          0	MERGED:    5129360	TO_CACHE:   25246988
L1D WQ	ACCESS:   18562772	FORWARD:    1334755	MERGED:     205801	TO_CACHE:   18356971
L1D PQ	ACCESS:     155946	FORWARD:          0	MERGED:          0	TO_CACHE:     155931

L1D UNIQUE REGIONS ACCESSED: 0
L1D REGIONS CONFLICTS: 0
L1D Cross Page Prefetch Requests: 0
L1D Same Page Prefetch Requests: 155946
L1D ROI Sum of L1D PQ occupancy: 2140706
L1D PREFETCHES PUSHED FROM L2C: 0
L1I TOTAL     ACCESS:   18708006  HIT:   18646275  MISS:      61731  HIT %:      99.67  MISS %:   0.329971   MPKI: 0.61731
L1I LOAD      ACCESS:   18708006  HIT:   18646275  MISS:      61731  HIT %:      99.67  MISS %:   0.329971   MPKI: 0.61731
L1I PREFETCH  REQUESTED:          0  ISSUED:          0  USEFUL:          0  USELESS:          0
L1I USEFUL LOAD PREFETCHES:          0 PREFETCH ISSUED TO LOWER LEVEL:          0  ACCURACY: -nan
L1I TIMELY PREFETCHES:          0 LATE PREFETCHES: 0 DROPPED PREFETCHES: 0
L1I PREFETCHES SAME FILL-ORIGIN LEVEL: 0 DIFFERENT FILL-ORIGIN LEVEL: 0
L1I AVERAGE MISS LATENCY: 22.8013 cycles
L1I RQ	ACCESS:   28291280	FORWARD:          0	MERGED:    9564345	TO_CACHE:   18726935

BTB TOTAL     ACCESS:   16448157  HIT:   15486307  MISS:     961850  HIT %:    94.1522  MISS %:    5.84777   MPKI: 9.6185
BTB BRANCH_DIRECT_JUMP	ACCESS:    1168023  HIT:    1167900  MISS:        123
BTB BRANCH_INDIRECT	ACCESS:     336927  HIT:     285546  MISS:      51381
BTB BRANCH_CONDITIONAL	ACCESS:    8865977  HIT:    8865508  MISS:        469
BTB BRANCH_DIRECT_CALL	ACCESS:    1854319  HIT:    1854075  MISS:        244
BTB BRANCH_INDIRECT_CALL	ACCESS:    1184296  HIT:    1179921  MISS:       4375
BTB BRANCH_RETURN	ACCESS:    3038615  HIT:    2133357  MISS:     905258
BTB BRANCH_OTHER ACCESS:          0  HIT:          0  MISS:          0

L2C TOTAL     ACCESS:    3618662  HIT:    1856894  MISS:    1761768  HIT %:    51.3144  MISS %:    48.6856   MPKI: 17.6177
L2C LOAD      ACCESS:    1683944  HIT:     498581  MISS:    1185363  HIT %:    29.6079  MISS %:    70.3921   MPKI: 11.8536
L2C DATA LOAD MPKI: 11.7658
L2C INSTRUCTION LOAD MPKI: 0.08781
L2C RFO       ACCESS:     240375  HIT:      62647  MISS:     177728  HIT %:    26.0622  MISS %:    73.9378   MPKI: 1.77728
L2C PREFETCH  ACCESS:      83523  HIT:       4613  MISS:      78910  HIT %:    5.52303  MISS %:     94.477   MPKI: 0.7891
L2C DATA PREFETCH MPKI: 0.7891
L2C INSTRUCTION PREFETCH MPKI: 0
L2C WRITEBACK ACCESS:     914898  HIT:     897794  MISS:      17104  HIT %:    98.1305  MISS %:     1.8695   MPKI: 0.17104
L2C LOAD TRANSLATION ACCESS:     695922  HIT:     393259  MISS:     302663  HIT %:    56.5091  MISS %:    43.4909   MPKI: 3.02663
L2C PREFETCH  REQUESTED:          5  ISSUED:          5  USEFUL:        684  USELESS:      78084
L2C USEFUL LOAD PREFETCHES:        684 PREFETCH ISSUED TO LOWER LEVEL:      78910  ACCURACY: 0.86681
L2C TIMELY PREFETCHES:        684 LATE PREFETCHES: 0 DROPPED PREFETCHES: 0
L2C PREFETCHES SAME FILL-ORIGIN LEVEL: 2 DIFFERENT FILL-ORIGIN LEVEL: 0
L2C AVERAGE MISS LATENCY: 141.577 cycles
L2C RQ	ACCESS:    2620278	FORWARD:          0	MERGED:          0	TO_CACHE:    2620241
L2C WQ	ACCESS:     914898	FORWARD:         37	MERGED:          0	TO_CACHE:     914898
L2C PQ	ACCESS:      83526	FORWARD:          0	MERGED:          2	TO_CACHE:      83524

L2C Instructions Evicting Data 7252
L2C Translations Evicting Data 248979
L2C Data Evicting Data 1179347
L2C Instructions Evicting Instructions 131
L2C Translations Evicting Instructions 1440
L2C Data Evicting Instructions 7093
L2C Instructions Evicting Translations 1398
L2C Translations Evicting Translations 52244
L2C Data Evicting Translations 246780
L2C Dense regions hint from L2: 0
PSCL5 TOTAL     ACCESS:     486160  HIT:     486160  MISS:          0  HIT %:        100  MISS %:          0   MPKI: 0
PSCL5 LOAD TRANSLATION ACCESS:     486160  HIT:     486160  MISS:          0  HIT %:        100  MISS %:          0   MPKI: 0
PSCL5 PREFETCH  REQUESTED:          0  ISSUED:          0  USEFUL:          0  USELESS:          0
PSCL5 USEFUL LOAD PREFETCHES:          0 PREFETCH ISSUED TO LOWER LEVEL:          0  ACCURACY: -nan
PSCL5 TIMELY PREFETCHES:          0 LATE PREFETCHES: 0 DROPPED PREFETCHES: 0
PSCL5 PREFETCHES SAME FILL-ORIGIN LEVEL: 0 DIFFERENT FILL-ORIGIN LEVEL: 0

PSCL4 TOTAL     ACCESS:     486160  HIT:     486160  MISS:          0  HIT %:        100  MISS %:          0   MPKI: 0
PSCL4 LOAD TRANSLATION ACCESS:     486160  HIT:     486160  MISS:          0  HIT %:        100  MISS %:          0   MPKI: 0
PSCL4 PREFETCH  REQUESTED:          0  ISSUED:          0  USEFUL:          0  USELESS:          0
PSCL4 USEFUL LOAD PREFETCHES:          0 PREFETCH ISSUED TO LOWER LEVEL:          0  ACCURACY: -nan
PSCL4 TIMELY PREFETCHES:          0 LATE PREFETCHES: 0 DROPPED PREFETCHES: 0
PSCL4 PREFETCHES SAME FILL-ORIGIN LEVEL: 0 DIFFERENT FILL-ORIGIN LEVEL: 0

PSCL3 TOTAL     ACCESS:     486160  HIT:     486160  MISS:          0  HIT %:        100  MISS %:          0   MPKI: 0
PSCL3 LOAD TRANSLATION ACCESS:     486160  HIT:     486160  MISS:          0  HIT %:        100  MISS %:          0   MPKI: 0
PSCL3 PREFETCH  REQUESTED:          0  ISSUED:          0  USEFUL:          0  USELESS:          0
PSCL3 USEFUL LOAD PREFETCHES:          0 PREFETCH ISSUED TO LOWER LEVEL:          0  ACCURACY: -nan
PSCL3 TIMELY PREFETCHES:          0 LATE PREFETCHES: 0 DROPPED PREFETCHES: 0
PSCL3 PREFETCHES SAME FILL-ORIGIN LEVEL: 0 DIFFERENT FILL-ORIGIN LEVEL: 0

PSCL2 TOTAL     ACCESS:     486160  HIT:     276398  MISS:     209762  HIT %:    56.8533  MISS %:    43.1467   MPKI: 2.09762
PSCL2 LOAD TRANSLATION ACCESS:     486160  HIT:     276398  MISS:     209762  HIT %:    56.8533  MISS %:    43.1467   MPKI: 2.09762
PSCL2 PREFETCH  REQUESTED:          0  ISSUED:          0  USEFUL:          0  USELESS:          0
PSCL2 USEFUL LOAD PREFETCHES:          0 PREFETCH ISSUED TO LOWER LEVEL:          0  ACCURACY: -nan
PSCL2 TIMELY PREFETCHES:          0 LATE PREFETCHES: 0 DROPPED PREFETCHES: 0
PSCL2 PREFETCHES SAME FILL-ORIGIN LEVEL: 0 DIFFERENT FILL-ORIGIN LEVEL: 0

LLC TOTAL     ACCESS:    2389200  HIT:    1175685  MISS:    1213515  HIT %:    49.2083  MISS %:    50.7917   MPKI: 12.1351
LLC LOAD      ACCESS:    1185362  HIT:     255009  MISS:     930353  HIT %:    21.5132  MISS %:    78.4868   MPKI: 9.30353
LLC RFO       ACCESS:     177728  HIT:      52953  MISS:     124775  HIT %:    29.7944  MISS %:    70.2056   MPKI: 1.24775
LLC PREFETCH  ACCESS:      78910  HIT:       2025  MISS:      76885  HIT %:    2.56621  MISS %:    97.4338   MPKI: 0.76885
LLC WRITEBACK ACCESS:     644537  HIT:     616707  MISS:      27830  HIT %:    95.6822  MISS %:    4.31783   MPKI: 0.2783
LLC LOAD TRANSLATION ACCESS:     302663  HIT:     248991  MISS:      53672  HIT %:    82.2667  MISS %:    17.7333   MPKI: 0.53672
LLC PREFETCH  REQUESTED:          0  ISSUED:          0  USEFUL:       1034  USELESS:      74582
LLC USEFUL LOAD PREFETCHES:       1034 PREFETCH ISSUED TO LOWER LEVEL:      76885  ACCURACY: 1.34487
LLC TIMELY PREFETCHES:       1034 LATE PREFETCHES: 0 DROPPED PREFETCHES: 0
LLC PREFETCHES SAME FILL-ORIGIN LEVEL: 0 DIFFERENT FILL-ORIGIN LEVEL: 0
LLC AVERAGE MISS LATENCY: 162.38 cycles
LLC RQ	ACCESS:    1665754	FORWARD:          0	MERGED:          0	TO_CACHE:    1665753
LLC WQ	ACCESS:     644537	FORWARD:          1	MERGED:          0	TO_CACHE:     644537
LLC PQ	ACCESS:      78910	FORWARD:          0	MERGED:          0	TO_CACHE:      78910

LLC Dense regions hint to LLC: 0

RAW hits: 1712756
Loads Generated: 33423844
Loads sent to L1D: 31711088
Stores Generated: 18562758
Stores sent to L1D: 18562772
Major fault: 0 Minor fault: 50818
Allocated PAGES: 50818

stream: 
stream:times selected: 142916
stream:pref_filled: 59347
stream:pref_useful: 12705
stream:pref_late: 225
stream:misses: 15603
stream:misses_by_poll: 0

CS: 
CS:times selected: 29
CS:pref_filled: 33
CS:pref_useful: 0
CS:pref_late: 0
CS:misses: 11
CS:misses_by_poll: 0

CPLX: 
CPLX:times selected: 140906
CPLX:pref_filled: 23197
CPLX:pref_useful: 128
CPLX:pref_late: 16
CPLX:misses: 42009
CPLX:misses_by_poll: 79

NL_L1: 
NL:times selected: 1383
NL:pref_filled: 689
NL:pref_useful: 161
NL:pref_late: 7
NL:misses: 606
NL:misses_by_poll: 0

total selections: 285234
total_filled: 83268
total_useful: 12995
total_late: 252
total_polluted: 79
total_misses_after_warmup: 58256
conflicts: 6
Degree Incremented Times: 0
Degree Decremented Times: 2170

L1 IP Table Write Accesses: 167835
L1 IP Table Read Accesses: 167829
L1 RST Write Accesses: 142916
L1 RST Read Accesses: 285824
L1 CSPT Write Accesses: 142916
L1 CSPT Read Accesses: 284673
L1 RR Filter Tag Write Accesses: 156155
L1 RR Filter Tag Read Accesses: 5346918
L1 IP Table Tag Write Accesses: 167835
L1 IP Table Tag Read Accesses: 167835
L1 RST Tag Write Accesses: 56
L1 RST Tag Read Accesses: 1288931
L1 RR Filter Write Accesses: 0
L1 RR Filter Read Accesses: 169675
test: 107255
L2 IP Table Read Accesses: 118445
L2 IP Table Write Accesses: 66688
L2 IP Table Tag Read Accesses: 59225
L2 IP Table Tag Write Accesses: 59225

DRAM Statistics
 CHANNEL 0
 RQ ROW_BUFFER_HIT:      75917  ROW_BUFFER_MISS:    1109763
 DBUS_CONGESTED:        210
 WQ ROW_BUFFER_HIT:     132585  ROW_BUFFER_MISS:     368612  FULL:          0

 AVG_CONGESTED_CYCLE: 5
 All warmup complete: 2
Channel 0 Bank busy for read cycles: 0
Channel 0 Bank busy for write cycles: 0
Channel 0
Rank 0
0banks busy for read cycles: 256411540
0banks busy for write cycles: 255072
1banks busy for read cycles: 86769045
1banks busy for write cycles: 39699716
2banks busy for read cycles: 26192152
2banks busy for write cycles: 16240724
3banks busy for read cycles: 7620567
3banks busy for write cycles: 5891964
4banks busy for read cycles: 1922338
4banks busy for write cycles: 1868543
5banks busy for read cycles: 65565
5banks busy for write cycles: 539322
6banks busy for read cycles: 9687
6banks busy for write cycles: 140676
7banks busy for read cycles: 17395
7banks busy for write cycles: 36248
8banks busy for read cycles: 6524
8banks busy for write cycles: 27918

CPU 0 Branch Prediction Accuracy: 98.1675% MPKI: 3.84889 Average ROB Occupancy at Mispredict: 38.2501
Branch types
NOT_BRANCH: 78995608 78.9956%
BRANCH_DIRECT_JUMP: 1168023 1.16802%
BRANCH_INDIRECT: 336927 0.336927%
BRANCH_CONDITIONAL: 13421845 13.4218%
BRANCH_DIRECT_CALL: 1854319 1.85432%
BRANCH_INDIRECT_CALL: 1184296 1.1843%
BRANCH_RETURN: 3038615 3.03862%
BRANCH_OTHER: 0 0%

DRAM PAGES: 1048576
Allocated PAGES: 50818
