
*** ChampSim Multicore Out-of-Order Simulator ***

Warmup Instructions: 50000000
Simulation Instructions: 100000000
Number of CPUs: 1
LLC sets: 2048
LLC ways: 16
Off-chip DRAM Size: 4096 MB Channels: 1 Width: 64-bit Data Rate: 6400 MT/s
CPU 0 runs ../SPEC2017//620.omnetpp_s-141B.champsimtrace.xz
.xz
NUM_OF_IPS_IN_CRITICAL_IP_TRAINING: 64
NUM_OF_CRITICAL_IP_TRAINING_TABLE_WAYS: 2
NUM_OF_CRITICAL_IP_TRAINING_TABLE_SETS: 32
WOBBLY_CRITICAL_IP_CACHE_SETS: 32
WOBBLY_CRITICAL_IP_CACHE_WAYS: 4
BTB has LRU replacement policy
ITLB has LRU replacement policy
DTLB has LRU replacement policy
STLB has LRU replacement policy
L1I has LRU replacement policy
L1D has LRU replacement policy
Bingo PHT WAYS: 16 and PHT_SIZE: 16384
Initialize SRRIP state for L2C
Initialize DRRIP state for LLC
Heartbeat CPU 0 instructions: 10000001 cycles: 3913610 heartbeat IPC: 2.55519 cumulative IPC: 2.55519 (Simulation time: 0 hr 7 min 4 sec) 
Heartbeat CPU 0 instructions: 20000003 cycles: 7839842 heartbeat IPC: 2.54697 cumulative IPC: 2.55107 (Simulation time: 0 hr 13 min 17 sec) 
Heartbeat CPU 0 instructions: 30000000 cycles: 11770600 heartbeat IPC: 2.54404 cumulative IPC: 2.54872 (Simulation time: 0 hr 18 min 50 sec) 
Heartbeat CPU 0 instructions: 40000001 cycles: 15690065 heartbeat IPC: 2.55137 cumulative IPC: 2.54938 (Simulation time: 0 hr 23 min 54 sec) 
Heartbeat CPU 0 instructions: 50000003 cycles: 19623311 heartbeat IPC: 2.54243 cumulative IPC: 2.54799 (Simulation time: 0 hr 28 min 14 sec) 

Warmup complete CPU 0 instructions: 50000003 cycles: 19623311 (Simulation time: 0 hr 28 min 14 sec) 

Heartbeat CPU 0 instructions: 60000001 cycles: 63927969 heartbeat IPC: 0.22571 cumulative IPC: 0.22571 (Simulation time: 0 hr 34 min 0 sec) 
Heartbeat CPU 0 instructions: 70000000 cycles: 108577621 heartbeat IPC: 0.223966 cumulative IPC: 0.224834 (Simulation time: 0 hr 39 min 31 sec) 
Heartbeat CPU 0 instructions: 80000003 cycles: 152927145 heartbeat IPC: 0.225482 cumulative IPC: 0.22505 (Simulation time: 0 hr 44 min 12 sec) 
Heartbeat CPU 0 instructions: 90000003 cycles: 197468953 heartbeat IPC: 0.224508 cumulative IPC: 0.224914 (Simulation time: 0 hr 48 min 18 sec) 
Heartbeat CPU 0 instructions: 100000003 cycles: 241589668 heartbeat IPC: 0.226651 cumulative IPC: 0.225259 (Simulation time: 0 hr 52 min 57 sec) 
Heartbeat CPU 0 instructions: 110000000 cycles: 286020055 heartbeat IPC: 0.225071 cumulative IPC: 0.225228 (Simulation time: 0 hr 58 min 48 sec) 
Heartbeat CPU 0 instructions: 120000000 cycles: 330299856 heartbeat IPC: 0.225837 cumulative IPC: 0.225315 (Simulation time: 1 hr 3 min 10 sec) 
Heartbeat CPU 0 instructions: 130000000 cycles: 374686504 heartbeat IPC: 0.225293 cumulative IPC: 0.225312 (Simulation time: 1 hr 6 min 54 sec) 
Heartbeat CPU 0 instructions: 140000000 cycles: 419014449 heartbeat IPC: 0.225591 cumulative IPC: 0.225343 (Simulation time: 1 hr 10 min 23 sec) 
Heartbeat CPU 0 instructions: 150000003 cycles: 463746258 heartbeat IPC: 0.223555 cumulative IPC: 0.225163 (Simulation time: 1 hr 13 min 1 sec) 
Finished CPU 0 instructions: 100000000 cycles: 444122947 cumulative IPC: 0.225163 (Simulation time: 1 hr 13 min 1 sec) 

ChampSim completed all CPUs

Region of Interest Statistics

CPU 0 cumulative IPC: 0.225163 instructions: 100000000 cycles: 444122947

CPU 0 Average Load ROB stall cycles: 1.07795e+08
CPU 0 Fraction of times ROB stalled by Loads: 44.6158
CPU 0 Percentage of Load stall cycles in Total stall cycles: 8.7865e+08
Issued all: 53829306
Issued LT all: 42342280
rob_not_full_when_issued_lt_all: 38590653
Issued LT one: 31511459
rob_not_full_when_issued_lt_one: 27943674
 Total stall cycles: 405916896
 Total load stall cycles: 3566587920619638
CPU 0 NUM of IPS identified critical: 0
CPU 0 Num of Load IPs stalling ROB: 2007
Threshold modification factor: 0
Max PIST entries: 64
Min PIST entries: 0
Avg PIST entries: 42.6667
Trouble in retire width: 0.96897
MaC = Marked as critical.
lt_50_percent_before_Mac: 0
gt_90_percent_before_Mac: 0
gt_75_percent_before_Mac: 0
gt_50_percent_before_Mac: 0
stall_proportion_bin_same_before_after: 0
stall_proportion_bin_lower_before_after: 0
stall_proportion_bin_upper_before_after: 0
average_stall_proportion_before: -nan
average_stall_proportion_after: -nan
Critical IP stalls, total frequency: 0
Non-critical IP stalls, total frequency: 14762001
Total Freq all stalling IPs: 14762001
stat_90_percent_critical_ip_stalls_freq: 13291585
stat_90_percent_non_critical_ip_stalls_freq: 1470416
Critical_IP_ROB_Stalls_Bucket_0: 0
Non-critical_IP_ROB_Stalls_Bucket_0: 8689714
Critical_IP_ROB_Stalls_Bucket_1: 0
Non-critical_IP_ROB_Stalls_Bucket_1: 4043347
Critical_IP_ROB_Stalls_Bucket_2: 0
Non-critical_IP_ROB_Stalls_Bucket_2: 1393390
Critical_IP_ROB_Stalls_Bucket_3: 0
Non-critical_IP_ROB_Stalls_Bucket_3: 384677
Critical_IP_ROB_Stalls_Bucket_4: 0
Non-critical_IP_ROB_Stalls_Bucket_4: 142117
Critical_IP_ROB_Stalls_Bucket_5: 0
Non-critical_IP_ROB_Stalls_Bucket_5: 46183
Critical_IP_ROB_Stalls_Bucket_6: 0
Non-critical_IP_ROB_Stalls_Bucket_6: 62573
0 => IPs accounting for >50 percent of stalls, 1 => 55, 2 => 60, 3 => 65 and so on till 90.
percent50: 50.2572 num IPs:  118
percent55: 55.1569 num IPs: 138
percent60: 60.0175 num IPs: 163
percent65: 65.1388 num IPs: 194
percent70: 70.1151 num IPs: 231
percent75: 75.0634 num IPs: 272
percent80: 80.0176 num IPs: 316
percent85: 85.0497 num IPs: 375
percent90: 90.0392 num IPs: 448
Critical_ROB_Stalls_Percent_0_Bucket_0: 4686775
Non-critical_ROB_Stalls_Percent_0_Bucket_0: 4002939
Critical_ROB_Stalls_Percent_0_Bucket_1: 2140299
Non-critical_ROB_Stalls_Percent_0_Bucket_1: 1903048
Critical_ROB_Stalls_Percent_0_Bucket_2: 470175
Non-critical_ROB_Stalls_Percent_0_Bucket_2: 923215
Critical_ROB_Stalls_Percent_0_Bucket_3: 66199
Non-critical_ROB_Stalls_Percent_0_Bucket_3: 318478
Critical_ROB_Stalls_Percent_0_Bucket_4: 24086
Non-critical_ROB_Stalls_Percent_0_Bucket_4: 118031
Critical_ROB_Stalls_Percent_0_Bucket_5: 7546
Non-critical_ROB_Stalls_Percent_0_Bucket_5: 38637
Critical_ROB_Stalls_Percent_0_Bucket_6: 23893
Non-critical_ROB_Stalls_Percent_0_Bucket_6: 38680
Critical_ROB_Stalls_Percent_1_Bucket_0: 5208269
Non-critical_ROB_Stalls_Percent_1_Bucket_0: 3481445
Critical_ROB_Stalls_Percent_1_Bucket_1: 2339750
Non-critical_ROB_Stalls_Percent_1_Bucket_1: 1703597
Critical_ROB_Stalls_Percent_1_Bucket_2: 470994
Non-critical_ROB_Stalls_Percent_1_Bucket_2: 922396
Critical_ROB_Stalls_Percent_1_Bucket_3: 67601
Non-critical_ROB_Stalls_Percent_1_Bucket_3: 317076
Critical_ROB_Stalls_Percent_1_Bucket_4: 24187
Non-critical_ROB_Stalls_Percent_1_Bucket_4: 117930
Critical_ROB_Stalls_Percent_1_Bucket_5: 7551
Non-critical_ROB_Stalls_Percent_1_Bucket_5: 38632
Critical_ROB_Stalls_Percent_1_Bucket_6: 23913
Non-critical_ROB_Stalls_Percent_1_Bucket_6: 38660
Critical_ROB_Stalls_Percent_2_Bucket_0: 5589476
Non-critical_ROB_Stalls_Percent_2_Bucket_0: 3100238
Critical_ROB_Stalls_Percent_2_Bucket_1: 2493353
Non-critical_ROB_Stalls_Percent_2_Bucket_1: 1549994
Critical_ROB_Stalls_Percent_2_Bucket_2: 625519
Non-critical_ROB_Stalls_Percent_2_Bucket_2: 767871
Critical_ROB_Stalls_Percent_2_Bucket_3: 76210
Non-critical_ROB_Stalls_Percent_2_Bucket_3: 308467
Critical_ROB_Stalls_Percent_2_Bucket_4: 43760
Non-critical_ROB_Stalls_Percent_2_Bucket_4: 98357
Critical_ROB_Stalls_Percent_2_Bucket_5: 7551
Non-critical_ROB_Stalls_Percent_2_Bucket_5: 38632
Critical_ROB_Stalls_Percent_2_Bucket_6: 23913
Non-critical_ROB_Stalls_Percent_2_Bucket_6: 38660
Critical_ROB_Stalls_Percent_3_Bucket_0: 5866471
Non-critical_ROB_Stalls_Percent_3_Bucket_0: 2823243
Critical_ROB_Stalls_Percent_3_Bucket_1: 2792494
Non-critical_ROB_Stalls_Percent_3_Bucket_1: 1250853
Critical_ROB_Stalls_Percent_3_Bucket_2: 727467
Non-critical_ROB_Stalls_Percent_3_Bucket_2: 665923
Critical_ROB_Stalls_Percent_3_Bucket_3: 142220
Non-critical_ROB_Stalls_Percent_3_Bucket_3: 242457
Critical_ROB_Stalls_Percent_3_Bucket_4: 50750
Non-critical_ROB_Stalls_Percent_3_Bucket_4: 91367
Critical_ROB_Stalls_Percent_3_Bucket_5: 10717
Non-critical_ROB_Stalls_Percent_3_Bucket_5: 35466
Critical_ROB_Stalls_Percent_3_Bucket_6: 25662
Non-critical_ROB_Stalls_Percent_3_Bucket_6: 36911
Critical_ROB_Stalls_Percent_4_Bucket_0: 6300788
Non-critical_ROB_Stalls_Percent_4_Bucket_0: 2388926
Critical_ROB_Stalls_Percent_4_Bucket_1: 2981092
Non-critical_ROB_Stalls_Percent_4_Bucket_1: 1062255
Critical_ROB_Stalls_Percent_4_Bucket_2: 773519
Non-critical_ROB_Stalls_Percent_4_Bucket_2: 619871
Critical_ROB_Stalls_Percent_4_Bucket_3: 200824
Non-critical_ROB_Stalls_Percent_4_Bucket_3: 183853
Critical_ROB_Stalls_Percent_4_Bucket_4: 53866
Non-critical_ROB_Stalls_Percent_4_Bucket_4: 88251
Critical_ROB_Stalls_Percent_4_Bucket_5: 14605
Non-critical_ROB_Stalls_Percent_4_Bucket_5: 31578
Critical_ROB_Stalls_Percent_4_Bucket_6: 25694
Non-critical_ROB_Stalls_Percent_4_Bucket_6: 36879
Critical_ROB_Stalls_Percent_5_Bucket_0: 6714085
Non-critical_ROB_Stalls_Percent_5_Bucket_0: 1975629
Critical_ROB_Stalls_Percent_5_Bucket_1: 3185299
Non-critical_ROB_Stalls_Percent_5_Bucket_1: 858048
Critical_ROB_Stalls_Percent_5_Bucket_2: 861987
Non-critical_ROB_Stalls_Percent_5_Bucket_2: 531403
Critical_ROB_Stalls_Percent_5_Bucket_3: 219519
Non-critical_ROB_Stalls_Percent_5_Bucket_3: 165158
Critical_ROB_Stalls_Percent_5_Bucket_4: 57358
Non-critical_ROB_Stalls_Percent_5_Bucket_4: 84759
Critical_ROB_Stalls_Percent_5_Bucket_5: 16914
Non-critical_ROB_Stalls_Percent_5_Bucket_5: 29269
Critical_ROB_Stalls_Percent_5_Bucket_6: 25700
Non-critical_ROB_Stalls_Percent_5_Bucket_6: 36873
Critical_ROB_Stalls_Percent_6_Bucket_0: 7030796
Non-critical_ROB_Stalls_Percent_6_Bucket_0: 1658918
Critical_ROB_Stalls_Percent_6_Bucket_1: 3445907
Non-critical_ROB_Stalls_Percent_6_Bucket_1: 597440
Critical_ROB_Stalls_Percent_6_Bucket_2: 976027
Non-critical_ROB_Stalls_Percent_6_Bucket_2: 417363
Critical_ROB_Stalls_Percent_6_Bucket_3: 230088
Non-critical_ROB_Stalls_Percent_6_Bucket_3: 154589
Critical_ROB_Stalls_Percent_6_Bucket_4: 67812
Non-critical_ROB_Stalls_Percent_6_Bucket_4: 74305
Critical_ROB_Stalls_Percent_6_Bucket_5: 27726
Non-critical_ROB_Stalls_Percent_6_Bucket_5: 18457
Critical_ROB_Stalls_Percent_6_Bucket_6: 33837
Non-critical_ROB_Stalls_Percent_6_Bucket_6: 28736
Critical_ROB_Stalls_Percent_7_Bucket_0: 7483633
Non-critical_ROB_Stalls_Percent_7_Bucket_0: 1206081
Critical_ROB_Stalls_Percent_7_Bucket_1: 3557735
Non-critical_ROB_Stalls_Percent_7_Bucket_1: 485612
Critical_ROB_Stalls_Percent_7_Bucket_2: 1059865
Non-critical_ROB_Stalls_Percent_7_Bucket_2: 333525
Critical_ROB_Stalls_Percent_7_Bucket_3: 276427
Non-critical_ROB_Stalls_Percent_7_Bucket_3: 108250
Critical_ROB_Stalls_Percent_7_Bucket_4: 88805
Non-critical_ROB_Stalls_Percent_7_Bucket_4: 53312
Critical_ROB_Stalls_Percent_7_Bucket_5: 34852
Non-critical_ROB_Stalls_Percent_7_Bucket_5: 11331
Critical_ROB_Stalls_Percent_7_Bucket_6: 53726
Non-critical_ROB_Stalls_Percent_7_Bucket_6: 8847
Critical_ROB_Stalls_Percent_8_Bucket_0: 7873994
Non-critical_ROB_Stalls_Percent_8_Bucket_0: 815720
Critical_ROB_Stalls_Percent_8_Bucket_1: 3704487
Non-critical_ROB_Stalls_Percent_8_Bucket_1: 338860
Critical_ROB_Stalls_Percent_8_Bucket_2: 1225498
Non-critical_ROB_Stalls_Percent_8_Bucket_2: 167892
Critical_ROB_Stalls_Percent_8_Bucket_3: 297510
Non-critical_ROB_Stalls_Percent_8_Bucket_3: 87167
Critical_ROB_Stalls_Percent_8_Bucket_4: 98101
Non-critical_ROB_Stalls_Percent_8_Bucket_4: 44016
Critical_ROB_Stalls_Percent_8_Bucket_5: 35697
Non-critical_ROB_Stalls_Percent_8_Bucket_5: 10486
Critical_ROB_Stalls_Percent_8_Bucket_6: 56298
Non-critical_ROB_Stalls_Percent_8_Bucket_6: 6275
Average ROB occupancy Load Stall Begin: 46.7967
Average ROB occupancy Load Stall End: 51.3269
Min ROB occupancy Load Stall Begin: 1
Max ROB occupancy Load Stall Begin: 352
Min ROB occupancy Load Stall End: 1
Max ROB occupancy Load Stall End: 352
Average ROB occupancy Critical Load Stall Begin: -nan
Average ROB occupancy Critical Load Stall End: -nan
Min ROB occupancy Critical Load Stall Begin: 400
Max ROB occupancy Critical Load Stall Begin: 0
Min ROB occupancy Critical Load Stall End: 400
Max ROB occupancy Critical Load Stall End: 0
 ROB Load Stall Begin Bucket Count 0: 9299506
 ROB Load Stall End Bucket Count 0: 8689714
 ROB Critical Load Stall Begin Bucket Count 0: 0
 ROB Critical Load Stall End Bucket Count 0: 0
 ROB Load Stall Begin Bucket Count 1: 3740383
 ROB Load Stall End Bucket Count 1: 4043347
 ROB Critical Load Stall Begin Bucket Count 1: 0
 ROB Critical Load Stall End Bucket Count 1: 0
 ROB Load Stall Begin Bucket Count 2: 1151625
 ROB Load Stall End Bucket Count 2: 1393390
 ROB Critical Load Stall Begin Bucket Count 2: 0
 ROB Critical Load Stall End Bucket Count 2: 0
 ROB Load Stall Begin Bucket Count 3: 356222
 ROB Load Stall End Bucket Count 3: 384677
 ROB Critical Load Stall Begin Bucket Count 3: 0
 ROB Critical Load Stall End Bucket Count 3: 0
 ROB Load Stall Begin Bucket Count 4: 120381
 ROB Load Stall End Bucket Count 4: 142117
 ROB Critical Load Stall Begin Bucket Count 4: 0
 ROB Critical Load Stall End Bucket Count 4: 0
 ROB Load Stall Begin Bucket Count 5: 35136
 ROB Load Stall End Bucket Count 5: 46183
 ROB Critical Load Stall Begin Bucket Count 5: 0
 ROB Critical Load Stall End Bucket Count 5: 0
 ROB Load Stall Begin Bucket Count 6: 58748
 ROB Load Stall End Bucket Count 6: 62573
 ROB Critical Load Stall Begin Bucket Count 6: 0
 ROB Critical Load Stall End Bucket Count 6: 0
PIST Tag Read Accesses: 11821350
PIST Read Accesses: 5910675
PIST Tag Write Accesses: 11821350
PIST Write Accesses: 5910675
Criticality detector called times: 14633081
Max global_stall_cycles_count: 6691406
Threshold Modified: 0 times, factor: 0
Sturdy critical IP cache stats: 
 Unused entries: 0
CIC Tag Read Accesses: 0
CIC Read Accesses: 0
CIC Tag Write Accesses: 0
CIC Write Accesses: 0
Wobbly critical IP cache stats: 
 Unused entries: 122
CIC Tag Read Accesses: 357771069
CIC Read Accesses: 0
CIC Tag Write Accesses: 6
CIC Write Accesses: 0
ITLB TOTAL     ACCESS:   16657992  HIT:   16500769  MISS:     157223  HIT %:    99.0562  MISS %:   0.943829   MPKI: 1.57223
ITLB LOAD TRANSLATION ACCESS:   16657992  HIT:   16500769  MISS:     157223  HIT %:    99.0562  MISS %:   0.943829   MPKI: 1.57223
ITLB PREFETCH  REQUESTED:          0  ISSUED:          0  USEFUL:          0  USELESS:          0
ITLB USEFUL LOAD PREFETCHES:          0 PREFETCH ISSUED TO LOWER LEVEL:          0  ACCURACY: -nan
ITLB TIMELY PREFETCHES:          0 LATE PREFETCHES: 0 DROPPED PREFETCHES: 0
ITLB PREFETCHES SAME FILL-ORIGIN LEVEL: 0 DIFFERENT FILL-ORIGIN LEVEL: 0
ITLB AVERAGE MISS LATENCY: 9.59238 cycles
ITLB RQ	ACCESS:   18727377	FORWARD:          0	MERGED:    2027802	TO_CACHE:   16699575

DTLB TOTAL     ACCESS:   38485958  HIT:   36393698  MISS:    2092260  HIT %:    94.5636  MISS %:    5.43642   MPKI: 20.9226
DTLB LOAD TRANSLATION ACCESS:   38485958  HIT:   36393698  MISS:    2092260  HIT %:    94.5636  MISS %:    5.43642   MPKI: 20.9226
DTLB PREFETCH  REQUESTED:          0  ISSUED:          0  USEFUL:          0  USELESS:          0
DTLB USEFUL LOAD PREFETCHES:          0 PREFETCH ISSUED TO LOWER LEVEL:          0  ACCURACY: -nan
DTLB TIMELY PREFETCHES:          0 LATE PREFETCHES: 0 DROPPED PREFETCHES: 0
DTLB PREFETCHES SAME FILL-ORIGIN LEVEL: 0 DIFFERENT FILL-ORIGIN LEVEL: 0
DTLB AVERAGE MISS LATENCY: 24.7852 cycles
DTLB RQ	ACCESS:   43605970	FORWARD:          0	MERGED:    5070636	TO_CACHE:   38535334

STLB TOTAL     ACCESS:    2249483  HIT:    1763324  MISS:     486159  HIT %:     78.388  MISS %:     21.612   MPKI: 4.86159
STLB LOAD TRANSLATION ACCESS:    2249483  HIT:    1763324  MISS:     486159  HIT %:     78.388  MISS %:     21.612   MPKI: 4.86159
STLB PREFETCH  REQUESTED:          0  ISSUED:          0  USEFUL:          0  USELESS:          0
STLB USEFUL LOAD PREFETCHES:          0 PREFETCH ISSUED TO LOWER LEVEL:          0  ACCURACY: -nan
STLB TIMELY PREFETCHES:          0 LATE PREFETCHES: 0 DROPPED PREFETCHES: 0
STLB PREFETCHES SAME FILL-ORIGIN LEVEL: 0 DIFFERENT FILL-ORIGIN LEVEL: 0
STLB AVERAGE MISS LATENCY: 67.9382 cycles
STLB RQ	ACCESS:    2249484	FORWARD:          0	MERGED:          0	TO_CACHE:    2249484

STLB Hit, L1D data hit: 0
STLB Hit, L2C data hit: 0
STLB Hit, LLC data hit: 0
STLB Hit, LLC data miss: 0
STLB STLB hints to L2: 0
L1D TOTAL     ACCESS:   42999237  HIT:   41146802  MISS:    1852435  HIT %:    95.6919  MISS %:    4.30806   MPKI: 18.5243
L1D LOAD      ACCESS:   25077030  HIT:   23466779  MISS:    1610251  HIT %:    93.5788  MISS %:    6.42122   MPKI: 16.1025
L1D RFO       ACCESS:   17922207  HIT:   17680023  MISS:     242184  HIT %:    98.6487  MISS %:    1.35131   MPKI: 2.42184
L1D PREFETCH  REQUESTED:          0  ISSUED:          0  USEFUL:          0  USELESS:          0
L1D USEFUL LOAD PREFETCHES:          0 PREFETCH ISSUED TO LOWER LEVEL:          0  ACCURACY: -nan
L1D TIMELY PREFETCHES:          0 LATE PREFETCHES: 0 DROPPED PREFETCHES: 0
L1D PREFETCHES SAME FILL-ORIGIN LEVEL: 0 DIFFERENT FILL-ORIGIN LEVEL: 0
L1D AVERAGE MISS LATENCY: 132.036 cycles
L1D RQ	ACCESS:   31711767	FORWARD:          0	MERGED:    5128132	TO_CACHE:   25248500
L1D WQ	ACCESS:   18562772	FORWARD:    1335135	MERGED:     205302	TO_CACHE:   18357470

L1D UNIQUE REGIONS ACCESSED: 0
L1D REGIONS CONFLICTS: 0
L1D Cross Page Prefetch Requests: 0
L1D Same Page Prefetch Requests: 0
L1D ROI Sum of L1D PQ occupancy: 0
L1D PREFETCHES PUSHED FROM L2C: 0
L1I TOTAL     ACCESS:   18708466  HIT:   18646735  MISS:      61731  HIT %:      99.67  MISS %:   0.329963   MPKI: 0.61731
L1I LOAD      ACCESS:   18708466  HIT:   18646735  MISS:      61731  HIT %:      99.67  MISS %:   0.329963   MPKI: 0.61731
L1I PREFETCH  REQUESTED:          0  ISSUED:          0  USEFUL:          0  USELESS:          0
L1I USEFUL LOAD PREFETCHES:          0 PREFETCH ISSUED TO LOWER LEVEL:          0  ACCURACY: -nan
L1I TIMELY PREFETCHES:          0 LATE PREFETCHES: 0 DROPPED PREFETCHES: 0
L1I PREFETCHES SAME FILL-ORIGIN LEVEL: 0 DIFFERENT FILL-ORIGIN LEVEL: 0
L1I AVERAGE MISS LATENCY: 22.7835 cycles
L1I RQ	ACCESS:   28291812	FORWARD:          0	MERGED:    9564435	TO_CACHE:   18727377

BTB TOTAL     ACCESS:   16448157  HIT:   15486307  MISS:     961850  HIT %:    94.1522  MISS %:    5.84777   MPKI: 9.6185
BTB BRANCH_DIRECT_JUMP	ACCESS:    1168023  HIT:    1167900  MISS:        123
BTB BRANCH_INDIRECT	ACCESS:     336927  HIT:     285546  MISS:      51381
BTB BRANCH_CONDITIONAL	ACCESS:    8865977  HIT:    8865508  MISS:        469
BTB BRANCH_DIRECT_CALL	ACCESS:    1854319  HIT:    1854075  MISS:        244
BTB BRANCH_INDIRECT_CALL	ACCESS:    1184296  HIT:    1179921  MISS:       4375
BTB BRANCH_RETURN	ACCESS:    3038615  HIT:    2133357  MISS:     905258
BTB BRANCH_OTHER ACCESS:          0  HIT:          0  MISS:          0

L2C TOTAL     ACCESS:    3574442  HIT:    1828715  MISS:    1745727  HIT %:    51.1609  MISS %:    48.8391   MPKI: 17.4573
L2C LOAD      ACCESS:    1671946  HIT:     482578  MISS:    1189368  HIT %:    28.8633  MISS %:    71.1367   MPKI: 11.8937
L2C DATA LOAD MPKI: 11.8069
L2C INSTRUCTION LOAD MPKI: 0.08677
L2C RFO       ACCESS:     242182  HIT:      61971  MISS:     180211  HIT %:    25.5886  MISS %:    74.4114   MPKI: 1.80211
L2C PREFETCH  ACCESS:      56844  HIT:        844  MISS:      56000  HIT %:    1.48477  MISS %:    98.5152   MPKI: 0.56
L2C DATA PREFETCH MPKI: 0.56
L2C INSTRUCTION PREFETCH MPKI: 0
L2C WRITEBACK ACCESS:     907578  HIT:     889363  MISS:      18215  HIT %:     97.993  MISS %:    2.00699   MPKI: 0.18215
L2C LOAD TRANSLATION ACCESS:     695892  HIT:     393959  MISS:     301933  HIT %:    56.6121  MISS %:    43.3879   MPKI: 3.01933
L2C PREFETCH  REQUESTED:      58883  ISSUED:      58883  USEFUL:       3346  USELESS:      52456
L2C USEFUL LOAD PREFETCHES:       3346 PREFETCH ISSUED TO LOWER LEVEL:      56047  ACCURACY: 5.96999
L2C TIMELY PREFETCHES:       3346 LATE PREFETCHES: 47 DROPPED PREFETCHES: 0
L2C PREFETCHES SAME FILL-ORIGIN LEVEL: 56047 DIFFERENT FILL-ORIGIN LEVEL: 0
L2C AVERAGE MISS LATENCY: 141.399 cycles
L2C RQ	ACCESS:    2610057	FORWARD:          0	MERGED:          0	TO_CACHE:    2610020
L2C WQ	ACCESS:     907578	FORWARD:         37	MERGED:          0	TO_CACHE:     907578
L2C PQ	ACCESS:      58883	FORWARD:          0	MERGED:          0	TO_CACHE:      58883

L2C Instructions Evicting Data 7116
L2C Translations Evicting Data 247776
L2C Data Evicting Data 1164671
L2C Instructions Evicting Instructions 135
L2C Translations Evicting Instructions 1398
L2C Data Evicting Instructions 7013
L2C Instructions Evicting Translations 1426
L2C Translations Evicting Translations 52759
L2C Data Evicting Translations 245218
L2C Dense regions hint from L2: 0
PSCL5 TOTAL     ACCESS:     486159  HIT:     486159  MISS:          0  HIT %:        100  MISS %:          0   MPKI: 0
PSCL5 LOAD TRANSLATION ACCESS:     486159  HIT:     486159  MISS:          0  HIT %:        100  MISS %:          0   MPKI: 0
PSCL5 PREFETCH  REQUESTED:          0  ISSUED:          0  USEFUL:          0  USELESS:          0
PSCL5 USEFUL LOAD PREFETCHES:          0 PREFETCH ISSUED TO LOWER LEVEL:          0  ACCURACY: -nan
PSCL5 TIMELY PREFETCHES:          0 LATE PREFETCHES: 0 DROPPED PREFETCHES: 0
PSCL5 PREFETCHES SAME FILL-ORIGIN LEVEL: 0 DIFFERENT FILL-ORIGIN LEVEL: 0

PSCL4 TOTAL     ACCESS:     486159  HIT:     486159  MISS:          0  HIT %:        100  MISS %:          0   MPKI: 0
PSCL4 LOAD TRANSLATION ACCESS:     486159  HIT:     486159  MISS:          0  HIT %:        100  MISS %:          0   MPKI: 0
PSCL4 PREFETCH  REQUESTED:          0  ISSUED:          0  USEFUL:          0  USELESS:          0
PSCL4 USEFUL LOAD PREFETCHES:          0 PREFETCH ISSUED TO LOWER LEVEL:          0  ACCURACY: -nan
PSCL4 TIMELY PREFETCHES:          0 LATE PREFETCHES: 0 DROPPED PREFETCHES: 0
PSCL4 PREFETCHES SAME FILL-ORIGIN LEVEL: 0 DIFFERENT FILL-ORIGIN LEVEL: 0

PSCL3 TOTAL     ACCESS:     486159  HIT:     486159  MISS:          0  HIT %:        100  MISS %:          0   MPKI: 0
PSCL3 LOAD TRANSLATION ACCESS:     486159  HIT:     486159  MISS:          0  HIT %:        100  MISS %:          0   MPKI: 0
PSCL3 PREFETCH  REQUESTED:          0  ISSUED:          0  USEFUL:          0  USELESS:          0
PSCL3 USEFUL LOAD PREFETCHES:          0 PREFETCH ISSUED TO LOWER LEVEL:          0  ACCURACY: -nan
PSCL3 TIMELY PREFETCHES:          0 LATE PREFETCHES: 0 DROPPED PREFETCHES: 0
PSCL3 PREFETCHES SAME FILL-ORIGIN LEVEL: 0 DIFFERENT FILL-ORIGIN LEVEL: 0

PSCL2 TOTAL     ACCESS:     486159  HIT:     276426  MISS:     209733  HIT %:    56.8592  MISS %:    43.1408   MPKI: 2.09733
PSCL2 LOAD TRANSLATION ACCESS:     486159  HIT:     276426  MISS:     209733  HIT %:    56.8592  MISS %:    43.1408   MPKI: 2.09733
PSCL2 PREFETCH  REQUESTED:          0  ISSUED:          0  USEFUL:          0  USELESS:          0
PSCL2 USEFUL LOAD PREFETCHES:          0 PREFETCH ISSUED TO LOWER LEVEL:          0  ACCURACY: -nan
PSCL2 TIMELY PREFETCHES:          0 LATE PREFETCHES: 0 DROPPED PREFETCHES: 0
PSCL2 PREFETCHES SAME FILL-ORIGIN LEVEL: 0 DIFFERENT FILL-ORIGIN LEVEL: 0

LLC TOTAL     ACCESS:    2370177  HIT:    1170041  MISS:    1200136  HIT %:    49.3651  MISS %:    50.6349   MPKI: 12.0014
LLC LOAD      ACCESS:    1189320  HIT:     253381  MISS:     935939  HIT %:    21.3047  MISS %:    78.6953   MPKI: 9.35939
LLC RFO       ACCESS:     180211  HIT:      52214  MISS:     127997  HIT %:    28.9738  MISS %:    71.0262   MPKI: 1.27997
LLC PREFETCH  ACCESS:      56047  HIT:        704  MISS:      55343  HIT %:    1.25609  MISS %:    98.7439   MPKI: 0.55343
LLC WRITEBACK ACCESS:     642666  HIT:     614937  MISS:      27729  HIT %:    95.6853  MISS %:    4.31468   MPKI: 0.27729
LLC LOAD TRANSLATION ACCESS:     301933  HIT:     248805  MISS:      53128  HIT %:     82.404  MISS %:     17.596   MPKI: 0.53128
LLC PREFETCH  REQUESTED:          0  ISSUED:          0  USEFUL:        383  USELESS:      53339
LLC USEFUL LOAD PREFETCHES:        383 PREFETCH ISSUED TO LOWER LEVEL:      55343  ACCURACY: 0.692048
LLC TIMELY PREFETCHES:        383 LATE PREFETCHES: 0 DROPPED PREFETCHES: 0
LLC PREFETCHES SAME FILL-ORIGIN LEVEL: 0 DIFFERENT FILL-ORIGIN LEVEL: 0
LLC AVERAGE MISS LATENCY: 162.47 cycles
LLC RQ	ACCESS:    1671465	FORWARD:          0	MERGED:          0	TO_CACHE:    1671464
LLC WQ	ACCESS:     642666	FORWARD:          1	MERGED:          0	TO_CACHE:     642666
LLC PQ	ACCESS:      56047	FORWARD:          0	MERGED:          0	TO_CACHE:      56047

LLC Dense regions hint to LLC: 0

RAW hits: 1712077
Loads Generated: 33423844
Loads sent to L1D: 31711767
Stores Generated: 18562758
Stores sent to L1D: 18562772
Major fault: 0 Minor fault: 50818
Allocated PAGES: 50818
[Bingo] PHT Access: 48561
[Bingo] PHT Hit PC+Addr: 150
[Bingo] PHT Hit PC+Offs: 31431
[Bingo] PHT Miss: 16980
[Bingo] Prefetch PC+Addr: 0
[Bingo] Prefetch PC+Offs: 0
[Bingo] Useful PC+Addr: 0
[Bingo] Useful PC+Offs: 0
[Bingo] Useless PC+Addr: 0
[Bingo] Useless PC+Offs: 0
[Bingo] L1 Prefetch per Region: 0
[Bingo] L2 Prefetch per Region: 2.86451
[Bingo] L3 Prefetch per Region: 0
[Bingo] No Prefetch per Region: 29.1355
[Bingo] Number of Voters Mean: 2.36744
[Bingo] Number of Voters SD: 1.29508
PHT read accesses: 74750
PHT write accesses: 143
AT read accesses: 288
AT write accesses: 288
FT read accesses: 19500
FT write accesses: 48561
PS read accesses: 63162
PS write accesses: 31581
PHT tag read accesses: 777401
PHT tag write accesses: 293
AT tag read accesses: 28152117
AT tag write accesses: 431
FT tag read accesses: 29566123
FT tag write accesses: 67306
PS tag read accesses: 1831261
PS tag write accesses: 94743

DRAM Statistics
 CHANNEL 0
 RQ ROW_BUFFER_HIT:      81595  ROW_BUFFER_MISS:    1090807
 DBUS_CONGESTED:        221
 WQ ROW_BUFFER_HIT:     131779  ROW_BUFFER_MISS:     369094  FULL:          0

 AVG_CONGESTED_CYCLE: 5
 All warmup complete: 2
Channel 0 Bank busy for read cycles: 0
Channel 0 Bank busy for write cycles: 0
Channel 0
Rank 0
0banks busy for read cycles: 257993810
0banks busy for write cycles: 253394
1banks busy for read cycles: 88039487
1banks busy for write cycles: 39607818
2banks busy for read cycles: 23599345
2banks busy for write cycles: 15866983
3banks busy for read cycles: 7471055
3banks busy for write cycles: 5792233
4banks busy for read cycles: 2347555
4banks busy for write cycles: 2010739
5banks busy for read cycles: 127898
5banks busy for write cycles: 691775
6banks busy for read cycles: 3291
6banks busy for write cycles: 231399
7banks busy for read cycles: 176
7banks busy for write cycles: 73876
8banks busy for read cycles: 0
8banks busy for write cycles: 12114

CPU 0 Branch Prediction Accuracy: 98.1675% MPKI: 3.84889 Average ROB Occupancy at Mispredict: 38.2527
Branch types
NOT_BRANCH: 78995608 78.9956%
BRANCH_DIRECT_JUMP: 1168023 1.16802%
BRANCH_INDIRECT: 336927 0.336927%
BRANCH_CONDITIONAL: 13421845 13.4218%
BRANCH_DIRECT_CALL: 1854319 1.85432%
BRANCH_INDIRECT_CALL: 1184296 1.1843%
BRANCH_RETURN: 3038615 3.03862%
BRANCH_OTHER: 0 0%

DRAM PAGES: 1048576
Allocated PAGES: 50818
