
*** ChampSim Multicore Out-of-Order Simulator ***

Warmup Instructions: 50000000
Simulation Instructions: 100000000
Number of CPUs: 1
LLC sets: 2048
LLC ways: 16
Off-chip DRAM Size: 4096 MB Channels: 1 Width: 64-bit Data Rate: 6400 MT/s
CPU 0 runs ../SPEC2017//620.omnetpp_s-141B.champsimtrace.xz
.xz
BTB has LRU replacement policy
ITLB has LRU replacement policy
DTLB has LRU replacement policy
STLB has LRU replacement policy
L1I has LRU replacement policy
L1D has LRU replacement policy
Bingo PHT WAYS: 16 and PHT_SIZE: 16384
Initialize SRRIP state for L2C
Initialize DRRIP state for LLC
Heartbeat CPU 0 instructions: 10000001 cycles: 3912318 heartbeat IPC: 2.55603 cumulative IPC: 2.55603 (Simulation time: 0 hr 9 min 10 sec) 
Heartbeat CPU 0 instructions: 20000003 cycles: 7837904 heartbeat IPC: 2.54739 cumulative IPC: 2.5517 (Simulation time: 0 hr 18 min 51 sec) 
Heartbeat CPU 0 instructions: 30000000 cycles: 11766934 heartbeat IPC: 2.54516 cumulative IPC: 2.54952 (Simulation time: 0 hr 27 min 34 sec) 
Heartbeat CPU 0 instructions: 40000001 cycles: 15685679 heartbeat IPC: 2.55184 cumulative IPC: 2.5501 (Simulation time: 0 hr 35 min 57 sec) 
Heartbeat CPU 0 instructions: 50000003 cycles: 19617523 heartbeat IPC: 2.54334 cumulative IPC: 2.54874 (Simulation time: 0 hr 42 min 19 sec) 

Warmup complete CPU 0 instructions: 50000003 cycles: 19617523 (Simulation time: 0 hr 42 min 19 sec) 

Heartbeat CPU 0 instructions: 60000001 cycles: 64008530 heartbeat IPC: 0.225271 cumulative IPC: 0.225271 (Simulation time: 0 hr 49 min 22 sec) 
Heartbeat CPU 0 instructions: 70000000 cycles: 108595111 heartbeat IPC: 0.224283 cumulative IPC: 0.224776 (Simulation time: 0 hr 56 min 19 sec) 
Heartbeat CPU 0 instructions: 80000003 cycles: 152746568 heartbeat IPC: 0.226493 cumulative IPC: 0.225345 (Simulation time: 1 hr 3 min 5 sec) 
Heartbeat CPU 0 instructions: 90000003 cycles: 197119778 heartbeat IPC: 0.225361 cumulative IPC: 0.225349 (Simulation time: 1 hr 9 min 11 sec) 
Heartbeat CPU 0 instructions: 100000003 cycles: 240902770 heartbeat IPC: 0.228399 cumulative IPC: 0.225953 (Simulation time: 1 hr 14 min 44 sec) 
Heartbeat CPU 0 instructions: 110000000 cycles: 285083074 heartbeat IPC: 0.226345 cumulative IPC: 0.226018 (Simulation time: 1 hr 19 min 33 sec) 
Heartbeat CPU 0 instructions: 120000000 cycles: 329119922 heartbeat IPC: 0.227083 cumulative IPC: 0.226169 (Simulation time: 1 hr 24 min 26 sec) 
Heartbeat CPU 0 instructions: 130000000 cycles: 373172414 heartbeat IPC: 0.227002 cumulative IPC: 0.226273 (Simulation time: 1 hr 28 min 15 sec) 
Heartbeat CPU 0 instructions: 140000000 cycles: 417090396 heartbeat IPC: 0.227697 cumulative IPC: 0.226431 (Simulation time: 1 hr 31 min 26 sec) 
Heartbeat CPU 0 instructions: 150000003 cycles: 461501287 heartbeat IPC: 0.22517 cumulative IPC: 0.226304 (Simulation time: 1 hr 37 min 20 sec) 
Finished CPU 0 instructions: 100000000 cycles: 441883764 cumulative IPC: 0.226304 (Simulation time: 1 hr 37 min 20 sec) 

ChampSim completed all CPUs

Region of Interest Statistics

CPU 0 cumulative IPC: 0.226304 instructions: 100000000 cycles: 441883764

CPU 0 Average Load ROB stall cycles: 1.07385e+08
CPU 0 Fraction of times ROB stalled by Loads: 44.6034
CPU 0 Percentage of Load stall cycles in Total stall cycles: 8.79998e+08
Issued all: 53884737
Issued LT all: 42397680
rob_not_full_when_issued_lt_all: 38590836
Issued LT one: 31566866
rob_not_full_when_issued_lt_one: 27943878
 Total stall cycles: 403671624
 Total load stall cycles: 3552302827954891
Unique Load IPs: 2080
CPU 0 NUM of IPS identified critical: 80
CPU 0 Num of Load IPs stalling ROB: 0
Threshold modification factor: 0
Trouble in retire width: -nan
MaC = Marked as critical.
lt_50_percent_before_Mac: 42
gt_90_percent_before_Mac: 5
gt_75_percent_before_Mac: 9
gt_50_percent_before_Mac: 19
stall_proportion_bin_same_before_after: 0
stall_proportion_bin_lower_before_after: 0
stall_proportion_bin_upper_before_after: 0
average_stall_proportion_before: 0.0326421
average_stall_proportion_after: 0.0323095
Critical_IP_Detector_Accuracy_70: 0
Critical_IP_Detector_Accuracy_80: 0
Critical_IP_Detector_Accuracy_90: 0
Critical_IP_Detector_Coverage_70: 0
Critical_IP_Detector_Coverage_80: 0
Critical_IP_Detector_Coverage_90: 0
stat_90_percent_critical_ip_stalls_freq: 449067
stat_90_percent_non_critical_ip_stalls_freq: 18446744073709102549
AVERAGE_ROB_Occupancy_90_Percent_Critical_IP_Stalls: 37.4039
AVERAGE_ROB_Occupancy_90_Percent_Non_Critical_IP_Stalls: 4.01191e-11
Critical_IP_ROB_Stalls_Bucket_0: 1043411
Non-critical_IP_ROB_Stalls_Bucket_0: 7649052
Critical_IP_ROB_Stalls_Bucket_1: 352440
Non-critical_IP_ROB_Stalls_Bucket_1: 3680282
Critical_IP_ROB_Stalls_Bucket_2: 54114
Non-critical_IP_ROB_Stalls_Bucket_2: 1340326
Critical_IP_ROB_Stalls_Bucket_3: 20457
Non-critical_IP_ROB_Stalls_Bucket_3: 364303
Critical_IP_ROB_Stalls_Bucket_4: 12811
Non-critical_IP_ROB_Stalls_Bucket_4: 128800
Critical_IP_ROB_Stalls_Bucket_5: 5207
Non-critical_IP_ROB_Stalls_Bucket_5: 41022
Critical_IP_ROB_Stalls_Bucket_6: 2424
Non-critical_IP_ROB_Stalls_Bucket_6: 60214
0 => IPs accounting for >50 percent of stalls, 1 => 55, 2 => 60, 3 => 65 and so on till 90.
percent50: inf num IPs:  1
percent55: inf num IPs: 1
percent60: inf num IPs: 1
percent65: inf num IPs: 1
percent70: inf num IPs: 1
percent75: inf num IPs: 1
percent80: inf num IPs: 1
percent85: inf num IPs: 1
percent90: inf num IPs: 1
Critical_ROB_Stalls_Percent_0_Bucket_0: 279211
Non-critical_ROB_Stalls_Percent_0_Bucket_0: 8413252
Critical_ROB_Stalls_Percent_0_Bucket_1: 154569
Non-critical_ROB_Stalls_Percent_0_Bucket_1: 3878153
Critical_ROB_Stalls_Percent_0_Bucket_2: 14125
Non-critical_ROB_Stalls_Percent_0_Bucket_2: 1380315
Critical_ROB_Stalls_Percent_0_Bucket_3: 983
Non-critical_ROB_Stalls_Percent_0_Bucket_3: 383777
Critical_ROB_Stalls_Percent_0_Bucket_4: 135
Non-critical_ROB_Stalls_Percent_0_Bucket_4: 141476
Critical_ROB_Stalls_Percent_0_Bucket_5: 31
Non-critical_ROB_Stalls_Percent_0_Bucket_5: 46198
Critical_ROB_Stalls_Percent_0_Bucket_6: 13
Non-critical_ROB_Stalls_Percent_0_Bucket_6: 62625
Critical_ROB_Stalls_Percent_1_Bucket_0: 279211
Non-critical_ROB_Stalls_Percent_1_Bucket_0: 8413252
Critical_ROB_Stalls_Percent_1_Bucket_1: 154569
Non-critical_ROB_Stalls_Percent_1_Bucket_1: 3878153
Critical_ROB_Stalls_Percent_1_Bucket_2: 14125
Non-critical_ROB_Stalls_Percent_1_Bucket_2: 1380315
Critical_ROB_Stalls_Percent_1_Bucket_3: 983
Non-critical_ROB_Stalls_Percent_1_Bucket_3: 383777
Critical_ROB_Stalls_Percent_1_Bucket_4: 135
Non-critical_ROB_Stalls_Percent_1_Bucket_4: 141476
Critical_ROB_Stalls_Percent_1_Bucket_5: 31
Non-critical_ROB_Stalls_Percent_1_Bucket_5: 46198
Critical_ROB_Stalls_Percent_1_Bucket_6: 13
Non-critical_ROB_Stalls_Percent_1_Bucket_6: 62625
Critical_ROB_Stalls_Percent_2_Bucket_0: 279211
Non-critical_ROB_Stalls_Percent_2_Bucket_0: 8413252
Critical_ROB_Stalls_Percent_2_Bucket_1: 154569
Non-critical_ROB_Stalls_Percent_2_Bucket_1: 3878153
Critical_ROB_Stalls_Percent_2_Bucket_2: 14125
Non-critical_ROB_Stalls_Percent_2_Bucket_2: 1380315
Critical_ROB_Stalls_Percent_2_Bucket_3: 983
Non-critical_ROB_Stalls_Percent_2_Bucket_3: 383777
Critical_ROB_Stalls_Percent_2_Bucket_4: 135
Non-critical_ROB_Stalls_Percent_2_Bucket_4: 141476
Critical_ROB_Stalls_Percent_2_Bucket_5: 31
Non-critical_ROB_Stalls_Percent_2_Bucket_5: 46198
Critical_ROB_Stalls_Percent_2_Bucket_6: 13
Non-critical_ROB_Stalls_Percent_2_Bucket_6: 62625
Critical_ROB_Stalls_Percent_3_Bucket_0: 279211
Non-critical_ROB_Stalls_Percent_3_Bucket_0: 8413252
Critical_ROB_Stalls_Percent_3_Bucket_1: 154569
Non-critical_ROB_Stalls_Percent_3_Bucket_1: 3878153
Critical_ROB_Stalls_Percent_3_Bucket_2: 14125
Non-critical_ROB_Stalls_Percent_3_Bucket_2: 1380315
Critical_ROB_Stalls_Percent_3_Bucket_3: 983
Non-critical_ROB_Stalls_Percent_3_Bucket_3: 383777
Critical_ROB_Stalls_Percent_3_Bucket_4: 135
Non-critical_ROB_Stalls_Percent_3_Bucket_4: 141476
Critical_ROB_Stalls_Percent_3_Bucket_5: 31
Non-critical_ROB_Stalls_Percent_3_Bucket_5: 46198
Critical_ROB_Stalls_Percent_3_Bucket_6: 13
Non-critical_ROB_Stalls_Percent_3_Bucket_6: 62625
Critical_ROB_Stalls_Percent_4_Bucket_0: 279211
Non-critical_ROB_Stalls_Percent_4_Bucket_0: 8413252
Critical_ROB_Stalls_Percent_4_Bucket_1: 154569
Non-critical_ROB_Stalls_Percent_4_Bucket_1: 3878153
Critical_ROB_Stalls_Percent_4_Bucket_2: 14125
Non-critical_ROB_Stalls_Percent_4_Bucket_2: 1380315
Critical_ROB_Stalls_Percent_4_Bucket_3: 983
Non-critical_ROB_Stalls_Percent_4_Bucket_3: 383777
Critical_ROB_Stalls_Percent_4_Bucket_4: 135
Non-critical_ROB_Stalls_Percent_4_Bucket_4: 141476
Critical_ROB_Stalls_Percent_4_Bucket_5: 31
Non-critical_ROB_Stalls_Percent_4_Bucket_5: 46198
Critical_ROB_Stalls_Percent_4_Bucket_6: 13
Non-critical_ROB_Stalls_Percent_4_Bucket_6: 62625
Critical_ROB_Stalls_Percent_5_Bucket_0: 279211
Non-critical_ROB_Stalls_Percent_5_Bucket_0: 8413252
Critical_ROB_Stalls_Percent_5_Bucket_1: 154569
Non-critical_ROB_Stalls_Percent_5_Bucket_1: 3878153
Critical_ROB_Stalls_Percent_5_Bucket_2: 14125
Non-critical_ROB_Stalls_Percent_5_Bucket_2: 1380315
Critical_ROB_Stalls_Percent_5_Bucket_3: 983
Non-critical_ROB_Stalls_Percent_5_Bucket_3: 383777
Critical_ROB_Stalls_Percent_5_Bucket_4: 135
Non-critical_ROB_Stalls_Percent_5_Bucket_4: 141476
Critical_ROB_Stalls_Percent_5_Bucket_5: 31
Non-critical_ROB_Stalls_Percent_5_Bucket_5: 46198
Critical_ROB_Stalls_Percent_5_Bucket_6: 13
Non-critical_ROB_Stalls_Percent_5_Bucket_6: 62625
Critical_ROB_Stalls_Percent_6_Bucket_0: 279211
Non-critical_ROB_Stalls_Percent_6_Bucket_0: 8413252
Critical_ROB_Stalls_Percent_6_Bucket_1: 154569
Non-critical_ROB_Stalls_Percent_6_Bucket_1: 3878153
Critical_ROB_Stalls_Percent_6_Bucket_2: 14125
Non-critical_ROB_Stalls_Percent_6_Bucket_2: 1380315
Critical_ROB_Stalls_Percent_6_Bucket_3: 983
Non-critical_ROB_Stalls_Percent_6_Bucket_3: 383777
Critical_ROB_Stalls_Percent_6_Bucket_4: 135
Non-critical_ROB_Stalls_Percent_6_Bucket_4: 141476
Critical_ROB_Stalls_Percent_6_Bucket_5: 31
Non-critical_ROB_Stalls_Percent_6_Bucket_5: 46198
Critical_ROB_Stalls_Percent_6_Bucket_6: 13
Non-critical_ROB_Stalls_Percent_6_Bucket_6: 62625
Critical_ROB_Stalls_Percent_7_Bucket_0: 279211
Non-critical_ROB_Stalls_Percent_7_Bucket_0: 8413252
Critical_ROB_Stalls_Percent_7_Bucket_1: 154569
Non-critical_ROB_Stalls_Percent_7_Bucket_1: 3878153
Critical_ROB_Stalls_Percent_7_Bucket_2: 14125
Non-critical_ROB_Stalls_Percent_7_Bucket_2: 1380315
Critical_ROB_Stalls_Percent_7_Bucket_3: 983
Non-critical_ROB_Stalls_Percent_7_Bucket_3: 383777
Critical_ROB_Stalls_Percent_7_Bucket_4: 135
Non-critical_ROB_Stalls_Percent_7_Bucket_4: 141476
Critical_ROB_Stalls_Percent_7_Bucket_5: 31
Non-critical_ROB_Stalls_Percent_7_Bucket_5: 46198
Critical_ROB_Stalls_Percent_7_Bucket_6: 13
Non-critical_ROB_Stalls_Percent_7_Bucket_6: 62625
Critical_ROB_Stalls_Percent_8_Bucket_0: 279211
Non-critical_ROB_Stalls_Percent_8_Bucket_0: 8413252
Critical_ROB_Stalls_Percent_8_Bucket_1: 154569
Non-critical_ROB_Stalls_Percent_8_Bucket_1: 3878153
Critical_ROB_Stalls_Percent_8_Bucket_2: 14125
Non-critical_ROB_Stalls_Percent_8_Bucket_2: 1380315
Critical_ROB_Stalls_Percent_8_Bucket_3: 983
Non-critical_ROB_Stalls_Percent_8_Bucket_3: 383777
Critical_ROB_Stalls_Percent_8_Bucket_4: 135
Non-critical_ROB_Stalls_Percent_8_Bucket_4: 141476
Critical_ROB_Stalls_Percent_8_Bucket_5: 31
Non-critical_ROB_Stalls_Percent_8_Bucket_5: 46198
Critical_ROB_Stalls_Percent_8_Bucket_6: 13
Non-critical_ROB_Stalls_Percent_8_Bucket_6: 62625
Average ROB occupancy Load Stall Begin: 46.7715
Average ROB occupancy Load Stall End: 51.2959
Min ROB occupancy Load Stall Begin: 1
Max ROB occupancy Load Stall Begin: 352
Min ROB occupancy Load Stall End: 1
Max ROB occupancy Load Stall End: 352
Average ROB occupancy Critical Load Stall Begin: 34.623
Average ROB occupancy Critical Load Stall End: 40.2407
Min ROB occupancy Critical Load Stall Begin: 1
Max ROB occupancy Critical Load Stall Begin: 352
Min ROB occupancy Critical Load Stall End: 1
Max ROB occupancy Critical Load Stall End: 352
 ROB Load Stall Begin Bucket Count 0: 9302248
 ROB Load Stall End Bucket Count 0: 8692463
 ROB Critical Load Stall Begin Bucket Count 0: 702606
 ROB Critical Load Stall End Bucket Count 0: 646216
 ROB Load Stall Begin Bucket Count 1: 3729546
 ROB Load Stall End Bucket Count 1: 4032722
 ROB Critical Load Stall Begin Bucket Count 1: 128281
 ROB Critical Load Stall End Bucket Count 1: 177617
 ROB Load Stall Begin Bucket Count 2: 1152879
 ROB Load Stall End Bucket Count 2: 1394440
 ROB Critical Load Stall Begin Bucket Count 2: 11274
 ROB Critical Load Stall End Bucket Count 2: 16575
 ROB Load Stall Begin Bucket Count 3: 356329
 ROB Load Stall End Bucket Count 3: 384760
 ROB Critical Load Stall Begin Bucket Count 3: 10496
 ROB Critical Load Stall End Bucket Count 3: 11781
 ROB Load Stall Begin Bucket Count 4: 119831
 ROB Load Stall End Bucket Count 4: 141611
 ROB Critical Load Stall Begin Bucket Count 4: 5460
 ROB Critical Load Stall End Bucket Count 4: 5866
 ROB Load Stall Begin Bucket Count 5: 35208
 ROB Load Stall End Bucket Count 5: 46229
 ROB Critical Load Stall Begin Bucket Count 5: 3276
 ROB Critical Load Stall End Bucket Count 5: 3332
 ROB Load Stall Begin Bucket Count 6: 58822
 ROB Load Stall End Bucket Count 6: 62638
 ROB Critical Load Stall Begin Bucket Count 6: 943
 ROB Critical Load Stall End Bucket Count 6: 963
PIST Tag Read Accesses: 0
PIST Read Accesses: 0
PIST Tag Write Accesses: 0
PIST Write Accesses: 0
Criticality detector called times: 0
Max global_stall_cycles_count: 0
Threshold Modified: 0 times, factor: 0
Sturdy critical IP cache stats: 
 Unused entries: 0
CIC Tag Read Accesses: 0
CIC Read Accesses: 0
CIC Tag Write Accesses: 0
CIC Write Accesses: 0
Wobbly critical IP cache stats: 
 Unused entries: 0
CIC Tag Read Accesses: 422969748
CIC Read Accesses: 0
CIC Tag Write Accesses: 7852499
CIC Write Accesses: 0
ITLB TOTAL     ACCESS:   16658049  HIT:   16500826  MISS:     157223  HIT %:    99.0562  MISS %:   0.943826   MPKI: 1.57223
ITLB LOAD TRANSLATION ACCESS:   16658049  HIT:   16500826  MISS:     157223  HIT %:    99.0562  MISS %:   0.943826   MPKI: 1.57223
ITLB PREFETCH  REQUESTED:          0  ISSUED:          0  USEFUL:          0  USELESS:          0
ITLB USEFUL LOAD PREFETCHES:          0 PREFETCH ISSUED TO LOWER LEVEL:          0  ACCURACY: -nan
ITLB TIMELY PREFETCHES:          0 LATE PREFETCHES: 0 DROPPED PREFETCHES: 0
ITLB PREFETCHES SAME FILL-ORIGIN LEVEL: 0 DIFFERENT FILL-ORIGIN LEVEL: 0
ITLB AVERAGE MISS LATENCY: 9.59965 cycles
ITLB RQ	ACCESS:   18727434	FORWARD:          0	MERGED:    2027803	TO_CACHE:   16699631

DTLB TOTAL     ACCESS:   38483610  HIT:   36391346  MISS:    2092264  HIT %:    94.5632  MISS %:    5.43677   MPKI: 20.9226
DTLB LOAD TRANSLATION ACCESS:   38483610  HIT:   36391346  MISS:    2092264  HIT %:    94.5632  MISS %:    5.43677   MPKI: 20.9226
DTLB PREFETCH  REQUESTED:          0  ISSUED:          0  USEFUL:          0  USELESS:          0
DTLB USEFUL LOAD PREFETCHES:          0 PREFETCH ISSUED TO LOWER LEVEL:          0  ACCURACY: -nan
DTLB TIMELY PREFETCHES:          0 LATE PREFETCHES: 0 DROPPED PREFETCHES: 0
DTLB PREFETCHES SAME FILL-ORIGIN LEVEL: 0 DIFFERENT FILL-ORIGIN LEVEL: 0
DTLB AVERAGE MISS LATENCY: 25.1275 cycles
DTLB RQ	ACCESS:   43604747	FORWARD:          0	MERGED:    5071744	TO_CACHE:   38533003

STLB TOTAL     ACCESS:    2249487  HIT:    1763325  MISS:     486162  HIT %:    78.3879  MISS %:    21.6121   MPKI: 4.86162
STLB LOAD TRANSLATION ACCESS:    2249487  HIT:    1763325  MISS:     486162  HIT %:    78.3879  MISS %:    21.6121   MPKI: 4.86162
STLB PREFETCH  REQUESTED:          0  ISSUED:          0  USEFUL:          0  USELESS:          0
STLB USEFUL LOAD PREFETCHES:          0 PREFETCH ISSUED TO LOWER LEVEL:          0  ACCURACY: -nan
STLB TIMELY PREFETCHES:          0 LATE PREFETCHES: 0 DROPPED PREFETCHES: 0
STLB PREFETCHES SAME FILL-ORIGIN LEVEL: 0 DIFFERENT FILL-ORIGIN LEVEL: 0
STLB AVERAGE MISS LATENCY: 69.4155 cycles
STLB RQ	ACCESS:    2249488	FORWARD:          0	MERGED:          0	TO_CACHE:    2249488

STLB Hit, L1D data hit: 0
STLB Hit, L2C data hit: 0
STLB Hit, LLC data hit: 0
STLB Hit, LLC data miss: 0
STLB STLB hints to L2: 0
L1D TOTAL     ACCESS:   43014839  HIT:   41162399  MISS:    1852440  HIT %:    95.6935  MISS %:    4.30651   MPKI: 18.5244
L1D LOAD      ACCESS:   25098348  HIT:   23488062  MISS:    1610286  HIT %:    93.5841  MISS %:     6.4159   MPKI: 16.1029
L1D RFO       ACCESS:   17916491  HIT:   17674337  MISS:     242154  HIT %:    98.6484  MISS %:    1.35157   MPKI: 2.42154
L1D PREFETCH  REQUESTED:          0  ISSUED:          0  USEFUL:          0  USELESS:          0
L1D USEFUL LOAD PREFETCHES:          0 PREFETCH ISSUED TO LOWER LEVEL:          0  ACCURACY: -nan
L1D TIMELY PREFETCHES:          0 LATE PREFETCHES: 0 DROPPED PREFETCHES: 0
L1D PREFETCHES SAME FILL-ORIGIN LEVEL: 0 DIFFERENT FILL-ORIGIN LEVEL: 0
L1D AVERAGE MISS LATENCY: 128.182 cycles
L1D RQ	ACCESS:   31716317	FORWARD:          0	MERGED:    5128063	TO_CACHE:   25252645
L1D WQ	ACCESS:   18562772	FORWARD:    1335609	MERGED:     210670	TO_CACHE:   18352102

L1D UNIQUE REGIONS ACCESSED: 0
L1D REGIONS CONFLICTS: 0
L1D Cross Page Prefetch Requests: 0
L1D Same Page Prefetch Requests: 0
L1D ROI Sum of L1D PQ occupancy: 0
L1D PREFETCHES PUSHED FROM L2C: 0
L1I TOTAL     ACCESS:   18708479  HIT:   18646748  MISS:      61731  HIT %:      99.67  MISS %:   0.329963   MPKI: 0.61731
L1I LOAD      ACCESS:   18708479  HIT:   18646748  MISS:      61731  HIT %:      99.67  MISS %:   0.329963   MPKI: 0.61731
L1I PREFETCH  REQUESTED:          0  ISSUED:          0  USEFUL:          0  USELESS:          0
L1I USEFUL LOAD PREFETCHES:          0 PREFETCH ISSUED TO LOWER LEVEL:          0  ACCURACY: -nan
L1I TIMELY PREFETCHES:          0 LATE PREFETCHES: 0 DROPPED PREFETCHES: 0
L1I PREFETCHES SAME FILL-ORIGIN LEVEL: 0 DIFFERENT FILL-ORIGIN LEVEL: 0
L1I AVERAGE MISS LATENCY: 23.0127 cycles
L1I RQ	ACCESS:   28291848	FORWARD:          0	MERGED:    9564414	TO_CACHE:   18727434

BTB TOTAL     ACCESS:   16448157  HIT:   15486307  MISS:     961850  HIT %:    94.1522  MISS %:    5.84777   MPKI: 9.6185
BTB BRANCH_DIRECT_JUMP	ACCESS:    1168023  HIT:    1167900  MISS:        123
BTB BRANCH_INDIRECT	ACCESS:     336927  HIT:     285546  MISS:      51381
BTB BRANCH_CONDITIONAL	ACCESS:    8865977  HIT:    8865508  MISS:        469
BTB BRANCH_DIRECT_CALL	ACCESS:    1854319  HIT:    1854075  MISS:        244
BTB BRANCH_INDIRECT_CALL	ACCESS:    1184296  HIT:    1179921  MISS:       4375
BTB BRANCH_RETURN	ACCESS:    3038615  HIT:    2133357  MISS:     905258
BTB BRANCH_OTHER ACCESS:          0  HIT:          0  MISS:          0

L2C TOTAL     ACCESS:    3704702  HIT:    1915845  MISS:    1788857  HIT %:    51.7139  MISS %:    48.2861   MPKI: 17.8886
L2C LOAD      ACCESS:    1671982  HIT:     515458  MISS:    1156524  HIT %:    30.8292  MISS %:    69.1708   MPKI: 11.5652
L2C DATA LOAD MPKI: 11.4747
L2C INSTRUCTION LOAD MPKI: 0.09053
L2C RFO       ACCESS:     242152  HIT:      62316  MISS:     179836  HIT %:    25.7342  MISS %:    74.2658   MPKI: 1.79836
L2C PREFETCH  ACCESS:     187093  HIT:      57671  MISS:     129422  HIT %:    30.8248  MISS %:    69.1752   MPKI: 1.29422
L2C DATA PREFETCH MPKI: 1.29422
L2C INSTRUCTION PREFETCH MPKI: 0
L2C WRITEBACK ACCESS:     907572  HIT:     889546  MISS:      18026  HIT %:    98.0138  MISS %:    1.98618   MPKI: 0.18026
L2C LOAD TRANSLATION ACCESS:     695903  HIT:     390854  MISS:     305049  HIT %:     56.165  MISS %:     43.835   MPKI: 3.05049
L2C PREFETCH  REQUESTED:     194207  ISSUED:     194207  USEFUL:      39293  USELESS:      91320
L2C USEFUL LOAD PREFETCHES:      39293 PREFETCH ISSUED TO LOWER LEVEL:     132228  ACCURACY: 29.7161
L2C TIMELY PREFETCHES:      39293 LATE PREFETCHES: 2806 DROPPED PREFETCHES: 0
L2C PREFETCHES SAME FILL-ORIGIN LEVEL: 132228 DIFFERENT FILL-ORIGIN LEVEL: 0
L2C AVERAGE MISS LATENCY: 139.196 cycles
L2C RQ	ACCESS:    2610073	FORWARD:          0	MERGED:          0	TO_CACHE:    2610037
L2C WQ	ACCESS:     907572	FORWARD:         37	MERGED:          0	TO_CACHE:     907572
L2C PQ	ACCESS:     194207	FORWARD:          0	MERGED:          0	TO_CACHE:     194206

L2C Instructions Evicting Data 7445
L2C Translations Evicting Data 251153
L2C Data Evicting Data 1200989
L2C Instructions Evicting Instructions 160
L2C Translations Evicting Instructions 1408
L2C Data Evicting Instructions 7340
L2C Instructions Evicting Translations 1448
L2C Translations Evicting Translations 52488
L2C Data Evicting Translations 248400
L2C Dense regions hint from L2: 0
PSCL5 TOTAL     ACCESS:     486162  HIT:     486162  MISS:          0  HIT %:        100  MISS %:          0   MPKI: 0
PSCL5 LOAD TRANSLATION ACCESS:     486162  HIT:     486162  MISS:          0  HIT %:        100  MISS %:          0   MPKI: 0
PSCL5 PREFETCH  REQUESTED:          0  ISSUED:          0  USEFUL:          0  USELESS:          0
PSCL5 USEFUL LOAD PREFETCHES:          0 PREFETCH ISSUED TO LOWER LEVEL:          0  ACCURACY: -nan
PSCL5 TIMELY PREFETCHES:          0 LATE PREFETCHES: 0 DROPPED PREFETCHES: 0
PSCL5 PREFETCHES SAME FILL-ORIGIN LEVEL: 0 DIFFERENT FILL-ORIGIN LEVEL: 0

PSCL4 TOTAL     ACCESS:     486162  HIT:     486162  MISS:          0  HIT %:        100  MISS %:          0   MPKI: 0
PSCL4 LOAD TRANSLATION ACCESS:     486162  HIT:     486162  MISS:          0  HIT %:        100  MISS %:          0   MPKI: 0
PSCL4 PREFETCH  REQUESTED:          0  ISSUED:          0  USEFUL:          0  USELESS:          0
PSCL4 USEFUL LOAD PREFETCHES:          0 PREFETCH ISSUED TO LOWER LEVEL:          0  ACCURACY: -nan
PSCL4 TIMELY PREFETCHES:          0 LATE PREFETCHES: 0 DROPPED PREFETCHES: 0
PSCL4 PREFETCHES SAME FILL-ORIGIN LEVEL: 0 DIFFERENT FILL-ORIGIN LEVEL: 0

PSCL3 TOTAL     ACCESS:     486162  HIT:     486162  MISS:          0  HIT %:        100  MISS %:          0   MPKI: 0
PSCL3 LOAD TRANSLATION ACCESS:     486162  HIT:     486162  MISS:          0  HIT %:        100  MISS %:          0   MPKI: 0
PSCL3 PREFETCH  REQUESTED:          0  ISSUED:          0  USEFUL:          0  USELESS:          0
PSCL3 USEFUL LOAD PREFETCHES:          0 PREFETCH ISSUED TO LOWER LEVEL:          0  ACCURACY: -nan
PSCL3 TIMELY PREFETCHES:          0 LATE PREFETCHES: 0 DROPPED PREFETCHES: 0
PSCL3 PREFETCHES SAME FILL-ORIGIN LEVEL: 0 DIFFERENT FILL-ORIGIN LEVEL: 0

PSCL2 TOTAL     ACCESS:     486162  HIT:     276421  MISS:     209741  HIT %:    56.8578  MISS %:    43.1422   MPKI: 2.09741
PSCL2 LOAD TRANSLATION ACCESS:     486162  HIT:     276421  MISS:     209741  HIT %:    56.8578  MISS %:    43.1422   MPKI: 2.09741
PSCL2 PREFETCH  REQUESTED:          0  ISSUED:          0  USEFUL:          0  USELESS:          0
PSCL2 USEFUL LOAD PREFETCHES:          0 PREFETCH ISSUED TO LOWER LEVEL:          0  ACCURACY: -nan
PSCL2 TIMELY PREFETCHES:          0 LATE PREFETCHES: 0 DROPPED PREFETCHES: 0
PSCL2 PREFETCHES SAME FILL-ORIGIN LEVEL: 0 DIFFERENT FILL-ORIGIN LEVEL: 0

LLC TOTAL     ACCESS:    2413195  HIT:    1211635  MISS:    1201560  HIT %:    50.2087  MISS %:    49.7913   MPKI: 12.0156
LLC LOAD      ACCESS:    1154226  HIT:     259933  MISS:     894293  HIT %:    22.5201  MISS %:    77.4799   MPKI: 8.94293
LLC RFO       ACCESS:     179327  HIT:      52731  MISS:     126596  HIT %:    29.4049  MISS %:    70.5951   MPKI: 1.26596
LLC PREFETCH  ACCESS:     132228  HIT:      34094  MISS:      98134  HIT %:    25.7843  MISS %:    74.2157   MPKI: 0.98134
LLC WRITEBACK ACCESS:     642365  HIT:     614954  MISS:      27411  HIT %:    95.7328  MISS %:     4.2672   MPKI: 0.27411
LLC LOAD TRANSLATION ACCESS:     305049  HIT:     249923  MISS:      55126  HIT %:    81.9288  MISS %:    18.0712   MPKI: 0.55126
LLC PREFETCH  REQUESTED:          0  ISSUED:          0  USEFUL:       8900  USELESS:     100132
LLC USEFUL LOAD PREFETCHES:       8900 PREFETCH ISSUED TO LOWER LEVEL:      98134  ACCURACY: 9.06923
LLC TIMELY PREFETCHES:       8900 LATE PREFETCHES: 0 DROPPED PREFETCHES: 0
LLC PREFETCHES SAME FILL-ORIGIN LEVEL: 0 DIFFERENT FILL-ORIGIN LEVEL: 0
LLC AVERAGE MISS LATENCY: 163.061 cycles
LLC RQ	ACCESS:    1638603	FORWARD:          0	MERGED:          0	TO_CACHE:    1638602
LLC WQ	ACCESS:     642365	FORWARD:          1	MERGED:          0	TO_CACHE:     642365
LLC PQ	ACCESS:     132228	FORWARD:          0	MERGED:          0	TO_CACHE:     132228

LLC Dense regions hint to LLC: 0

RAW hits: 1707527
Loads Generated: 33423844
Loads sent to L1D: 31716317
Stores Generated: 18562758
Stores sent to L1D: 18562772
Major fault: 0 Minor fault: 50818
Allocated PAGES: 50818
[Bingo] PHT Access: 119643
[Bingo] PHT Hit PC+Addr: 16202
[Bingo] PHT Hit PC+Offs: 71307
[Bingo] PHT Miss: 32134
[Bingo] Prefetch PC+Addr: 0
[Bingo] Prefetch PC+Offs: 0
[Bingo] Useful PC+Addr: 0
[Bingo] Useful PC+Offs: 0
[Bingo] Useless PC+Addr: 0
[Bingo] Useless PC+Offs: 0
[Bingo] L1 Prefetch per Region: 0
[Bingo] L2 Prefetch per Region: 3.22192
[Bingo] L3 Prefetch per Region: 0
[Bingo] No Prefetch per Region: 28.7781
[Bingo] Number of Voters Mean: 10.2262
[Bingo] Number of Voters SD: 18.5579
PHT read accesses: 1794597
PHT write accesses: 27659
AT read accesses: 125305
AT write accesses: 125214
FT read accesses: 111105
FT write accesses: 119643
PS read accesses: 175442
PS write accesses: 87509
PHT tag read accesses: 2540121
PHT tag write accesses: 43861
AT tag read accesses: 33097176
AT tag write accesses: 152873
FT tag read accesses: 34842339
FT tag write accesses: 201712
PS tag read accesses: 6493901
PS tag write accesses: 262845

DRAM Statistics
 CHANNEL 0
 RQ ROW_BUFFER_HIT:      87032  ROW_BUFFER_MISS:    1087114
 DBUS_CONGESTED:        193
 WQ ROW_BUFFER_HIT:     118632  ROW_BUFFER_MISS:     375261  FULL:          0

 AVG_CONGESTED_CYCLE: 4
 All warmup complete: 2
Channel 0 Bank busy for read cycles: 0
Channel 0 Bank busy for write cycles: 0
Channel 0
Rank 0
0banks busy for read cycles: 258815867
0banks busy for write cycles: 253527
1banks busy for read cycles: 89222740
1banks busy for write cycles: 39612337
2banks busy for read cycles: 20976522
2banks busy for write cycles: 14840701
3banks busy for read cycles: 6196786
3banks busy for write cycles: 5420435
4banks busy for read cycles: 2404593
4banks busy for write cycles: 1892823
5banks busy for read cycles: 792973
5banks busy for write cycles: 604947
6banks busy for read cycles: 418625
6banks busy for write cycles: 169585
7banks busy for read cycles: 184163
7banks busy for write cycles: 37505
8banks busy for read cycles: 33681
8banks busy for write cycles: 5955

CPU 0 Branch Prediction Accuracy: 98.1675% MPKI: 3.84889 Average ROB Occupancy at Mispredict: 38.2355
Branch types
NOT_BRANCH: 78995608 78.9956%
BRANCH_DIRECT_JUMP: 1168023 1.16802%
BRANCH_INDIRECT: 336927 0.336927%
BRANCH_CONDITIONAL: 13421845 13.4218%
BRANCH_DIRECT_CALL: 1854319 1.85432%
BRANCH_INDIRECT_CALL: 1184296 1.1843%
BRANCH_RETURN: 3038615 3.03862%
BRANCH_OTHER: 0 0%

DRAM PAGES: 1048576
Allocated PAGES: 50818
