
*** ChampSim Multicore Out-of-Order Simulator ***

Warmup Instructions: 50000000
Simulation Instructions: 100000000
Number of CPUs: 1
LLC sets: 2048
LLC ways: 16
Off-chip DRAM Size: 4096 MB Channels: 1 Width: 64-bit Data Rate: 6400 MT/s
CPU 0 runs ../SPEC2017//621.wrf_s-8065B.champsimtrace.xz
.xz
NUM_OF_IPS_IN_CRITICAL_IP_TRAINING: 64
NUM_OF_CRITICAL_IP_TRAINING_TABLE_WAYS: 2
NUM_OF_CRITICAL_IP_TRAINING_TABLE_SETS: 32
WOBBLY_CRITICAL_IP_CACHE_SETS: 32
WOBBLY_CRITICAL_IP_CACHE_WAYS: 4
BTB has LRU replacement policy
ITLB has LRU replacement policy
DTLB has LRU replacement policy
STLB has LRU replacement policy
L1I has LRU replacement policy
IP Table Entries: 64
L1D has LRU replacement policy
Initialize SRRIP state for L2C
Initialize DRRIP state for LLC
Heartbeat CPU 0 instructions: 10000002 cycles: 3039491 heartbeat IPC: 3.29003 cumulative IPC: 3.29003 (Simulation time: 0 hr 3 min 37 sec) 
Heartbeat CPU 0 instructions: 20000000 cycles: 6050313 heartbeat IPC: 3.32135 cumulative IPC: 3.30561 (Simulation time: 0 hr 6 min 7 sec) 
Heartbeat CPU 0 instructions: 30000000 cycles: 9037482 heartbeat IPC: 3.34765 cumulative IPC: 3.31951 (Simulation time: 0 hr 8 min 31 sec) 
Heartbeat CPU 0 instructions: 40000003 cycles: 12107726 heartbeat IPC: 3.25707 cumulative IPC: 3.30368 (Simulation time: 0 hr 10 min 45 sec) 
Heartbeat CPU 0 instructions: 50000003 cycles: 15110423 heartbeat IPC: 3.33034 cumulative IPC: 3.30897 (Simulation time: 0 hr 12 min 48 sec) 

Warmup complete CPU 0 instructions: 50000003 cycles: 15110423 (Simulation time: 0 hr 12 min 48 sec) 

% increase in all ip prefetch 358.514
% increase in all ip prefetch -0.00442937
Heartbeat CPU 0 instructions: 60000003 cycles: 24442854 heartbeat IPC: 1.07153 cumulative IPC: 1.07153 (Simulation time: 0 hr 15 min 18 sec) 
Heartbeat CPU 0 instructions: 70000003 cycles: 35417971 heartbeat IPC: 0.911152 cumulative IPC: 0.984855 (Simulation time: 0 hr 17 min 30 sec) 
Heartbeat CPU 0 instructions: 80000001 cycles: 45266517 heartbeat IPC: 1.01538 cumulative IPC: 0.994824 (Simulation time: 0 hr 19 min 57 sec) 
Heartbeat CPU 0 instructions: 90000000 cycles: 56012654 heartbeat IPC: 0.930567 cumulative IPC: 0.977942 (Simulation time: 0 hr 22 min 6 sec) 
Heartbeat CPU 0 instructions: 100000000 cycles: 66035143 heartbeat IPC: 0.997756 cumulative IPC: 0.981841 (Simulation time: 0 hr 24 min 30 sec) 
Heartbeat CPU 0 instructions: 110000000 cycles: 76600109 heartbeat IPC: 0.946525 cumulative IPC: 0.975773 (Simulation time: 0 hr 26 min 38 sec) 
Heartbeat CPU 0 instructions: 120000000 cycles: 90292981 heartbeat IPC: 0.730307 cumulative IPC: 0.931067 (Simulation time: 0 hr 29 min 32 sec) 
Heartbeat CPU 0 instructions: 130000002 cycles: 103918344 heartbeat IPC: 0.733926 cumulative IPC: 0.900821 (Simulation time: 0 hr 32 min 33 sec) 
Heartbeat CPU 0 instructions: 140000001 cycles: 117547896 heartbeat IPC: 0.7337 cumulative IPC: 0.878585 (Simulation time: 0 hr 35 min 13 sec) 
Heartbeat CPU 0 instructions: 150000002 cycles: 132940808 heartbeat IPC: 0.64965 cumulative IPC: 0.848678 (Simulation time: 0 hr 38 min 15 sec) 
Finished CPU 0 instructions: 100000003 cycles: 117830386 cumulative IPC: 0.848678 (Simulation time: 0 hr 38 min 15 sec) 

ChampSim completed all CPUs

Region of Interest Statistics

CPU 0 cumulative IPC: 0.848678 instructions: 100000003 cycles: 117830386

CPU 0 Average Load ROB stall cycles: 1.55266e+07
CPU 0 Fraction of times ROB stalled by Loads: 21.196
CPU 0 Percentage of Load stall cycles in Total stall cycles: 3.74343e+08
Issued all: 77964781
Issued LT all: 66637709
rob_not_full_when_issued_lt_all: 31665710
Issued LT one: 51880691
rob_not_full_when_issued_lt_one: 26880642
 Total stall cycles: 95464168
 Total load stall cycles: 357363843480646
Unique Load IPs: 3826
CPU 0 NUM of IPS identified critical: 140
CPU 0 Num of Load IPs stalling ROB: 2344
Threshold modification factor: -1
Max PIST entries: 63
Min PIST entries: 0
Avg PIST entries: 29.1933
Trouble in retire width: 0.967868
MaC = Marked as critical.
lt_50_percent_before_Mac: 131
gt_90_percent_before_Mac: 0
gt_75_percent_before_Mac: 0
gt_50_percent_before_Mac: 9
stall_proportion_bin_same_before_after: 0
stall_proportion_bin_lower_before_after: 0
stall_proportion_bin_upper_before_after: 0
average_stall_proportion_before: 0.0449214
average_stall_proportion_after: 0.058793
Critical IP stalls, total frequency: 3937397
Non-critical IP stalls, total frequency: 941128
Total Freq all stalling IPs: 4878525
Critical_IP_Detector_Accuracy_70: 0.192857
Critical_IP_Detector_Accuracy_80: 0.242857
Critical_IP_Detector_Accuracy_90: 0.414286
Critical_IP_Detector_Coverage_70: 0.870968
Critical_IP_Detector_Coverage_80: 0.73913
Critical_IP_Detector_Coverage_90: 0.734177
stat_90_percent_critical_ip_stalls_freq: 4391272
stat_90_percent_non_critical_ip_stalls_freq: 487253
AVERAGE_ROB_Occupancy_90_Percent_Critical_IP_Stalls: 166.219
AVERAGE_ROB_Occupancy_90_Percent_Non_Critical_IP_Stalls: 105.079
Critical_IP_ROB_Stalls_Bucket_0: 1590733
Non-critical_IP_ROB_Stalls_Bucket_0: 755446
Critical_IP_ROB_Stalls_Bucket_1: 296580
Non-critical_IP_ROB_Stalls_Bucket_1: 76402
Critical_IP_ROB_Stalls_Bucket_2: 83955
Non-critical_IP_ROB_Stalls_Bucket_2: 24082
Critical_IP_ROB_Stalls_Bucket_3: 86557
Non-critical_IP_ROB_Stalls_Bucket_3: 30054
Critical_IP_ROB_Stalls_Bucket_4: 67642
Non-critical_IP_ROB_Stalls_Bucket_4: 13818
Critical_IP_ROB_Stalls_Bucket_5: 68006
Non-critical_IP_ROB_Stalls_Bucket_5: 7949
Critical_IP_ROB_Stalls_Bucket_6: 1743924
Non-critical_IP_ROB_Stalls_Bucket_6: 33377
0 => IPs accounting for >50 percent of stalls, 1 => 55, 2 => 60, 3 => 65 and so on till 90.
percent50: 51.1813 num IPs:  17
percent55: 55.4933 num IPs: 19
percent60: 60.3134 num IPs: 22
percent65: 65.4196 num IPs: 26
percent70: 70.2299 num IPs: 31
percent75: 75.2589 num IPs: 38
percent80: 80.3291 num IPs: 46
percent85: 85.128 num IPs: 58
percent90: 90.0123 num IPs: 79
Critical_ROB_Stalls_Percent_0_Bucket_0: 810475
Non-critical_ROB_Stalls_Percent_0_Bucket_0: 1535704
Critical_ROB_Stalls_Percent_0_Bucket_1: 63121
Non-critical_ROB_Stalls_Percent_0_Bucket_1: 309861
Critical_ROB_Stalls_Percent_0_Bucket_2: 33017
Non-critical_ROB_Stalls_Percent_0_Bucket_2: 75020
Critical_ROB_Stalls_Percent_0_Bucket_3: 31271
Non-critical_ROB_Stalls_Percent_0_Bucket_3: 85340
Critical_ROB_Stalls_Percent_0_Bucket_4: 27078
Non-critical_ROB_Stalls_Percent_0_Bucket_4: 54382
Critical_ROB_Stalls_Percent_0_Bucket_5: 28948
Non-critical_ROB_Stalls_Percent_0_Bucket_5: 47007
Critical_ROB_Stalls_Percent_0_Bucket_6: 1502982
Non-critical_ROB_Stalls_Percent_0_Bucket_6: 274319
Critical_ROB_Stalls_Percent_1_Bucket_0: 905400
Non-critical_ROB_Stalls_Percent_1_Bucket_0: 1440779
Critical_ROB_Stalls_Percent_1_Bucket_1: 66413
Non-critical_ROB_Stalls_Percent_1_Bucket_1: 306569
Critical_ROB_Stalls_Percent_1_Bucket_2: 35287
Non-critical_ROB_Stalls_Percent_1_Bucket_2: 72750
Critical_ROB_Stalls_Percent_1_Bucket_3: 33594
Non-critical_ROB_Stalls_Percent_1_Bucket_3: 83017
Critical_ROB_Stalls_Percent_1_Bucket_4: 28752
Non-critical_ROB_Stalls_Percent_1_Bucket_4: 52708
Critical_ROB_Stalls_Percent_1_Bucket_5: 30974
Non-critical_ROB_Stalls_Percent_1_Bucket_5: 44981
Critical_ROB_Stalls_Percent_1_Bucket_6: 1606832
Non-critical_ROB_Stalls_Percent_1_Bucket_6: 170469
Critical_ROB_Stalls_Percent_2_Bucket_0: 1038229
Non-critical_ROB_Stalls_Percent_2_Bucket_0: 1307950
Critical_ROB_Stalls_Percent_2_Bucket_1: 127119
Non-critical_ROB_Stalls_Percent_2_Bucket_1: 245863
Critical_ROB_Stalls_Percent_2_Bucket_2: 44265
Non-critical_ROB_Stalls_Percent_2_Bucket_2: 63772
Critical_ROB_Stalls_Percent_2_Bucket_3: 41045
Non-critical_ROB_Stalls_Percent_2_Bucket_3: 75566
Critical_ROB_Stalls_Percent_2_Bucket_4: 35210
Non-critical_ROB_Stalls_Percent_2_Bucket_4: 46250
Critical_ROB_Stalls_Percent_2_Bucket_5: 43439
Non-critical_ROB_Stalls_Percent_2_Bucket_5: 32516
Critical_ROB_Stalls_Percent_2_Bucket_6: 1613097
Non-critical_ROB_Stalls_Percent_2_Bucket_6: 164204
Critical_ROB_Stalls_Percent_3_Bucket_0: 1201077
Non-critical_ROB_Stalls_Percent_3_Bucket_0: 1145102
Critical_ROB_Stalls_Percent_3_Bucket_1: 179099
Non-critical_ROB_Stalls_Percent_3_Bucket_1: 193883
Critical_ROB_Stalls_Percent_3_Bucket_2: 54698
Non-critical_ROB_Stalls_Percent_3_Bucket_2: 53339
Critical_ROB_Stalls_Percent_3_Bucket_3: 49285
Non-critical_ROB_Stalls_Percent_3_Bucket_3: 67326
Critical_ROB_Stalls_Percent_3_Bucket_4: 39481
Non-critical_ROB_Stalls_Percent_3_Bucket_4: 41979
Critical_ROB_Stalls_Percent_3_Bucket_5: 48371
Non-critical_ROB_Stalls_Percent_3_Bucket_5: 27584
Critical_ROB_Stalls_Percent_3_Bucket_6: 1619502
Non-critical_ROB_Stalls_Percent_3_Bucket_6: 157799
Critical_ROB_Stalls_Percent_4_Bucket_0: 1404610
Non-critical_ROB_Stalls_Percent_4_Bucket_0: 941569
Critical_ROB_Stalls_Percent_4_Bucket_1: 189957
Non-critical_ROB_Stalls_Percent_4_Bucket_1: 183025
Critical_ROB_Stalls_Percent_4_Bucket_2: 63991
Non-critical_ROB_Stalls_Percent_4_Bucket_2: 44046
Critical_ROB_Stalls_Percent_4_Bucket_3: 56570
Non-critical_ROB_Stalls_Percent_4_Bucket_3: 60041
Critical_ROB_Stalls_Percent_4_Bucket_4: 41426
Non-critical_ROB_Stalls_Percent_4_Bucket_4: 40034
Critical_ROB_Stalls_Percent_4_Bucket_5: 49072
Non-critical_ROB_Stalls_Percent_4_Bucket_5: 26883
Critical_ROB_Stalls_Percent_4_Bucket_6: 1620556
Non-critical_ROB_Stalls_Percent_4_Bucket_6: 156745
Critical_ROB_Stalls_Percent_5_Bucket_0: 1608885
Non-critical_ROB_Stalls_Percent_5_Bucket_0: 737294
Critical_ROB_Stalls_Percent_5_Bucket_1: 198418
Non-critical_ROB_Stalls_Percent_5_Bucket_1: 174564
Critical_ROB_Stalls_Percent_5_Bucket_2: 73567
Non-critical_ROB_Stalls_Percent_5_Bucket_2: 34470
Critical_ROB_Stalls_Percent_5_Bucket_3: 75082
Non-critical_ROB_Stalls_Percent_5_Bucket_3: 41529
Critical_ROB_Stalls_Percent_5_Bucket_4: 43893
Non-critical_ROB_Stalls_Percent_5_Bucket_4: 37567
Critical_ROB_Stalls_Percent_5_Bucket_5: 50076
Non-critical_ROB_Stalls_Percent_5_Bucket_5: 25879
Critical_ROB_Stalls_Percent_5_Bucket_6: 1621601
Non-critical_ROB_Stalls_Percent_5_Bucket_6: 155700
Critical_ROB_Stalls_Percent_6_Bucket_0: 1838490
Non-critical_ROB_Stalls_Percent_6_Bucket_0: 507689
Critical_ROB_Stalls_Percent_6_Bucket_1: 206760
Non-critical_ROB_Stalls_Percent_6_Bucket_1: 166222
Critical_ROB_Stalls_Percent_6_Bucket_2: 76619
Non-critical_ROB_Stalls_Percent_6_Bucket_2: 31418
Critical_ROB_Stalls_Percent_6_Bucket_3: 77809
Non-critical_ROB_Stalls_Percent_6_Bucket_3: 38802
Critical_ROB_Stalls_Percent_6_Bucket_4: 45867
Non-critical_ROB_Stalls_Percent_6_Bucket_4: 35593
Critical_ROB_Stalls_Percent_6_Bucket_5: 50908
Non-critical_ROB_Stalls_Percent_6_Bucket_5: 25047
Critical_ROB_Stalls_Percent_6_Bucket_6: 1622424
Non-critical_ROB_Stalls_Percent_6_Bucket_6: 154877
Critical_ROB_Stalls_Percent_7_Bucket_0: 2010763
Non-critical_ROB_Stalls_Percent_7_Bucket_0: 335416
Critical_ROB_Stalls_Percent_7_Bucket_1: 226517
Non-critical_ROB_Stalls_Percent_7_Bucket_1: 146465
Critical_ROB_Stalls_Percent_7_Bucket_2: 81532
Non-critical_ROB_Stalls_Percent_7_Bucket_2: 26505
Critical_ROB_Stalls_Percent_7_Bucket_3: 92065
Non-critical_ROB_Stalls_Percent_7_Bucket_3: 24546
Critical_ROB_Stalls_Percent_7_Bucket_4: 53626
Non-critical_ROB_Stalls_Percent_7_Bucket_4: 27834
Critical_ROB_Stalls_Percent_7_Bucket_5: 56259
Non-critical_ROB_Stalls_Percent_7_Bucket_5: 19696
Critical_ROB_Stalls_Percent_7_Bucket_6: 1632229
Non-critical_ROB_Stalls_Percent_7_Bucket_6: 145072
Critical_ROB_Stalls_Percent_8_Bucket_0: 2090178
Non-critical_ROB_Stalls_Percent_8_Bucket_0: 256001
Critical_ROB_Stalls_Percent_8_Bucket_1: 277678
Non-critical_ROB_Stalls_Percent_8_Bucket_1: 95304
Critical_ROB_Stalls_Percent_8_Bucket_2: 89608
Non-critical_ROB_Stalls_Percent_8_Bucket_2: 18429
Critical_ROB_Stalls_Percent_8_Bucket_3: 100075
Non-critical_ROB_Stalls_Percent_8_Bucket_3: 16536
Critical_ROB_Stalls_Percent_8_Bucket_4: 63381
Non-critical_ROB_Stalls_Percent_8_Bucket_4: 18079
Critical_ROB_Stalls_Percent_8_Bucket_5: 62880
Non-critical_ROB_Stalls_Percent_8_Bucket_5: 13075
Critical_ROB_Stalls_Percent_8_Bucket_6: 1707472
Non-critical_ROB_Stalls_Percent_8_Bucket_6: 69829
Average ROB occupancy Load Stall Begin: 151.936
Average ROB occupancy Load Stall End: 160.112
Min ROB occupancy Load Stall Begin: 1
Max ROB occupancy Load Stall Begin: 352
Min ROB occupancy Load Stall End: 1
Max ROB occupancy Load Stall End: 352
Average ROB occupancy Critical Load Stall Begin: 181.648
Average ROB occupancy Critical Load Stall End: 190.226
Min ROB occupancy Critical Load Stall Begin: 1
Max ROB occupancy Critical Load Stall Begin: 352
Min ROB occupancy Critical Load Stall End: 1
Max ROB occupancy Critical Load Stall End: 352
 ROB Load Stall Begin Bucket Count 0: 2488440
 ROB Load Stall End Bucket Count 0: 2346179
 ROB Critical Load Stall Begin Bucket Count 0: 1596007
 ROB Critical Load Stall End Bucket Count 0: 1494767
 ROB Load Stall Begin Bucket Count 1: 284638
 ROB Load Stall End Bucket Count 1: 372982
 ROB Critical Load Stall Begin Bucket Count 1: 233126
 ROB Critical Load Stall End Bucket Count 1: 289957
 ROB Load Stall Begin Bucket Count 2: 103891
 ROB Load Stall End Bucket Count 2: 108037
 ROB Critical Load Stall Begin Bucket Count 2: 79027
 ROB Critical Load Stall End Bucket Count 2: 81579
 ROB Load Stall Begin Bucket Count 3: 110683
 ROB Load Stall End Bucket Count 3: 116611
 ROB Critical Load Stall Begin Bucket Count 3: 77892
 ROB Critical Load Stall End Bucket Count 3: 83910
 ROB Load Stall Begin Bucket Count 4: 76404
 ROB Load Stall End Bucket Count 4: 81460
 ROB Critical Load Stall Begin Bucket Count 4: 63134
 ROB Critical Load Stall End Bucket Count 4: 65756
 ROB Load Stall Begin Bucket Count 5: 71964
 ROB Load Stall End Bucket Count 5: 75955
 ROB Critical Load Stall Begin Bucket Count 5: 64371
 ROB Critical Load Stall End Bucket Count 5: 66674
 ROB Load Stall Begin Bucket Count 6: 1742505
 ROB Load Stall End Bucket Count 6: 1777301
 ROB Critical Load Stall Begin Bucket Count 6: 1708503
 ROB Critical Load Stall End Bucket Count 6: 1739417
PIST Tag Read Accesses: 551480
PIST Read Accesses: 275740
PIST Tag Write Accesses: 551480
PIST Write Accesses: 275740
Criticality detector called times: 1057562
Max global_stall_cycles_count: 1708497
Threshold Modified: 1 times, factor: -1
Sturdy critical IP cache stats: 
 Unused entries: 0
CIC Tag Read Accesses: 0
CIC Read Accesses: 0
CIC Tag Write Accesses: 0
CIC Write Accesses: 0
Wobbly critical IP cache stats: 
 Unused entries: 19
CIC Tag Read Accesses: 181138637
CIC Read Accesses: 0
CIC Tag Write Accesses: 2901646
CIC Write Accesses: 0
ITLB TOTAL     ACCESS:   14858635  HIT:   14858591  MISS:         44  HIT %:    99.9997  MISS %: 0.000296124   MPKI: 0.00044
ITLB LOAD TRANSLATION ACCESS:   14858635  HIT:   14858591  MISS:         44  HIT %:    99.9997  MISS %: 0.000296124   MPKI: 0.00044
ITLB PREFETCH  REQUESTED:          0  ISSUED:          0  USEFUL:          0  USELESS:          0
ITLB USEFUL LOAD PREFETCHES:          0 PREFETCH ISSUED TO LOWER LEVEL:          0  ACCURACY: -nan
ITLB TIMELY PREFETCHES:          0 LATE PREFETCHES: 0 DROPPED PREFETCHES: 0
ITLB PREFETCHES SAME FILL-ORIGIN LEVEL: 0 DIFFERENT FILL-ORIGIN LEVEL: 0
ITLB AVERAGE MISS LATENCY: 242.591 cycles
ITLB RQ	ACCESS:   18251169	FORWARD:          0	MERGED:    3392519	TO_CACHE:   14858650

DTLB TOTAL     ACCESS:   19747511  HIT:   19703448  MISS:      44063  HIT %:    99.7769  MISS %:   0.223132   MPKI: 0.44063
DTLB LOAD TRANSLATION ACCESS:   19747511  HIT:   19703448  MISS:      44063  HIT %:    99.7769  MISS %:   0.223132   MPKI: 0.44063
DTLB PREFETCH  REQUESTED:          0  ISSUED:          0  USEFUL:          0  USELESS:          0
DTLB USEFUL LOAD PREFETCHES:          0 PREFETCH ISSUED TO LOWER LEVEL:          0  ACCURACY: -nan
DTLB TIMELY PREFETCHES:          0 LATE PREFETCHES: 0 DROPPED PREFETCHES: 0
DTLB PREFETCHES SAME FILL-ORIGIN LEVEL: 0 DIFFERENT FILL-ORIGIN LEVEL: 0
DTLB AVERAGE MISS LATENCY: 24.8578 cycles
DTLB RQ	ACCESS:   22165017	FORWARD:          0	MERGED:    2399916	TO_CACHE:   19765101

STLB TOTAL     ACCESS:     753515  HIT:     747620  MISS:       5895  HIT %:    99.2177  MISS %:   0.782333   MPKI: 0.05895
STLB LOAD TRANSLATION ACCESS:      44107  HIT:      38213  MISS:       5894  HIT %:     86.637  MISS %:     13.363   MPKI: 0.05894
STLB TRANSLATION FROM L1D PREFETCHER ACCESS:     709408  HIT:     709407  MISS:          1  HIT %:    99.9999  MISS %: 0.000140963   MPKI: 1e-05
STLB PREFETCH  REQUESTED:          0  ISSUED:          0  USEFUL:          1  USELESS:          0
STLB USEFUL LOAD PREFETCHES:          1 PREFETCH ISSUED TO LOWER LEVEL:          0  ACCURACY: inf
STLB TIMELY PREFETCHES:          1 LATE PREFETCHES: 0 DROPPED PREFETCHES: 0
STLB PREFETCHES SAME FILL-ORIGIN LEVEL: 0 DIFFERENT FILL-ORIGIN LEVEL: 0
STLB AVERAGE MISS LATENCY: 119.098 cycles
STLB RQ	ACCESS:    1730307	FORWARD:          0	MERGED:     976791	TO_CACHE:     753516

STLB Hit, L1D data hit: 0
STLB Hit, L2C data hit: 0
STLB Hit, LLC data hit: 0
STLB Hit, LLC data miss: 0
STLB STLB hints to L2: 0
L1D TOTAL     ACCESS:   23108643  HIT:   21936369  MISS:    1172274  HIT %:    94.9271  MISS %:    5.07288   MPKI: 11.7227
L1D LOAD      ACCESS:   17982701  HIT:   17712763  MISS:     269938  HIT %:    98.4989  MISS %:     1.5011   MPKI: 2.69938
L1D RFO       ACCESS:    3469617  HIT:    3248519  MISS:     221098  HIT %:    93.6276  MISS %:     6.3724   MPKI: 2.21098
L1D PREFETCH  ACCESS:    1656325  HIT:     975087  MISS:     681238  HIT %:    58.8705  MISS %:    41.1295   MPKI: 6.81238
L1D PREFETCH  REQUESTED:    3705045  ISSUED:    3372449  USEFUL:     580163  USELESS:     101051
L1D USEFUL LOAD PREFETCHES:     580163 PREFETCH ISSUED TO LOWER LEVEL:     698436  ACCURACY: 83.066
L1D TIMELY PREFETCHES:     580163 LATE PREFETCHES: 16621 DROPPED PREFETCHES: 0
L1D PREFETCHES SAME FILL-ORIGIN LEVEL: 698436 DIFFERENT FILL-ORIGIN LEVEL: 0
L1D AVERAGE MISS LATENCY: 1.16338e+06 cycles
L1D RQ	ACCESS:   25975385	FORWARD:          0	MERGED:    7869628	TO_CACHE:   18099308
L1D WQ	ACCESS:    4083148	FORWARD:       6484	MERGED:      17439	TO_CACHE:    4065709
L1D PQ	ACCESS:    1686249	FORWARD:          0	MERGED:         14	TO_CACHE:    1686200

L1D UNIQUE REGIONS ACCESSED: 0
L1D REGIONS CONFLICTS: 0
L1D Cross Page Prefetch Requests: 0
L1D Same Page Prefetch Requests: 1887360
L1D ROI Sum of L1D PQ occupancy: 49679572
L1D PREFETCHES PUSHED FROM L2C: 0
L1I TOTAL     ACCESS:   18250122  HIT:   18248046  MISS:       2076  HIT %:    99.9886  MISS %:  0.0113753   MPKI: 0.02076
L1I LOAD      ACCESS:   18250122  HIT:   18248046  MISS:       2076  HIT %:    99.9886  MISS %:  0.0113753   MPKI: 0.02076
L1I PREFETCH  REQUESTED:          0  ISSUED:          0  USEFUL:          0  USELESS:          0
L1I USEFUL LOAD PREFETCHES:          0 PREFETCH ISSUED TO LOWER LEVEL:          0  ACCURACY: -nan
L1I TIMELY PREFETCHES:          0 LATE PREFETCHES: 0 DROPPED PREFETCHES: 0
L1I PREFETCHES SAME FILL-ORIGIN LEVEL: 0 DIFFERENT FILL-ORIGIN LEVEL: 0
L1I AVERAGE MISS LATENCY: 223.875 cycles
L1I RQ	ACCESS:   28756615	FORWARD:          0	MERGED:   10505446	TO_CACHE:   18251169

BTB TOTAL     ACCESS:    4428782  HIT:    4427958  MISS:        824  HIT %:    99.9814  MISS %:  0.0186056   MPKI: 0.00824
BTB BRANCH_DIRECT_JUMP	ACCESS:     279102  HIT:     279036  MISS:         66
BTB BRANCH_INDIRECT	ACCESS:          6  HIT:          4  MISS:          2
BTB BRANCH_CONDITIONAL	ACCESS:    3632377  HIT:    3632026  MISS:        351
BTB BRANCH_DIRECT_CALL	ACCESS:     258649  HIT:     258495  MISS:        154
BTB BRANCH_INDIRECT_CALL	ACCESS:          0  HIT:          0  MISS:          0
BTB BRANCH_RETURN	ACCESS:     258648  HIT:     258397  MISS:        251
BTB BRANCH_OTHER ACCESS:          0  HIT:          0  MISS:          0

L2C TOTAL     ACCESS:    1620951  HIT:     761718  MISS:     859233  HIT %:     46.992  MISS %:     53.008   MPKI: 8.59233
L2C LOAD      ACCESS:     255391  HIT:     125654  MISS:     129737  HIT %:    49.2006  MISS %:    50.7994   MPKI: 1.29737
L2C DATA LOAD MPKI: 1.27661
L2C INSTRUCTION LOAD MPKI: 0.02076
L2C RFO       ACCESS:     220525  HIT:      27665  MISS:     192860  HIT %:    12.5451  MISS %:    87.4549   MPKI: 1.9286
L2C PREFETCH  ACCESS:     698426  HIT:     167421  MISS:     531005  HIT %:    23.9712  MISS %:    76.0288   MPKI: 5.31005
L2C DATA PREFETCH MPKI: 5.31005
L2C INSTRUCTION PREFETCH MPKI: 0
L2C WRITEBACK ACCESS:     440695  HIT:     436158  MISS:       4537  HIT %:    98.9705  MISS %:    1.02951   MPKI: 0.04537
L2C LOAD TRANSLATION ACCESS:       5913  HIT:       4820  MISS:       1093  HIT %:    81.5153  MISS %:    18.4847   MPKI: 0.01093
L2C TRANSLATION FROM L1D PREFETCHER ACCESS:          1  HIT:          0  MISS:          1  HIT %:          0  MISS %:        100   MPKI: 1e-05
L2C PREFETCH  REQUESTED:          0  ISSUED:          0  USEFUL:      39977  USELESS:     489183
L2C USEFUL LOAD PREFETCHES:      39977 PREFETCH ISSUED TO LOWER LEVEL:     531009  ACCURACY: 7.5285
L2C TIMELY PREFETCHES:      39977 LATE PREFETCHES: 0 DROPPED PREFETCHES: 0
L2C PREFETCHES SAME FILL-ORIGIN LEVEL: 0 DIFFERENT FILL-ORIGIN LEVEL: 0
L2C AVERAGE MISS LATENCY: 203.145 cycles
L2C RQ	ACCESS:     481833	FORWARD:          0	MERGED:          0	TO_CACHE:     481832
L2C WQ	ACCESS:     440698	FORWARD:          7	MERGED:          0	TO_CACHE:     440698
L2C PQ	ACCESS:     698436	FORWARD:          0	MERGED:          0	TO_CACHE:     698430

L2C Instructions Evicting Data 2072
L2C Translations Evicting Data 1094
L2C Data Evicting Data 848399
L2C Instructions Evicting Instructions 1
L2C Translations Evicting Instructions 0
L2C Data Evicting Instructions 2068
L2C Instructions Evicting Translations 3
L2C Translations Evicting Translations 0
L2C Data Evicting Translations 1059
L2C Dense regions hint from L2: 0
PSCL5 TOTAL     ACCESS:       5895  HIT:       5895  MISS:          0  HIT %:        100  MISS %:          0   MPKI: 0
PSCL5 LOAD TRANSLATION ACCESS:       5894  HIT:       5894  MISS:          0  HIT %:        100  MISS %:          0   MPKI: 0
PSCL5 TRANSLATION FROM L1D PREFETCHER ACCESS:          1  HIT:          1  MISS:          0  HIT %:        100  MISS %:          0   MPKI: 0
PSCL5 PREFETCH  REQUESTED:          0  ISSUED:          0  USEFUL:          0  USELESS:          0
PSCL5 USEFUL LOAD PREFETCHES:          0 PREFETCH ISSUED TO LOWER LEVEL:          0  ACCURACY: -nan
PSCL5 TIMELY PREFETCHES:          0 LATE PREFETCHES: 0 DROPPED PREFETCHES: 0
PSCL5 PREFETCHES SAME FILL-ORIGIN LEVEL: 0 DIFFERENT FILL-ORIGIN LEVEL: 0

PSCL4 TOTAL     ACCESS:       5895  HIT:       5895  MISS:          0  HIT %:        100  MISS %:          0   MPKI: 0
PSCL4 LOAD TRANSLATION ACCESS:       5894  HIT:       5894  MISS:          0  HIT %:        100  MISS %:          0   MPKI: 0
PSCL4 TRANSLATION FROM L1D PREFETCHER ACCESS:          1  HIT:          1  MISS:          0  HIT %:        100  MISS %:          0   MPKI: 0
PSCL4 PREFETCH  REQUESTED:          0  ISSUED:          0  USEFUL:          0  USELESS:          0
PSCL4 USEFUL LOAD PREFETCHES:          0 PREFETCH ISSUED TO LOWER LEVEL:          0  ACCURACY: -nan
PSCL4 TIMELY PREFETCHES:          0 LATE PREFETCHES: 0 DROPPED PREFETCHES: 0
PSCL4 PREFETCHES SAME FILL-ORIGIN LEVEL: 0 DIFFERENT FILL-ORIGIN LEVEL: 0

PSCL3 TOTAL     ACCESS:       5895  HIT:       5895  MISS:          0  HIT %:        100  MISS %:          0   MPKI: 0
PSCL3 LOAD TRANSLATION ACCESS:       5894  HIT:       5894  MISS:          0  HIT %:        100  MISS %:          0   MPKI: 0
PSCL3 TRANSLATION FROM L1D PREFETCHER ACCESS:          1  HIT:          1  MISS:          0  HIT %:        100  MISS %:          0   MPKI: 0
PSCL3 PREFETCH  REQUESTED:          0  ISSUED:          0  USEFUL:          0  USELESS:          0
PSCL3 USEFUL LOAD PREFETCHES:          0 PREFETCH ISSUED TO LOWER LEVEL:          0  ACCURACY: -nan
PSCL3 TIMELY PREFETCHES:          0 LATE PREFETCHES: 0 DROPPED PREFETCHES: 0
PSCL3 PREFETCHES SAME FILL-ORIGIN LEVEL: 0 DIFFERENT FILL-ORIGIN LEVEL: 0

PSCL2 TOTAL     ACCESS:       5895  HIT:       5872  MISS:         23  HIT %:    99.6098  MISS %:   0.390161   MPKI: 0.00023
PSCL2 LOAD TRANSLATION ACCESS:       5894  HIT:       5871  MISS:         23  HIT %:    99.6098  MISS %:   0.390227   MPKI: 0.00023
PSCL2 TRANSLATION FROM L1D PREFETCHER ACCESS:          1  HIT:          1  MISS:          0  HIT %:        100  MISS %:          0   MPKI: 0
PSCL2 PREFETCH  REQUESTED:          0  ISSUED:          0  USEFUL:          0  USELESS:          0
PSCL2 USEFUL LOAD PREFETCHES:          0 PREFETCH ISSUED TO LOWER LEVEL:          0  ACCURACY: -nan
PSCL2 TIMELY PREFETCHES:          0 LATE PREFETCHES: 0 DROPPED PREFETCHES: 0
PSCL2 PREFETCHES SAME FILL-ORIGIN LEVEL: 0 DIFFERENT FILL-ORIGIN LEVEL: 0

LLC TOTAL     ACCESS:    1242955  HIT:     612618  MISS:     630337  HIT %:    49.2872  MISS %:    50.7128   MPKI: 6.30337
LLC LOAD      ACCESS:     129737  HIT:      39788  MISS:      89949  HIT %:    30.6682  MISS %:    69.3318   MPKI: 0.89949
LLC RFO       ACCESS:     192859  HIT:      27165  MISS:     165694  HIT %:    14.0854  MISS %:    85.9146   MPKI: 1.65694
LLC PREFETCH  ACCESS:     531004  HIT:     197838  MISS:     333166  HIT %:    37.2573  MISS %:    62.7427   MPKI: 3.33166
LLC WRITEBACK ACCESS:     388261  HIT:     347736  MISS:      40525  HIT %:    89.5624  MISS %:    10.4376   MPKI: 0.40525
LLC LOAD TRANSLATION ACCESS:       1093  HIT:         91  MISS:       1002  HIT %:    8.32571  MISS %:    91.6743   MPKI: 0.01002
LLC TRANSLATION FROM L1D PREFETCHER ACCESS:          1  HIT:          0  MISS:          1  HIT %:          0  MISS %:        100   MPKI: 1e-05
LLC PREFETCH  REQUESTED:          0  ISSUED:          0  USEFUL:      21451  USELESS:     299477
LLC USEFUL LOAD PREFETCHES:      21451 PREFETCH ISSUED TO LOWER LEVEL:     333169  ACCURACY: 6.43847
LLC TIMELY PREFETCHES:      21451 LATE PREFETCHES: 0 DROPPED PREFETCHES: 0
LLC PREFETCHES SAME FILL-ORIGIN LEVEL: 0 DIFFERENT FILL-ORIGIN LEVEL: 0
LLC AVERAGE MISS LATENCY: 235.971 cycles
LLC RQ	ACCESS:     323693	FORWARD:          0	MERGED:          0	TO_CACHE:     323692
LLC WQ	ACCESS:     388263	FORWARD:          2	MERGED:          0	TO_CACHE:     388263
LLC PQ	ACCESS:     531009	FORWARD:          0	MERGED:          0	TO_CACHE:     531008

LLC Dense regions hint to LLC: 0

RAW hits: 84658
Loads Generated: 26060044
Loads sent to L1D: 25975385
Stores Generated: 4083148
Stores sent to L1D: 4083148
Major fault: 0 Minor fault: 6967
Allocated PAGES: 6967

stream: 
stream:times selected: 991700
stream:pref_filled: 751006
stream:pref_useful: 649774
stream:pref_late: 16056
stream:misses: 9081
stream:misses_by_poll: 0

CS: 
CS:times selected: 827205
CS:pref_filled: 15853
CS:pref_useful: 10149
CS:pref_late: 453
CS:misses: 106868
CS:misses_by_poll: 197

CPLX: 
CPLX:times selected: 164141
CPLX:pref_filled: 8747
CPLX:pref_useful: 5948
CPLX:pref_late: 192
CPLX:misses: 40495
CPLX:misses_by_poll: 23

NL_L1: 
NL:times selected: 483
NL:pref_filled: 208
NL:pref_useful: 128
NL:pref_late: 2
NL:misses: 245
NL:misses_by_poll: 0

total selections: 1983529
total_filled: 681238
total_useful: 580163
total_late: 17172
total_polluted: 220
total_misses_after_warmup: 192103
conflicts: 86437
Degree Incremented Times: 43960
Degree Decremented Times: 0

L1 IP Table Write Accesses: 10635652
L1 IP Table Read Accesses: 10549215
L1 RST Write Accesses: 938439
L1 RST Read Accesses: 1876878
L1 CSPT Write Accesses: 938439
L1 CSPT Read Accesses: 1257701
L1 RR Filter Tag Write Accesses: 2018845
L1 RR Filter Tag Read Accesses: 192835234
L1 IP Table Tag Write Accesses: 11403157
L1 IP Table Tag Read Accesses: 11403157
L1 RST Tag Write Accesses: 0
L1 RST Tag Read Accesses: 8622409
L1 RR Filter Write Accesses: 0
L1 RR Filter Read Accesses: 7939711
test: 45980

DRAM Statistics
 CHANNEL 0
 RQ ROW_BUFFER_HIT:     161049  ROW_BUFFER_MISS:     428484
 DBUS_CONGESTED:        486
 WQ ROW_BUFFER_HIT:      43238  ROW_BUFFER_MISS:     231294  FULL:          0

 AVG_CONGESTED_CYCLE: 4
 All warmup complete: 2
Channel 0 Bank busy for read cycles: 0
Channel 0 Bank busy for write cycles: 0
Channel 0
Rank 0
0banks busy for read cycles: 72831825
0banks busy for write cycles: 51909
1banks busy for read cycles: 15720060
1banks busy for write cycles: 6087317
2banks busy for read cycles: 6267879
2banks busy for write cycles: 2238658
3banks busy for read cycles: 2009254
3banks busy for write cycles: 844724
4banks busy for read cycles: 1278961
4banks busy for write cycles: 527076
5banks busy for read cycles: 1060356
5banks busy for write cycles: 343459
6banks busy for read cycles: 1082755
6banks busy for write cycles: 302751
7banks busy for read cycles: 1344369
7banks busy for write cycles: 587857
8banks busy for read cycles: 1709915
8banks busy for write cycles: 3541262

CPU 0 Branch Prediction Accuracy: 99.89% MPKI: 0.07455 Average ROB Occupancy at Mispredict: 171.108
Branch types
NOT_BRANCH: 93224491 93.2245%
BRANCH_DIRECT_JUMP: 279102 0.279102%
BRANCH_INDIRECT: 6 6e-06%
BRANCH_CONDITIONAL: 5979042 5.97904%
BRANCH_DIRECT_CALL: 258649 0.258649%
BRANCH_INDIRECT_CALL: 0 0%
BRANCH_RETURN: 258648 0.258648%
BRANCH_OTHER: 0 0%

DRAM PAGES: 1048576
Allocated PAGES: 6967
