
*** ChampSim Multicore Out-of-Order Simulator ***

Warmup Instructions: 50000000
Simulation Instructions: 100000000
Number of CPUs: 1
LLC sets: 2048
LLC ways: 16
Off-chip DRAM Size: 4096 MB Channels: 1 Width: 64-bit Data Rate: 6400 MT/s
CPU 0 runs ../SPEC2017//621.wrf_s-6673B.champsimtrace.xz
.xz
BTB has LRU replacement policy
ITLB has LRU replacement policy
DTLB has LRU replacement policy
STLB has LRU replacement policy
L1I has LRU replacement policy
IP Table Entries: 64
L1D has LRU replacement policy
Initialize SRRIP state for L2C
Initialize DRRIP state for LLC
Heartbeat CPU 0 instructions: 10000002 cycles: 3558434 heartbeat IPC: 2.81023 cumulative IPC: 2.81023 (Simulation time: 0 hr 6 min 8 sec) 
Heartbeat CPU 0 instructions: 20000003 cycles: 6463313 heartbeat IPC: 3.44248 cumulative IPC: 3.09439 (Simulation time: 0 hr 10 min 50 sec) 
Heartbeat CPU 0 instructions: 30000000 cycles: 9283079 heartbeat IPC: 3.54639 cumulative IPC: 3.23169 (Simulation time: 0 hr 14 min 56 sec) 
Heartbeat CPU 0 instructions: 40000002 cycles: 12168537 heartbeat IPC: 3.46566 cumulative IPC: 3.28717 (Simulation time: 0 hr 18 min 45 sec) 
Heartbeat CPU 0 instructions: 50000000 cycles: 15070538 heartbeat IPC: 3.4459 cumulative IPC: 3.31773 (Simulation time: 0 hr 22 min 36 sec) 

Warmup complete CPU 0 instructions: 50000004 cycles: 15070539 (Simulation time: 0 hr 22 min 36 sec) 

Heartbeat CPU 0 instructions: 60000000 cycles: 33494681 heartbeat IPC: 0.542766 cumulative IPC: 0.542766 (Simulation time: 0 hr 27 min 29 sec) 
Heartbeat CPU 0 instructions: 70000000 cycles: 54867406 heartbeat IPC: 0.467886 cumulative IPC: 0.502552 (Simulation time: 0 hr 32 min 40 sec) 
Heartbeat CPU 0 instructions: 80000000 cycles: 71846104 heartbeat IPC: 0.588973 cumulative IPC: 0.528396 (Simulation time: 0 hr 37 min 1 sec) 
Heartbeat CPU 0 instructions: 90000003 cycles: 89592770 heartbeat IPC: 0.563486 cumulative IPC: 0.536753 (Simulation time: 0 hr 42 min 10 sec) 
Heartbeat CPU 0 instructions: 100000000 cycles: 117993319 heartbeat IPC: 0.352106 cumulative IPC: 0.485801 (Simulation time: 0 hr 49 min 3 sec) 
Heartbeat CPU 0 instructions: 110000000 cycles: 127376044 heartbeat IPC: 1.06579 cumulative IPC: 0.534257 (Simulation time: 0 hr 52 min 25 sec) 
Heartbeat CPU 0 instructions: 120000003 cycles: 138996040 heartbeat IPC: 0.860586 cumulative IPC: 0.564855 (Simulation time: 0 hr 55 min 56 sec) 
Heartbeat CPU 0 instructions: 130000002 cycles: 148480423 heartbeat IPC: 1.05436 cumulative IPC: 0.599656 (Simulation time: 0 hr 58 min 49 sec) 
Heartbeat CPU 0 instructions: 140000002 cycles: 159096292 heartbeat IPC: 0.941986 cumulative IPC: 0.624888 (Simulation time: 1 hr 1 min 45 sec) 
Heartbeat CPU 0 instructions: 150000001 cycles: 169680793 heartbeat IPC: 0.944778 cumulative IPC: 0.646788 (Simulation time: 1 hr 3 min 53 sec) 
Finished CPU 0 instructions: 100000001 cycles: 154610255 cumulative IPC: 0.646788 (Simulation time: 1 hr 3 min 53 sec) 

ChampSim completed all CPUs

Region of Interest Statistics

CPU 0 cumulative IPC: 0.646788 instructions: 100000001 cycles: 154610255

CPU 0 Average Load ROB stall cycles: 2.44916e+07
CPU 0 Fraction of times ROB stalled by Loads: 25.5419
CPU 0 Percentage of Load stall cycles in Total stall cycles: 2.12286e+08
Issued all: 106156322
Issued LT all: 93392562
rob_not_full_when_issued_lt_all: 36172827
Issued LT one: 84874805
rob_not_full_when_issued_lt_one: 31540612
 Total stall cycles: 128985069
 Total load stall cycles: 273817734402858
Unique Load IPs: 7660
CPU 0 NUM of IPS identified critical: 48
CPU 0 Num of Load IPs stalling ROB: 0
Threshold modification factor: 0
Trouble in retire width: -nan
MaC = Marked as critical.
lt_50_percent_before_Mac: 17
gt_90_percent_before_Mac: 9
gt_75_percent_before_Mac: 6
gt_50_percent_before_Mac: 15
stall_proportion_bin_same_before_after: 0
stall_proportion_bin_lower_before_after: 0
stall_proportion_bin_upper_before_after: 0
average_stall_proportion_before: 0.0205972
average_stall_proportion_after: 0.0354169
Critical_IP_Detector_Accuracy_70: 0
Critical_IP_Detector_Accuracy_80: 0
Critical_IP_Detector_Accuracy_90: 0
Critical_IP_Detector_Coverage_70: 0
Critical_IP_Detector_Coverage_80: 0
Critical_IP_Detector_Coverage_90: 0
stat_90_percent_critical_ip_stalls_freq: 176352
stat_90_percent_non_critical_ip_stalls_freq: 18446744073709375264
AVERAGE_ROB_Occupancy_90_Percent_Critical_IP_Stalls: 46.0463
AVERAGE_ROB_Occupancy_90_Percent_Non_Critical_IP_Stalls: 2.53522e-11
Critical_IP_ROB_Stalls_Bucket_0: 130098
Non-critical_IP_ROB_Stalls_Bucket_0: 1046279
Critical_IP_ROB_Stalls_Bucket_1: 21794
Non-critical_IP_ROB_Stalls_Bucket_1: 194226
Critical_IP_ROB_Stalls_Bucket_2: 5367
Non-critical_IP_ROB_Stalls_Bucket_2: 80618
Critical_IP_ROB_Stalls_Bucket_3: 9137
Non-critical_IP_ROB_Stalls_Bucket_3: 113527
Critical_IP_ROB_Stalls_Bucket_4: 15533
Non-critical_IP_ROB_Stalls_Bucket_4: 151726
Critical_IP_ROB_Stalls_Bucket_5: 24566
Non-critical_IP_ROB_Stalls_Bucket_5: 223565
Critical_IP_ROB_Stalls_Bucket_6: 66923
Non-critical_IP_ROB_Stalls_Bucket_6: 772242
0 => IPs accounting for >50 percent of stalls, 1 => 55, 2 => 60, 3 => 65 and so on till 90.
percent50: inf num IPs:  1
percent55: inf num IPs: 1
percent60: inf num IPs: 1
percent65: inf num IPs: 1
percent70: inf num IPs: 1
percent75: inf num IPs: 1
percent80: inf num IPs: 1
percent85: inf num IPs: 1
percent90: inf num IPs: 1
Critical_ROB_Stalls_Percent_0_Bucket_0: 154165
Non-critical_ROB_Stalls_Percent_0_Bucket_0: 1022212
Critical_ROB_Stalls_Percent_0_Bucket_1: 20489
Non-critical_ROB_Stalls_Percent_0_Bucket_1: 195531
Critical_ROB_Stalls_Percent_0_Bucket_2: 247
Non-critical_ROB_Stalls_Percent_0_Bucket_2: 85738
Critical_ROB_Stalls_Percent_0_Bucket_3: 269
Non-critical_ROB_Stalls_Percent_0_Bucket_3: 122395
Critical_ROB_Stalls_Percent_0_Bucket_4: 444
Non-critical_ROB_Stalls_Percent_0_Bucket_4: 166815
Critical_ROB_Stalls_Percent_0_Bucket_5: 557
Non-critical_ROB_Stalls_Percent_0_Bucket_5: 247574
Critical_ROB_Stalls_Percent_0_Bucket_6: 181
Non-critical_ROB_Stalls_Percent_0_Bucket_6: 838984
Critical_ROB_Stalls_Percent_1_Bucket_0: 154165
Non-critical_ROB_Stalls_Percent_1_Bucket_0: 1022212
Critical_ROB_Stalls_Percent_1_Bucket_1: 20489
Non-critical_ROB_Stalls_Percent_1_Bucket_1: 195531
Critical_ROB_Stalls_Percent_1_Bucket_2: 247
Non-critical_ROB_Stalls_Percent_1_Bucket_2: 85738
Critical_ROB_Stalls_Percent_1_Bucket_3: 269
Non-critical_ROB_Stalls_Percent_1_Bucket_3: 122395
Critical_ROB_Stalls_Percent_1_Bucket_4: 444
Non-critical_ROB_Stalls_Percent_1_Bucket_4: 166815
Critical_ROB_Stalls_Percent_1_Bucket_5: 557
Non-critical_ROB_Stalls_Percent_1_Bucket_5: 247574
Critical_ROB_Stalls_Percent_1_Bucket_6: 181
Non-critical_ROB_Stalls_Percent_1_Bucket_6: 838984
Critical_ROB_Stalls_Percent_2_Bucket_0: 154165
Non-critical_ROB_Stalls_Percent_2_Bucket_0: 1022212
Critical_ROB_Stalls_Percent_2_Bucket_1: 20489
Non-critical_ROB_Stalls_Percent_2_Bucket_1: 195531
Critical_ROB_Stalls_Percent_2_Bucket_2: 247
Non-critical_ROB_Stalls_Percent_2_Bucket_2: 85738
Critical_ROB_Stalls_Percent_2_Bucket_3: 269
Non-critical_ROB_Stalls_Percent_2_Bucket_3: 122395
Critical_ROB_Stalls_Percent_2_Bucket_4: 444
Non-critical_ROB_Stalls_Percent_2_Bucket_4: 166815
Critical_ROB_Stalls_Percent_2_Bucket_5: 557
Non-critical_ROB_Stalls_Percent_2_Bucket_5: 247574
Critical_ROB_Stalls_Percent_2_Bucket_6: 181
Non-critical_ROB_Stalls_Percent_2_Bucket_6: 838984
Critical_ROB_Stalls_Percent_3_Bucket_0: 154165
Non-critical_ROB_Stalls_Percent_3_Bucket_0: 1022212
Critical_ROB_Stalls_Percent_3_Bucket_1: 20489
Non-critical_ROB_Stalls_Percent_3_Bucket_1: 195531
Critical_ROB_Stalls_Percent_3_Bucket_2: 247
Non-critical_ROB_Stalls_Percent_3_Bucket_2: 85738
Critical_ROB_Stalls_Percent_3_Bucket_3: 269
Non-critical_ROB_Stalls_Percent_3_Bucket_3: 122395
Critical_ROB_Stalls_Percent_3_Bucket_4: 444
Non-critical_ROB_Stalls_Percent_3_Bucket_4: 166815
Critical_ROB_Stalls_Percent_3_Bucket_5: 557
Non-critical_ROB_Stalls_Percent_3_Bucket_5: 247574
Critical_ROB_Stalls_Percent_3_Bucket_6: 181
Non-critical_ROB_Stalls_Percent_3_Bucket_6: 838984
Critical_ROB_Stalls_Percent_4_Bucket_0: 154165
Non-critical_ROB_Stalls_Percent_4_Bucket_0: 1022212
Critical_ROB_Stalls_Percent_4_Bucket_1: 20489
Non-critical_ROB_Stalls_Percent_4_Bucket_1: 195531
Critical_ROB_Stalls_Percent_4_Bucket_2: 247
Non-critical_ROB_Stalls_Percent_4_Bucket_2: 85738
Critical_ROB_Stalls_Percent_4_Bucket_3: 269
Non-critical_ROB_Stalls_Percent_4_Bucket_3: 122395
Critical_ROB_Stalls_Percent_4_Bucket_4: 444
Non-critical_ROB_Stalls_Percent_4_Bucket_4: 166815
Critical_ROB_Stalls_Percent_4_Bucket_5: 557
Non-critical_ROB_Stalls_Percent_4_Bucket_5: 247574
Critical_ROB_Stalls_Percent_4_Bucket_6: 181
Non-critical_ROB_Stalls_Percent_4_Bucket_6: 838984
Critical_ROB_Stalls_Percent_5_Bucket_0: 154165
Non-critical_ROB_Stalls_Percent_5_Bucket_0: 1022212
Critical_ROB_Stalls_Percent_5_Bucket_1: 20489
Non-critical_ROB_Stalls_Percent_5_Bucket_1: 195531
Critical_ROB_Stalls_Percent_5_Bucket_2: 247
Non-critical_ROB_Stalls_Percent_5_Bucket_2: 85738
Critical_ROB_Stalls_Percent_5_Bucket_3: 269
Non-critical_ROB_Stalls_Percent_5_Bucket_3: 122395
Critical_ROB_Stalls_Percent_5_Bucket_4: 444
Non-critical_ROB_Stalls_Percent_5_Bucket_4: 166815
Critical_ROB_Stalls_Percent_5_Bucket_5: 557
Non-critical_ROB_Stalls_Percent_5_Bucket_5: 247574
Critical_ROB_Stalls_Percent_5_Bucket_6: 181
Non-critical_ROB_Stalls_Percent_5_Bucket_6: 838984
Critical_ROB_Stalls_Percent_6_Bucket_0: 154165
Non-critical_ROB_Stalls_Percent_6_Bucket_0: 1022212
Critical_ROB_Stalls_Percent_6_Bucket_1: 20489
Non-critical_ROB_Stalls_Percent_6_Bucket_1: 195531
Critical_ROB_Stalls_Percent_6_Bucket_2: 247
Non-critical_ROB_Stalls_Percent_6_Bucket_2: 85738
Critical_ROB_Stalls_Percent_6_Bucket_3: 269
Non-critical_ROB_Stalls_Percent_6_Bucket_3: 122395
Critical_ROB_Stalls_Percent_6_Bucket_4: 444
Non-critical_ROB_Stalls_Percent_6_Bucket_4: 166815
Critical_ROB_Stalls_Percent_6_Bucket_5: 557
Non-critical_ROB_Stalls_Percent_6_Bucket_5: 247574
Critical_ROB_Stalls_Percent_6_Bucket_6: 181
Non-critical_ROB_Stalls_Percent_6_Bucket_6: 838984
Critical_ROB_Stalls_Percent_7_Bucket_0: 154165
Non-critical_ROB_Stalls_Percent_7_Bucket_0: 1022212
Critical_ROB_Stalls_Percent_7_Bucket_1: 20489
Non-critical_ROB_Stalls_Percent_7_Bucket_1: 195531
Critical_ROB_Stalls_Percent_7_Bucket_2: 247
Non-critical_ROB_Stalls_Percent_7_Bucket_2: 85738
Critical_ROB_Stalls_Percent_7_Bucket_3: 269
Non-critical_ROB_Stalls_Percent_7_Bucket_3: 122395
Critical_ROB_Stalls_Percent_7_Bucket_4: 444
Non-critical_ROB_Stalls_Percent_7_Bucket_4: 166815
Critical_ROB_Stalls_Percent_7_Bucket_5: 557
Non-critical_ROB_Stalls_Percent_7_Bucket_5: 247574
Critical_ROB_Stalls_Percent_7_Bucket_6: 181
Non-critical_ROB_Stalls_Percent_7_Bucket_6: 838984
Critical_ROB_Stalls_Percent_8_Bucket_0: 154165
Non-critical_ROB_Stalls_Percent_8_Bucket_0: 1022212
Critical_ROB_Stalls_Percent_8_Bucket_1: 20489
Non-critical_ROB_Stalls_Percent_8_Bucket_1: 195531
Critical_ROB_Stalls_Percent_8_Bucket_2: 247
Non-critical_ROB_Stalls_Percent_8_Bucket_2: 85738
Critical_ROB_Stalls_Percent_8_Bucket_3: 269
Non-critical_ROB_Stalls_Percent_8_Bucket_3: 122395
Critical_ROB_Stalls_Percent_8_Bucket_4: 444
Non-critical_ROB_Stalls_Percent_8_Bucket_4: 166815
Critical_ROB_Stalls_Percent_8_Bucket_5: 557
Non-critical_ROB_Stalls_Percent_8_Bucket_5: 247574
Critical_ROB_Stalls_Percent_8_Bucket_6: 181
Non-critical_ROB_Stalls_Percent_8_Bucket_6: 838984
Average ROB occupancy Load Stall Begin: 148.152
Average ROB occupancy Load Stall End: 166.615
Min ROB occupancy Load Stall Begin: 1
Max ROB occupancy Load Stall Begin: 352
Min ROB occupancy Load Stall End: 1
Max ROB occupancy Load Stall End: 352
Average ROB occupancy Critical Load Stall Begin: 104.77
Average ROB occupancy Critical Load Stall End: 112.618
Min ROB occupancy Critical Load Stall Begin: 1
Max ROB occupancy Critical Load Stall Begin: 352
Min ROB occupancy Critical Load Stall End: 1
Max ROB occupancy Critical Load Stall End: 352
 ROB Load Stall Begin Bucket Count 0: 1305745
 ROB Load Stall End Bucket Count 0: 1176377
 ROB Critical Load Stall Begin Bucket Count 0: 94604
 ROB Critical Load Stall End Bucket Count 0: 91650
 ROB Load Stall Begin Bucket Count 1: 163776
 ROB Load Stall End Bucket Count 1: 216020
 ROB Critical Load Stall Begin Bucket Count 1: 5854
 ROB Critical Load Stall End Bucket Count 1: 7046
 ROB Load Stall Begin Bucket Count 2: 87997
 ROB Load Stall End Bucket Count 2: 85985
 ROB Critical Load Stall Begin Bucket Count 2: 3835
 ROB Critical Load Stall End Bucket Count 2: 3950
 ROB Load Stall Begin Bucket Count 3: 153675
 ROB Load Stall End Bucket Count 3: 122664
 ROB Critical Load Stall Begin Bucket Count 3: 8610
 ROB Critical Load Stall End Bucket Count 3: 6836
 ROB Load Stall Begin Bucket Count 4: 197413
 ROB Load Stall End Bucket Count 4: 167259
 ROB Critical Load Stall Begin Bucket Count 4: 12189
 ROB Critical Load Stall End Bucket Count 4: 11573
 ROB Load Stall Begin Bucket Count 5: 334564
 ROB Load Stall End Bucket Count 5: 248131
 ROB Critical Load Stall Begin Bucket Count 5: 11936
 ROB Critical Load Stall End Bucket Count 5: 12411
 ROB Load Stall Begin Bucket Count 6: 612431
 ROB Load Stall End Bucket Count 6: 839165
 ROB Critical Load Stall Begin Bucket Count 6: 19733
 ROB Critical Load Stall End Bucket Count 6: 23299
PIST Tag Read Accesses: 0
PIST Read Accesses: 0
PIST Tag Write Accesses: 0
PIST Write Accesses: 0
Criticality detector called times: 0
Max global_stall_cycles_count: 0
Threshold Modified: 0 times, factor: 0
Sturdy critical IP cache stats: 
 Unused entries: 0
CIC Tag Read Accesses: 0
CIC Read Accesses: 0
CIC Tag Write Accesses: 0
CIC Write Accesses: 0
Wobbly critical IP cache stats: 
 Unused entries: 0
CIC Tag Read Accesses: 320697872
CIC Read Accesses: 0
CIC Tag Write Accesses: 428402
CIC Write Accesses: 0
ITLB TOTAL     ACCESS:   14676372  HIT:   14676280  MISS:         92  HIT %:    99.9994  MISS %: 0.000626858   MPKI: 0.00092
ITLB LOAD TRANSLATION ACCESS:   14676372  HIT:   14676280  MISS:         92  HIT %:    99.9994  MISS %: 0.000626858   MPKI: 0.00092
ITLB PREFETCH  REQUESTED:          0  ISSUED:          0  USEFUL:          0  USELESS:          0
ITLB USEFUL LOAD PREFETCHES:          0 PREFETCH ISSUED TO LOWER LEVEL:          0  ACCURACY: -nan
ITLB TIMELY PREFETCHES:          0 LATE PREFETCHES: 0 DROPPED PREFETCHES: 0
ITLB PREFETCHES SAME FILL-ORIGIN LEVEL: 0 DIFFERENT FILL-ORIGIN LEVEL: 0
ITLB AVERAGE MISS LATENCY: 253.12 cycles
ITLB RQ	ACCESS:   17661061	FORWARD:          0	MERGED:    2984658	TO_CACHE:   14676403

DTLB TOTAL     ACCESS:   22434867  HIT:   22292101  MISS:     142766  HIT %:    99.3636  MISS %:   0.636358   MPKI: 1.42766
DTLB LOAD TRANSLATION ACCESS:   22434867  HIT:   22292101  MISS:     142766  HIT %:    99.3636  MISS %:   0.636358   MPKI: 1.42766
DTLB PREFETCH  REQUESTED:          0  ISSUED:          0  USEFUL:          0  USELESS:          0
DTLB USEFUL LOAD PREFETCHES:          0 PREFETCH ISSUED TO LOWER LEVEL:          0  ACCURACY: -nan
DTLB TIMELY PREFETCHES:          0 LATE PREFETCHES: 0 DROPPED PREFETCHES: 0
DTLB PREFETCHES SAME FILL-ORIGIN LEVEL: 0 DIFFERENT FILL-ORIGIN LEVEL: 0
DTLB AVERAGE MISS LATENCY: 22.0274 cycles
DTLB RQ	ACCESS:   25877160	FORWARD:          0	MERGED:    3416426	TO_CACHE:   22460734

STLB TOTAL     ACCESS:     320163  HIT:     302163  MISS:      18000  HIT %:    94.3779  MISS %:    5.62214   MPKI: 0.18
STLB LOAD TRANSLATION ACCESS:     142858  HIT:     124859  MISS:      17999  HIT %:    87.4008  MISS %:    12.5992   MPKI: 0.17999
STLB TRANSLATION FROM L1D PREFETCHER ACCESS:     177305  HIT:     177304  MISS:          1  HIT %:    99.9994  MISS %:   0.000564   MPKI: 1e-05
STLB PREFETCH  REQUESTED:          0  ISSUED:          0  USEFUL:          1  USELESS:          0
STLB USEFUL LOAD PREFETCHES:          1 PREFETCH ISSUED TO LOWER LEVEL:          0  ACCURACY: inf
STLB TIMELY PREFETCHES:          1 LATE PREFETCHES: 0 DROPPED PREFETCHES: 0
STLB PREFETCHES SAME FILL-ORIGIN LEVEL: 0 DIFFERENT FILL-ORIGIN LEVEL: 0
STLB AVERAGE MISS LATENCY: 103.764 cycles
STLB RQ	ACCESS:     367476	FORWARD:          0	MERGED:      47313	TO_CACHE:     320163

STLB Hit, L1D data hit: 0
STLB Hit, L2C data hit: 0
STLB Hit, LLC data hit: 0
STLB Hit, LLC data miss: 0
STLB STLB hints to L2: 0
L1D TOTAL     ACCESS:   23928977  HIT:   21563557  MISS:    2365420  HIT %:    90.1148  MISS %:    9.88517   MPKI: 23.6542
L1D LOAD      ACCESS:   18950004  HIT:   17124032  MISS:    1825972  HIT %:    90.3643  MISS %:    9.63573   MPKI: 18.2597
L1D RFO       ACCESS:    4765006  HIT:    4401597  MISS:     363409  HIT %:    92.3734  MISS %:    7.62662   MPKI: 3.63409
L1D PREFETCH  ACCESS:     213967  HIT:      37928  MISS:     176039  HIT %:    17.7261  MISS %:    82.2739   MPKI: 1.76039
L1D PREFETCH  REQUESTED:     462957  ISSUED:     449236  USEFUL:     167185  USELESS:       8919
L1D USEFUL LOAD PREFETCHES:     167185 PREFETCH ISSUED TO LOWER LEVEL:     183265  ACCURACY: 91.2258
L1D TIMELY PREFETCHES:     167185 LATE PREFETCHES: 7226 DROPPED PREFETCHES: 0
L1D PREFETCHES SAME FILL-ORIGIN LEVEL: 183265 DIFFERENT FILL-ORIGIN LEVEL: 0
L1D AVERAGE MISS LATENCY: 249674 cycles
L1D RQ	ACCESS:   33318988	FORWARD:          0	MERGED:   13108438	TO_CACHE:   20179069
L1D WQ	ACCESS:    5714372	FORWARD:      31481	MERGED:      16281	TO_CACHE:    5698091
L1D PQ	ACCESS:     224618	FORWARD:          0	MERGED:          0	TO_CACHE:     224618

L1D UNIQUE REGIONS ACCESSED: 0
L1D REGIONS CONFLICTS: 0
L1D Cross Page Prefetch Requests: 0
L1D Same Page Prefetch Requests: 5128942
L1D ROI Sum of L1D PQ occupancy: 4296265
L1D PREFETCHES PUSHED FROM L2C: 0
L1I TOTAL     ACCESS:   17659111  HIT:   17655205  MISS:       3906  HIT %:    99.9779  MISS %:  0.0221189   MPKI: 0.03906
L1I LOAD      ACCESS:   17659111  HIT:   17655205  MISS:       3906  HIT %:    99.9779  MISS %:  0.0221189   MPKI: 0.03906
L1I PREFETCH  REQUESTED:          0  ISSUED:          0  USEFUL:          0  USELESS:          0
L1I USEFUL LOAD PREFETCHES:          0 PREFETCH ISSUED TO LOWER LEVEL:          0  ACCURACY: -nan
L1I TIMELY PREFETCHES:          0 LATE PREFETCHES: 0 DROPPED PREFETCHES: 0
L1I PREFETCHES SAME FILL-ORIGIN LEVEL: 0 DIFFERENT FILL-ORIGIN LEVEL: 0
L1I AVERAGE MISS LATENCY: 214.071 cycles
L1I RQ	ACCESS:   25828392	FORWARD:          0	MERGED:    8167331	TO_CACHE:   17661061

BTB TOTAL     ACCESS:    3967839  HIT:    3961297  MISS:       6542  HIT %:    99.8351  MISS %:   0.164876   MPKI: 0.06542
BTB BRANCH_DIRECT_JUMP	ACCESS:      17267  HIT:      17198  MISS:         69
BTB BRANCH_INDIRECT	ACCESS:          6  HIT:          4  MISS:          2
BTB BRANCH_CONDITIONAL	ACCESS:    3898594  HIT:    3897985  MISS:        609
BTB BRANCH_DIRECT_CALL	ACCESS:      25986  HIT:      25723  MISS:        263
BTB BRANCH_INDIRECT_CALL	ACCESS:          0  HIT:          0  MISS:          0
BTB BRANCH_RETURN	ACCESS:      25986  HIT:      20387  MISS:       5599
BTB BRANCH_OTHER ACCESS:          0  HIT:          0  MISS:          0

L2C TOTAL     ACCESS:    3249340  HIT:    1469920  MISS:    1779420  HIT %:    45.2375  MISS %:    54.7625   MPKI: 17.7942
L2C LOAD      ACCESS:    1822638  HIT:     479704  MISS:    1342934  HIT %:    26.3192  MISS %:    73.6808   MPKI: 13.4293
L2C DATA LOAD MPKI: 13.3903
L2C INSTRUCTION LOAD MPKI: 0.03906
L2C RFO       ACCESS:     363407  HIT:     108121  MISS:     255286  HIT %:     29.752  MISS %:     70.248   MPKI: 2.55286
L2C PREFETCH  ACCESS:     183263  HIT:      15653  MISS:     167610  HIT %:    8.54128  MISS %:    91.4587   MPKI: 1.6761
L2C DATA PREFETCH MPKI: 1.6761
L2C INSTRUCTION PREFETCH MPKI: 0
L2C WRITEBACK ACCESS:     861904  HIT:     851442  MISS:      10462  HIT %:    98.7862  MISS %:    1.21382   MPKI: 0.10462
L2C LOAD TRANSLATION ACCESS:      18127  HIT:      15000  MISS:       3127  HIT %:    82.7495  MISS %:    17.2505   MPKI: 0.03127
L2C TRANSLATION FROM L1D PREFETCHER ACCESS:          1  HIT:          0  MISS:          1  HIT %:          0  MISS %:        100   MPKI: 1e-05
L2C PREFETCH  REQUESTED:          0  ISSUED:          0  USEFUL:       6568  USELESS:     163134
L2C USEFUL LOAD PREFETCHES:       6568 PREFETCH ISSUED TO LOWER LEVEL:     167610  ACCURACY: 3.91862
L2C TIMELY PREFETCHES:       6568 LATE PREFETCHES: 0 DROPPED PREFETCHES: 0
L2C PREFETCHES SAME FILL-ORIGIN LEVEL: 0 DIFFERENT FILL-ORIGIN LEVEL: 0
L2C AVERAGE MISS LATENCY: 199.102 cycles
L2C RQ	ACCESS:    2204191	FORWARD:          0	MERGED:          0	TO_CACHE:    2204175
L2C WQ	ACCESS:     861904	FORWARD:         18	MERGED:          0	TO_CACHE:     861904
L2C PQ	ACCESS:     183265	FORWARD:          0	MERGED:          0	TO_CACHE:     183263

L2C Instructions Evicting Data 3890
L2C Translations Evicting Data 3121
L2C Data Evicting Data 1755006
L2C Instructions Evicting Instructions 5
L2C Translations Evicting Instructions 6
L2C Data Evicting Instructions 3834
L2C Instructions Evicting Translations 11
L2C Translations Evicting Translations 1
L2C Data Evicting Translations 3084
L2C Dense regions hint from L2: 0
PSCL5 TOTAL     ACCESS:      18000  HIT:      18000  MISS:          0  HIT %:        100  MISS %:          0   MPKI: 0
PSCL5 LOAD TRANSLATION ACCESS:      17999  HIT:      17999  MISS:          0  HIT %:        100  MISS %:          0   MPKI: 0
PSCL5 TRANSLATION FROM L1D PREFETCHER ACCESS:          1  HIT:          1  MISS:          0  HIT %:        100  MISS %:          0   MPKI: 0
PSCL5 PREFETCH  REQUESTED:          0  ISSUED:          0  USEFUL:          0  USELESS:          0
PSCL5 USEFUL LOAD PREFETCHES:          0 PREFETCH ISSUED TO LOWER LEVEL:          0  ACCURACY: -nan
PSCL5 TIMELY PREFETCHES:          0 LATE PREFETCHES: 0 DROPPED PREFETCHES: 0
PSCL5 PREFETCHES SAME FILL-ORIGIN LEVEL: 0 DIFFERENT FILL-ORIGIN LEVEL: 0

PSCL4 TOTAL     ACCESS:      18000  HIT:      18000  MISS:          0  HIT %:        100  MISS %:          0   MPKI: 0
PSCL4 LOAD TRANSLATION ACCESS:      17999  HIT:      17999  MISS:          0  HIT %:        100  MISS %:          0   MPKI: 0
PSCL4 TRANSLATION FROM L1D PREFETCHER ACCESS:          1  HIT:          1  MISS:          0  HIT %:        100  MISS %:          0   MPKI: 0
PSCL4 PREFETCH  REQUESTED:          0  ISSUED:          0  USEFUL:          0  USELESS:          0
PSCL4 USEFUL LOAD PREFETCHES:          0 PREFETCH ISSUED TO LOWER LEVEL:          0  ACCURACY: -nan
PSCL4 TIMELY PREFETCHES:          0 LATE PREFETCHES: 0 DROPPED PREFETCHES: 0
PSCL4 PREFETCHES SAME FILL-ORIGIN LEVEL: 0 DIFFERENT FILL-ORIGIN LEVEL: 0

PSCL3 TOTAL     ACCESS:      18000  HIT:      18000  MISS:          0  HIT %:        100  MISS %:          0   MPKI: 0
PSCL3 LOAD TRANSLATION ACCESS:      17999  HIT:      17999  MISS:          0  HIT %:        100  MISS %:          0   MPKI: 0
PSCL3 TRANSLATION FROM L1D PREFETCHER ACCESS:          1  HIT:          1  MISS:          0  HIT %:        100  MISS %:          0   MPKI: 0
PSCL3 PREFETCH  REQUESTED:          0  ISSUED:          0  USEFUL:          0  USELESS:          0
PSCL3 USEFUL LOAD PREFETCHES:          0 PREFETCH ISSUED TO LOWER LEVEL:          0  ACCURACY: -nan
PSCL3 TIMELY PREFETCHES:          0 LATE PREFETCHES: 0 DROPPED PREFETCHES: 0
PSCL3 PREFETCHES SAME FILL-ORIGIN LEVEL: 0 DIFFERENT FILL-ORIGIN LEVEL: 0

PSCL2 TOTAL     ACCESS:      18000  HIT:      17864  MISS:        136  HIT %:    99.2444  MISS %:   0.755556   MPKI: 0.00136
PSCL2 LOAD TRANSLATION ACCESS:      17999  HIT:      17863  MISS:        136  HIT %:    99.2444  MISS %:   0.755598   MPKI: 0.00136
PSCL2 TRANSLATION FROM L1D PREFETCHER ACCESS:          1  HIT:          1  MISS:          0  HIT %:        100  MISS %:          0   MPKI: 0
PSCL2 PREFETCH  REQUESTED:          0  ISSUED:          0  USEFUL:          0  USELESS:          0
PSCL2 USEFUL LOAD PREFETCHES:          0 PREFETCH ISSUED TO LOWER LEVEL:          0  ACCURACY: -nan
PSCL2 TIMELY PREFETCHES:          0 LATE PREFETCHES: 0 DROPPED PREFETCHES: 0
PSCL2 PREFETCHES SAME FILL-ORIGIN LEVEL: 0 DIFFERENT FILL-ORIGIN LEVEL: 0

LLC TOTAL     ACCESS:    2436111  HIT:     655358  MISS:    1780753  HIT %:    26.9018  MISS %:    73.0982   MPKI: 17.8075
LLC LOAD      ACCESS:    1342934  HIT:     286616  MISS:    1056318  HIT %:    21.3425  MISS %:    78.6575   MPKI: 10.5632
LLC RFO       ACCESS:     255286  HIT:      56592  MISS:     198694  HIT %:    22.1681  MISS %:    77.8319   MPKI: 1.98694
LLC PREFETCH  ACCESS:     167610  HIT:      52524  MISS:     115086  HIT %:     31.337  MISS %:     68.663   MPKI: 1.15086
LLC WRITEBACK ACCESS:     667153  HIT:     259587  MISS:     407566  HIT %:    38.9097  MISS %:    61.0903   MPKI: 4.07566
LLC LOAD TRANSLATION ACCESS:       3127  HIT:         39  MISS:       3088  HIT %:     1.2472  MISS %:    98.7528   MPKI: 0.03088
LLC TRANSLATION FROM L1D PREFETCHER ACCESS:          1  HIT:          0  MISS:          1  HIT %:          0  MISS %:        100   MPKI: 1e-05
LLC PREFETCH  REQUESTED:          0  ISSUED:          0  USEFUL:       1693  USELESS:     119159
LLC USEFUL LOAD PREFETCHES:       1693 PREFETCH ISSUED TO LOWER LEVEL:     115086  ACCURACY: 1.47107
LLC TIMELY PREFETCHES:       1693 LATE PREFETCHES: 0 DROPPED PREFETCHES: 0
LLC PREFETCHES SAME FILL-ORIGIN LEVEL: 0 DIFFERENT FILL-ORIGIN LEVEL: 0
LLC AVERAGE MISS LATENCY: 168.98 cycles
LLC RQ	ACCESS:    1601349	FORWARD:          0	MERGED:          0	TO_CACHE:    1601349
LLC WQ	ACCESS:     667153	FORWARD:          0	MERGED:          0	TO_CACHE:     667153
LLC PQ	ACCESS:     167610	FORWARD:          0	MERGED:          0	TO_CACHE:     167610

LLC Dense regions hint to LLC: 0

RAW hits: 278152
Loads Generated: 33597148
Loads sent to L1D: 33318988
Stores Generated: 5714367
Stores sent to L1D: 5714372
Major fault: 0 Minor fault: 9197
Allocated PAGES: 9197

stream: 
stream:times selected: 2057442
stream:pref_filled: 1049553
stream:pref_useful: 944371
stream:pref_late: 11435
stream:misses: 4349
stream:misses_by_poll: 0

CS: 
CS:times selected: 1772653
CS:pref_filled: 41182
CS:pref_useful: 38300
CS:pref_late: 137
CS:misses: 26024
CS:misses_by_poll: 56

CPLX: 
CPLX:times selected: 284560
CPLX:pref_filled: 21619
CPLX:pref_useful: 17200
CPLX:pref_late: 874
CPLX:misses: 20179
CPLX:misses_by_poll: 5

NL_L1: 
NL:times selected: 114
NL:pref_filled: 53
NL:pref_useful: 24
NL:pref_late: 3
NL:misses: 49
NL:misses_by_poll: 0

total selections: 4114769
total_filled: 176039
total_useful: 167185
total_late: 12688
total_polluted: 61
total_misses_after_warmup: 11287
conflicts: 59
Degree Incremented Times: 89814
Degree Decremented Times: 0

L1 IP Table Write Accesses: 1244754
L1 IP Table Read Accesses: 1244695
L1 RST Write Accesses: 237644
L1 RST Read Accesses: 475288
L1 CSPT Write Accesses: 237644
L1 CSPT Read Accesses: 260770
L1 RR Filter Tag Write Accesses: 238339
L1 RR Filter Tag Read Accesses: 55128126
L1 IP Table Tag Write Accesses: 1244847
L1 IP Table Tag Read Accesses: 1244847
L1 RST Tag Write Accesses: 0
L1 RST Tag Read Accesses: 2139680
L1 RR Filter Write Accesses: 0
L1 RR Filter Read Accesses: 2029108
test: 57160

DRAM Statistics
 CHANNEL 0
 RQ ROW_BUFFER_HIT:     333359  ROW_BUFFER_MISS:    1039674
 DBUS_CONGESTED:        878
 WQ ROW_BUFFER_HIT:     194422  ROW_BUFFER_MISS:     234233  FULL:      10418

 AVG_CONGESTED_CYCLE: 5
 All warmup complete: 2
Channel 0 Bank busy for read cycles: 0
Channel 0 Bank busy for write cycles: 0
Channel 0
Rank 0
0banks busy for read cycles: 44100925
0banks busy for write cycles: 52279
1banks busy for read cycles: 38910976
1banks busy for write cycles: 8950378
2banks busy for read cycles: 25926927
2banks busy for write cycles: 3609143
3banks busy for read cycles: 9003464
3banks busy for write cycles: 1476411
4banks busy for read cycles: 5595918
4banks busy for write cycles: 959410
5banks busy for read cycles: 2554049
5banks busy for write cycles: 806746
6banks busy for read cycles: 871053
6banks busy for write cycles: 822842
7banks busy for read cycles: 978267
7banks busy for write cycles: 1441122
8banks busy for read cycles: 1110761
8banks busy for write cycles: 7439585

CPU 0 Branch Prediction Accuracy: 99.8231% MPKI: 0.07731 Average ROB Occupancy at Mispredict: 169.33
Branch types
NOT_BRANCH: 95630777 95.6308%
BRANCH_DIRECT_JUMP: 17267 0.017267%
BRANCH_INDIRECT: 6 6e-06%
BRANCH_CONDITIONAL: 4299897 4.2999%
BRANCH_DIRECT_CALL: 25986 0.025986%
BRANCH_INDIRECT_CALL: 0 0%
BRANCH_RETURN: 25986 0.025986%
BRANCH_OTHER: 0 0%

DRAM PAGES: 1048576
Allocated PAGES: 9197
