
*** ChampSim Multicore Out-of-Order Simulator ***

Warmup Instructions: 50000000
Simulation Instructions: 100000000
Number of CPUs: 1
LLC sets: 2048
LLC ways: 16
Off-chip DRAM Size: 4096 MB Channels: 1 Width: 64-bit Data Rate: 6400 MT/s
CPU 0 runs ../SPEC2017//621.wrf_s-8065B.champsimtrace.xz
.xz
BTB has LRU replacement policy
ITLB has LRU replacement policy
DTLB has LRU replacement policy
STLB has LRU replacement policy
L1I has LRU replacement policy
IP Table Entries: 64
L1D has LRU replacement policy
Initialize SRRIP state for L2C
Initialize DRRIP state for LLC
Heartbeat CPU 0 instructions: 10000002 cycles: 3032328 heartbeat IPC: 3.2978 cumulative IPC: 3.2978 (Simulation time: 0 hr 3 min 1 sec) 
Heartbeat CPU 0 instructions: 20000000 cycles: 6043155 heartbeat IPC: 3.32135 cumulative IPC: 3.30953 (Simulation time: 0 hr 5 min 28 sec) 
Heartbeat CPU 0 instructions: 30000000 cycles: 9030025 heartbeat IPC: 3.34799 cumulative IPC: 3.32225 (Simulation time: 0 hr 7 min 59 sec) 
Heartbeat CPU 0 instructions: 40000003 cycles: 12100236 heartbeat IPC: 3.25711 cumulative IPC: 3.30572 (Simulation time: 0 hr 10 min 31 sec) 
Heartbeat CPU 0 instructions: 50000003 cycles: 15102818 heartbeat IPC: 3.33047 cumulative IPC: 3.31064 (Simulation time: 0 hr 13 min 3 sec) 

Warmup complete CPU 0 instructions: 50000003 cycles: 15102818 (Simulation time: 0 hr 13 min 3 sec) 

Heartbeat CPU 0 instructions: 60000003 cycles: 24621964 heartbeat IPC: 1.05051 cumulative IPC: 1.05051 (Simulation time: 0 hr 16 min 10 sec) 
Heartbeat CPU 0 instructions: 70000003 cycles: 35540847 heartbeat IPC: 0.915845 cumulative IPC: 0.978568 (Simulation time: 0 hr 19 min 19 sec) 
Heartbeat CPU 0 instructions: 80000001 cycles: 45376121 heartbeat IPC: 1.01675 cumulative IPC: 0.990972 (Simulation time: 0 hr 22 min 56 sec) 
Heartbeat CPU 0 instructions: 90000000 cycles: 56110128 heartbeat IPC: 0.931618 cumulative IPC: 0.975436 (Simulation time: 0 hr 26 min 1 sec) 
Heartbeat CPU 0 instructions: 100000000 cycles: 66112654 heartbeat IPC: 0.999747 cumulative IPC: 0.980203 (Simulation time: 0 hr 29 min 41 sec) 
Heartbeat CPU 0 instructions: 110000000 cycles: 76664699 heartbeat IPC: 0.947684 cumulative IPC: 0.974629 (Simulation time: 0 hr 32 min 15 sec) 
Heartbeat CPU 0 instructions: 120000000 cycles: 90391636 heartbeat IPC: 0.728495 cumulative IPC: 0.929753 (Simulation time: 0 hr 36 min 9 sec) 
Heartbeat CPU 0 instructions: 130000002 cycles: 104152716 heartbeat IPC: 0.726687 cumulative IPC: 0.898373 (Simulation time: 0 hr 40 min 22 sec) 
Heartbeat CPU 0 instructions: 140000001 cycles: 117913389 heartbeat IPC: 0.726709 cumulative IPC: 0.875396 (Simulation time: 0 hr 44 min 10 sec) 
Heartbeat CPU 0 instructions: 150000002 cycles: 133405314 heartbeat IPC: 0.645498 cumulative IPC: 0.845291 (Simulation time: 0 hr 48 min 48 sec) 
Finished CPU 0 instructions: 100000003 cycles: 118302497 cumulative IPC: 0.845291 (Simulation time: 0 hr 48 min 48 sec) 

ChampSim completed all CPUs

Region of Interest Statistics

CPU 0 cumulative IPC: 0.845291 instructions: 100000003 cycles: 118302497

CPU 0 Average Load ROB stall cycles: 1.54904e+07
CPU 0 Fraction of times ROB stalled by Loads: 21.4306
CPU 0 Percentage of Load stall cycles in Total stall cycles: 3.77363e+08
Issued all: 78499174
Issued LT all: 67228960
rob_not_full_when_issued_lt_all: 31462540
Issued LT one: 52288269
rob_not_full_when_issued_lt_one: 26717260
FVP critical_dynamic_instances_0: 20155268
FVP unique_critical_ips_0: 1119
 Total stall cycles: 95864250
 Total load stall cycles: 361756224775604
Unique Load IPs: 3826
CPU 0 NUM of IPS identified critical: 0
CPU 0 Num of Load IPs stalling ROB: 0
Threshold modification factor: 0
Trouble in retire width: -nan
MaC = Marked as critical.
lt_50_percent_before_Mac: 0
gt_90_percent_before_Mac: 0
gt_75_percent_before_Mac: 0
gt_50_percent_before_Mac: 0
stall_proportion_bin_same_before_after: 0
stall_proportion_bin_lower_before_after: 0
stall_proportion_bin_upper_before_after: 0
average_stall_proportion_before: -nan
average_stall_proportion_after: -nan
Critical IP stalls, total frequency: 0
Non-critical IP stalls, total frequency: 0
Total Freq all stalling IPs: 0
Critical_IP_Detector_Accuracy_70: 0.000893655
Critical_IP_Detector_Accuracy_80: 0.000893655
Critical_IP_Detector_Accuracy_90: 0.000893655
Critical_IP_Detector_Coverage_70: 1
Critical_IP_Detector_Coverage_80: 1
Critical_IP_Detector_Coverage_90: 1
stat_90_percent_critical_ip_stalls_freq: 298433
stat_90_percent_non_critical_ip_stalls_freq: 18446744073709253183
AVERAGE_ROB_Occupancy_90_Percent_Critical_IP_Stalls: 48.7931
AVERAGE_ROB_Occupancy_90_Percent_Non_Critical_IP_Stalls: 4.18988e-11
Critical_IP_ROB_Stalls_Bucket_0: 0
Non-critical_IP_ROB_Stalls_Bucket_0: 2479562
Critical_IP_ROB_Stalls_Bucket_1: 0
Non-critical_IP_ROB_Stalls_Bucket_1: 363523
Critical_IP_ROB_Stalls_Bucket_2: 0
Non-critical_IP_ROB_Stalls_Bucket_2: 102578
Critical_IP_ROB_Stalls_Bucket_3: 0
Non-critical_IP_ROB_Stalls_Bucket_3: 110025
Critical_IP_ROB_Stalls_Bucket_4: 0
Non-critical_IP_ROB_Stalls_Bucket_4: 69882
Critical_IP_ROB_Stalls_Bucket_5: 0
Non-critical_IP_ROB_Stalls_Bucket_5: 67597
Critical_IP_ROB_Stalls_Bucket_6: 0
Non-critical_IP_ROB_Stalls_Bucket_6: 1811659
0 => IPs accounting for >50 percent of stalls, 1 => 55, 2 => 60, 3 => 65 and so on till 90.
percent50: inf num IPs:  1
percent55: inf num IPs: 1
percent60: inf num IPs: 1
percent65: inf num IPs: 1
percent70: inf num IPs: 1
percent75: inf num IPs: 1
percent80: inf num IPs: 1
percent85: inf num IPs: 1
percent90: inf num IPs: 1
Critical_ROB_Stalls_Percent_0_Bucket_0: 267309
Non-critical_ROB_Stalls_Percent_0_Bucket_0: 2212253
Critical_ROB_Stalls_Percent_0_Bucket_1: 29998
Non-critical_ROB_Stalls_Percent_0_Bucket_1: 333525
Critical_ROB_Stalls_Percent_0_Bucket_2: 579
Non-critical_ROB_Stalls_Percent_0_Bucket_2: 101999
Critical_ROB_Stalls_Percent_0_Bucket_3: 166
Non-critical_ROB_Stalls_Percent_0_Bucket_3: 109859
Critical_ROB_Stalls_Percent_0_Bucket_4: 173
Non-critical_ROB_Stalls_Percent_0_Bucket_4: 69709
Critical_ROB_Stalls_Percent_0_Bucket_5: 196
Non-critical_ROB_Stalls_Percent_0_Bucket_5: 67401
Critical_ROB_Stalls_Percent_0_Bucket_6: 12
Non-critical_ROB_Stalls_Percent_0_Bucket_6: 1811647
Critical_ROB_Stalls_Percent_1_Bucket_0: 267309
Non-critical_ROB_Stalls_Percent_1_Bucket_0: 2212253
Critical_ROB_Stalls_Percent_1_Bucket_1: 29998
Non-critical_ROB_Stalls_Percent_1_Bucket_1: 333525
Critical_ROB_Stalls_Percent_1_Bucket_2: 579
Non-critical_ROB_Stalls_Percent_1_Bucket_2: 101999
Critical_ROB_Stalls_Percent_1_Bucket_3: 166
Non-critical_ROB_Stalls_Percent_1_Bucket_3: 109859
Critical_ROB_Stalls_Percent_1_Bucket_4: 173
Non-critical_ROB_Stalls_Percent_1_Bucket_4: 69709
Critical_ROB_Stalls_Percent_1_Bucket_5: 196
Non-critical_ROB_Stalls_Percent_1_Bucket_5: 67401
Critical_ROB_Stalls_Percent_1_Bucket_6: 12
Non-critical_ROB_Stalls_Percent_1_Bucket_6: 1811647
Critical_ROB_Stalls_Percent_2_Bucket_0: 267309
Non-critical_ROB_Stalls_Percent_2_Bucket_0: 2212253
Critical_ROB_Stalls_Percent_2_Bucket_1: 29998
Non-critical_ROB_Stalls_Percent_2_Bucket_1: 333525
Critical_ROB_Stalls_Percent_2_Bucket_2: 579
Non-critical_ROB_Stalls_Percent_2_Bucket_2: 101999
Critical_ROB_Stalls_Percent_2_Bucket_3: 166
Non-critical_ROB_Stalls_Percent_2_Bucket_3: 109859
Critical_ROB_Stalls_Percent_2_Bucket_4: 173
Non-critical_ROB_Stalls_Percent_2_Bucket_4: 69709
Critical_ROB_Stalls_Percent_2_Bucket_5: 196
Non-critical_ROB_Stalls_Percent_2_Bucket_5: 67401
Critical_ROB_Stalls_Percent_2_Bucket_6: 12
Non-critical_ROB_Stalls_Percent_2_Bucket_6: 1811647
Critical_ROB_Stalls_Percent_3_Bucket_0: 267309
Non-critical_ROB_Stalls_Percent_3_Bucket_0: 2212253
Critical_ROB_Stalls_Percent_3_Bucket_1: 29998
Non-critical_ROB_Stalls_Percent_3_Bucket_1: 333525
Critical_ROB_Stalls_Percent_3_Bucket_2: 579
Non-critical_ROB_Stalls_Percent_3_Bucket_2: 101999
Critical_ROB_Stalls_Percent_3_Bucket_3: 166
Non-critical_ROB_Stalls_Percent_3_Bucket_3: 109859
Critical_ROB_Stalls_Percent_3_Bucket_4: 173
Non-critical_ROB_Stalls_Percent_3_Bucket_4: 69709
Critical_ROB_Stalls_Percent_3_Bucket_5: 196
Non-critical_ROB_Stalls_Percent_3_Bucket_5: 67401
Critical_ROB_Stalls_Percent_3_Bucket_6: 12
Non-critical_ROB_Stalls_Percent_3_Bucket_6: 1811647
Critical_ROB_Stalls_Percent_4_Bucket_0: 267309
Non-critical_ROB_Stalls_Percent_4_Bucket_0: 2212253
Critical_ROB_Stalls_Percent_4_Bucket_1: 29998
Non-critical_ROB_Stalls_Percent_4_Bucket_1: 333525
Critical_ROB_Stalls_Percent_4_Bucket_2: 579
Non-critical_ROB_Stalls_Percent_4_Bucket_2: 101999
Critical_ROB_Stalls_Percent_4_Bucket_3: 166
Non-critical_ROB_Stalls_Percent_4_Bucket_3: 109859
Critical_ROB_Stalls_Percent_4_Bucket_4: 173
Non-critical_ROB_Stalls_Percent_4_Bucket_4: 69709
Critical_ROB_Stalls_Percent_4_Bucket_5: 196
Non-critical_ROB_Stalls_Percent_4_Bucket_5: 67401
Critical_ROB_Stalls_Percent_4_Bucket_6: 12
Non-critical_ROB_Stalls_Percent_4_Bucket_6: 1811647
Critical_ROB_Stalls_Percent_5_Bucket_0: 267309
Non-critical_ROB_Stalls_Percent_5_Bucket_0: 2212253
Critical_ROB_Stalls_Percent_5_Bucket_1: 29998
Non-critical_ROB_Stalls_Percent_5_Bucket_1: 333525
Critical_ROB_Stalls_Percent_5_Bucket_2: 579
Non-critical_ROB_Stalls_Percent_5_Bucket_2: 101999
Critical_ROB_Stalls_Percent_5_Bucket_3: 166
Non-critical_ROB_Stalls_Percent_5_Bucket_3: 109859
Critical_ROB_Stalls_Percent_5_Bucket_4: 173
Non-critical_ROB_Stalls_Percent_5_Bucket_4: 69709
Critical_ROB_Stalls_Percent_5_Bucket_5: 196
Non-critical_ROB_Stalls_Percent_5_Bucket_5: 67401
Critical_ROB_Stalls_Percent_5_Bucket_6: 12
Non-critical_ROB_Stalls_Percent_5_Bucket_6: 1811647
Critical_ROB_Stalls_Percent_6_Bucket_0: 267309
Non-critical_ROB_Stalls_Percent_6_Bucket_0: 2212253
Critical_ROB_Stalls_Percent_6_Bucket_1: 29998
Non-critical_ROB_Stalls_Percent_6_Bucket_1: 333525
Critical_ROB_Stalls_Percent_6_Bucket_2: 579
Non-critical_ROB_Stalls_Percent_6_Bucket_2: 101999
Critical_ROB_Stalls_Percent_6_Bucket_3: 166
Non-critical_ROB_Stalls_Percent_6_Bucket_3: 109859
Critical_ROB_Stalls_Percent_6_Bucket_4: 173
Non-critical_ROB_Stalls_Percent_6_Bucket_4: 69709
Critical_ROB_Stalls_Percent_6_Bucket_5: 196
Non-critical_ROB_Stalls_Percent_6_Bucket_5: 67401
Critical_ROB_Stalls_Percent_6_Bucket_6: 12
Non-critical_ROB_Stalls_Percent_6_Bucket_6: 1811647
Critical_ROB_Stalls_Percent_7_Bucket_0: 267309
Non-critical_ROB_Stalls_Percent_7_Bucket_0: 2212253
Critical_ROB_Stalls_Percent_7_Bucket_1: 29998
Non-critical_ROB_Stalls_Percent_7_Bucket_1: 333525
Critical_ROB_Stalls_Percent_7_Bucket_2: 579
Non-critical_ROB_Stalls_Percent_7_Bucket_2: 101999
Critical_ROB_Stalls_Percent_7_Bucket_3: 166
Non-critical_ROB_Stalls_Percent_7_Bucket_3: 109859
Critical_ROB_Stalls_Percent_7_Bucket_4: 173
Non-critical_ROB_Stalls_Percent_7_Bucket_4: 69709
Critical_ROB_Stalls_Percent_7_Bucket_5: 196
Non-critical_ROB_Stalls_Percent_7_Bucket_5: 67401
Critical_ROB_Stalls_Percent_7_Bucket_6: 12
Non-critical_ROB_Stalls_Percent_7_Bucket_6: 1811647
Critical_ROB_Stalls_Percent_8_Bucket_0: 267309
Non-critical_ROB_Stalls_Percent_8_Bucket_0: 2212253
Critical_ROB_Stalls_Percent_8_Bucket_1: 29998
Non-critical_ROB_Stalls_Percent_8_Bucket_1: 333525
Critical_ROB_Stalls_Percent_8_Bucket_2: 579
Non-critical_ROB_Stalls_Percent_8_Bucket_2: 101999
Critical_ROB_Stalls_Percent_8_Bucket_3: 166
Non-critical_ROB_Stalls_Percent_8_Bucket_3: 109859
Critical_ROB_Stalls_Percent_8_Bucket_4: 173
Non-critical_ROB_Stalls_Percent_8_Bucket_4: 69709
Critical_ROB_Stalls_Percent_8_Bucket_5: 196
Non-critical_ROB_Stalls_Percent_8_Bucket_5: 67401
Critical_ROB_Stalls_Percent_8_Bucket_6: 12
Non-critical_ROB_Stalls_Percent_8_Bucket_6: 1811647
Average ROB occupancy Load Stall Begin: 149.455
Average ROB occupancy Load Stall End: 157.34
Min ROB occupancy Load Stall Begin: 1
Max ROB occupancy Load Stall Begin: 352
Min ROB occupancy Load Stall End: 1
Max ROB occupancy Load Stall End: 352
Average ROB occupancy Critical Load Stall Begin: -nan
Average ROB occupancy Critical Load Stall End: -nan
Min ROB occupancy Critical Load Stall Begin: 400
Max ROB occupancy Critical Load Stall Begin: 0
Min ROB occupancy Critical Load Stall End: 400
Max ROB occupancy Critical Load Stall End: 0
 ROB Load Stall Begin Bucket Count 0: 2615620
 ROB Load Stall End Bucket Count 0: 2479562
 ROB Critical Load Stall Begin Bucket Count 0: 0
 ROB Critical Load Stall End Bucket Count 0: 0
 ROB Load Stall Begin Bucket Count 1: 279268
 ROB Load Stall End Bucket Count 1: 363523
 ROB Critical Load Stall Begin Bucket Count 1: 0
 ROB Critical Load Stall End Bucket Count 1: 0
 ROB Load Stall Begin Bucket Count 2: 100760
 ROB Load Stall End Bucket Count 2: 102578
 ROB Critical Load Stall Begin Bucket Count 2: 0
 ROB Critical Load Stall End Bucket Count 2: 0
 ROB Load Stall Begin Bucket Count 3: 100692
 ROB Load Stall End Bucket Count 3: 110025
 ROB Critical Load Stall Begin Bucket Count 3: 0
 ROB Critical Load Stall End Bucket Count 3: 0
 ROB Load Stall Begin Bucket Count 4: 65868
 ROB Load Stall End Bucket Count 4: 69882
 ROB Critical Load Stall Begin Bucket Count 4: 0
 ROB Critical Load Stall End Bucket Count 4: 0
 ROB Load Stall Begin Bucket Count 5: 64365
 ROB Load Stall End Bucket Count 5: 67597
 ROB Critical Load Stall Begin Bucket Count 5: 0
 ROB Critical Load Stall End Bucket Count 5: 0
 ROB Load Stall Begin Bucket Count 6: 1778253
 ROB Load Stall End Bucket Count 6: 1811659
 ROB Critical Load Stall Begin Bucket Count 6: 0
 ROB Critical Load Stall End Bucket Count 6: 0
PIST Tag Read Accesses: 0
PIST Read Accesses: 0
PIST Tag Write Accesses: 0
PIST Write Accesses: 0
Criticality detector called times: 0
Max global_stall_cycles_count: 0
Threshold Modified: 0 times, factor: 0
ITLB TOTAL     ACCESS:   14870078  HIT:   14870034  MISS:         44  HIT %:    99.9997  MISS %: 0.000295896   MPKI: 0.00044
ITLB LOAD TRANSLATION ACCESS:   14870078  HIT:   14870034  MISS:         44  HIT %:    99.9997  MISS %: 0.000295896   MPKI: 0.00044
ITLB PREFETCH  REQUESTED:          0  ISSUED:          0  USEFUL:          0  USELESS:          0
ITLB USEFUL LOAD PREFETCHES:          0 PREFETCH ISSUED TO LOWER LEVEL:          0  ACCURACY: -nan
ITLB TIMELY PREFETCHES:          0 LATE PREFETCHES: 0 DROPPED PREFETCHES: 0
ITLB PREFETCHES SAME FILL-ORIGIN LEVEL: 0 DIFFERENT FILL-ORIGIN LEVEL: 0
ITLB AVERAGE MISS LATENCY: 256.886 cycles
ITLB RQ	ACCESS:   18259756	FORWARD:          0	MERGED:    3389663	TO_CACHE:   14870093

DTLB TOTAL     ACCESS:   19788259  HIT:   19744123  MISS:      44136  HIT %:     99.777  MISS %:   0.223041   MPKI: 0.44136
DTLB LOAD TRANSLATION ACCESS:   19788259  HIT:   19744123  MISS:      44136  HIT %:     99.777  MISS %:   0.223041   MPKI: 0.44136
DTLB PREFETCH  REQUESTED:          0  ISSUED:          0  USEFUL:          0  USELESS:          0
DTLB USEFUL LOAD PREFETCHES:          0 PREFETCH ISSUED TO LOWER LEVEL:          0  ACCURACY: -nan
DTLB TIMELY PREFETCHES:          0 LATE PREFETCHES: 0 DROPPED PREFETCHES: 0
DTLB PREFETCHES SAME FILL-ORIGIN LEVEL: 0 DIFFERENT FILL-ORIGIN LEVEL: 0
DTLB AVERAGE MISS LATENCY: 25.118 cycles
DTLB RQ	ACCESS:   22200251	FORWARD:          0	MERGED:    2394190	TO_CACHE:   19806061

STLB TOTAL     ACCESS:    1046663  HIT:    1040771  MISS:       5892  HIT %:    99.4371  MISS %:   0.562932   MPKI: 0.05892
STLB LOAD TRANSLATION ACCESS:      44180  HIT:      38289  MISS:       5891  HIT %:    86.6659  MISS %:    13.3341   MPKI: 0.05891
STLB TRANSLATION FROM L1D PREFETCHER ACCESS:    1002483  HIT:    1002482  MISS:          1  HIT %:    99.9999  MISS %: 9.97523e-05   MPKI: 1e-05
STLB PREFETCH  REQUESTED:          0  ISSUED:          0  USEFUL:          2  USELESS:          0
STLB USEFUL LOAD PREFETCHES:          2 PREFETCH ISSUED TO LOWER LEVEL:          0  ACCURACY: inf
STLB TIMELY PREFETCHES:          2 LATE PREFETCHES: 0 DROPPED PREFETCHES: 0
STLB PREFETCHES SAME FILL-ORIGIN LEVEL: 0 DIFFERENT FILL-ORIGIN LEVEL: 0
STLB AVERAGE MISS LATENCY: 121.414 cycles
STLB RQ	ACCESS:    3079816	FORWARD:          0	MERGED:    2033153	TO_CACHE:    1046663

STLB Hit, L1D data hit: 0
STLB Hit, L2C data hit: 0
STLB Hit, LLC data hit: 0
STLB Hit, LLC data miss: 0
STLB STLB hints to L2: 0
L1D TOTAL     ACCESS:   24525082  HIT:   23338003  MISS:    1187079  HIT %:    95.1597  MISS %:    4.84027   MPKI: 11.8708
L1D LOAD      ACCESS:   18047033  HIT:   17831596  MISS:     215437  HIT %:    98.8062  MISS %:    1.19375   MPKI: 2.15437
L1D RFO       ACCESS:    3475478  HIT:    3253833  MISS:     221645  HIT %:    93.6226  MISS %:     6.3774   MPKI: 2.21645
L1D PREFETCH  ACCESS:    3002571  HIT:    2252574  MISS:     749997  HIT %:    75.0215  MISS %:    24.9785   MPKI: 7.49997
L1D PREFETCH  REQUESTED:    6517519  ISSUED:    6071882  USEFUL:     636314  USELESS:     113668
L1D USEFUL LOAD PREFETCHES:     636314 PREFETCH ISSUED TO LOWER LEVEL:     767382  ACCURACY: 82.9201
L1D TIMELY PREFETCHES:     636314 LATE PREFETCHES: 16805 DROPPED PREFETCHES: 0
L1D PREFETCHES SAME FILL-ORIGIN LEVEL: 767382 DIFFERENT FILL-ORIGIN LEVEL: 0
L1D AVERAGE MISS LATENCY: 1.15671e+06 cycles
L1D RQ	ACCESS:   25977875	FORWARD:          0	MERGED:    7836753	TO_CACHE:   18134807
L1D WQ	ACCESS:    4083148	FORWARD:       6461	MERGED:      17704	TO_CACHE:    4065444
L1D PQ	ACCESS:    3036246	FORWARD:          0	MERGED:        464	TO_CACHE:    3035636

L1D UNIQUE REGIONS ACCESSED: 0
L1D REGIONS CONFLICTS: 0
L1D Cross Page Prefetch Requests: 0
L1D Same Page Prefetch Requests: 3589937
L1D ROI Sum of L1D PQ occupancy: 69603997
L1D PREFETCHES PUSHED FROM L2C: 0
L1I TOTAL     ACCESS:   18258722  HIT:   18256646  MISS:       2076  HIT %:    99.9886  MISS %:  0.0113699   MPKI: 0.02076
L1I LOAD      ACCESS:   18258722  HIT:   18256646  MISS:       2076  HIT %:    99.9886  MISS %:  0.0113699   MPKI: 0.02076
L1I PREFETCH  REQUESTED:          0  ISSUED:          0  USEFUL:          0  USELESS:          0
L1I USEFUL LOAD PREFETCHES:          0 PREFETCH ISSUED TO LOWER LEVEL:          0  ACCURACY: -nan
L1I TIMELY PREFETCHES:          0 LATE PREFETCHES: 0 DROPPED PREFETCHES: 0
L1I PREFETCHES SAME FILL-ORIGIN LEVEL: 0 DIFFERENT FILL-ORIGIN LEVEL: 0
L1I AVERAGE MISS LATENCY: 227.161 cycles
L1I RQ	ACCESS:   28807083	FORWARD:          0	MERGED:   10547327	TO_CACHE:   18259756

BTB TOTAL     ACCESS:    4428771  HIT:    4427947  MISS:        824  HIT %:    99.9814  MISS %:  0.0186056   MPKI: 0.00824
BTB BRANCH_DIRECT_JUMP	ACCESS:     279102  HIT:     279036  MISS:         66
BTB BRANCH_INDIRECT	ACCESS:          6  HIT:          4  MISS:          2
BTB BRANCH_CONDITIONAL	ACCESS:    3632366  HIT:    3632015  MISS:        351
BTB BRANCH_DIRECT_CALL	ACCESS:     258649  HIT:     258495  MISS:        154
BTB BRANCH_INDIRECT_CALL	ACCESS:          0  HIT:          0  MISS:          0
BTB BRANCH_RETURN	ACCESS:     258648  HIT:     258397  MISS:        251
BTB BRANCH_OTHER ACCESS:          0  HIT:          0  MISS:          0

L2C TOTAL     ACCESS:    1635914  HIT:     770023  MISS:     865891  HIT %:    47.0699  MISS %:    52.9301   MPKI: 8.65891
L2C LOAD      ACCESS:     200708  HIT:      93586  MISS:     107122  HIT %:    46.6279  MISS %:    53.3721   MPKI: 1.07122
L2C DATA LOAD MPKI: 1.05046
L2C INSTRUCTION LOAD MPKI: 0.02076
L2C RFO       ACCESS:     221067  HIT:      28259  MISS:     192808  HIT %:     12.783  MISS %:     87.217   MPKI: 1.92808
L2C PREFETCH  ACCESS:     767369  HIT:     207011  MISS:     560358  HIT %:    26.9767  MISS %:    73.0233   MPKI: 5.60358
L2C DATA PREFETCH MPKI: 5.60358
L2C INSTRUCTION PREFETCH MPKI: 0
L2C WRITEBACK ACCESS:     440859  HIT:     436351  MISS:       4508  HIT %:    98.9775  MISS %:    1.02255   MPKI: 0.04508
L2C LOAD TRANSLATION ACCESS:       5910  HIT:       4816  MISS:       1094  HIT %:     81.489  MISS %:     18.511   MPKI: 0.01094
L2C TRANSLATION FROM L1D PREFETCHER ACCESS:          1  HIT:          0  MISS:          1  HIT %:          0  MISS %:        100   MPKI: 1e-05
L2C PREFETCH  REQUESTED:          0  ISSUED:          0  USEFUL:      41546  USELESS:     517828
L2C USEFUL LOAD PREFETCHES:      41546 PREFETCH ISSUED TO LOWER LEVEL:     560360  ACCURACY: 7.41416
L2C TIMELY PREFETCHES:      41546 LATE PREFETCHES: 0 DROPPED PREFETCHES: 0
L2C PREFETCHES SAME FILL-ORIGIN LEVEL: 0 DIFFERENT FILL-ORIGIN LEVEL: 0
L2C AVERAGE MISS LATENCY: 200.557 cycles
L2C RQ	ACCESS:     427690	FORWARD:          0	MERGED:          0	TO_CACHE:     427690
L2C WQ	ACCESS:     440859	FORWARD:         11	MERGED:          0	TO_CACHE:     440859
L2C PQ	ACCESS:     767382	FORWARD:          0	MERGED:          0	TO_CACHE:     767371

L2C Instructions Evicting Data 2076
L2C Translations Evicting Data 1095
L2C Data Evicting Data 855081
L2C Instructions Evicting Instructions 0
L2C Translations Evicting Instructions 0
L2C Data Evicting Instructions 2069
L2C Instructions Evicting Translations 0
L2C Translations Evicting Translations 0
L2C Data Evicting Translations 1062
L2C Dense regions hint from L2: 0
PSCL5 TOTAL     ACCESS:       5892  HIT:       5892  MISS:          0  HIT %:        100  MISS %:          0   MPKI: 0
PSCL5 LOAD TRANSLATION ACCESS:       5891  HIT:       5891  MISS:          0  HIT %:        100  MISS %:          0   MPKI: 0
PSCL5 TRANSLATION FROM L1D PREFETCHER ACCESS:          1  HIT:          1  MISS:          0  HIT %:        100  MISS %:          0   MPKI: 0
PSCL5 PREFETCH  REQUESTED:          0  ISSUED:          0  USEFUL:          0  USELESS:          0
PSCL5 USEFUL LOAD PREFETCHES:          0 PREFETCH ISSUED TO LOWER LEVEL:          0  ACCURACY: -nan
PSCL5 TIMELY PREFETCHES:          0 LATE PREFETCHES: 0 DROPPED PREFETCHES: 0
PSCL5 PREFETCHES SAME FILL-ORIGIN LEVEL: 0 DIFFERENT FILL-ORIGIN LEVEL: 0

PSCL4 TOTAL     ACCESS:       5892  HIT:       5892  MISS:          0  HIT %:        100  MISS %:          0   MPKI: 0
PSCL4 LOAD TRANSLATION ACCESS:       5891  HIT:       5891  MISS:          0  HIT %:        100  MISS %:          0   MPKI: 0
PSCL4 TRANSLATION FROM L1D PREFETCHER ACCESS:          1  HIT:          1  MISS:          0  HIT %:        100  MISS %:          0   MPKI: 0
PSCL4 PREFETCH  REQUESTED:          0  ISSUED:          0  USEFUL:          0  USELESS:          0
PSCL4 USEFUL LOAD PREFETCHES:          0 PREFETCH ISSUED TO LOWER LEVEL:          0  ACCURACY: -nan
PSCL4 TIMELY PREFETCHES:          0 LATE PREFETCHES: 0 DROPPED PREFETCHES: 0
PSCL4 PREFETCHES SAME FILL-ORIGIN LEVEL: 0 DIFFERENT FILL-ORIGIN LEVEL: 0

PSCL3 TOTAL     ACCESS:       5892  HIT:       5892  MISS:          0  HIT %:        100  MISS %:          0   MPKI: 0
PSCL3 LOAD TRANSLATION ACCESS:       5891  HIT:       5891  MISS:          0  HIT %:        100  MISS %:          0   MPKI: 0
PSCL3 TRANSLATION FROM L1D PREFETCHER ACCESS:          1  HIT:          1  MISS:          0  HIT %:        100  MISS %:          0   MPKI: 0
PSCL3 PREFETCH  REQUESTED:          0  ISSUED:          0  USEFUL:          0  USELESS:          0
PSCL3 USEFUL LOAD PREFETCHES:          0 PREFETCH ISSUED TO LOWER LEVEL:          0  ACCURACY: -nan
PSCL3 TIMELY PREFETCHES:          0 LATE PREFETCHES: 0 DROPPED PREFETCHES: 0
PSCL3 PREFETCHES SAME FILL-ORIGIN LEVEL: 0 DIFFERENT FILL-ORIGIN LEVEL: 0

PSCL2 TOTAL     ACCESS:       5892  HIT:       5869  MISS:         23  HIT %:    99.6096  MISS %:    0.39036   MPKI: 0.00023
PSCL2 LOAD TRANSLATION ACCESS:       5891  HIT:       5868  MISS:         23  HIT %:    99.6096  MISS %:   0.390426   MPKI: 0.00023
PSCL2 TRANSLATION FROM L1D PREFETCHER ACCESS:          1  HIT:          1  MISS:          0  HIT %:        100  MISS %:          0   MPKI: 0
PSCL2 PREFETCH  REQUESTED:          0  ISSUED:          0  USEFUL:          0  USELESS:          0
PSCL2 USEFUL LOAD PREFETCHES:          0 PREFETCH ISSUED TO LOWER LEVEL:          0  ACCURACY: -nan
PSCL2 TIMELY PREFETCHES:          0 LATE PREFETCHES: 0 DROPPED PREFETCHES: 0
PSCL2 PREFETCHES SAME FILL-ORIGIN LEVEL: 0 DIFFERENT FILL-ORIGIN LEVEL: 0

LLC TOTAL     ACCESS:    1250001  HIT:     654714  MISS:     595287  HIT %:    52.3771  MISS %:    47.6229   MPKI: 5.95287
LLC LOAD      ACCESS:     107122  HIT:      16584  MISS:      90538  HIT %:    15.4814  MISS %:    84.5186   MPKI: 0.90538
LLC RFO       ACCESS:     192807  HIT:      25703  MISS:     167104  HIT %:    13.3309  MISS %:    86.6691   MPKI: 1.67104
LLC PREFETCH  ACCESS:     560358  HIT:     234920  MISS:     325438  HIT %:    41.9232  MISS %:    58.0768   MPKI: 3.25438
LLC WRITEBACK ACCESS:     388619  HIT:     377411  MISS:      11208  HIT %:    97.1159  MISS %:    2.88406   MPKI: 0.11208
LLC LOAD TRANSLATION ACCESS:       1094  HIT:         96  MISS:        998  HIT %:    8.77514  MISS %:    91.2249   MPKI: 0.00998
LLC TRANSLATION FROM L1D PREFETCHER ACCESS:          1  HIT:          0  MISS:          1  HIT %:          0  MISS %:        100   MPKI: 1e-05
LLC PREFETCH  REQUESTED:          0  ISSUED:          0  USEFUL:      12055  USELESS:     303092
LLC USEFUL LOAD PREFETCHES:      12055 PREFETCH ISSUED TO LOWER LEVEL:     325438  ACCURACY: 3.70424
LLC TIMELY PREFETCHES:      12055 LATE PREFETCHES: 0 DROPPED PREFETCHES: 0
LLC PREFETCHES SAME FILL-ORIGIN LEVEL: 0 DIFFERENT FILL-ORIGIN LEVEL: 0
LLC AVERAGE MISS LATENCY: 248.045 cycles
LLC RQ	ACCESS:     301028	FORWARD:          0	MERGED:          0	TO_CACHE:     301027
LLC WQ	ACCESS:     388619	FORWARD:          1	MERGED:          0	TO_CACHE:     388619
LLC PQ	ACCESS:     560360	FORWARD:          0	MERGED:          0	TO_CACHE:     560360

LLC Dense regions hint to LLC: 0

RAW hits: 82158
Loads Generated: 26060038
Loads sent to L1D: 25977875
Stores Generated: 4083143
Stores sent to L1D: 4083148
Major fault: 0 Minor fault: 6967
Allocated PAGES: 6967

stream: 
stream:times selected: 1626690
stream:pref_filled: 983636
stream:pref_useful: 848630
stream:pref_late: 17690
stream:misses: 10692
stream:misses_by_poll: 0

CS: 
CS:times selected: 1304207
CS:pref_filled: 3356
CS:pref_useful: 983
CS:pref_late: 168
CS:misses: 1683
CS:misses_by_poll: 34

CPLX: 
CPLX:times selected: 1624009
CPLX:pref_filled: 69179
CPLX:pref_useful: 56042
CPLX:pref_late: 886
CPLX:misses: 162494
CPLX:misses_by_poll: 591

NL_L1: 
NL:times selected: 495
NL:pref_filled: 226
NL:pref_useful: 98
NL:pref_late: 4
NL:misses: 288
NL:misses_by_poll: 0

total selections: 4555401
total_filled: 749997
total_useful: 636314
total_late: 19295
total_polluted: 625
total_misses_after_warmup: 191409
conflicts: 94371
Degree Incremented Times: 74944
Degree Decremented Times: 140512

L1 IP Table Write Accesses: 14164282
L1 IP Table Read Accesses: 14069911
L1 RST Write Accesses: 1471937
L1 RST Read Accesses: 2943874
L1 CSPT Write Accesses: 1471937
L1 CSPT Read Accesses: 5784069
L1 RR Filter Tag Write Accesses: 3481883
L1 RR Filter Tag Read Accesses: 320636365
L1 IP Table Tag Write Accesses: 14980328
L1 IP Table Tag Read Accesses: 14980328
L1 RST Tag Write Accesses: 0
L1 RST Tag Read Accesses: 13018276
L1 RR Filter Write Accesses: 0
L1 RR Filter Read Accesses: 13614480
test: 73733

DRAM Statistics
 CHANNEL 0
 RQ ROW_BUFFER_HIT:     166748  ROW_BUFFER_MISS:     417054
 DBUS_CONGESTED:        513
 WQ ROW_BUFFER_HIT:      42662  ROW_BUFFER_MISS:     235482  FULL:          0

 AVG_CONGESTED_CYCLE: 4
 All warmup complete: 2
Channel 0 Bank busy for read cycles: 0
Channel 0 Bank busy for write cycles: 0
Channel 0
Rank 0
0banks busy for read cycles: 75687077
0banks busy for write cycles: 49533
1banks busy for read cycles: 14023886
1banks busy for write cycles: 5801759
2banks busy for read cycles: 5475173
2banks busy for write cycles: 2019139
3banks busy for read cycles: 2131839
3banks busy for write cycles: 878952
4banks busy for read cycles: 1298174
4banks busy for write cycles: 528716
5banks busy for read cycles: 1199731
5banks busy for write cycles: 397179
6banks busy for read cycles: 1117583
6banks busy for write cycles: 327028
7banks busy for read cycles: 1274087
7banks busy for write cycles: 591260
8banks busy for read cycles: 1833840
8banks busy for write cycles: 3667542

CPU 0 Branch Prediction Accuracy: 99.89% MPKI: 0.07455 Average ROB Occupancy at Mispredict: 180.005
Branch types
NOT_BRANCH: 93224381 93.2244%
BRANCH_DIRECT_JUMP: 279102 0.279102%
BRANCH_INDIRECT: 6 6e-06%
BRANCH_CONDITIONAL: 5979031 5.97903%
BRANCH_DIRECT_CALL: 258649 0.258649%
BRANCH_INDIRECT_CALL: 0 0%
BRANCH_RETURN: 258648 0.258648%
BRANCH_OTHER: 0 0%

DRAM PAGES: 1048576
Allocated PAGES: 6967
