Initialize SIGNATURE TABLE
ST_SET: 1
ST_WAY: 16
ST_TAG_BIT: 16
ST_TAG_MASK: ffff

Initialize PATTERN TABLE
PT_SET: 16
PT_WAY: 4
SIG_DELTA_BIT: 7
C_SIG_BIT: 4
C_DELTA_BIT: 4

Initialize PREFETCH FILTER
FILTER_SET: 1024

Initialize PERCEPTRON
PERC_ENTRIES: 64
PERC_FEATURES: 9

*** ChampSim Multicore Out-of-Order Simulator ***

Warmup Instructions: 50000000
Simulation Instructions: 100000000
Number of CPUs: 1
LLC sets: 2048
LLC ways: 16
Off-chip DRAM Size: 4096 MB Channels: 1 Width: 64-bit Data Rate: 6400 MT/s
CPU 0 runs ../SPEC2017//621.wrf_s-6673B.champsimtrace.xz
.xz
NUM_OF_IPS_IN_CRITICAL_IP_TRAINING: 64
NUM_OF_CRITICAL_IP_TRAINING_TABLE_WAYS: 2
NUM_OF_CRITICAL_IP_TRAINING_TABLE_SETS: 32
WOBBLY_CRITICAL_IP_CACHE_SETS: 32
WOBBLY_CRITICAL_IP_CACHE_WAYS: 4
BTB has LRU replacement policy
ITLB has LRU replacement policy
DTLB has LRU replacement policy
STLB has LRU replacement policy
L1I has LRU replacement policy
L1D has LRU replacement policy
Initialize SRRIP state for L2C
Initialize DRRIP state for LLC
Heartbeat CPU 0 instructions: 10000002 cycles: 3568520 heartbeat IPC: 2.80228 cumulative IPC: 2.80228 (Simulation time: 0 hr 6 min 10 sec) 
Heartbeat CPU 0 instructions: 20000003 cycles: 6486367 heartbeat IPC: 3.42718 cumulative IPC: 3.08339 (Simulation time: 0 hr 11 min 2 sec) 
Heartbeat CPU 0 instructions: 30000000 cycles: 9319181 heartbeat IPC: 3.53006 cumulative IPC: 3.21917 (Simulation time: 0 hr 14 min 51 sec) 
Heartbeat CPU 0 instructions: 40000002 cycles: 12219889 heartbeat IPC: 3.44743 cumulative IPC: 3.27335 (Simulation time: 0 hr 18 min 24 sec) 
Heartbeat CPU 0 instructions: 50000001 cycles: 15129761 heartbeat IPC: 3.43658 cumulative IPC: 3.30474 (Simulation time: 0 hr 21 min 46 sec) 

Warmup complete CPU 0 instructions: 50000001 cycles: 15129761 (Simulation time: 0 hr 21 min 46 sec) 

Heartbeat CPU 0 instructions: 60000001 cycles: 28354086 heartbeat IPC: 0.756182 cumulative IPC: 0.756182 (Simulation time: 0 hr 26 min 39 sec) 
Heartbeat CPU 0 instructions: 70000000 cycles: 42913354 heartbeat IPC: 0.686848 cumulative IPC: 0.719849 (Simulation time: 0 hr 31 min 35 sec) 
Heartbeat CPU 0 instructions: 80000000 cycles: 54671381 heartbeat IPC: 0.850483 cumulative IPC: 0.758694 (Simulation time: 0 hr 35 min 24 sec) 
Heartbeat CPU 0 instructions: 90000003 cycles: 67721465 heartbeat IPC: 0.766279 cumulative IPC: 0.760576 (Simulation time: 0 hr 39 min 8 sec) 
Heartbeat CPU 0 instructions: 100000000 cycles: 83000220 heartbeat IPC: 0.654503 cumulative IPC: 0.736697 (Simulation time: 0 hr 43 min 4 sec) 
Heartbeat CPU 0 instructions: 110000000 cycles: 91594386 heartbeat IPC: 1.16358 cumulative IPC: 0.784677 (Simulation time: 0 hr 45 min 20 sec) 
Heartbeat CPU 0 instructions: 120000003 cycles: 102392026 heartbeat IPC: 0.926129 cumulative IPC: 0.80218 (Simulation time: 0 hr 47 min 48 sec) 
Heartbeat CPU 0 instructions: 130000002 cycles: 111523017 heartbeat IPC: 1.09517 cumulative IPC: 0.829934 (Simulation time: 0 hr 49 min 39 sec) 
Heartbeat CPU 0 instructions: 140000002 cycles: 121231993 heartbeat IPC: 1.02997 cumulative IPC: 0.848239 (Simulation time: 0 hr 52 min 5 sec) 
Heartbeat CPU 0 instructions: 150000001 cycles: 131687908 heartbeat IPC: 0.956396 cumulative IPC: 0.857941 (Simulation time: 0 hr 57 min 18 sec) 
Finished CPU 0 instructions: 100000000 cycles: 116558147 cumulative IPC: 0.857941 (Simulation time: 0 hr 57 min 18 sec) 

ChampSim completed all CPUs

Region of Interest Statistics

CPU 0 cumulative IPC: 0.857941 instructions: 100000000 cycles: 116558147

CPU 0 Average Load ROB stall cycles: 1.86913e+07
CPU 0 Fraction of times ROB stalled by Loads: 25.0099
CPU 0 Percentage of Load stall cycles in Total stall cycles: 3.7975e+08
Issued all: 65113847
Issued LT all: 51119614
rob_not_full_when_issued_lt_all: 39205649
Issued LT one: 45498876
rob_not_full_when_issued_lt_one: 34235059
 Total stall cycles: 92862196
 Total load stall cycles: 352644029952539
CPU 0 NUM of IPS identified critical: 0
CPU 0 Num of Load IPs stalling ROB: 5019
Threshold modification factor: 0
Max PIST entries: 64
Min PIST entries: 0
Avg PIST entries: 34.68
Trouble in retire width: 0.908974
MaC = Marked as critical.
lt_50_percent_before_Mac: 0
gt_90_percent_before_Mac: 0
gt_75_percent_before_Mac: 0
gt_50_percent_before_Mac: 0
stall_proportion_bin_same_before_after: 0
stall_proportion_bin_lower_before_after: 0
stall_proportion_bin_upper_before_after: 0
average_stall_proportion_before: -nan
average_stall_proportion_after: -nan
Critical IP stalls, total frequency: 0
Non-critical IP stalls, total frequency: 4718562
Total Freq all stalling IPs: 4718562
stat_90_percent_critical_ip_stalls_freq: 4248925
stat_90_percent_non_critical_ip_stalls_freq: 469637
Critical_IP_ROB_Stalls_Bucket_0: 0
Non-critical_IP_ROB_Stalls_Bucket_0: 3434057
Critical_IP_ROB_Stalls_Bucket_1: 0
Non-critical_IP_ROB_Stalls_Bucket_1: 830669
Critical_IP_ROB_Stalls_Bucket_2: 0
Non-critical_IP_ROB_Stalls_Bucket_2: 101953
Critical_IP_ROB_Stalls_Bucket_3: 0
Non-critical_IP_ROB_Stalls_Bucket_3: 63756
Critical_IP_ROB_Stalls_Bucket_4: 0
Non-critical_IP_ROB_Stalls_Bucket_4: 70943
Critical_IP_ROB_Stalls_Bucket_5: 0
Non-critical_IP_ROB_Stalls_Bucket_5: 71335
Critical_IP_ROB_Stalls_Bucket_6: 0
Non-critical_IP_ROB_Stalls_Bucket_6: 145849
0 => IPs accounting for >50 percent of stalls, 1 => 55, 2 => 60, 3 => 65 and so on till 90.
percent50: 50.3576 num IPs:  34
percent55: 55.1341 num IPs: 44
percent60: 60.3341 num IPs: 56
percent65: 65.3089 num IPs: 70
percent70: 70.0408 num IPs: 86
percent75: 75.1724 num IPs: 109
percent80: 80.0142 num IPs: 140
percent85: 85.0301 num IPs: 190
percent90: 90.047 num IPs: 268
Critical_ROB_Stalls_Percent_0_Bucket_0: 1931952
Non-critical_ROB_Stalls_Percent_0_Bucket_0: 1502105
Critical_ROB_Stalls_Percent_0_Bucket_1: 383686
Non-critical_ROB_Stalls_Percent_0_Bucket_1: 446983
Critical_ROB_Stalls_Percent_0_Bucket_2: 31507
Non-critical_ROB_Stalls_Percent_0_Bucket_2: 70446
Critical_ROB_Stalls_Percent_0_Bucket_3: 9471
Non-critical_ROB_Stalls_Percent_0_Bucket_3: 54285
Critical_ROB_Stalls_Percent_0_Bucket_4: 6746
Non-critical_ROB_Stalls_Percent_0_Bucket_4: 64197
Critical_ROB_Stalls_Percent_0_Bucket_5: 6960
Non-critical_ROB_Stalls_Percent_0_Bucket_5: 64375
Critical_ROB_Stalls_Percent_0_Bucket_6: 5834
Non-critical_ROB_Stalls_Percent_0_Bucket_6: 140015
Critical_ROB_Stalls_Percent_1_Bucket_0: 2047214
Non-critical_ROB_Stalls_Percent_1_Bucket_0: 1386843
Critical_ROB_Stalls_Percent_1_Bucket_1: 478928
Non-critical_ROB_Stalls_Percent_1_Bucket_1: 351741
Critical_ROB_Stalls_Percent_1_Bucket_2: 38980
Non-critical_ROB_Stalls_Percent_1_Bucket_2: 62973
Critical_ROB_Stalls_Percent_1_Bucket_3: 11402
Non-critical_ROB_Stalls_Percent_1_Bucket_3: 52354
Critical_ROB_Stalls_Percent_1_Bucket_4: 8641
Non-critical_ROB_Stalls_Percent_1_Bucket_4: 62302
Critical_ROB_Stalls_Percent_1_Bucket_5: 7962
Non-critical_ROB_Stalls_Percent_1_Bucket_5: 63373
Critical_ROB_Stalls_Percent_1_Bucket_6: 8409
Non-critical_ROB_Stalls_Percent_1_Bucket_6: 137440
Critical_ROB_Stalls_Percent_2_Bucket_0: 2261241
Non-critical_ROB_Stalls_Percent_2_Bucket_0: 1172816
Critical_ROB_Stalls_Percent_2_Bucket_1: 489289
Non-critical_ROB_Stalls_Percent_2_Bucket_1: 341380
Critical_ROB_Stalls_Percent_2_Bucket_2: 41699
Non-critical_ROB_Stalls_Percent_2_Bucket_2: 60254
Critical_ROB_Stalls_Percent_2_Bucket_3: 14000
Non-critical_ROB_Stalls_Percent_2_Bucket_3: 49756
Critical_ROB_Stalls_Percent_2_Bucket_4: 12757
Non-critical_ROB_Stalls_Percent_2_Bucket_4: 58186
Critical_ROB_Stalls_Percent_2_Bucket_5: 11416
Non-critical_ROB_Stalls_Percent_2_Bucket_5: 59919
Critical_ROB_Stalls_Percent_2_Bucket_6: 16497
Non-critical_ROB_Stalls_Percent_2_Bucket_6: 129352
Critical_ROB_Stalls_Percent_3_Bucket_0: 2429391
Non-critical_ROB_Stalls_Percent_3_Bucket_0: 1004666
Critical_ROB_Stalls_Percent_3_Bucket_1: 514059
Non-critical_ROB_Stalls_Percent_3_Bucket_1: 316610
Critical_ROB_Stalls_Percent_3_Bucket_2: 47587
Non-critical_ROB_Stalls_Percent_3_Bucket_2: 54366
Critical_ROB_Stalls_Percent_3_Bucket_3: 22258
Non-critical_ROB_Stalls_Percent_3_Bucket_3: 41498
Critical_ROB_Stalls_Percent_3_Bucket_4: 24769
Non-critical_ROB_Stalls_Percent_3_Bucket_4: 46174
Critical_ROB_Stalls_Percent_3_Bucket_5: 18824
Non-critical_ROB_Stalls_Percent_3_Bucket_5: 52511
Critical_ROB_Stalls_Percent_3_Bucket_6: 24750
Non-critical_ROB_Stalls_Percent_3_Bucket_6: 121099
Critical_ROB_Stalls_Percent_4_Bucket_0: 2593047
Non-critical_ROB_Stalls_Percent_4_Bucket_0: 841010
Critical_ROB_Stalls_Percent_4_Bucket_1: 562426
Non-critical_ROB_Stalls_Percent_4_Bucket_1: 268243
Critical_ROB_Stalls_Percent_4_Bucket_2: 50869
Non-critical_ROB_Stalls_Percent_4_Bucket_2: 51084
Critical_ROB_Stalls_Percent_4_Bucket_3: 24357
Non-critical_ROB_Stalls_Percent_4_Bucket_3: 39399
Critical_ROB_Stalls_Percent_4_Bucket_4: 26963
Non-critical_ROB_Stalls_Percent_4_Bucket_4: 43980
Critical_ROB_Stalls_Percent_4_Bucket_5: 20542
Non-critical_ROB_Stalls_Percent_4_Bucket_5: 50793
Critical_ROB_Stalls_Percent_4_Bucket_6: 26713
Non-critical_ROB_Stalls_Percent_4_Bucket_6: 119136
Critical_ROB_Stalls_Percent_5_Bucket_0: 2790568
Non-critical_ROB_Stalls_Percent_5_Bucket_0: 643489
Critical_ROB_Stalls_Percent_5_Bucket_1: 585681
Non-critical_ROB_Stalls_Percent_5_Bucket_1: 244988
Critical_ROB_Stalls_Percent_5_Bucket_2: 55719
Non-critical_ROB_Stalls_Percent_5_Bucket_2: 46234
Critical_ROB_Stalls_Percent_5_Bucket_3: 28435
Non-critical_ROB_Stalls_Percent_5_Bucket_3: 35321
Critical_ROB_Stalls_Percent_5_Bucket_4: 30297
Non-critical_ROB_Stalls_Percent_5_Bucket_4: 40646
Critical_ROB_Stalls_Percent_5_Bucket_5: 24193
Non-critical_ROB_Stalls_Percent_5_Bucket_5: 47142
Critical_ROB_Stalls_Percent_5_Bucket_6: 32163
Non-critical_ROB_Stalls_Percent_5_Bucket_6: 113686
Critical_ROB_Stalls_Percent_6_Bucket_0: 2931453
Non-critical_ROB_Stalls_Percent_6_Bucket_0: 502604
Critical_ROB_Stalls_Percent_6_Bucket_1: 641897
Non-critical_ROB_Stalls_Percent_6_Bucket_1: 188772
Critical_ROB_Stalls_Percent_6_Bucket_2: 61558
Non-critical_ROB_Stalls_Percent_6_Bucket_2: 40395
Critical_ROB_Stalls_Percent_6_Bucket_3: 32799
Non-critical_ROB_Stalls_Percent_6_Bucket_3: 30957
Critical_ROB_Stalls_Percent_6_Bucket_4: 35420
Non-critical_ROB_Stalls_Percent_6_Bucket_4: 35523
Critical_ROB_Stalls_Percent_6_Bucket_5: 29601
Non-critical_ROB_Stalls_Percent_6_Bucket_5: 41734
Critical_ROB_Stalls_Percent_6_Bucket_6: 42790
Non-critical_ROB_Stalls_Percent_6_Bucket_6: 103059
Critical_ROB_Stalls_Percent_7_Bucket_0: 3043241
Non-critical_ROB_Stalls_Percent_7_Bucket_0: 390816
Critical_ROB_Stalls_Percent_7_Bucket_1: 704210
Non-critical_ROB_Stalls_Percent_7_Bucket_1: 126459
Critical_ROB_Stalls_Percent_7_Bucket_2: 73855
Non-critical_ROB_Stalls_Percent_7_Bucket_2: 28098
Critical_ROB_Stalls_Percent_7_Bucket_3: 41113
Non-critical_ROB_Stalls_Percent_7_Bucket_3: 22643
Critical_ROB_Stalls_Percent_7_Bucket_4: 44015
Non-critical_ROB_Stalls_Percent_7_Bucket_4: 26928
Critical_ROB_Stalls_Percent_7_Bucket_5: 39819
Non-critical_ROB_Stalls_Percent_7_Bucket_5: 31516
Critical_ROB_Stalls_Percent_7_Bucket_6: 65942
Non-critical_ROB_Stalls_Percent_7_Bucket_6: 79907
Critical_ROB_Stalls_Percent_8_Bucket_0: 3186876
Non-critical_ROB_Stalls_Percent_8_Bucket_0: 247181
Critical_ROB_Stalls_Percent_8_Bucket_1: 754504
Non-critical_ROB_Stalls_Percent_8_Bucket_1: 76165
Critical_ROB_Stalls_Percent_8_Bucket_2: 82223
Non-critical_ROB_Stalls_Percent_8_Bucket_2: 19730
Critical_ROB_Stalls_Percent_8_Bucket_3: 47707
Non-critical_ROB_Stalls_Percent_8_Bucket_3: 16049
Critical_ROB_Stalls_Percent_8_Bucket_4: 52103
Non-critical_ROB_Stalls_Percent_8_Bucket_4: 18840
Critical_ROB_Stalls_Percent_8_Bucket_5: 47278
Non-critical_ROB_Stalls_Percent_8_Bucket_5: 24057
Critical_ROB_Stalls_Percent_8_Bucket_6: 78234
Non-critical_ROB_Stalls_Percent_8_Bucket_6: 67615
Average ROB occupancy Load Stall Begin: 46.5035
Average ROB occupancy Load Stall End: 56.3256
Min ROB occupancy Load Stall Begin: 1
Max ROB occupancy Load Stall Begin: 352
Min ROB occupancy Load Stall End: 1
Max ROB occupancy Load Stall End: 352
Average ROB occupancy Critical Load Stall Begin: -nan
Average ROB occupancy Critical Load Stall End: -nan
Min ROB occupancy Critical Load Stall Begin: 400
Max ROB occupancy Critical Load Stall Begin: 0
Min ROB occupancy Critical Load Stall End: 400
Max ROB occupancy Critical Load Stall End: 0
 ROB Load Stall Begin Bucket Count 0: 3695311
 ROB Load Stall End Bucket Count 0: 3434057
 ROB Critical Load Stall Begin Bucket Count 0: 0
 ROB Critical Load Stall End Bucket Count 0: 0
 ROB Load Stall Begin Bucket Count 1: 636930
 ROB Load Stall End Bucket Count 1: 830669
 ROB Critical Load Stall Begin Bucket Count 1: 0
 ROB Critical Load Stall End Bucket Count 1: 0
 ROB Load Stall Begin Bucket Count 2: 76936
 ROB Load Stall End Bucket Count 2: 101953
 ROB Critical Load Stall Begin Bucket Count 2: 0
 ROB Critical Load Stall End Bucket Count 2: 0
 ROB Load Stall Begin Bucket Count 3: 67486
 ROB Load Stall End Bucket Count 3: 63756
 ROB Critical Load Stall Begin Bucket Count 3: 0
 ROB Critical Load Stall End Bucket Count 3: 0
 ROB Load Stall Begin Bucket Count 4: 71239
 ROB Load Stall End Bucket Count 4: 70943
 ROB Critical Load Stall Begin Bucket Count 4: 0
 ROB Critical Load Stall End Bucket Count 4: 0
 ROB Load Stall Begin Bucket Count 5: 77209
 ROB Load Stall End Bucket Count 5: 71335
 ROB Critical Load Stall Begin Bucket Count 5: 0
 ROB Critical Load Stall End Bucket Count 5: 0
 ROB Load Stall Begin Bucket Count 6: 93451
 ROB Load Stall End Bucket Count 6: 145849
 ROB Critical Load Stall Begin Bucket Count 6: 0
 ROB Critical Load Stall End Bucket Count 6: 0
PIST Tag Read Accesses: 707920
PIST Read Accesses: 353960
PIST Tag Write Accesses: 707920
PIST Write Accesses: 353960
Criticality detector called times: 1638307
Max global_stall_cycles_count: 2258852
Threshold Modified: 0 times, factor: 0
Sturdy critical IP cache stats: 
 Unused entries: 0
CIC Tag Read Accesses: 0
CIC Read Accesses: 0
CIC Tag Write Accesses: 0
CIC Write Accesses: 0
Wobbly critical IP cache stats: 
 Unused entries: 1
CIC Tag Read Accesses: 288961325
CIC Read Accesses: 0
CIC Tag Write Accesses: 172155
CIC Write Accesses: 0
ITLB TOTAL     ACCESS:   14291396  HIT:   14291304  MISS:         92  HIT %:    99.9994  MISS %: 0.000643744   MPKI: 0.00092
ITLB LOAD TRANSLATION ACCESS:   14291396  HIT:   14291304  MISS:         92  HIT %:    99.9994  MISS %: 0.000643744   MPKI: 0.00092
ITLB PREFETCH  REQUESTED:          0  ISSUED:          0  USEFUL:          0  USELESS:          0
ITLB USEFUL LOAD PREFETCHES:          0 PREFETCH ISSUED TO LOWER LEVEL:          0  ACCURACY: -nan
ITLB TIMELY PREFETCHES:          0 LATE PREFETCHES: 0 DROPPED PREFETCHES: 0
ITLB PREFETCHES SAME FILL-ORIGIN LEVEL: 0 DIFFERENT FILL-ORIGIN LEVEL: 0
ITLB AVERAGE MISS LATENCY: 264.967 cycles
ITLB RQ	ACCESS:   17330621	FORWARD:          0	MERGED:    3039193	TO_CACHE:   14291428

DTLB TOTAL     ACCESS:   25825969  HIT:   25669384  MISS:     156585  HIT %:    99.3937  MISS %:   0.606308   MPKI: 1.56585
DTLB LOAD TRANSLATION ACCESS:   25825969  HIT:   25669384  MISS:     156585  HIT %:    99.3937  MISS %:   0.606308   MPKI: 1.56585
DTLB PREFETCH  REQUESTED:          0  ISSUED:          0  USEFUL:          0  USELESS:          0
DTLB USEFUL LOAD PREFETCHES:          0 PREFETCH ISSUED TO LOWER LEVEL:          0  ACCURACY: -nan
DTLB TIMELY PREFETCHES:          0 LATE PREFETCHES: 0 DROPPED PREFETCHES: 0
DTLB PREFETCHES SAME FILL-ORIGIN LEVEL: 0 DIFFERENT FILL-ORIGIN LEVEL: 0
DTLB AVERAGE MISS LATENCY: 22.3037 cycles
DTLB RQ	ACCESS:   29446365	FORWARD:          0	MERGED:    3589752	TO_CACHE:   25856613

STLB TOTAL     ACCESS:     156677  HIT:     138674  MISS:      18003  HIT %:    88.5095  MISS %:    11.4905   MPKI: 0.18003
STLB LOAD TRANSLATION ACCESS:     156677  HIT:     138674  MISS:      18003  HIT %:    88.5095  MISS %:    11.4905   MPKI: 0.18003
STLB PREFETCH  REQUESTED:          0  ISSUED:          0  USEFUL:          0  USELESS:          0
STLB USEFUL LOAD PREFETCHES:          0 PREFETCH ISSUED TO LOWER LEVEL:          0  ACCURACY: -nan
STLB TIMELY PREFETCHES:          0 LATE PREFETCHES: 0 DROPPED PREFETCHES: 0
STLB PREFETCHES SAME FILL-ORIGIN LEVEL: 0 DIFFERENT FILL-ORIGIN LEVEL: 0
STLB AVERAGE MISS LATENCY: 116.259 cycles
STLB RQ	ACCESS:     156677	FORWARD:          0	MERGED:          0	TO_CACHE:     156677

STLB Hit, L1D data hit: 0
STLB Hit, L2C data hit: 0
STLB Hit, LLC data hit: 0
STLB Hit, LLC data miss: 0
STLB STLB hints to L2: 0
L1D TOTAL     ACCESS:   28108996  HIT:   25753006  MISS:    2355990  HIT %:    91.6184  MISS %:    8.38162   MPKI: 23.5599
L1D LOAD      ACCESS:   23325890  HIT:   21332820  MISS:    1993070  HIT %:    91.4555  MISS %:    8.54445   MPKI: 19.9307
L1D RFO       ACCESS:    4783106  HIT:    4420186  MISS:     362920  HIT %:    92.4125  MISS %:    7.58754   MPKI: 3.6292
L1D PREFETCH  REQUESTED:          0  ISSUED:          0  USEFUL:          0  USELESS:          0
L1D USEFUL LOAD PREFETCHES:          0 PREFETCH ISSUED TO LOWER LEVEL:          0  ACCURACY: -nan
L1D TIMELY PREFETCHES:          0 LATE PREFETCHES: 0 DROPPED PREFETCHES: 0
L1D PREFETCHES SAME FILL-ORIGIN LEVEL: 0 DIFFERENT FILL-ORIGIN LEVEL: 0
L1D AVERAGE MISS LATENCY: 74.1284 cycles
L1D RQ	ACCESS:   33429846	FORWARD:          0	MERGED:    9665869	TO_CACHE:   23747737
L1D WQ	ACCESS:    5714372	FORWARD:      16240	MERGED:      15744	TO_CACHE:    5698628

L1D UNIQUE REGIONS ACCESSED: 0
L1D REGIONS CONFLICTS: 0
L1D Cross Page Prefetch Requests: 0
L1D Same Page Prefetch Requests: 0
L1D ROI Sum of L1D PQ occupancy: 0
L1D PREFETCHES PUSHED FROM L2C: 0
L1I TOTAL     ACCESS:   17328696  HIT:   17324790  MISS:       3906  HIT %:    99.9775  MISS %:  0.0225406   MPKI: 0.03906
L1I LOAD      ACCESS:   17328696  HIT:   17324790  MISS:       3906  HIT %:    99.9775  MISS %:  0.0225406   MPKI: 0.03906
L1I PREFETCH  REQUESTED:          0  ISSUED:          0  USEFUL:          0  USELESS:          0
L1I USEFUL LOAD PREFETCHES:          0 PREFETCH ISSUED TO LOWER LEVEL:          0  ACCURACY: -nan
L1I TIMELY PREFETCHES:          0 LATE PREFETCHES: 0 DROPPED PREFETCHES: 0
L1I PREFETCHES SAME FILL-ORIGIN LEVEL: 0 DIFFERENT FILL-ORIGIN LEVEL: 0
L1I AVERAGE MISS LATENCY: 215.641 cycles
L1I RQ	ACCESS:   25118990	FORWARD:          0	MERGED:    7788369	TO_CACHE:   17330621

BTB TOTAL     ACCESS:    3967833  HIT:    3961291  MISS:       6542  HIT %:    99.8351  MISS %:   0.164876   MPKI: 0.06542
BTB BRANCH_DIRECT_JUMP	ACCESS:      17267  HIT:      17198  MISS:         69
BTB BRANCH_INDIRECT	ACCESS:          6  HIT:          4  MISS:          2
BTB BRANCH_CONDITIONAL	ACCESS:    3898588  HIT:    3897979  MISS:        609
BTB BRANCH_DIRECT_CALL	ACCESS:      25986  HIT:      25723  MISS:        263
BTB BRANCH_INDIRECT_CALL	ACCESS:          0  HIT:          0  MISS:          0
BTB BRANCH_RETURN	ACCESS:      25986  HIT:      20387  MISS:       5599
BTB BRANCH_OTHER ACCESS:          0  HIT:          0  MISS:          0

L2C TOTAL     ACCESS:    4923432  HIT:    3081964  MISS:    1841468  HIT %:    62.5979  MISS %:    37.4021   MPKI: 18.4147
L2C LOAD      ACCESS:    1996947  HIT:    1673296  MISS:     323651  HIT %:    83.7927  MISS %:    16.2073   MPKI: 3.23651
L2C DATA LOAD MPKI: 3.19745
L2C INSTRUCTION LOAD MPKI: 0.03906
L2C RFO       ACCESS:     362912  HIT:     108766  MISS:     254146  HIT %:    29.9704  MISS %:    70.0296   MPKI: 2.54146
L2C PREFETCH  ACCESS:    1683713  HIT:     439386  MISS:    1244327  HIT %:    26.0963  MISS %:    73.9037   MPKI: 12.4433
L2C DATA PREFETCH MPKI: 12.4433
L2C INSTRUCTION PREFETCH MPKI: 0
L2C WRITEBACK ACCESS:     861728  HIT:     845663  MISS:      16065  HIT %:    98.1357  MISS %:    1.86428   MPKI: 0.16065
L2C LOAD TRANSLATION ACCESS:      18132  HIT:      14853  MISS:       3279  HIT %:    81.9159  MISS %:    18.0841   MPKI: 0.03279
L2C PREFETCH  REQUESTED:    1808002  ISSUED:    1807504  USEFUL:    1179097  USELESS:      65080
L2C USEFUL LOAD PREFETCHES:    1179097 PREFETCH ISSUED TO LOWER LEVEL:    1310306  ACCURACY: 89.9864
L2C TIMELY PREFETCHES:    1179097 LATE PREFETCHES: 62383 DROPPED PREFETCHES: 0
L2C PREFETCHES SAME FILL-ORIGIN LEVEL: 1306714 DIFFERENT FILL-ORIGIN LEVEL: 3592
L2C AVERAGE MISS LATENCY: 250.722 cycles
L2C RQ	ACCESS:    2378030	FORWARD:          0	MERGED:          0	TO_CACHE:    2377993
L2C WQ	ACCESS:     861728	FORWARD:         82	MERGED:          0	TO_CACHE:     861728
L2C PQ	ACCESS:    1807504	FORWARD:          0	MERGED:       5486	TO_CACHE:    1801973

L2C Instructions Evicting Data 3877
L2C Translations Evicting Data 3266
L2C Data Evicting Data 1811160
L2C Instructions Evicting Instructions 17
L2C Translations Evicting Instructions 9
L2C Data Evicting Instructions 3815
L2C Instructions Evicting Translations 12
L2C Translations Evicting Translations 4
L2C Data Evicting Translations 3243
L2C Dense regions hint from L2: 0
PSCL5 TOTAL     ACCESS:      18003  HIT:      18003  MISS:          0  HIT %:        100  MISS %:          0   MPKI: 0
PSCL5 LOAD TRANSLATION ACCESS:      18003  HIT:      18003  MISS:          0  HIT %:        100  MISS %:          0   MPKI: 0
PSCL5 PREFETCH  REQUESTED:          0  ISSUED:          0  USEFUL:          0  USELESS:          0
PSCL5 USEFUL LOAD PREFETCHES:          0 PREFETCH ISSUED TO LOWER LEVEL:          0  ACCURACY: -nan
PSCL5 TIMELY PREFETCHES:          0 LATE PREFETCHES: 0 DROPPED PREFETCHES: 0
PSCL5 PREFETCHES SAME FILL-ORIGIN LEVEL: 0 DIFFERENT FILL-ORIGIN LEVEL: 0

PSCL4 TOTAL     ACCESS:      18003  HIT:      18003  MISS:          0  HIT %:        100  MISS %:          0   MPKI: 0
PSCL4 LOAD TRANSLATION ACCESS:      18003  HIT:      18003  MISS:          0  HIT %:        100  MISS %:          0   MPKI: 0
PSCL4 PREFETCH  REQUESTED:          0  ISSUED:          0  USEFUL:          0  USELESS:          0
PSCL4 USEFUL LOAD PREFETCHES:          0 PREFETCH ISSUED TO LOWER LEVEL:          0  ACCURACY: -nan
PSCL4 TIMELY PREFETCHES:          0 LATE PREFETCHES: 0 DROPPED PREFETCHES: 0
PSCL4 PREFETCHES SAME FILL-ORIGIN LEVEL: 0 DIFFERENT FILL-ORIGIN LEVEL: 0

PSCL3 TOTAL     ACCESS:      18003  HIT:      18003  MISS:          0  HIT %:        100  MISS %:          0   MPKI: 0
PSCL3 LOAD TRANSLATION ACCESS:      18003  HIT:      18003  MISS:          0  HIT %:        100  MISS %:          0   MPKI: 0
PSCL3 PREFETCH  REQUESTED:          0  ISSUED:          0  USEFUL:          0  USELESS:          0
PSCL3 USEFUL LOAD PREFETCHES:          0 PREFETCH ISSUED TO LOWER LEVEL:          0  ACCURACY: -nan
PSCL3 TIMELY PREFETCHES:          0 LATE PREFETCHES: 0 DROPPED PREFETCHES: 0
PSCL3 PREFETCHES SAME FILL-ORIGIN LEVEL: 0 DIFFERENT FILL-ORIGIN LEVEL: 0

PSCL2 TOTAL     ACCESS:      18003  HIT:      17866  MISS:        137  HIT %:     99.239  MISS %:   0.760984   MPKI: 0.00137
PSCL2 LOAD TRANSLATION ACCESS:      18003  HIT:      17866  MISS:        137  HIT %:     99.239  MISS %:   0.760984   MPKI: 0.00137
PSCL2 PREFETCH  REQUESTED:          0  ISSUED:          0  USEFUL:          0  USELESS:          0
PSCL2 USEFUL LOAD PREFETCHES:          0 PREFETCH ISSUED TO LOWER LEVEL:          0  ACCURACY: -nan
PSCL2 TIMELY PREFETCHES:          0 LATE PREFETCHES: 0 DROPPED PREFETCHES: 0
PSCL2 PREFETCHES SAME FILL-ORIGIN LEVEL: 0 DIFFERENT FILL-ORIGIN LEVEL: 0

LLC TOTAL     ACCESS:    2502292  HIT:     663727  MISS:    1838565  HIT %:    26.5248  MISS %:    73.4752   MPKI: 18.3856
LLC LOAD      ACCESS:     261406  HIT:     110373  MISS:     151033  HIT %:    42.2228  MISS %:    57.7772   MPKI: 1.51033
LLC RFO       ACCESS:     254008  HIT:      56614  MISS:     197394  HIT %:    22.2883  MISS %:    77.7117   MPKI: 1.97394
LLC PREFETCH  ACCESS:    1310237  HIT:     237511  MISS:    1072726  HIT %:    18.1273  MISS %:    81.8727   MPKI: 10.7273
LLC WRITEBACK ACCESS:     673362  HIT:     259162  MISS:     414200  HIT %:    38.4878  MISS %:    61.5122   MPKI: 4.142
LLC LOAD TRANSLATION ACCESS:       3279  HIT:         67  MISS:       3212  HIT %:    2.04331  MISS %:    97.9567   MPKI: 0.03212
LLC PREFETCH  REQUESTED:          0  ISSUED:          0  USEFUL:       4720  USELESS:    1064358
LLC USEFUL LOAD PREFETCHES:       4720 PREFETCH ISSUED TO LOWER LEVEL:    1072763  ACCURACY: 0.439985
LLC TIMELY PREFETCHES:       4720 LATE PREFETCHES: 33 DROPPED PREFETCHES: 0
LLC PREFETCHES SAME FILL-ORIGIN LEVEL: 3013 DIFFERENT FILL-ORIGIN LEVEL: 0
LLC AVERAGE MISS LATENCY: 232.379 cycles
LLC RQ	ACCESS:     518694	FORWARD:          0	MERGED:          0	TO_CACHE:     518694
LLC WQ	ACCESS:     673362	FORWARD:          1	MERGED:          0	TO_CACHE:     673362
LLC PQ	ACCESS:    1310306	FORWARD:          0	MERGED:         14	TO_CACHE:    1310291

LLC Dense regions hint to LLC: 0

RAW hits: 167294
Loads Generated: 33597148
Loads sent to L1D: 33429846
Stores Generated: 5714367
Stores sent to L1D: 5714372
Major fault: 0 Minor fault: 9197
Allocated PAGES: 9197
------------------
Depth Distribution
------------------
depth 0: 66667
depth 1: 16667
depth 2: 21332
depth 3: 18259
depth 4: 47735
depth 5: 118065
depth 6: 130150
depth 7: 228481
depth 8: 436226
depth 9: 295024
depth 10: 32833
depth 11: 76151
depth 12: 5127
depth 13: 326
depth 14: 122
depth 15: 0
depth 16: 0
depth 17: 0
depth 18: 0
depth 19: 0
depth 20: 0
depth 21: 0
depth 22: 0
depth 23: 0
depth 24: 0
depth 25: 0
depth 26: 0
depth 27: 0
depth 28: 0
depth 29: 0
Total: 1493165
------------------
ST read accesses: 1402431
ST write accesses: 90734
PT read accesses: 62158846
PT write accesses: 2095108
FILTER read accesses: 14319681
FILTER write accesses: 6857627
GHR read accesses: 5493935
GHR write accesses: 911094
PERC read accesses: 440154288
PERC write accesses: 15721231
GHR counter read accesses: 2986330
GHR counter write accesses: 4755085
GHR ip read accesses: 10066374
GHR ip write accesses: 5972660
ST tag read accesses: 39449574
ST tag write accesses: 7445727

DRAM Statistics
 CHANNEL 0
 RQ ROW_BUFFER_HIT:     414713  ROW_BUFFER_MISS:    1009436
 DBUS_CONGESTED:       1703
 WQ ROW_BUFFER_HIT:      87368  ROW_BUFFER_MISS:     350575  FULL:       8343

 AVG_CONGESTED_CYCLE: 5
 All warmup complete: 2
Channel 0 Bank busy for read cycles: 0
Channel 0 Bank busy for write cycles: 0
Channel 0
Rank 0
0banks busy for read cycles: 42422633
0banks busy for write cycles: 34160
1banks busy for read cycles: 18155444
1banks busy for write cycles: 5085836
2banks busy for read cycles: 11079453
2banks busy for write cycles: 2097051
3banks busy for read cycles: 6700365
3banks busy for write cycles: 1168797
4banks busy for read cycles: 4356559
4banks busy for write cycles: 742733
5banks busy for read cycles: 3462484
5banks busy for write cycles: 552318
6banks busy for read cycles: 3152744
6banks busy for write cycles: 519071
7banks busy for read cycles: 2989298
7banks busy for write cycles: 1061168
8banks busy for read cycles: 5406555
8banks busy for write cycles: 7571479

CPU 0 Branch Prediction Accuracy: 99.8231% MPKI: 0.07731 Average ROB Occupancy at Mispredict: 86.1648
Branch types
NOT_BRANCH: 95630632 95.6306%
BRANCH_DIRECT_JUMP: 17267 0.017267%
BRANCH_INDIRECT: 6 6e-06%
BRANCH_CONDITIONAL: 4299887 4.29989%
BRANCH_DIRECT_CALL: 25986 0.025986%
BRANCH_INDIRECT_CALL: 0 0%
BRANCH_RETURN: 25986 0.025986%
BRANCH_OTHER: 0 0%

DRAM PAGES: 1048576
Allocated PAGES: 9197
