
*** ChampSim Multicore Out-of-Order Simulator ***

Warmup Instructions: 50000000
Simulation Instructions: 100000000
Number of CPUs: 1
LLC sets: 2048
LLC ways: 16
Off-chip DRAM Size: 4096 MB Channels: 1 Width: 64-bit Data Rate: 6400 MT/s
CPU 0 runs ../SPEC2017//621.wrf_s-6673B.champsimtrace.xz
.xz
NUM_OF_IPS_IN_CRITICAL_IP_TRAINING: 64
NUM_OF_CRITICAL_IP_TRAINING_TABLE_WAYS: 2
NUM_OF_CRITICAL_IP_TRAINING_TABLE_SETS: 32
WOBBLY_CRITICAL_IP_CACHE_SETS: 32
WOBBLY_CRITICAL_IP_CACHE_WAYS: 4
BTB has LRU replacement policy
ITLB has LRU replacement policy
DTLB has LRU replacement policy
STLB has LRU replacement policy
L1I has LRU replacement policy
IP Table Entries: 64
L1D has LRU replacement policy
IP_Table L2 entries: 64
Initialize SRRIP state for L2C
Initialize DRRIP state for LLC
Heartbeat CPU 0 instructions: 10000002 cycles: 3558472 heartbeat IPC: 2.8102 cumulative IPC: 2.8102 (Simulation time: 0 hr 8 min 17 sec) 
Heartbeat CPU 0 instructions: 20000003 cycles: 6463105 heartbeat IPC: 3.44278 cumulative IPC: 3.09449 (Simulation time: 0 hr 14 min 49 sec) 
Heartbeat CPU 0 instructions: 30000000 cycles: 9282831 heartbeat IPC: 3.54644 cumulative IPC: 3.23177 (Simulation time: 0 hr 19 min 33 sec) 
Heartbeat CPU 0 instructions: 40000002 cycles: 12168007 heartbeat IPC: 3.46599 cumulative IPC: 3.28731 (Simulation time: 0 hr 24 min 13 sec) 
Heartbeat CPU 0 instructions: 50000000 cycles: 15069861 heartbeat IPC: 3.44607 cumulative IPC: 3.31788 (Simulation time: 0 hr 28 min 47 sec) 

Warmup complete CPU 0 instructions: 50000004 cycles: 15069862 (Simulation time: 0 hr 28 min 47 sec) 

% increase in all ip prefetch 429.351
% increase in all ip prefetch 0.0441355
Heartbeat CPU 0 instructions: 60000001 cycles: 27833349 heartbeat IPC: 0.783485 cumulative IPC: 0.783485 (Simulation time: 0 hr 33 min 3 sec) 
Heartbeat CPU 0 instructions: 70000000 cycles: 42441736 heartbeat IPC: 0.684538 cumulative IPC: 0.730677 (Simulation time: 0 hr 37 min 35 sec) 
Heartbeat CPU 0 instructions: 80000000 cycles: 54073950 heartbeat IPC: 0.859682 cumulative IPC: 0.76915 (Simulation time: 0 hr 40 min 51 sec) 
Heartbeat CPU 0 instructions: 90000003 cycles: 66602461 heartbeat IPC: 0.79818 cumulative IPC: 0.776208 (Simulation time: 0 hr 44 min 10 sec) 
Heartbeat CPU 0 instructions: 100000000 cycles: 81811201 heartbeat IPC: 0.657516 cumulative IPC: 0.749161 (Simulation time: 0 hr 48 min 3 sec) 
Heartbeat CPU 0 instructions: 110000000 cycles: 90382000 heartbeat IPC: 1.16675 cumulative IPC: 0.796684 (Simulation time: 0 hr 50 min 27 sec) 
Heartbeat CPU 0 instructions: 120000003 cycles: 101137344 heartbeat IPC: 0.929771 cumulative IPC: 0.813315 (Simulation time: 0 hr 52 min 55 sec) 
Heartbeat CPU 0 instructions: 130000002 cycles: 110258498 heartbeat IPC: 1.09635 cumulative IPC: 0.840436 (Simulation time: 0 hr 54 min 53 sec) 
Heartbeat CPU 0 instructions: 140000002 cycles: 120103467 heartbeat IPC: 1.01575 cumulative IPC: 0.856869 (Simulation time: 0 hr 58 min 20 sec) 
Heartbeat CPU 0 instructions: 150000001 cycles: 130547173 heartbeat IPC: 0.957514 cumulative IPC: 0.865971 (Simulation time: 1 hr 3 min 3 sec) 
Finished CPU 0 instructions: 100000001 cycles: 115477312 cumulative IPC: 0.865971 (Simulation time: 1 hr 3 min 3 sec) 

ChampSim completed all CPUs

Region of Interest Statistics

CPU 0 cumulative IPC: 0.865971 instructions: 100000001 cycles: 115477312

CPU 0 Average Load ROB stall cycles: 9.13195e+06
CPU 0 Fraction of times ROB stalled by Loads: 13.9129
CPU 0 Percentage of Load stall cycles in Total stall cycles: 2.49146e+08
 Total stall cycles: 71481450
 Total load stall cycles: 178093206885182
CPU 0 NUM of IPS identified critical: 90
CPU 0 Num of Load IPs stalling ROB: 2121
Threshold modification factor: -1
Max PIST entries: 64
Min PIST entries: 0
Avg PIST entries: 30.9667
Trouble in retire width: 0.890518
MaC = Marked as critical.
lt_50_percent_before_Mac: 76
gt_90_percent_before_Mac: 3
gt_75_percent_before_Mac: 3
gt_50_percent_before_Mac: 8
stall_proportion_bin_same_before_after: 0
stall_proportion_bin_lower_before_after: 0
stall_proportion_bin_upper_before_after: 0
average_stall_proportion_before: 0.0910156
average_stall_proportion_after: 0.0860571
Critical IP stalls, total frequency: 398592
Non-critical IP stalls, total frequency: 2309301
Critical_IP_ROB_Stalls_Bucket_0: 262907
Non-critical_IP_ROB_Stalls_Bucket_0: 2197781
Critical_IP_ROB_Stalls_Bucket_1: 86945
Non-critical_IP_ROB_Stalls_Bucket_1: 86074
Critical_IP_ROB_Stalls_Bucket_2: 6566
Non-critical_IP_ROB_Stalls_Bucket_2: 10002
Critical_IP_ROB_Stalls_Bucket_3: 5788
Non-critical_IP_ROB_Stalls_Bucket_3: 6036
Critical_IP_ROB_Stalls_Bucket_4: 5744
Non-critical_IP_ROB_Stalls_Bucket_4: 5650
Critical_IP_ROB_Stalls_Bucket_5: 6815
Non-critical_IP_ROB_Stalls_Bucket_5: 4205
Critical_IP_ROB_Stalls_Bucket_6: 23827
Non-critical_IP_ROB_Stalls_Bucket_6: 4988
0 => IPs accounting for >50 percent of stalls, 1 => 55, 2 => 60, 3 => 65 and so on till 90.
percent50: 50.0501 num IPs:28
percent55: 55.6065 num IPs:34
percent60: 60.4471 num IPs:40
percent65: 65.5727 num IPs:47
percent70: 70.0284 num IPs:54
percent75: 75.4411 num IPs:64
percent80: 80.074 num IPs:77
percent85: 85.0215 num IPs:106
percent90: 90.0611 num IPs:156
Critical_ROB_Stalls_Percent_0_Bucket_0: 1345302
Non-critical_ROB_Stalls_Percent_0_Bucket_0: 1115386
Critical_ROB_Stalls_Percent_0_Bucket_1: 7416
Non-critical_ROB_Stalls_Percent_0_Bucket_1: 165603
Critical_ROB_Stalls_Percent_0_Bucket_2: 976
Non-critical_ROB_Stalls_Percent_0_Bucket_2: 15592
Critical_ROB_Stalls_Percent_0_Bucket_3: 628
Non-critical_ROB_Stalls_Percent_0_Bucket_3: 11196
Critical_ROB_Stalls_Percent_0_Bucket_4: 515
Non-critical_ROB_Stalls_Percent_0_Bucket_4: 10879
Critical_ROB_Stalls_Percent_0_Bucket_5: 305
Non-critical_ROB_Stalls_Percent_0_Bucket_5: 10715
Critical_ROB_Stalls_Percent_0_Bucket_6: 162
Non-critical_ROB_Stalls_Percent_0_Bucket_6: 28653
Critical_ROB_Stalls_Percent_1_Bucket_0: 1495184
Non-critical_ROB_Stalls_Percent_1_Bucket_0: 965504
Critical_ROB_Stalls_Percent_1_Bucket_1: 7806
Non-critical_ROB_Stalls_Percent_1_Bucket_1: 165213
Critical_ROB_Stalls_Percent_1_Bucket_2: 1064
Non-critical_ROB_Stalls_Percent_1_Bucket_2: 15504
Critical_ROB_Stalls_Percent_1_Bucket_3: 680
Non-critical_ROB_Stalls_Percent_1_Bucket_3: 11144
Critical_ROB_Stalls_Percent_1_Bucket_4: 537
Non-critical_ROB_Stalls_Percent_1_Bucket_4: 10857
Critical_ROB_Stalls_Percent_1_Bucket_5: 327
Non-critical_ROB_Stalls_Percent_1_Bucket_5: 10693
Critical_ROB_Stalls_Percent_1_Bucket_6: 168
Non-critical_ROB_Stalls_Percent_1_Bucket_6: 28647
Critical_ROB_Stalls_Percent_2_Bucket_0: 1625269
Non-critical_ROB_Stalls_Percent_2_Bucket_0: 835419
Critical_ROB_Stalls_Percent_2_Bucket_1: 8011
Non-critical_ROB_Stalls_Percent_2_Bucket_1: 165008
Critical_ROB_Stalls_Percent_2_Bucket_2: 1245
Non-critical_ROB_Stalls_Percent_2_Bucket_2: 15323
Critical_ROB_Stalls_Percent_2_Bucket_3: 859
Non-critical_ROB_Stalls_Percent_2_Bucket_3: 10965
Critical_ROB_Stalls_Percent_2_Bucket_4: 682
Non-critical_ROB_Stalls_Percent_2_Bucket_4: 10712
Critical_ROB_Stalls_Percent_2_Bucket_5: 449
Non-critical_ROB_Stalls_Percent_2_Bucket_5: 10571
Critical_ROB_Stalls_Percent_2_Bucket_6: 327
Non-critical_ROB_Stalls_Percent_2_Bucket_6: 28488
Critical_ROB_Stalls_Percent_3_Bucket_0: 1763206
Non-critical_ROB_Stalls_Percent_3_Bucket_0: 697482
Critical_ROB_Stalls_Percent_3_Bucket_1: 8249
Non-critical_ROB_Stalls_Percent_3_Bucket_1: 164770
Critical_ROB_Stalls_Percent_3_Bucket_2: 1418
Non-critical_ROB_Stalls_Percent_3_Bucket_2: 15150
Critical_ROB_Stalls_Percent_3_Bucket_3: 997
Non-critical_ROB_Stalls_Percent_3_Bucket_3: 10827
Critical_ROB_Stalls_Percent_3_Bucket_4: 781
Non-critical_ROB_Stalls_Percent_3_Bucket_4: 10613
Critical_ROB_Stalls_Percent_3_Bucket_5: 528
Non-critical_ROB_Stalls_Percent_3_Bucket_5: 10492
Critical_ROB_Stalls_Percent_3_Bucket_6: 461
Non-critical_ROB_Stalls_Percent_3_Bucket_6: 28354
Critical_ROB_Stalls_Percent_4_Bucket_0: 1882522
Non-critical_ROB_Stalls_Percent_4_Bucket_0: 578166
Critical_ROB_Stalls_Percent_4_Bucket_1: 8754
Non-critical_ROB_Stalls_Percent_4_Bucket_1: 164265
Critical_ROB_Stalls_Percent_4_Bucket_2: 1530
Non-critical_ROB_Stalls_Percent_4_Bucket_2: 15038
Critical_ROB_Stalls_Percent_4_Bucket_3: 1097
Non-critical_ROB_Stalls_Percent_4_Bucket_3: 10727
Critical_ROB_Stalls_Percent_4_Bucket_4: 885
Non-critical_ROB_Stalls_Percent_4_Bucket_4: 10509
Critical_ROB_Stalls_Percent_4_Bucket_5: 635
Non-critical_ROB_Stalls_Percent_4_Bucket_5: 10385
Critical_ROB_Stalls_Percent_4_Bucket_6: 872
Non-critical_ROB_Stalls_Percent_4_Bucket_6: 27943
Critical_ROB_Stalls_Percent_5_Bucket_0: 1997829
Non-critical_ROB_Stalls_Percent_5_Bucket_0: 462859
Critical_ROB_Stalls_Percent_5_Bucket_1: 35855
Non-critical_ROB_Stalls_Percent_5_Bucket_1: 137164
Critical_ROB_Stalls_Percent_5_Bucket_2: 3109
Non-critical_ROB_Stalls_Percent_5_Bucket_2: 13459
Critical_ROB_Stalls_Percent_5_Bucket_3: 1814
Non-critical_ROB_Stalls_Percent_5_Bucket_3: 10010
Critical_ROB_Stalls_Percent_5_Bucket_4: 1621
Non-critical_ROB_Stalls_Percent_5_Bucket_4: 9773
Critical_ROB_Stalls_Percent_5_Bucket_5: 1065
Non-critical_ROB_Stalls_Percent_5_Bucket_5: 9955
Critical_ROB_Stalls_Percent_5_Bucket_6: 1571
Non-critical_ROB_Stalls_Percent_5_Bucket_6: 27244
Critical_ROB_Stalls_Percent_6_Bucket_0: 2074805
Non-critical_ROB_Stalls_Percent_6_Bucket_0: 385883
Critical_ROB_Stalls_Percent_6_Bucket_1: 79148
Non-critical_ROB_Stalls_Percent_6_Bucket_1: 93871
Critical_ROB_Stalls_Percent_6_Bucket_2: 4289
Non-critical_ROB_Stalls_Percent_6_Bucket_2: 12279
Critical_ROB_Stalls_Percent_6_Bucket_3: 3191
Non-critical_ROB_Stalls_Percent_6_Bucket_3: 8633
Critical_ROB_Stalls_Percent_6_Bucket_4: 2590
Non-critical_ROB_Stalls_Percent_6_Bucket_4: 8804
Critical_ROB_Stalls_Percent_6_Bucket_5: 1735
Non-critical_ROB_Stalls_Percent_6_Bucket_5: 9285
Critical_ROB_Stalls_Percent_6_Bucket_6: 2562
Non-critical_ROB_Stalls_Percent_6_Bucket_6: 26253
Critical_ROB_Stalls_Percent_7_Bucket_0: 2171466
Non-critical_ROB_Stalls_Percent_7_Bucket_0: 289222
Critical_ROB_Stalls_Percent_7_Bucket_1: 108100
Non-critical_ROB_Stalls_Percent_7_Bucket_1: 64919
Critical_ROB_Stalls_Percent_7_Bucket_2: 5962
Non-critical_ROB_Stalls_Percent_7_Bucket_2: 10606
Critical_ROB_Stalls_Percent_7_Bucket_3: 4344
Non-critical_ROB_Stalls_Percent_7_Bucket_3: 7480
Critical_ROB_Stalls_Percent_7_Bucket_4: 3630
Non-critical_ROB_Stalls_Percent_7_Bucket_4: 7764
Critical_ROB_Stalls_Percent_7_Bucket_5: 3015
Non-critical_ROB_Stalls_Percent_7_Bucket_5: 8005
Critical_ROB_Stalls_Percent_7_Bucket_6: 5774
Non-critical_ROB_Stalls_Percent_7_Bucket_6: 23041
Critical_ROB_Stalls_Percent_8_Bucket_0: 2281942
Non-critical_ROB_Stalls_Percent_8_Bucket_0: 178746
Critical_ROB_Stalls_Percent_8_Bucket_1: 125751
Non-critical_ROB_Stalls_Percent_8_Bucket_1: 47268
Critical_ROB_Stalls_Percent_8_Bucket_2: 7164
Non-critical_ROB_Stalls_Percent_8_Bucket_2: 9404
Critical_ROB_Stalls_Percent_8_Bucket_3: 5662
Non-critical_ROB_Stalls_Percent_8_Bucket_3: 6162
Critical_ROB_Stalls_Percent_8_Bucket_4: 4865
Non-critical_ROB_Stalls_Percent_8_Bucket_4: 6529
Critical_ROB_Stalls_Percent_8_Bucket_5: 4320
Non-critical_ROB_Stalls_Percent_8_Bucket_5: 6700
Critical_ROB_Stalls_Percent_8_Bucket_6: 9056
Non-critical_ROB_Stalls_Percent_8_Bucket_6: 19759
Average ROB occupancy Load Stall Begin: 26.948
Average ROB occupancy Load Stall End: 31.4541
Min ROB occupancy Load Stall Begin: 1
Max ROB occupancy Load Stall Begin: 351
Min ROB occupancy Load Stall End: 1
Max ROB occupancy Load Stall End: 352
Average ROB occupancy Critical Load Stall Begin: 65.5838
Average ROB occupancy Critical Load Stall End: 74.4044
Min ROB occupancy Critical Load Stall Begin: 4
Max ROB occupancy Critical Load Stall Begin: 351
Min ROB occupancy Critical Load Stall End: 7
Max ROB occupancy Critical Load Stall End: 352
 ROB Load Stall Begin Bucket Count 0: 2508495
 ROB Load Stall End Bucket Count 0: 2460688
 ROB Critical Load Stall Begin Bucket Count 0: 232840
 ROB Critical Load Stall End Bucket Count 0: 214564
 ROB Load Stall Begin Bucket Count 1: 136867
 ROB Load Stall End Bucket Count 1: 173019
 ROB Critical Load Stall Begin Bucket Count 1: 68140
 ROB Critical Load Stall End Bucket Count 1: 81330
 ROB Load Stall Begin Bucket Count 2: 15191
 ROB Load Stall End Bucket Count 2: 16568
 ROB Critical Load Stall Begin Bucket Count 2: 5867
 ROB Critical Load Stall End Bucket Count 2: 5738
 ROB Load Stall Begin Bucket Count 3: 11529
 ROB Load Stall End Bucket Count 3: 11824
 ROB Critical Load Stall Begin Bucket Count 3: 5378
 ROB Critical Load Stall End Bucket Count 3: 4955
 ROB Load Stall Begin Bucket Count 4: 10639
 ROB Load Stall End Bucket Count 4: 11394
 ROB Critical Load Stall Begin Bucket Count 4: 5441
 ROB Critical Load Stall End Bucket Count 4: 4986
 ROB Load Stall Begin Bucket Count 5: 11848
 ROB Load Stall End Bucket Count 5: 11020
 ROB Critical Load Stall Begin Bucket Count 5: 6949
 ROB Critical Load Stall End Bucket Count 5: 5808
 ROB Load Stall Begin Bucket Count 6: 18759
 ROB Load Stall End Bucket Count 6: 28815
 ROB Critical Load Stall Begin Bucket Count 6: 13771
 ROB Critical Load Stall End Bucket Count 6: 21005
PIST Tag Read Accesses: 224550
PIST Read Accesses: 112275
PIST Tag Write Accesses: 224550
PIST Write Accesses: 112275
Criticality detector called times: 1175997
Max global_stall_cycles_count: 488611
Threshold Modified: 1 times, factor: -1
ITLB TOTAL     ACCESS:   14272445  HIT:   14272353  MISS:         92  HIT %:    99.9994  MISS %: 0.000644599   MPKI: 0.00092
ITLB LOAD TRANSLATION ACCESS:   14272445  HIT:   14272353  MISS:         92  HIT %:    99.9994  MISS %: 0.000644599   MPKI: 0.00092
ITLB PREFETCH  REQUESTED:          0  ISSUED:          0  USEFUL:          0  USELESS:          0
ITLB USEFUL LOAD PREFETCHES:          0 PREFETCH ISSUED TO LOWER LEVEL:          0  ACCURACY: -nan
ITLB TIMELY PREFETCHES:          0 LATE PREFETCHES: 0 DROPPED PREFETCHES: 0
ITLB PREFETCHES SAME FILL-ORIGIN LEVEL: 0 DIFFERENT FILL-ORIGIN LEVEL: 0
ITLB AVERAGE MISS LATENCY: 264.935 cycles
ITLB RQ	ACCESS:   17323697	FORWARD:          0	MERGED:    3051220	TO_CACHE:   14272477

DTLB TOTAL     ACCESS:   26470731  HIT:   26308549  MISS:     162182  HIT %:    99.3873  MISS %:   0.612684   MPKI: 1.62182
DTLB LOAD TRANSLATION ACCESS:   26470731  HIT:   26308549  MISS:     162182  HIT %:    99.3873  MISS %:   0.612684   MPKI: 1.62182
DTLB PREFETCH  REQUESTED:          0  ISSUED:          0  USEFUL:          0  USELESS:          0
DTLB USEFUL LOAD PREFETCHES:          0 PREFETCH ISSUED TO LOWER LEVEL:          0  ACCURACY: -nan
DTLB TIMELY PREFETCHES:          0 LATE PREFETCHES: 0 DROPPED PREFETCHES: 0
DTLB PREFETCHES SAME FILL-ORIGIN LEVEL: 0 DIFFERENT FILL-ORIGIN LEVEL: 0
DTLB AVERAGE MISS LATENCY: 23.784 cycles
DTLB RQ	ACCESS:   30129990	FORWARD:          0	MERGED:    3628067	TO_CACHE:   26501923

STLB TOTAL     ACCESS:    2774758  HIT:    2756758  MISS:      18000  HIT %:    99.3513  MISS %:   0.648705   MPKI: 0.18
STLB LOAD TRANSLATION ACCESS:     162274  HIT:     144275  MISS:      17999  HIT %:    88.9083  MISS %:    11.0917   MPKI: 0.17999
STLB TRANSLATION FROM L1D PREFETCHER ACCESS:    2612484  HIT:    2612483  MISS:          1  HIT %:        100  MISS %: 3.82777e-05   MPKI: 1e-05
STLB PREFETCH  REQUESTED:          0  ISSUED:          0  USEFUL:          1  USELESS:          0
STLB USEFUL LOAD PREFETCHES:          1 PREFETCH ISSUED TO LOWER LEVEL:          0  ACCURACY: inf
STLB TIMELY PREFETCHES:          1 LATE PREFETCHES: 0 DROPPED PREFETCHES: 0
STLB PREFETCHES SAME FILL-ORIGIN LEVEL: 0 DIFFERENT FILL-ORIGIN LEVEL: 0
STLB AVERAGE MISS LATENCY: 133.552 cycles
STLB RQ	ACCESS:    9281619	FORWARD:          0	MERGED:    6506861	TO_CACHE:    2774758

STLB Hit, L1D data hit: 0
STLB Hit, L2C data hit: 0
STLB Hit, LLC data hit: 0
STLB Hit, LLC data miss: 0
STLB STLB hints to L2: 0
L1D TOTAL     ACCESS:   38230040  HIT:   35554211  MISS:    2675829  HIT %:    93.0007  MISS %:    6.99928   MPKI: 26.7583
L1D LOAD      ACCESS:   24333109  HIT:   24017525  MISS:     315584  HIT %:    98.7031  MISS %:    1.29693   MPKI: 3.15584
L1D RFO       ACCESS:    4907745  HIT:    4551103  MISS:     356642  HIT %:    92.7331  MISS %:    7.26692   MPKI: 3.56642
L1D PREFETCH  ACCESS:    8989186  HIT:    6985583  MISS:    2003603  HIT %:     77.711  MISS %:     22.289   MPKI: 20.036
L1D PREFETCH  REQUESTED:   21105526  ISSUED:   18248572  USEFUL:    1716280  USELESS:     287328
L1D USEFUL LOAD PREFETCHES:    1716280 PREFETCH ISSUED TO LOWER LEVEL:    2506724  ACCURACY: 68.4671
L1D TIMELY PREFETCHES:    1716280 LATE PREFETCHES: 45863 DROPPED PREFETCHES: 0
L1D PREFETCHES SAME FILL-ORIGIN LEVEL: 2506724 DIFFERENT FILL-ORIGIN LEVEL: 0
L1D AVERAGE MISS LATENCY: 975677 cycles
L1D RQ	ACCESS:   33492718	FORWARD:          0	MERGED:    9049553	TO_CACHE:   24431317
L1D WQ	ACCESS:    5714372	FORWARD:      11889	MERGED:      15699	TO_CACHE:    5698673
L1D PQ	ACCESS:    9129227	FORWARD:          0	MERGED:       9841	TO_CACHE:    9119345

L1D UNIQUE REGIONS ACCESSED: 0
L1D REGIONS CONFLICTS: 0
L1D Cross Page Prefetch Requests: 0
L1D Same Page Prefetch Requests: 14330716
L1D ROI Sum of L1D PQ occupancy: 195092784
L1D PREFETCHES PUSHED FROM L2C: 0
L1I TOTAL     ACCESS:   17321737  HIT:   17317831  MISS:       3906  HIT %:    99.9775  MISS %:  0.0225497   MPKI: 0.03906
L1I LOAD      ACCESS:   17321737  HIT:   17317831  MISS:       3906  HIT %:    99.9775  MISS %:  0.0225497   MPKI: 0.03906
L1I PREFETCH  REQUESTED:          0  ISSUED:          0  USEFUL:          0  USELESS:          0
L1I USEFUL LOAD PREFETCHES:          0 PREFETCH ISSUED TO LOWER LEVEL:          0  ACCURACY: -nan
L1I TIMELY PREFETCHES:          0 LATE PREFETCHES: 0 DROPPED PREFETCHES: 0
L1I PREFETCHES SAME FILL-ORIGIN LEVEL: 0 DIFFERENT FILL-ORIGIN LEVEL: 0
L1I AVERAGE MISS LATENCY: 231.268 cycles
L1I RQ	ACCESS:   25060414	FORWARD:          0	MERGED:    7736717	TO_CACHE:   17323697

BTB TOTAL     ACCESS:    3967832  HIT:    3961290  MISS:       6542  HIT %:    99.8351  MISS %:   0.164876   MPKI: 0.06542
BTB BRANCH_DIRECT_JUMP	ACCESS:      17267  HIT:      17198  MISS:         69
BTB BRANCH_INDIRECT	ACCESS:          6  HIT:          4  MISS:          2
BTB BRANCH_CONDITIONAL	ACCESS:    3898587  HIT:    3897978  MISS:        609
BTB BRANCH_DIRECT_CALL	ACCESS:      25986  HIT:      25723  MISS:        263
BTB BRANCH_INDIRECT_CALL	ACCESS:          0  HIT:          0  MISS:          0
BTB BRANCH_RETURN	ACCESS:      25986  HIT:      20387  MISS:       5599
BTB BRANCH_OTHER ACCESS:          0  HIT:          0  MISS:          0

L2C TOTAL     ACCESS:    9290584  HIT:    7196914  MISS:    2093670  HIT %:    77.4646  MISS %:    22.5354   MPKI: 20.9367
L2C LOAD      ACCESS:     273625  HIT:     161404  MISS:     112221  HIT %:    58.9873  MISS %:    41.0127   MPKI: 1.12221
L2C DATA LOAD MPKI: 1.08315
L2C INSTRUCTION LOAD MPKI: 0.03906
L2C RFO       ACCESS:     356174  HIT:     117670  MISS:     238504  HIT %:    33.0372  MISS %:    66.9628   MPKI: 2.38504
L2C PREFETCH  ACCESS:    7772639  HIT:    6044814  MISS:    1727825  HIT %:    77.7704  MISS %:    22.2296   MPKI: 17.2782
L2C DATA PREFETCH MPKI: 17.2782
L2C INSTRUCTION PREFETCH MPKI: 0
L2C WRITEBACK ACCESS:     870018  HIT:     858189  MISS:      11829  HIT %:    98.6404  MISS %:    1.35963   MPKI: 0.11829
L2C LOAD TRANSLATION ACCESS:      18127  HIT:      14836  MISS:       3291  HIT %:    81.8448  MISS %:    18.1552   MPKI: 0.03291
L2C TRANSLATION FROM L1D PREFETCHER ACCESS:          1  HIT:          1  MISS:          0  HIT %:        100  MISS %:          0   MPKI: 0
L2C PREFETCH  REQUESTED:    9480610  ISSUED:    8659769  USEFUL:     122722  USELESS:    1604907
L2C USEFUL LOAD PREFETCHES:     122722 PREFETCH ISSUED TO LOWER LEVEL:    1734273  ACCURACY: 7.07628
L2C TIMELY PREFETCHES:     122722 LATE PREFETCHES: 6441 DROPPED PREFETCHES: 0
L2C PREFETCHES SAME FILL-ORIGIN LEVEL: 1412463 DIFFERENT FILL-ORIGIN LEVEL: 0
L2C AVERAGE MISS LATENCY: 273.725 cycles
L2C RQ	ACCESS:     647933	FORWARD:          0	MERGED:          0	TO_CACHE:     647929
L2C WQ	ACCESS:     870018	FORWARD:        117	MERGED:          0	TO_CACHE:     870018
L2C PQ	ACCESS:   10709702	FORWARD:          0	MERGED:    2318595	TO_CACHE:    8390994

L2C Instructions Evicting Data 3890
L2C Translations Evicting Data 3282
L2C Data Evicting Data 2067538
L2C Instructions Evicting Instructions 13
L2C Translations Evicting Instructions 8
L2C Data Evicting Instructions 3849
L2C Instructions Evicting Translations 3
L2C Translations Evicting Translations 1
L2C Data Evicting Translations 3257
L2C Dense regions hint from L2: 0
PSCL5 TOTAL     ACCESS:      18000  HIT:      18000  MISS:          0  HIT %:        100  MISS %:          0   MPKI: 0
PSCL5 LOAD TRANSLATION ACCESS:      17999  HIT:      17999  MISS:          0  HIT %:        100  MISS %:          0   MPKI: 0
PSCL5 TRANSLATION FROM L1D PREFETCHER ACCESS:          1  HIT:          1  MISS:          0  HIT %:        100  MISS %:          0   MPKI: 0
PSCL5 PREFETCH  REQUESTED:          0  ISSUED:          0  USEFUL:          0  USELESS:          0
PSCL5 USEFUL LOAD PREFETCHES:          0 PREFETCH ISSUED TO LOWER LEVEL:          0  ACCURACY: -nan
PSCL5 TIMELY PREFETCHES:          0 LATE PREFETCHES: 0 DROPPED PREFETCHES: 0
PSCL5 PREFETCHES SAME FILL-ORIGIN LEVEL: 0 DIFFERENT FILL-ORIGIN LEVEL: 0

PSCL4 TOTAL     ACCESS:      18000  HIT:      18000  MISS:          0  HIT %:        100  MISS %:          0   MPKI: 0
PSCL4 LOAD TRANSLATION ACCESS:      17999  HIT:      17999  MISS:          0  HIT %:        100  MISS %:          0   MPKI: 0
PSCL4 TRANSLATION FROM L1D PREFETCHER ACCESS:          1  HIT:          1  MISS:          0  HIT %:        100  MISS %:          0   MPKI: 0
PSCL4 PREFETCH  REQUESTED:          0  ISSUED:          0  USEFUL:          0  USELESS:          0
PSCL4 USEFUL LOAD PREFETCHES:          0 PREFETCH ISSUED TO LOWER LEVEL:          0  ACCURACY: -nan
PSCL4 TIMELY PREFETCHES:          0 LATE PREFETCHES: 0 DROPPED PREFETCHES: 0
PSCL4 PREFETCHES SAME FILL-ORIGIN LEVEL: 0 DIFFERENT FILL-ORIGIN LEVEL: 0

PSCL3 TOTAL     ACCESS:      18000  HIT:      18000  MISS:          0  HIT %:        100  MISS %:          0   MPKI: 0
PSCL3 LOAD TRANSLATION ACCESS:      17999  HIT:      17999  MISS:          0  HIT %:        100  MISS %:          0   MPKI: 0
PSCL3 TRANSLATION FROM L1D PREFETCHER ACCESS:          1  HIT:          1  MISS:          0  HIT %:        100  MISS %:          0   MPKI: 0
PSCL3 PREFETCH  REQUESTED:          0  ISSUED:          0  USEFUL:          0  USELESS:          0
PSCL3 USEFUL LOAD PREFETCHES:          0 PREFETCH ISSUED TO LOWER LEVEL:          0  ACCURACY: -nan
PSCL3 TIMELY PREFETCHES:          0 LATE PREFETCHES: 0 DROPPED PREFETCHES: 0
PSCL3 PREFETCHES SAME FILL-ORIGIN LEVEL: 0 DIFFERENT FILL-ORIGIN LEVEL: 0

PSCL2 TOTAL     ACCESS:      18000  HIT:      17864  MISS:        136  HIT %:    99.2444  MISS %:   0.755556   MPKI: 0.00136
PSCL2 LOAD TRANSLATION ACCESS:      17999  HIT:      17863  MISS:        136  HIT %:    99.2444  MISS %:   0.755598   MPKI: 0.00136
PSCL2 TRANSLATION FROM L1D PREFETCHER ACCESS:          1  HIT:          1  MISS:          0  HIT %:        100  MISS %:          0   MPKI: 0
PSCL2 PREFETCH  REQUESTED:          0  ISSUED:          0  USEFUL:          0  USELESS:          0
PSCL2 USEFUL LOAD PREFETCHES:          0 PREFETCH ISSUED TO LOWER LEVEL:          0  ACCURACY: -nan
PSCL2 TIMELY PREFETCHES:          0 LATE PREFETCHES: 0 DROPPED PREFETCHES: 0
PSCL2 PREFETCHES SAME FILL-ORIGIN LEVEL: 0 DIFFERENT FILL-ORIGIN LEVEL: 0

LLC TOTAL     ACCESS:    2758962  HIT:     752961  MISS:    2006001  HIT %:    27.2915  MISS %:    72.7085   MPKI: 20.06
LLC LOAD      ACCESS:     105925  HIT:      31006  MISS:      74919  HIT %:    29.2717  MISS %:    70.7283   MPKI: 0.74919
LLC RFO       ACCESS:     238356  HIT:      56942  MISS:     181414  HIT %:    23.8895  MISS %:    76.1105   MPKI: 1.81414
LLC PREFETCH  ACCESS:    1734259  HIT:     407611  MISS:    1326648  HIT %:    23.5035  MISS %:    76.4965   MPKI: 13.2665
LLC WRITEBACK ACCESS:     677131  HIT:     257292  MISS:     419839  HIT %:    37.9974  MISS %:    62.0026   MPKI: 4.19839
LLC LOAD TRANSLATION ACCESS:       3291  HIT:        110  MISS:       3181  HIT %:    3.34245  MISS %:    96.6576   MPKI: 0.03181
LLC PREFETCH  REQUESTED:          0  ISSUED:          0  USEFUL:       4039  USELESS:    1324655
LLC USEFUL LOAD PREFETCHES:       4039 PREFETCH ISSUED TO LOWER LEVEL:    1326655  ACCURACY: 0.30445
LLC TIMELY PREFETCHES:       4039 LATE PREFETCHES: 0 DROPPED PREFETCHES: 0
LLC PREFETCHES SAME FILL-ORIGIN LEVEL: 0 DIFFERENT FILL-ORIGIN LEVEL: 0
LLC AVERAGE MISS LATENCY: 255.151 cycles
LLC RQ	ACCESS:     347576	FORWARD:          0	MERGED:          0	TO_CACHE:     347573
LLC WQ	ACCESS:     677131	FORWARD:         10	MERGED:          0	TO_CACHE:     677131
LLC PQ	ACCESS:    1734273	FORWARD:          0	MERGED:          0	TO_CACHE:    1734266

LLC Dense regions hint to LLC: 0

RAW hits: 104422
Loads Generated: 33597148
Loads sent to L1D: 33492718
Stores Generated: 5714367
Stores sent to L1D: 5714372
Major fault: 0 Minor fault: 9197
Allocated PAGES: 9197

stream: 
stream:times selected: 5840849
stream:pref_filled: 2684973
stream:pref_useful: 2335950
stream:pref_late: 44455
stream:misses: 23419
stream:misses_by_poll: 0

CS: 
CS:times selected: 5016561
CS:pref_filled: 181829
CS:pref_useful: 158444
CS:pref_late: 904
CS:misses: 283330
CS:misses_by_poll: 1610

CPLX: 
CPLX:times selected: 824122
CPLX:pref_filled: 65397
CPLX:pref_useful: 50349
CPLX:pref_late: 980
CPLX:misses: 94716
CPLX:misses_by_poll: 188

NL_L1: 
NL:times selected: 924
NL:pref_filled: 237
NL:pref_useful: 9
NL:pref_late: 2
NL:misses: 776
NL:misses_by_poll: 1

total selections: 11682456
total_filled: 2003603
total_useful: 1716280
total_late: 48498
total_polluted: 1799
total_misses_after_warmup: 413789
conflicts: 526266
Degree Incremented Times: 758820
Degree Decremented Times: 0

L1 IP Table Write Accesses: 22535912
L1 IP Table Read Accesses: 22009646
L1 RST Write Accesses: 3817705
L1 RST Read Accesses: 7635410
L1 CSPT Write Accesses: 3817705
L1 CSPT Read Accesses: 5630754
L1 RR Filter Tag Write Accesses: 11986181
L1 RR Filter Tag Read Accesses: 811859676
L1 IP Table Tag Write Accesses: 24431314
L1 IP Table Tag Read Accesses: 24431314
L1 RST Tag Write Accesses: 0
L1 RST Tag Read Accesses: 34849401
L1 RR Filter Write Accesses: 0
L1 RR Filter Read Accesses: 32264723
test: 207721
L2 IP Table Read Accesses: 3709686
L2 IP Table Write Accesses: 3504500
L2 IP Table Tag Read Accesses: 1883848
L2 IP Table Tag Write Accesses: 1883848

DRAM Statistics
 CHANNEL 0
 RQ ROW_BUFFER_HIT:     525380  ROW_BUFFER_MISS:    1060323
 DBUS_CONGESTED:       1556
 WQ ROW_BUFFER_HIT:      75094  ROW_BUFFER_MISS:     369191  FULL:      10071

 AVG_CONGESTED_CYCLE: 5
 All warmup complete: 2
Channel 0 Bank busy for read cycles: 0
Channel 0 Bank busy for write cycles: 0
Channel 0
Rank 0
0banks busy for read cycles: 44382688
0banks busy for write cycles: 32914
1banks busy for read cycles: 17669576
1banks busy for write cycles: 4754743
2banks busy for read cycles: 8776262
2banks busy for write cycles: 1848695
3banks busy for read cycles: 4620926
3banks busy for write cycles: 1018454
4banks busy for read cycles: 3327436
4banks busy for write cycles: 680852
5banks busy for read cycles: 2798330
5banks busy for write cycles: 538578
6banks busy for read cycles: 2863151
6banks busy for write cycles: 512997
7banks busy for read cycles: 4496853
7banks busy for write cycles: 1136530
8banks busy for read cycles: 8399368
8banks busy for write cycles: 7618960

CPU 0 Branch Prediction Accuracy: 99.8231% MPKI: 0.07731 Average ROB Occupancy at Mispredict: 62.6169
Branch types
NOT_BRANCH: 95630624 95.6306%
BRANCH_DIRECT_JUMP: 17267 0.017267%
BRANCH_INDIRECT: 6 6e-06%
BRANCH_CONDITIONAL: 4299886 4.29989%
BRANCH_DIRECT_CALL: 25986 0.025986%
BRANCH_INDIRECT_CALL: 0 0%
BRANCH_RETURN: 25986 0.025986%
BRANCH_OTHER: 0 0%

DRAM PAGES: 1048576
Allocated PAGES: 9197
