
*** ChampSim Multicore Out-of-Order Simulator ***

Warmup Instructions: 50000000
Simulation Instructions: 100000000
Number of CPUs: 1
LLC sets: 2048
LLC ways: 16
Off-chip DRAM Size: 4096 MB Channels: 1 Width: 64-bit Data Rate: 6400 MT/s
CPU 0 runs ../SPEC2017//621.wrf_s-8065B.champsimtrace.xz
.xz
NUM_OF_IPS_IN_CRITICAL_IP_TRAINING: 64
NUM_OF_CRITICAL_IP_TRAINING_TABLE_WAYS: 2
NUM_OF_CRITICAL_IP_TRAINING_TABLE_SETS: 32
WOBBLY_CRITICAL_IP_CACHE_SETS: 32
WOBBLY_CRITICAL_IP_CACHE_WAYS: 4
BTB has LRU replacement policy
ITLB has LRU replacement policy
DTLB has LRU replacement policy
STLB has LRU replacement policy
L1I has LRU replacement policy
IP Table Entries: 256
L1D has LRU replacement policy
Initialize SRRIP state for L2C
Initialize DRRIP state for LLC
Heartbeat CPU 0 instructions: 10000002 cycles: 3040391 heartbeat IPC: 3.28905 cumulative IPC: 3.28905 (Simulation time: 0 hr 5 min 37 sec) 
Heartbeat CPU 0 instructions: 20000000 cycles: 6051244 heartbeat IPC: 3.32132 cumulative IPC: 3.30511 (Simulation time: 0 hr 9 min 53 sec) 
Heartbeat CPU 0 instructions: 30000000 cycles: 9038759 heartbeat IPC: 3.34726 cumulative IPC: 3.31904 (Simulation time: 0 hr 13 min 39 sec) 
Heartbeat CPU 0 instructions: 40000003 cycles: 12109104 heartbeat IPC: 3.25696 cumulative IPC: 3.3033 (Simulation time: 0 hr 17 min 4 sec) 
Heartbeat CPU 0 instructions: 50000003 cycles: 15112045 heartbeat IPC: 3.33007 cumulative IPC: 3.30862 (Simulation time: 0 hr 20 min 13 sec) 

Warmup complete CPU 0 instructions: 50000003 cycles: 15112045 (Simulation time: 0 hr 20 min 13 sec) 

Heartbeat CPU 0 instructions: 60000003 cycles: 24525664 heartbeat IPC: 1.06229 cumulative IPC: 1.06229 (Simulation time: 0 hr 23 min 59 sec) 
Heartbeat CPU 0 instructions: 70000003 cycles: 35467887 heartbeat IPC: 0.913891 cumulative IPC: 0.982519 (Simulation time: 0 hr 27 min 20 sec) 
Heartbeat CPU 0 instructions: 80000001 cycles: 45187837 heartbeat IPC: 1.02881 cumulative IPC: 0.99748 (Simulation time: 0 hr 30 min 45 sec) 
Heartbeat CPU 0 instructions: 90000000 cycles: 55925968 heartbeat IPC: 0.931261 cumulative IPC: 0.980058 (Simulation time: 0 hr 33 min 53 sec) 
Heartbeat CPU 0 instructions: 100000000 cycles: 65829223 heartbeat IPC: 1.00977 cumulative IPC: 0.985859 (Simulation time: 0 hr 37 min 19 sec) 
Heartbeat CPU 0 instructions: 110000000 cycles: 76386342 heartbeat IPC: 0.947228 cumulative IPC: 0.979203 (Simulation time: 0 hr 39 min 56 sec) 
Heartbeat CPU 0 instructions: 120000000 cycles: 90023406 heartbeat IPC: 0.733296 cumulative IPC: 0.934438 (Simulation time: 0 hr 43 min 38 sec) 
Heartbeat CPU 0 instructions: 130000002 cycles: 103656352 heartbeat IPC: 0.733517 cumulative IPC: 0.903502 (Simulation time: 0 hr 47 min 15 sec) 
Heartbeat CPU 0 instructions: 140000001 cycles: 117289874 heartbeat IPC: 0.733486 cumulative IPC: 0.880817 (Simulation time: 0 hr 50 min 37 sec) 
Heartbeat CPU 0 instructions: 150000002 cycles: 132772550 heartbeat IPC: 0.645883 cumulative IPC: 0.849903 (Simulation time: 0 hr 58 min 30 sec) 
Finished CPU 0 instructions: 100000002 cycles: 117660506 cumulative IPC: 0.849903 (Simulation time: 0 hr 58 min 30 sec) 

ChampSim completed all CPUs

Region of Interest Statistics

CPU 0 cumulative IPC: 0.849903 instructions: 100000002 cycles: 117660506

CPU 0 Average Load ROB stall cycles: 1.52304e+07
CPU 0 Fraction of times ROB stalled by Loads: 21.4088
CPU 0 Percentage of Load stall cycles in Total stall cycles: 3.99007e+08
Issued all: 77616662
Issued LT all: 66212481
rob_not_full_when_issued_lt_all: 31745854
Issued LT one: 51618532
rob_not_full_when_issued_lt_one: 26959152
 Total stall cycles: 95713246
 Total load stall cycles: 381902199676938
CPU 0 NUM of IPS identified critical: 0
CPU 0 Num of Load IPs stalling ROB: 2343
Threshold modification factor: 0
Max PIST entries: 63
Min PIST entries: 0
Avg PIST entries: 27.8733
Trouble in retire width: 0.968743
MaC = Marked as critical.
lt_50_percent_before_Mac: 0
gt_90_percent_before_Mac: 0
gt_75_percent_before_Mac: 0
gt_50_percent_before_Mac: 0
stall_proportion_bin_same_before_after: 0
stall_proportion_bin_lower_before_after: 0
stall_proportion_bin_upper_before_after: 0
average_stall_proportion_before: -nan
average_stall_proportion_after: -nan
Critical IP stalls, total frequency: 0
Non-critical IP stalls, total frequency: 5368264
Total Freq all stalling IPs: 5368264
stat_90_percent_critical_ip_stalls_freq: 4833453
stat_90_percent_non_critical_ip_stalls_freq: 534811
Critical_IP_ROB_Stalls_Bucket_0: 0
Non-critical_IP_ROB_Stalls_Bucket_0: 2801476
Critical_IP_ROB_Stalls_Bucket_1: 0
Non-critical_IP_ROB_Stalls_Bucket_1: 599400
Critical_IP_ROB_Stalls_Bucket_2: 0
Non-critical_IP_ROB_Stalls_Bucket_2: 77962
Critical_IP_ROB_Stalls_Bucket_3: 0
Non-critical_IP_ROB_Stalls_Bucket_3: 57558
Critical_IP_ROB_Stalls_Bucket_4: 0
Non-critical_IP_ROB_Stalls_Bucket_4: 47800
Critical_IP_ROB_Stalls_Bucket_5: 0
Non-critical_IP_ROB_Stalls_Bucket_5: 47683
Critical_IP_ROB_Stalls_Bucket_6: 0
Non-critical_IP_ROB_Stalls_Bucket_6: 1736385
0 => IPs accounting for >50 percent of stalls, 1 => 55, 2 => 60, 3 => 65 and so on till 90.
percent50: 51.7167 num IPs:  20
percent55: 55.1005 num IPs: 22
percent60: 60.3181 num IPs: 26
percent65: 65.4115 num IPs: 30
percent70: 70.2806 num IPs: 34
percent75: 75.2934 num IPs: 39
percent80: 80.5275 num IPs: 45
percent85: 85.0667 num IPs: 55
percent90: 90.0375 num IPs: 77
Critical_ROB_Stalls_Percent_0_Bucket_0: 723081
Non-critical_ROB_Stalls_Percent_0_Bucket_0: 2078395
Critical_ROB_Stalls_Percent_0_Bucket_1: 293498
Non-critical_ROB_Stalls_Percent_0_Bucket_1: 305902
Critical_ROB_Stalls_Percent_0_Bucket_2: 52396
Non-critical_ROB_Stalls_Percent_0_Bucket_2: 25566
Critical_ROB_Stalls_Percent_0_Bucket_3: 35248
Non-critical_ROB_Stalls_Percent_0_Bucket_3: 22310
Critical_ROB_Stalls_Percent_0_Bucket_4: 30151
Non-critical_ROB_Stalls_Percent_0_Bucket_4: 17649
Critical_ROB_Stalls_Percent_0_Bucket_5: 33669
Non-critical_ROB_Stalls_Percent_0_Bucket_5: 14014
Critical_ROB_Stalls_Percent_0_Bucket_6: 1608244
Non-critical_ROB_Stalls_Percent_0_Bucket_6: 128141
Critical_ROB_Stalls_Percent_1_Bucket_0: 884643
Non-critical_ROB_Stalls_Percent_1_Bucket_0: 1916833
Critical_ROB_Stalls_Percent_1_Bucket_1: 312422
Non-critical_ROB_Stalls_Percent_1_Bucket_1: 286978
Critical_ROB_Stalls_Percent_1_Bucket_2: 52806
Non-critical_ROB_Stalls_Percent_1_Bucket_2: 25156
Critical_ROB_Stalls_Percent_1_Bucket_3: 35578
Non-critical_ROB_Stalls_Percent_1_Bucket_3: 21980
Critical_ROB_Stalls_Percent_1_Bucket_4: 30349
Non-critical_ROB_Stalls_Percent_1_Bucket_4: 17451
Critical_ROB_Stalls_Percent_1_Bucket_5: 33820
Non-critical_ROB_Stalls_Percent_1_Bucket_5: 13863
Critical_ROB_Stalls_Percent_1_Bucket_6: 1608324
Non-critical_ROB_Stalls_Percent_1_Bucket_6: 128061
Critical_ROB_Stalls_Percent_2_Bucket_0: 1154700
Non-critical_ROB_Stalls_Percent_2_Bucket_0: 1646776
Critical_ROB_Stalls_Percent_2_Bucket_1: 317406
Non-critical_ROB_Stalls_Percent_2_Bucket_1: 281994
Critical_ROB_Stalls_Percent_2_Bucket_2: 54128
Non-critical_ROB_Stalls_Percent_2_Bucket_2: 23834
Critical_ROB_Stalls_Percent_2_Bucket_3: 38035
Non-critical_ROB_Stalls_Percent_2_Bucket_3: 19523
Critical_ROB_Stalls_Percent_2_Bucket_4: 30887
Non-critical_ROB_Stalls_Percent_2_Bucket_4: 16913
Critical_ROB_Stalls_Percent_2_Bucket_5: 34230
Non-critical_ROB_Stalls_Percent_2_Bucket_5: 13453
Critical_ROB_Stalls_Percent_2_Bucket_6: 1608647
Non-critical_ROB_Stalls_Percent_2_Bucket_6: 127738
Critical_ROB_Stalls_Percent_3_Bucket_0: 1422418
Non-critical_ROB_Stalls_Percent_3_Bucket_0: 1379058
Critical_ROB_Stalls_Percent_3_Bucket_1: 321665
Non-critical_ROB_Stalls_Percent_3_Bucket_1: 277735
Critical_ROB_Stalls_Percent_3_Bucket_2: 54406
Non-critical_ROB_Stalls_Percent_3_Bucket_2: 23556
Critical_ROB_Stalls_Percent_3_Bucket_3: 38402
Non-critical_ROB_Stalls_Percent_3_Bucket_3: 19156
Critical_ROB_Stalls_Percent_3_Bucket_4: 31223
Non-critical_ROB_Stalls_Percent_3_Bucket_4: 16577
Critical_ROB_Stalls_Percent_3_Bucket_5: 34388
Non-critical_ROB_Stalls_Percent_3_Bucket_5: 13295
Critical_ROB_Stalls_Percent_3_Bucket_6: 1608959
Non-critical_ROB_Stalls_Percent_3_Bucket_6: 127426
Critical_ROB_Stalls_Percent_4_Bucket_0: 1682559
Non-critical_ROB_Stalls_Percent_4_Bucket_0: 1118917
Critical_ROB_Stalls_Percent_4_Bucket_1: 322346
Non-critical_ROB_Stalls_Percent_4_Bucket_1: 277054
Critical_ROB_Stalls_Percent_4_Bucket_2: 54569
Non-critical_ROB_Stalls_Percent_4_Bucket_2: 23393
Critical_ROB_Stalls_Percent_4_Bucket_3: 38640
Non-critical_ROB_Stalls_Percent_4_Bucket_3: 18918
Critical_ROB_Stalls_Percent_4_Bucket_4: 31268
Non-critical_ROB_Stalls_Percent_4_Bucket_4: 16532
Critical_ROB_Stalls_Percent_4_Bucket_5: 34422
Non-critical_ROB_Stalls_Percent_4_Bucket_5: 13261
Critical_ROB_Stalls_Percent_4_Bucket_6: 1609043
Non-critical_ROB_Stalls_Percent_4_Bucket_6: 127342
Critical_ROB_Stalls_Percent_5_Bucket_0: 1940545
Non-critical_ROB_Stalls_Percent_5_Bucket_0: 860931
Critical_ROB_Stalls_Percent_5_Bucket_1: 331679
Non-critical_ROB_Stalls_Percent_5_Bucket_1: 267721
Critical_ROB_Stalls_Percent_5_Bucket_2: 54956
Non-critical_ROB_Stalls_Percent_5_Bucket_2: 23006
Critical_ROB_Stalls_Percent_5_Bucket_3: 39173
Non-critical_ROB_Stalls_Percent_5_Bucket_3: 18385
Critical_ROB_Stalls_Percent_5_Bucket_4: 31648
Non-critical_ROB_Stalls_Percent_5_Bucket_4: 16152
Critical_ROB_Stalls_Percent_5_Bucket_5: 34661
Non-critical_ROB_Stalls_Percent_5_Bucket_5: 13022
Critical_ROB_Stalls_Percent_5_Bucket_6: 1609284
Non-critical_ROB_Stalls_Percent_5_Bucket_6: 127101
Critical_ROB_Stalls_Percent_6_Bucket_0: 2211450
Non-critical_ROB_Stalls_Percent_6_Bucket_0: 590026
Critical_ROB_Stalls_Percent_6_Bucket_1: 336186
Non-critical_ROB_Stalls_Percent_6_Bucket_1: 263214
Critical_ROB_Stalls_Percent_6_Bucket_2: 55940
Non-critical_ROB_Stalls_Percent_6_Bucket_2: 22022
Critical_ROB_Stalls_Percent_6_Bucket_3: 41404
Non-critical_ROB_Stalls_Percent_6_Bucket_3: 16154
Critical_ROB_Stalls_Percent_6_Bucket_4: 32440
Non-critical_ROB_Stalls_Percent_6_Bucket_4: 15360
Critical_ROB_Stalls_Percent_6_Bucket_5: 35226
Non-critical_ROB_Stalls_Percent_6_Bucket_5: 12457
Critical_ROB_Stalls_Percent_6_Bucket_6: 1610281
Non-critical_ROB_Stalls_Percent_6_Bucket_6: 126104
Critical_ROB_Stalls_Percent_7_Bucket_0: 2409546
Non-critical_ROB_Stalls_Percent_7_Bucket_0: 391930
Critical_ROB_Stalls_Percent_7_Bucket_1: 371931
Non-critical_ROB_Stalls_Percent_7_Bucket_1: 227469
Critical_ROB_Stalls_Percent_7_Bucket_2: 59140
Non-critical_ROB_Stalls_Percent_7_Bucket_2: 18822
Critical_ROB_Stalls_Percent_7_Bucket_3: 44427
Non-critical_ROB_Stalls_Percent_7_Bucket_3: 13131
Critical_ROB_Stalls_Percent_7_Bucket_4: 34210
Non-critical_ROB_Stalls_Percent_7_Bucket_4: 13590
Critical_ROB_Stalls_Percent_7_Bucket_5: 36158
Non-critical_ROB_Stalls_Percent_7_Bucket_5: 11525
Critical_ROB_Stalls_Percent_7_Bucket_6: 1611191
Non-critical_ROB_Stalls_Percent_7_Bucket_6: 125194
Critical_ROB_Stalls_Percent_8_Bucket_0: 2501589
Non-critical_ROB_Stalls_Percent_8_Bucket_0: 299887
Critical_ROB_Stalls_Percent_8_Bucket_1: 479120
Non-critical_ROB_Stalls_Percent_8_Bucket_1: 120280
Critical_ROB_Stalls_Percent_8_Bucket_2: 66030
Non-critical_ROB_Stalls_Percent_8_Bucket_2: 11932
Critical_ROB_Stalls_Percent_8_Bucket_3: 48037
Non-critical_ROB_Stalls_Percent_8_Bucket_3: 9521
Critical_ROB_Stalls_Percent_8_Bucket_4: 37926
Non-critical_ROB_Stalls_Percent_8_Bucket_4: 9874
Critical_ROB_Stalls_Percent_8_Bucket_5: 39566
Non-critical_ROB_Stalls_Percent_8_Bucket_5: 8117
Critical_ROB_Stalls_Percent_8_Bucket_6: 1661185
Non-critical_ROB_Stalls_Percent_8_Bucket_6: 75200
Average ROB occupancy Load Stall Begin: 135.41
Average ROB occupancy Load Stall End: 142.436
Min ROB occupancy Load Stall Begin: 1
Max ROB occupancy Load Stall Begin: 352
Min ROB occupancy Load Stall End: 1
Max ROB occupancy Load Stall End: 352
Average ROB occupancy Critical Load Stall Begin: -nan
Average ROB occupancy Critical Load Stall End: -nan
Min ROB occupancy Critical Load Stall Begin: 400
Max ROB occupancy Critical Load Stall Begin: 0
Min ROB occupancy Critical Load Stall End: 400
Max ROB occupancy Critical Load Stall End: 0
 ROB Load Stall Begin Bucket Count 0: 2964566
 ROB Load Stall End Bucket Count 0: 2801476
 ROB Critical Load Stall Begin Bucket Count 0: 0
 ROB Critical Load Stall End Bucket Count 0: 0
 ROB Load Stall Begin Bucket Count 1: 479999
 ROB Load Stall End Bucket Count 1: 599400
 ROB Critical Load Stall Begin Bucket Count 1: 0
 ROB Critical Load Stall End Bucket Count 1: 0
 ROB Load Stall Begin Bucket Count 2: 56188
 ROB Load Stall End Bucket Count 2: 77962
 ROB Critical Load Stall Begin Bucket Count 2: 0
 ROB Critical Load Stall End Bucket Count 2: 0
 ROB Load Stall Begin Bucket Count 3: 57060
 ROB Load Stall End Bucket Count 3: 57558
 ROB Critical Load Stall Begin Bucket Count 3: 0
 ROB Critical Load Stall End Bucket Count 3: 0
 ROB Load Stall Begin Bucket Count 4: 44755
 ROB Load Stall End Bucket Count 4: 47800
 ROB Critical Load Stall Begin Bucket Count 4: 0
 ROB Critical Load Stall End Bucket Count 4: 0
 ROB Load Stall Begin Bucket Count 5: 47037
 ROB Load Stall End Bucket Count 5: 47683
 ROB Critical Load Stall Begin Bucket Count 5: 0
 ROB Critical Load Stall End Bucket Count 5: 0
 ROB Load Stall Begin Bucket Count 6: 1718659
 ROB Load Stall End Bucket Count 6: 1736385
 ROB Critical Load Stall Begin Bucket Count 6: 0
 ROB Critical Load Stall End Bucket Count 6: 0
PIST Tag Read Accesses: 405696
PIST Read Accesses: 202848
PIST Tag Write Accesses: 405696
PIST Write Accesses: 202848
Criticality detector called times: 1619024
Max global_stall_cycles_count: 1009046
Threshold Modified: 0 times, factor: 0
Sturdy critical IP cache stats: 
 Unused entries: 0
CIC Tag Read Accesses: 0
CIC Read Accesses: 0
CIC Tag Write Accesses: 0
CIC Write Accesses: 0
Wobbly critical IP cache stats: 
 Unused entries: 29
CIC Tag Read Accesses: 255633791
CIC Read Accesses: 0
CIC Tag Write Accesses: 2448952
CIC Write Accesses: 0
ITLB TOTAL     ACCESS:   14844239  HIT:   14844195  MISS:         44  HIT %:    99.9997  MISS %: 0.000296411   MPKI: 0.00044
ITLB LOAD TRANSLATION ACCESS:   14844239  HIT:   14844195  MISS:         44  HIT %:    99.9997  MISS %: 0.000296411   MPKI: 0.00044
ITLB PREFETCH  REQUESTED:          0  ISSUED:          0  USEFUL:          0  USELESS:          0
ITLB USEFUL LOAD PREFETCHES:          0 PREFETCH ISSUED TO LOWER LEVEL:          0  ACCURACY: -nan
ITLB TIMELY PREFETCHES:          0 LATE PREFETCHES: 0 DROPPED PREFETCHES: 0
ITLB PREFETCHES SAME FILL-ORIGIN LEVEL: 0 DIFFERENT FILL-ORIGIN LEVEL: 0
ITLB AVERAGE MISS LATENCY: 255.477 cycles
ITLB RQ	ACCESS:   18234516	FORWARD:          0	MERGED:    3390262	TO_CACHE:   14844254

DTLB TOTAL     ACCESS:   20261082  HIT:   20216695  MISS:      44387  HIT %:    99.7809  MISS %:   0.219075   MPKI: 0.44387
DTLB LOAD TRANSLATION ACCESS:   20261082  HIT:   20216695  MISS:      44387  HIT %:    99.7809  MISS %:   0.219075   MPKI: 0.44387
DTLB PREFETCH  REQUESTED:          0  ISSUED:          0  USEFUL:          0  USELESS:          0
DTLB USEFUL LOAD PREFETCHES:          0 PREFETCH ISSUED TO LOWER LEVEL:          0  ACCURACY: -nan
DTLB TIMELY PREFETCHES:          0 LATE PREFETCHES: 0 DROPPED PREFETCHES: 0
DTLB PREFETCHES SAME FILL-ORIGIN LEVEL: 0 DIFFERENT FILL-ORIGIN LEVEL: 0
DTLB AVERAGE MISS LATENCY: 25.9177 cycles
DTLB RQ	ACCESS:   22708324	FORWARD:          0	MERGED:    2429314	TO_CACHE:   20279010

STLB TOTAL     ACCESS:     703588  HIT:     697692  MISS:       5896  HIT %:     99.162  MISS %:    0.83799   MPKI: 0.05896
STLB LOAD TRANSLATION ACCESS:      44431  HIT:      38535  MISS:       5896  HIT %:      86.73  MISS %:      13.27   MPKI: 0.05896
STLB TRANSLATION FROM L1D PREFETCHER ACCESS:     659157  HIT:     659157  MISS:          0  HIT %:        100  MISS %:          0   MPKI: 0
STLB PREFETCH  REQUESTED:          0  ISSUED:          0  USEFUL:          0  USELESS:          0
STLB USEFUL LOAD PREFETCHES:          0 PREFETCH ISSUED TO LOWER LEVEL:          0  ACCURACY: -nan
STLB TIMELY PREFETCHES:          0 LATE PREFETCHES: 0 DROPPED PREFETCHES: 0
STLB PREFETCHES SAME FILL-ORIGIN LEVEL: 0 DIFFERENT FILL-ORIGIN LEVEL: 0
STLB AVERAGE MISS LATENCY: 127.965 cycles
STLB RQ	ACCESS:    1567706	FORWARD:          0	MERGED:     864118	TO_CACHE:     703588

STLB Hit, L1D data hit: 0
STLB Hit, L2C data hit: 0
STLB Hit, LLC data hit: 0
STLB Hit, LLC data miss: 0
STLB STLB hints to L2: 0
L1D TOTAL     ACCESS:   23531741  HIT:   22350068  MISS:    1181673  HIT %:    94.9784  MISS %:    5.02161   MPKI: 11.8167
L1D LOAD      ACCESS:   18545538  HIT:   18241682  MISS:     303856  HIT %:    98.3616  MISS %:    1.63843   MPKI: 3.03856
L1D RFO       ACCESS:    3481424  HIT:    3261028  MISS:     220396  HIT %:    93.6694  MISS %:    6.33063   MPKI: 2.20396
L1D PREFETCH  ACCESS:    1504779  HIT:     847358  MISS:     657421  HIT %:    56.3111  MISS %:    43.6889   MPKI: 6.57421
L1D PREFETCH  REQUESTED:    3384621  ISSUED:    3046609  USEFUL:     546110  USELESS:     111290
L1D USEFUL LOAD PREFETCHES:     546110 PREFETCH ISSUED TO LOWER LEVEL:     803432  ACCURACY: 67.9721
L1D TIMELY PREFETCHES:     546110 LATE PREFETCHES: 7940 DROPPED PREFETCHES: 0
L1D PREFETCHES SAME FILL-ORIGIN LEVEL: 803432 DIFFERENT FILL-ORIGIN LEVEL: 0
L1D AVERAGE MISS LATENCY: 568118 cycles
L1D RQ	ACCESS:   26006823	FORWARD:          0	MERGED:    7359086	TO_CACHE:   18642874
L1D WQ	ACCESS:    4083148	FORWARD:       4906	MERGED:      17698	TO_CACHE:    4065450
L1D PQ	ACCESS:    1523334	FORWARD:          0	MERGED:         16	TO_CACHE:    1523275

L1D UNIQUE REGIONS ACCESSED: 0
L1D REGIONS CONFLICTS: 0
L1D Cross Page Prefetch Requests: 0
L1D Same Page Prefetch Requests: 1523334
L1D ROI Sum of L1D PQ occupancy: 42425390
L1D PREFETCHES PUSHED FROM L2C: 0
L1I TOTAL     ACCESS:   18233473  HIT:   18231397  MISS:       2076  HIT %:    99.9886  MISS %:  0.0113857   MPKI: 0.02076
L1I LOAD      ACCESS:   18233473  HIT:   18231397  MISS:       2076  HIT %:    99.9886  MISS %:  0.0113857   MPKI: 0.02076
L1I PREFETCH  REQUESTED:          0  ISSUED:          0  USEFUL:          0  USELESS:          0
L1I USEFUL LOAD PREFETCHES:          0 PREFETCH ISSUED TO LOWER LEVEL:          0  ACCURACY: -nan
L1I TIMELY PREFETCHES:          0 LATE PREFETCHES: 0 DROPPED PREFETCHES: 0
L1I PREFETCHES SAME FILL-ORIGIN LEVEL: 0 DIFFERENT FILL-ORIGIN LEVEL: 0
L1I AVERAGE MISS LATENCY: 223.301 cycles
L1I RQ	ACCESS:   28725389	FORWARD:          0	MERGED:   10490873	TO_CACHE:   18234516

BTB TOTAL     ACCESS:    4428758  HIT:    4427934  MISS:        824  HIT %:    99.9814  MISS %:  0.0186057   MPKI: 0.00824
BTB BRANCH_DIRECT_JUMP	ACCESS:     279102  HIT:     279036  MISS:         66
BTB BRANCH_INDIRECT	ACCESS:          6  HIT:          4  MISS:          2
BTB BRANCH_CONDITIONAL	ACCESS:    3632353  HIT:    3632002  MISS:        351
BTB BRANCH_DIRECT_CALL	ACCESS:     258649  HIT:     258495  MISS:        154
BTB BRANCH_INDIRECT_CALL	ACCESS:          0  HIT:          0  MISS:          0
BTB BRANCH_RETURN	ACCESS:     258648  HIT:     258397  MISS:        251
BTB BRANCH_OTHER ACCESS:          0  HIT:          0  MISS:          0

L2C TOTAL     ACCESS:    3736066  HIT:    2811669  MISS:     924397  HIT %:    75.2575  MISS %:    24.7425   MPKI: 9.24397
L2C LOAD      ACCESS:     297991  HIT:     174448  MISS:     123543  HIT %:    58.5414  MISS %:    41.4586   MPKI: 1.23543
L2C DATA LOAD MPKI: 1.21467
L2C INSTRUCTION LOAD MPKI: 0.02076
L2C RFO       ACCESS:     219920  HIT:      26366  MISS:     193554  HIT %:    11.9889  MISS %:    88.0111   MPKI: 1.93554
L2C PREFETCH  ACCESS:    2771549  HIT:    2173022  MISS:     598527  HIT %:    78.4046  MISS %:    21.5954   MPKI: 5.98527
L2C DATA PREFETCH MPKI: 5.98527
L2C INSTRUCTION PREFETCH MPKI: 0
L2C WRITEBACK ACCESS:     440691  HIT:     433017  MISS:       7674  HIT %:    98.2586  MISS %:    1.74136   MPKI: 0.07674
L2C LOAD TRANSLATION ACCESS:       5915  HIT:       4816  MISS:       1099  HIT %:    81.4201  MISS %:    18.5799   MPKI: 0.01099
L2C PREFETCH  REQUESTED:    3291708  ISSUED:    2817497  USEFUL:      76082  USELESS:     519404
L2C USEFUL LOAD PREFETCHES:      76082 PREFETCH ISSUED TO LOWER LEVEL:     600309  ACCURACY: 12.6738
L2C TIMELY PREFETCHES:      76082 LATE PREFETCHES: 1774 DROPPED PREFETCHES: 0
L2C PREFETCHES SAME FILL-ORIGIN LEVEL: 498707 DIFFERENT FILL-ORIGIN LEVEL: 0
L2C AVERAGE MISS LATENCY: 230.48 cycles
L2C RQ	ACCESS:     523828	FORWARD:          0	MERGED:          0	TO_CACHE:     523827
L2C WQ	ACCESS:     440691	FORWARD:         14	MERGED:          0	TO_CACHE:     440691
L2C PQ	ACCESS:    3483338	FORWARD:          0	MERGED:     492808	TO_CACHE:    2990517

L2C Instructions Evicting Data 2075
L2C Translations Evicting Data 1098
L2C Data Evicting Data 910417
L2C Instructions Evicting Instructions 0
L2C Translations Evicting Instructions 1
L2C Data Evicting Instructions 2063
L2C Instructions Evicting Translations 1
L2C Translations Evicting Translations 0
L2C Data Evicting Translations 1068
L2C Dense regions hint from L2: 0
PSCL5 TOTAL     ACCESS:       5896  HIT:       5896  MISS:          0  HIT %:        100  MISS %:          0   MPKI: 0
PSCL5 LOAD TRANSLATION ACCESS:       5896  HIT:       5896  MISS:          0  HIT %:        100  MISS %:          0   MPKI: 0
PSCL5 PREFETCH  REQUESTED:          0  ISSUED:          0  USEFUL:          0  USELESS:          0
PSCL5 USEFUL LOAD PREFETCHES:          0 PREFETCH ISSUED TO LOWER LEVEL:          0  ACCURACY: -nan
PSCL5 TIMELY PREFETCHES:          0 LATE PREFETCHES: 0 DROPPED PREFETCHES: 0
PSCL5 PREFETCHES SAME FILL-ORIGIN LEVEL: 0 DIFFERENT FILL-ORIGIN LEVEL: 0

PSCL4 TOTAL     ACCESS:       5896  HIT:       5896  MISS:          0  HIT %:        100  MISS %:          0   MPKI: 0
PSCL4 LOAD TRANSLATION ACCESS:       5896  HIT:       5896  MISS:          0  HIT %:        100  MISS %:          0   MPKI: 0
PSCL4 PREFETCH  REQUESTED:          0  ISSUED:          0  USEFUL:          0  USELESS:          0
PSCL4 USEFUL LOAD PREFETCHES:          0 PREFETCH ISSUED TO LOWER LEVEL:          0  ACCURACY: -nan
PSCL4 TIMELY PREFETCHES:          0 LATE PREFETCHES: 0 DROPPED PREFETCHES: 0
PSCL4 PREFETCHES SAME FILL-ORIGIN LEVEL: 0 DIFFERENT FILL-ORIGIN LEVEL: 0

PSCL3 TOTAL     ACCESS:       5896  HIT:       5896  MISS:          0  HIT %:        100  MISS %:          0   MPKI: 0
PSCL3 LOAD TRANSLATION ACCESS:       5896  HIT:       5896  MISS:          0  HIT %:        100  MISS %:          0   MPKI: 0
PSCL3 PREFETCH  REQUESTED:          0  ISSUED:          0  USEFUL:          0  USELESS:          0
PSCL3 USEFUL LOAD PREFETCHES:          0 PREFETCH ISSUED TO LOWER LEVEL:          0  ACCURACY: -nan
PSCL3 TIMELY PREFETCHES:          0 LATE PREFETCHES: 0 DROPPED PREFETCHES: 0
PSCL3 PREFETCHES SAME FILL-ORIGIN LEVEL: 0 DIFFERENT FILL-ORIGIN LEVEL: 0

PSCL2 TOTAL     ACCESS:       5896  HIT:       5873  MISS:         23  HIT %:    99.6099  MISS %:   0.390095   MPKI: 0.00023
PSCL2 LOAD TRANSLATION ACCESS:       5896  HIT:       5873  MISS:         23  HIT %:    99.6099  MISS %:   0.390095   MPKI: 0.00023
PSCL2 PREFETCH  REQUESTED:          0  ISSUED:          0  USEFUL:          0  USELESS:          0
PSCL2 USEFUL LOAD PREFETCHES:          0 PREFETCH ISSUED TO LOWER LEVEL:          0  ACCURACY: -nan
PSCL2 TIMELY PREFETCHES:          0 LATE PREFETCHES: 0 DROPPED PREFETCHES: 0
PSCL2 PREFETCHES SAME FILL-ORIGIN LEVEL: 0 DIFFERENT FILL-ORIGIN LEVEL: 0

LLC TOTAL     ACCESS:    1312347  HIT:     684359  MISS:     627988  HIT %:    52.1477  MISS %:    47.8523   MPKI: 6.27988
LLC LOAD      ACCESS:     122119  HIT:      62062  MISS:      60057  HIT %:    50.8209  MISS %:    49.1791   MPKI: 0.60057
LLC RFO       ACCESS:     193202  HIT:      28465  MISS:     164737  HIT %:    14.7333  MISS %:    85.2667   MPKI: 1.64737
LLC PREFETCH  ACCESS:     600300  HIT:     208399  MISS:     391901  HIT %:    34.7158  MISS %:    65.2842   MPKI: 3.91901
LLC WRITEBACK ACCESS:     395627  HIT:     385336  MISS:      10291  HIT %:    97.3988  MISS %:    2.60119   MPKI: 0.10291
LLC LOAD TRANSLATION ACCESS:       1099  HIT:         97  MISS:       1002  HIT %:    8.82621  MISS %:    91.1738   MPKI: 0.01002
LLC PREFETCH  REQUESTED:          0  ISSUED:          0  USEFUL:      42837  USELESS:     330274
LLC USEFUL LOAD PREFETCHES:      42837 PREFETCH ISSUED TO LOWER LEVEL:     391909  ACCURACY: 10.9303
LLC TIMELY PREFETCHES:      42837 LATE PREFETCHES: 0 DROPPED PREFETCHES: 0
LLC PREFETCHES SAME FILL-ORIGIN LEVEL: 0 DIFFERENT FILL-ORIGIN LEVEL: 0
LLC AVERAGE MISS LATENCY: 295.698 cycles
LLC RQ	ACCESS:     316423	FORWARD:          0	MERGED:          0	TO_CACHE:     316421
LLC WQ	ACCESS:     395627	FORWARD:          3	MERGED:          0	TO_CACHE:     395627
LLC PQ	ACCESS:     600309	FORWARD:          0	MERGED:          0	TO_CACHE:     600308

LLC Dense regions hint to LLC: 0

RAW hits: 53191
Loads Generated: 26060014
Loads sent to L1D: 26006823
Stores Generated: 4083140
Stores sent to L1D: 4083148
Major fault: 0 Minor fault: 6967
Allocated PAGES: 6967

stream: 
stream:times selected: 845478
stream:pref_filled: 634930
stream:pref_useful: 531669
stream:pref_late: 7362
stream:misses: 7757
stream:misses_by_poll: 0

CS: 
CS:times selected: 795691
CS:pref_filled: 3731
CS:pref_useful: 746
CS:pref_late: 31
CS:misses: 4321
CS:misses_by_poll: 55

CPLX: 
CPLX:times selected: 811829
CPLX:pref_filled: 18655
CPLX:pref_useful: 13657
CPLX:pref_late: 276
CPLX:misses: 102585
CPLX:misses_by_poll: 244

NL_L1: 
NL:times selected: 226
NL:pref_filled: 64
NL:pref_useful: 0
NL:pref_late: 0
NL:misses: 213
NL:misses_by_poll: 0

total selections: 2453224
total_filled: 657421
total_useful: 546110
total_late: 7940
total_polluted: 299
total_misses_after_warmup: 115110
conflicts: 179
Degree Incremented Times: 83252
Degree Decremented Times: 16162

L1 IP Table Write Accesses: 9674546
L1 IP Table Read Accesses: 9674367
L1 RST Write Accesses: 845479
L1 RST Read Accesses: 1690950
L1 CSPT Write Accesses: 845479
L1 CSPT Read Accesses: 3220884
L1 RR Filter Tag Write Accesses: 1861346
L1 RR Filter Tag Read Accesses: 191405703
L1 IP Table Tag Write Accesses: 9782639
L1 IP Table Tag Read Accesses: 9782639
L1 RST Tag Write Accesses: 56
L1 RST Tag Read Accesses: 7600303
L1 RR Filter Write Accesses: 0
L1 RR Filter Read Accesses: 7857230
test: 33607
L2 IP Table Read Accesses: 1231122
L2 IP Table Write Accesses: 1146407
L2 IP Table Tag Read Accesses: 615659
L2 IP Table Tag Write Accesses: 615659

DRAM Statistics
 CHANNEL 0
 RQ ROW_BUFFER_HIT:     198697  ROW_BUFFER_MISS:     418706
 DBUS_CONGESTED:        490
 WQ ROW_BUFFER_HIT:      49273  ROW_BUFFER_MISS:     239209  FULL:        312

 AVG_CONGESTED_CYCLE: 5
 All warmup complete: 2
Channel 0 Bank busy for read cycles: 0
Channel 0 Bank busy for write cycles: 0
Channel 0
Rank 0
0banks busy for read cycles: 75217701
0banks busy for write cycles: 47106
1banks busy for read cycles: 14344845
1banks busy for write cycles: 5862553
2banks busy for read cycles: 5223366
2banks busy for write cycles: 1708379
3banks busy for read cycles: 1902240
3banks busy for write cycles: 805502
4banks busy for read cycles: 1055365
4banks busy for write cycles: 529733
5banks busy for read cycles: 832124
5banks busy for write cycles: 420895
6banks busy for read cycles: 781304
6banks busy for write cycles: 380398
7banks busy for read cycles: 1219466
7banks busy for write cycles: 619327
8banks busy for read cycles: 2847854
8banks busy for write cycles: 3862349

CPU 0 Branch Prediction Accuracy: 99.89% MPKI: 0.07455 Average ROB Occupancy at Mispredict: 165.482
Branch types
NOT_BRANCH: 93224227 93.2242%
BRANCH_DIRECT_JUMP: 279102 0.279102%
BRANCH_INDIRECT: 6 6e-06%
BRANCH_CONDITIONAL: 5979015 5.97901%
BRANCH_DIRECT_CALL: 258649 0.258649%
BRANCH_INDIRECT_CALL: 0 0%
BRANCH_RETURN: 258648 0.258648%
BRANCH_OTHER: 0 0%

DRAM PAGES: 1048576
Allocated PAGES: 6967
