
*** ChampSim Multicore Out-of-Order Simulator ***

Warmup Instructions: 50000000
Simulation Instructions: 100000000
Number of CPUs: 1
LLC sets: 2048
LLC ways: 16
Off-chip DRAM Size: 4096 MB Channels: 1 Width: 64-bit Data Rate: 6400 MT/s
CPU 0 runs ../SPEC2017//621.wrf_s-8065B.champsimtrace.xz
.xz
NUM_OF_IPS_IN_CRITICAL_IP_TRAINING: 64
NUM_OF_CRITICAL_IP_TRAINING_TABLE_WAYS: 2
NUM_OF_CRITICAL_IP_TRAINING_TABLE_SETS: 32
WOBBLY_CRITICAL_IP_CACHE_SETS: 32
WOBBLY_CRITICAL_IP_CACHE_WAYS: 4
BTB has LRU replacement policy
ITLB has LRU replacement policy
DTLB has LRU replacement policy
STLB has LRU replacement policy
L1I has LRU replacement policy
L1D has LRU replacement policy
Bingo PHT WAYS: 16 and PHT_SIZE: 16384
Initialize SRRIP state for L2C
Initialize DRRIP state for LLC
Heartbeat CPU 0 instructions: 10000002 cycles: 3030817 heartbeat IPC: 3.29944 cumulative IPC: 3.29944 (Simulation time: 0 hr 5 min 41 sec) 
Heartbeat CPU 0 instructions: 20000000 cycles: 6041416 heartbeat IPC: 3.3216 cumulative IPC: 3.31048 (Simulation time: 0 hr 10 min 5 sec) 
Heartbeat CPU 0 instructions: 30000003 cycles: 9027086 heartbeat IPC: 3.34933 cumulative IPC: 3.32333 (Simulation time: 0 hr 14 min 8 sec) 
Heartbeat CPU 0 instructions: 40000003 cycles: 12097308 heartbeat IPC: 3.25709 cumulative IPC: 3.30652 (Simulation time: 0 hr 17 min 36 sec) 
Heartbeat CPU 0 instructions: 50000003 cycles: 15099131 heartbeat IPC: 3.33131 cumulative IPC: 3.31145 (Simulation time: 0 hr 20 min 59 sec) 

Warmup complete CPU 0 instructions: 50000003 cycles: 15099131 (Simulation time: 0 hr 20 min 59 sec) 

% increase in all ip prefetch 339.745
% increase in all ip prefetch -0.0497636
Heartbeat CPU 0 instructions: 60000003 cycles: 24201550 heartbeat IPC: 1.09861 cumulative IPC: 1.09861 (Simulation time: 0 hr 24 min 37 sec) 
Heartbeat CPU 0 instructions: 70000003 cycles: 35128002 heartbeat IPC: 0.91521 cumulative IPC: 0.998559 (Simulation time: 0 hr 27 min 47 sec) 
Heartbeat CPU 0 instructions: 80000001 cycles: 44488294 heartbeat IPC: 1.06834 cumulative IPC: 1.02078 (Simulation time: 0 hr 31 min 13 sec) 
Heartbeat CPU 0 instructions: 90000000 cycles: 55235368 heartbeat IPC: 0.930486 cumulative IPC: 0.996606 (Simulation time: 0 hr 34 min 7 sec) 
Heartbeat CPU 0 instructions: 100000000 cycles: 64791807 heartbeat IPC: 1.04641 cumulative IPC: 1.00618 (Simulation time: 0 hr 37 min 13 sec) 
Heartbeat CPU 0 instructions: 110000000 cycles: 75357782 heartbeat IPC: 0.946434 cumulative IPC: 0.995708 (Simulation time: 0 hr 39 min 53 sec) 
Heartbeat CPU 0 instructions: 120000000 cycles: 88935333 heartbeat IPC: 0.73651 cumulative IPC: 0.948044 (Simulation time: 0 hr 43 min 22 sec) 
Heartbeat CPU 0 instructions: 130000002 cycles: 102612970 heartbeat IPC: 0.731121 cumulative IPC: 0.914141 (Simulation time: 0 hr 46 min 56 sec) 
Heartbeat CPU 0 instructions: 140000001 cycles: 116286073 heartbeat IPC: 0.731363 cumulative IPC: 0.889443 (Simulation time: 0 hr 50 min 8 sec) 
Heartbeat CPU 0 instructions: 150000002 cycles: 131103605 heartbeat IPC: 0.674876 cumulative IPC: 0.862036 (Simulation time: 0 hr 52 min 42 sec) 
Finished CPU 0 instructions: 100000003 cycles: 116004475 cumulative IPC: 0.862036 (Simulation time: 0 hr 52 min 42 sec) 

ChampSim completed all CPUs

Region of Interest Statistics

CPU 0 cumulative IPC: 0.862036 instructions: 100000003 cycles: 116004475

CPU 0 Average Load ROB stall cycles: 3.80027e+06
CPU 0 Fraction of times ROB stalled by Loads: 6.67801
CPU 0 Percentage of Load stall cycles in Total stall cycles: 1.13183e+08
 Total stall cycles: 72499985
 Total load stall cycles: 82057697600765
CPU 0 NUM of IPS identified critical: 0

Threshold modification factor: -1
Max PIST entries: 59
Min PIST entries: 0
Avg PIST entries: 23.88
Average ROB occupancy Load Stall Begin: 52.3097
Average ROB occupancy Load Stall End: 58.2296
Min ROB occupancy Load Stall Begin: 1
Max ROB occupancy Load Stall Begin: 351
Min ROB occupancy Load Stall End: 1
Max ROB occupancy Load Stall End: 352
Average ROB occupancy Critical Load Stall Begin: -nan
Average ROB occupancy Critical Load Stall End: -nan
Min ROB occupancy Critical Load Stall Begin: 400
Max ROB occupancy Critical Load Stall Begin: 0
Min ROB occupancy Critical Load Stall End: 400
Max ROB occupancy Critical Load Stall End: 0
 ROB Load Stall Begin Bucket Count 0: 1128543
 ROB Load Stall End Bucket Count 0: 1090998
 ROB Critical Load Stall Begin Bucket Count 0: 0
 ROB Critical Load Stall End Bucket Count 0: 0
 ROB Load Stall Begin Bucket Count 1: 175924
 ROB Load Stall End Bucket Count 1: 202087
 ROB Critical Load Stall Begin Bucket Count 1: 0
 ROB Critical Load Stall End Bucket Count 1: 0
 ROB Load Stall Begin Bucket Count 2: 19194
 ROB Load Stall End Bucket Count 2: 21723
 ROB Critical Load Stall Begin Bucket Count 2: 0
 ROB Critical Load Stall End Bucket Count 2: 0
 ROB Load Stall Begin Bucket Count 3: 10401
 ROB Load Stall End Bucket Count 3: 11832
 ROB Critical Load Stall Begin Bucket Count 3: 0
 ROB Critical Load Stall End Bucket Count 3: 0
 ROB Load Stall Begin Bucket Count 4: 6981
 ROB Load Stall End Bucket Count 4: 9363
 ROB Critical Load Stall Begin Bucket Count 4: 0
 ROB Critical Load Stall End Bucket Count 4: 0
 ROB Load Stall Begin Bucket Count 5: 7453
 ROB Load Stall End Bucket Count 5: 7770
 ROB Critical Load Stall Begin Bucket Count 5: 0
 ROB Critical Load Stall End Bucket Count 5: 0
 ROB Load Stall Begin Bucket Count 6: 93461
 ROB Load Stall End Bucket Count 6: 98184
 ROB Critical Load Stall Begin Bucket Count 6: 0
 ROB Critical Load Stall End Bucket Count 6: 0
PIST Tag Read Accesses: 178268
PIST Read Accesses: 89134
PIST Tag Write Accesses: 178268
PIST Write Accesses: 89134
Criticality detector called times: 572151
Max global_stall_cycles_count: 314100
Threshold Modified: 1 times, factor: -1
Sturdy critical IP cache stats: 
 Unused entries: 0
CIC Tag Read Accesses: 0
CIC Read Accesses: 0
CIC Tag Write Accesses: 0
CIC Write Accesses: 0
Wobbly critical IP cache stats: 
 Unused entries: 82
CIC Tag Read Accesses: 128414509
CIC Read Accesses: 0
CIC Tag Write Accesses: 127
CIC Write Accesses: 0
ITLB TOTAL     ACCESS:   14844087  HIT:   14844043  MISS:         44  HIT %:    99.9997  MISS %: 0.000296414   MPKI: 0.00044
ITLB LOAD TRANSLATION ACCESS:   14844087  HIT:   14844043  MISS:         44  HIT %:    99.9997  MISS %: 0.000296414   MPKI: 0.00044
ITLB PREFETCHES SAME FILL-ORIGIN LEVEL: 0 DIFFERENT FILL-ORIGIN LEVEL: 0
ITLB AVERAGE MISS LATENCY: 258.955 cycles
ITLB RQ	ACCESS:   18231818	FORWARD:          0	MERGED:    3387716	TO_CACHE:   14844102

DTLB TOTAL     ACCESS:   20268436  HIT:   20224124  MISS:      44312  HIT %:    99.7814  MISS %:   0.218626   MPKI: 0.44312
DTLB LOAD TRANSLATION ACCESS:   20268436  HIT:   20224124  MISS:      44312  HIT %:    99.7814  MISS %:   0.218626   MPKI: 0.44312
DTLB PREFETCHES SAME FILL-ORIGIN LEVEL: 0 DIFFERENT FILL-ORIGIN LEVEL: 0
DTLB AVERAGE MISS LATENCY: 24.66 cycles
DTLB RQ	ACCESS:   22722573	FORWARD:          0	MERGED:    2435909	TO_CACHE:   20286664

STLB TOTAL     ACCESS:      44356  HIT:      38461  MISS:       5895  HIT %:    86.7098  MISS %:    13.2902   MPKI: 0.05895
STLB LOAD TRANSLATION ACCESS:      44356  HIT:      38461  MISS:       5895  HIT %:    86.7098  MISS %:    13.2902   MPKI: 0.05895
STLB PREFETCHES SAME FILL-ORIGIN LEVEL: 0 DIFFERENT FILL-ORIGIN LEVEL: 0
STLB AVERAGE MISS LATENCY: 118.492 cycles
STLB RQ	ACCESS:      44356	FORWARD:          0	MERGED:          0	TO_CACHE:      44356

STLB Hit, L1D data hit: 0
STLB Hit, L2C data hit: 0
STLB Hit, LLC data hit: 0
STLB Hit, LLC data miss: 0
STLB STLB hints to L2: 0
L1D TOTAL     ACCESS:   21966123  HIT:   20895258  MISS:    1070865  HIT %:    95.1249  MISS %:    4.87508   MPKI: 10.7086
L1D LOAD      ACCESS:   18538456  HIT:   17688726  MISS:     849730  HIT %:    95.4164  MISS %:    4.58361   MPKI: 8.4973
L1D RFO       ACCESS:    3427667  HIT:    3206532  MISS:     221135  HIT %:    93.5485  MISS %:    6.45147   MPKI: 2.21135
L1D PREFETCHES SAME FILL-ORIGIN LEVEL: 0 DIFFERENT FILL-ORIGIN LEVEL: 0
L1D AVERAGE MISS LATENCY: 78.8483 cycles
L1D RQ	ACCESS:   26006371	FORWARD:          0	MERGED:    7343846	TO_CACHE:   18656673
L1D WQ	ACCESS:    4083148	FORWARD:       5852	MERGED:      17248	TO_CACHE:    4065900

L1D UNIQUE REGIONS ACCESSED: 0
L1D REGIONS CONFLICTS: 0
L1D Cross Page Prefetch Requests: 0
L1D Same Page Prefetch Requests: 0
L1D ROI Sum of L1D PQ occupancy: 0
L1D PREFETCHES PUSHED FROM L2C: 0
L1I TOTAL     ACCESS:   18230784  HIT:   18228708  MISS:       2076  HIT %:    99.9886  MISS %:  0.0113873   MPKI: 0.02076
L1I LOAD      ACCESS:   18230784  HIT:   18228708  MISS:       2076  HIT %:    99.9886  MISS %:  0.0113873   MPKI: 0.02076
L1I PREFETCHES SAME FILL-ORIGIN LEVEL: 0 DIFFERENT FILL-ORIGIN LEVEL: 0
L1I AVERAGE MISS LATENCY: 229.166 cycles
L1I RQ	ACCESS:   28734612	FORWARD:          0	MERGED:   10502794	TO_CACHE:   18231818

BTB TOTAL     ACCESS:    4428759  HIT:    4427935  MISS:        824  HIT %:    99.9814  MISS %:  0.0186057   MPKI: 0.00824
BTB BRANCH_DIRECT_JUMP	ACCESS:     279102  HIT:     279036  MISS:         66
BTB BRANCH_INDIRECT	ACCESS:          6  HIT:          4  MISS:          2
BTB BRANCH_CONDITIONAL	ACCESS:    3632354  HIT:    3632003  MISS:        351
BTB BRANCH_DIRECT_CALL	ACCESS:     258649  HIT:     258495  MISS:        154
BTB BRANCH_INDIRECT_CALL	ACCESS:          0  HIT:          0  MISS:          0
BTB BRANCH_RETURN	ACCESS:     258648  HIT:     258397  MISS:        251
BTB BRANCH_OTHER ACCESS:          0  HIT:          0  MISS:          0

L2C TOTAL     ACCESS:    2108378  HIT:    1274801  MISS:     833577  HIT %:    60.4636  MISS %:    39.5364   MPKI: 8.33577
L2C LOAD      ACCESS:     851798  HIT:     779383  MISS:      72415  HIT %:    91.4986  MISS %:    8.50143   MPKI: 0.72415
L2C DATA LOAD MPKI: 0.70339
L2C INSTRUCTION LOAD MPKI: 0.02076
L2C RFO       ACCESS:     221135  HIT:      25665  MISS:     195470  HIT %:     11.606  MISS %:     88.394   MPKI: 1.9547
L2C PREFETCH  ACCESS:     589053  HIT:      36004  MISS:     553049  HIT %:    6.11218  MISS %:    93.8878   MPKI: 5.53049
L2C DATA PREFETCH MPKI: 5.53049
L2C INSTRUCTION PREFETCH MPKI: 0
L2C WRITEBACK ACCESS:     440478  HIT:     428959  MISS:      11519  HIT %:    97.3849  MISS %:    2.61511   MPKI: 0.11519
L2C LOAD TRANSLATION ACCESS:       5914  HIT:       4790  MISS:       1124  HIT %:    80.9943  MISS %:    19.0057   MPKI: 0.01124
L2C PREFETCH  REQUESTED:     615517  ISSUED:     615517  USEFUL:     515824  USELESS:      37285
L2C USEFUL LOAD PREFETCHES:     515824 PREFETCH ISSUED TO LOWER LEVEL:     566515  ACCURACY: 91.0521
L2C TIMELY PREFETCHES:     515824 LATE PREFETCHES: 13445 DROPPED PREFETCHES: 0
L2C PREFETCHES SAME FILL-ORIGIN LEVEL: 566515 DIFFERENT FILL-ORIGIN LEVEL: 0
L2C AVERAGE MISS LATENCY: 200.083 cycles
L2C RQ	ACCESS:    1078859	FORWARD:          0	MERGED:          0	TO_CACHE:    1078851
L2C WQ	ACCESS:     440478	FORWARD:          8	MERGED:          0	TO_CACHE:     440478
L2C PQ	ACCESS:     615517	FORWARD:          0	MERGED:         20	TO_CACHE:     615497

L2C Instructions Evicting Data2072
L2C Translations Evicting Data1122
L2C Data Evicting Data815708
L2C Instructions Evicting Instructions1
L2C Translations Evicting Instructions1
L2C Data Evicting Instructions2062
L2C Instructions Evicting Translations3
L2C Translations Evicting Translations1
L2C Data Evicting Translations1088
L2C Dense regions hint from L2: 0
PSCL5 TOTAL     ACCESS:       5895  HIT:       5895  MISS:          0  HIT %:        100  MISS %:          0   MPKI: 0
PSCL5 LOAD TRANSLATION ACCESS:       5895  HIT:       5895  MISS:          0  HIT %:        100  MISS %:          0   MPKI: 0
PSCL5 PREFETCHES SAME FILL-ORIGIN LEVEL: 0 DIFFERENT FILL-ORIGIN LEVEL: 0

PSCL4 TOTAL     ACCESS:       5895  HIT:       5895  MISS:          0  HIT %:        100  MISS %:          0   MPKI: 0
PSCL4 LOAD TRANSLATION ACCESS:       5895  HIT:       5895  MISS:          0  HIT %:        100  MISS %:          0   MPKI: 0
PSCL4 PREFETCHES SAME FILL-ORIGIN LEVEL: 0 DIFFERENT FILL-ORIGIN LEVEL: 0

PSCL3 TOTAL     ACCESS:       5895  HIT:       5895  MISS:          0  HIT %:        100  MISS %:          0   MPKI: 0
PSCL3 LOAD TRANSLATION ACCESS:       5895  HIT:       5895  MISS:          0  HIT %:        100  MISS %:          0   MPKI: 0
PSCL3 PREFETCHES SAME FILL-ORIGIN LEVEL: 0 DIFFERENT FILL-ORIGIN LEVEL: 0

PSCL2 TOTAL     ACCESS:       5895  HIT:       5872  MISS:         23  HIT %:    99.6098  MISS %:   0.390161   MPKI: 0.00023
PSCL2 LOAD TRANSLATION ACCESS:       5895  HIT:       5872  MISS:         23  HIT %:    99.6098  MISS %:   0.390161   MPKI: 0.00023
PSCL2 PREFETCHES SAME FILL-ORIGIN LEVEL: 0 DIFFERENT FILL-ORIGIN LEVEL: 0

LLC TOTAL     ACCESS:    1215662  HIT:     489734  MISS:     725928  HIT %:    40.2854  MISS %:    59.7146   MPKI: 7.25928
LLC LOAD      ACCESS:      59390  HIT:      11879  MISS:      47511  HIT %:    20.0017  MISS %:    79.9983   MPKI: 0.47511
LLC RFO       ACCESS:     195050  HIT:      31169  MISS:     163881  HIT %:      15.98  MISS %:      84.02   MPKI: 1.63881
LLC PREFETCH  ACCESS:     566494  HIT:     178404  MISS:     388090  HIT %:    31.4927  MISS %:    68.5073   MPKI: 3.8809
LLC WRITEBACK ACCESS:     393604  HIT:     268191  MISS:     125413  HIT %:    68.1373  MISS %:    31.8627   MPKI: 1.25413
LLC LOAD TRANSLATION ACCESS:       1124  HIT:         91  MISS:       1033  HIT %:    8.09609  MISS %:    91.9039   MPKI: 0.01033
LLC PREFETCHES SAME FILL-ORIGIN LEVEL: 0 DIFFERENT FILL-ORIGIN LEVEL: 0
LLC AVERAGE MISS LATENCY: 198.058 cycles
LLC RQ	ACCESS:     255568	FORWARD:          0	MERGED:          0	TO_CACHE:     255568
LLC WQ	ACCESS:     393604	FORWARD:          0	MERGED:          0	TO_CACHE:     393604
LLC PQ	ACCESS:     566515	FORWARD:          0	MERGED:          0	TO_CACHE:     566515

LLC Dense regions hint to LLC: 0

RAW hits: 53648
Loads Generated: 26060017
Loads sent to L1D: 26006371
Stores Generated: 4083141
Stores sent to L1D: 4083148
Major fault: 0 Minor fault: 6967
Allocated PAGES: 6967
[Bingo] PHT Access: 33624
[Bingo] PHT Hit PC+Addr: 2427
[Bingo] PHT Hit PC+Offs: 28382
[Bingo] PHT Miss: 2815
[Bingo] Prefetch PC+Addr: 0
[Bingo] Prefetch PC+Offs: 0
[Bingo] Useful PC+Addr: 0
[Bingo] Useful PC+Offs: 0
[Bingo] Useless PC+Addr: 0
[Bingo] Useless PC+Offs: 0
[Bingo] L1 Prefetch per Region: 0
[Bingo] L2 Prefetch per Region: 21.1546
[Bingo] L3 Prefetch per Region: 0
[Bingo] No Prefetch per Region: 10.8454
[Bingo] Number of Voters Mean: 13.9564
[Bingo] Number of Voters SD: 13.43
PHT read accesses: 480310
PHT write accesses: 29468
AT read accesses: 834571
AT write accesses: 845107
FT read accesses: 91103
FT write accesses: 33624
PS read accesses: 89315
PS write accesses: 30809
PHT tag read accesses: 1407290
PHT tag write accesses: 31895
AT tag read accesses: 28190005
AT tag write accesses: 863977
FT tag read accesses: 15467510
FT tag write accesses: 94925
PS tag read accesses: 14714270
PS tag write accesses: 119331

DRAM Statistics
 CHANNEL 0
 RQ ROW_BUFFER_HIT:     323735  ROW_BUFFER_MISS:     276638
 DBUS_CONGESTED:        327
 WQ ROW_BUFFER_HIT:      39911  ROW_BUFFER_MISS:     226967  FULL:       1144

 AVG_CONGESTED_CYCLE: 4
 All warmup complete: 2
Channel 0 Bank busy for read cycles: 0
Channel 0 Bank busy for write cycles: 0
Channel 0
Rank 0
0banks busy for read cycles: 93801817
0banks busy for write cycles: 17138
1banks busy for read cycles: 4019222
1banks busy for write cycles: 1747525
2banks busy for read cycles: 1700766
2banks busy for write cycles: 621127
3banks busy for read cycles: 868929
3banks busy for write cycles: 462318
4banks busy for read cycles: 628269
4banks busy for write cycles: 423036
5banks busy for read cycles: 625345
5banks busy for write cycles: 412228
6banks busy for read cycles: 705880
6banks busy for write cycles: 448914
7banks busy for read cycles: 1119194
7banks busy for write cycles: 745444
8banks busy for read cycles: 3886377
8banks busy for write cycles: 3770947

CPU 0 Branch Prediction Accuracy: 99.89% MPKI: 0.07455 Average ROB Occupancy at Mispredict: 165.925
Branch types
NOT_BRANCH: 93224232 93.2242%
BRANCH_DIRECT_JUMP: 279102 0.279102%
BRANCH_INDIRECT: 6 6e-06%
BRANCH_CONDITIONAL: 5979016 5.97902%
BRANCH_DIRECT_CALL: 258649 0.258649%
BRANCH_INDIRECT_CALL: 0 0%
BRANCH_RETURN: 258648 0.258648%
BRANCH_OTHER: 0 0%

DRAM PAGES: 1048576
Allocated PAGES: 6967
