
*** ChampSim Multicore Out-of-Order Simulator ***

Warmup Instructions: 50000000
Simulation Instructions: 100000000
Number of CPUs: 1
LLC sets: 2048
LLC ways: 16
Off-chip DRAM Size: 4096 MB Channels: 1 Width: 64-bit Data Rate: 6400 MT/s
CPU 0 runs ../SPEC2017//621.wrf_s-8065B.champsimtrace.xz
.xz
BTB has LRU replacement policy
ITLB has LRU replacement policy
DTLB has LRU replacement policy
STLB has LRU replacement policy
L1I has LRU replacement policy
IP Table Entries: 64
L1D has LRU replacement policy
Initialize SRRIP state for L2C
Initialize DRRIP state for LLC
Heartbeat CPU 0 instructions: 10000002 cycles: 3025617 heartbeat IPC: 3.30511 cumulative IPC: 3.30511 (Simulation time: 0 hr 5 min 2 sec) 
Heartbeat CPU 0 instructions: 20000000 cycles: 6035840 heartbeat IPC: 3.32201 cumulative IPC: 3.31354 (Simulation time: 0 hr 9 min 20 sec) 
Heartbeat CPU 0 instructions: 30000000 cycles: 9021326 heartbeat IPC: 3.34954 cumulative IPC: 3.32545 (Simulation time: 0 hr 13 min 40 sec) 
Heartbeat CPU 0 instructions: 40000003 cycles: 12091191 heartbeat IPC: 3.25747 cumulative IPC: 3.30819 (Simulation time: 0 hr 17 min 39 sec) 
Heartbeat CPU 0 instructions: 50000002 cycles: 15092794 heartbeat IPC: 3.33155 cumulative IPC: 3.31284 (Simulation time: 0 hr 21 min 20 sec) 

Warmup complete CPU 0 instructions: 50000002 cycles: 15092794 (Simulation time: 0 hr 21 min 20 sec) 

Heartbeat CPU 0 instructions: 60000003 cycles: 25545675 heartbeat IPC: 0.956674 cumulative IPC: 0.956674 (Simulation time: 0 hr 25 min 13 sec) 
Heartbeat CPU 0 instructions: 70000001 cycles: 36717184 heartbeat IPC: 0.895134 cumulative IPC: 0.924882 (Simulation time: 0 hr 28 min 36 sec) 
Heartbeat CPU 0 instructions: 80000001 cycles: 47536811 heartbeat IPC: 0.924246 cumulative IPC: 0.92467 (Simulation time: 0 hr 32 min 28 sec) 
Heartbeat CPU 0 instructions: 90000000 cycles: 58527062 heartbeat IPC: 0.909897 cumulative IPC: 0.920932 (Simulation time: 0 hr 35 min 47 sec) 
Heartbeat CPU 0 instructions: 100000002 cycles: 69577679 heartbeat IPC: 0.904927 cumulative IPC: 0.917686 (Simulation time: 0 hr 39 min 43 sec) 
Heartbeat CPU 0 instructions: 110000000 cycles: 80322670 heartbeat IPC: 0.930666 cumulative IPC: 0.919824 (Simulation time: 0 hr 42 min 57 sec) 
Heartbeat CPU 0 instructions: 120000000 cycles: 95248598 heartbeat IPC: 0.669975 cumulative IPC: 0.873299 (Simulation time: 0 hr 47 min 28 sec) 
Heartbeat CPU 0 instructions: 130000002 cycles: 109315205 heartbeat IPC: 0.710904 cumulative IPC: 0.849055 (Simulation time: 0 hr 51 min 56 sec) 
Heartbeat CPU 0 instructions: 140000001 cycles: 123387823 heartbeat IPC: 0.7106 cumulative IPC: 0.831063 (Simulation time: 0 hr 56 min 4 sec) 
Heartbeat CPU 0 instructions: 150000002 cycles: 139155803 heartbeat IPC: 0.634197 cumulative IPC: 0.806042 (Simulation time: 1 hr 0 min 12 sec) 
Finished CPU 0 instructions: 100000000 cycles: 124063009 cumulative IPC: 0.806042 (Simulation time: 1 hr 0 min 12 sec) 

ChampSim completed all CPUs

Region of Interest Statistics

CPU 0 cumulative IPC: 0.806042 instructions: 100000000 cycles: 124063009

CPU 0 Average Load ROB stall cycles: 1.70299e+07
CPU 0 Fraction of times ROB stalled by Loads: 19.8483
CPU 0 Percentage of Load stall cycles in Total stall cycles: 2.93469e+08
Issued all: 84875082
Issued LT all: 73944209
rob_not_full_when_issued_lt_all: 30777746
Issued LT one: 58313962
rob_not_full_when_issued_lt_one: 26096491
 Total stall cycles: 100214201
 Total load stall cycles: 294097459562297
Unique Load IPs: 3826
CPU 0 NUM of IPS identified critical: 11
CPU 0 Num of Load IPs stalling ROB: 0
Threshold modification factor: 0
Trouble in retire width: -nan
MaC = Marked as critical.
lt_50_percent_before_Mac: 6
gt_90_percent_before_Mac: 1
gt_75_percent_before_Mac: 1
gt_50_percent_before_Mac: 3
stall_proportion_bin_same_before_after: 0
stall_proportion_bin_lower_before_after: 0
stall_proportion_bin_upper_before_after: 0
average_stall_proportion_before: 0.0233392
average_stall_proportion_after: 0.0771429
Critical_IP_Detector_Accuracy_70: 0
Critical_IP_Detector_Accuracy_80: 0
Critical_IP_Detector_Accuracy_90: 0
Critical_IP_Detector_Coverage_70: 0
Critical_IP_Detector_Coverage_80: 0
Critical_IP_Detector_Coverage_90: 0
stat_90_percent_critical_ip_stalls_freq: 118260
stat_90_percent_non_critical_ip_stalls_freq: 18446744073709433356
AVERAGE_ROB_Occupancy_90_Percent_Critical_IP_Stalls: 339.179
AVERAGE_ROB_Occupancy_90_Percent_Non_Critical_IP_Stalls: 4.45935e-11
Critical_IP_ROB_Stalls_Bucket_0: 50583
Non-critical_IP_ROB_Stalls_Bucket_0: 479554
Critical_IP_ROB_Stalls_Bucket_1: 9245
Non-critical_IP_ROB_Stalls_Bucket_1: 195332
Critical_IP_ROB_Stalls_Bucket_2: 2320
Non-critical_IP_ROB_Stalls_Bucket_2: 158094
Critical_IP_ROB_Stalls_Bucket_3: 5785
Non-critical_IP_ROB_Stalls_Bucket_3: 176396
Critical_IP_ROB_Stalls_Bucket_4: 4931
Non-critical_IP_ROB_Stalls_Bucket_4: 173159
Critical_IP_ROB_Stalls_Bucket_5: 4588
Non-critical_IP_ROB_Stalls_Bucket_5: 165325
Critical_IP_ROB_Stalls_Bucket_6: 9570
Non-critical_IP_ROB_Stalls_Bucket_6: 1992802
0 => IPs accounting for >50 percent of stalls, 1 => 55, 2 => 60, 3 => 65 and so on till 90.
percent50: inf num IPs:  1
percent55: inf num IPs: 1
percent60: inf num IPs: 1
percent65: inf num IPs: 1
percent70: inf num IPs: 1
percent75: inf num IPs: 1
percent80: inf num IPs: 1
percent85: inf num IPs: 1
percent90: inf num IPs: 1
Critical_ROB_Stalls_Percent_0_Bucket_0: 1112
Non-critical_ROB_Stalls_Percent_0_Bucket_0: 529025
Critical_ROB_Stalls_Percent_0_Bucket_1: 468
Non-critical_ROB_Stalls_Percent_0_Bucket_1: 204109
Critical_ROB_Stalls_Percent_0_Bucket_2: 1574
Non-critical_ROB_Stalls_Percent_0_Bucket_2: 158840
Critical_ROB_Stalls_Percent_0_Bucket_3: 1306
Non-critical_ROB_Stalls_Percent_0_Bucket_3: 180875
Critical_ROB_Stalls_Percent_0_Bucket_4: 1635
Non-critical_ROB_Stalls_Percent_0_Bucket_4: 176455
Critical_ROB_Stalls_Percent_0_Bucket_5: 2354
Non-critical_ROB_Stalls_Percent_0_Bucket_5: 167559
Critical_ROB_Stalls_Percent_0_Bucket_6: 109811
Non-critical_ROB_Stalls_Percent_0_Bucket_6: 1892561
Critical_ROB_Stalls_Percent_1_Bucket_0: 1112
Non-critical_ROB_Stalls_Percent_1_Bucket_0: 529025
Critical_ROB_Stalls_Percent_1_Bucket_1: 468
Non-critical_ROB_Stalls_Percent_1_Bucket_1: 204109
Critical_ROB_Stalls_Percent_1_Bucket_2: 1574
Non-critical_ROB_Stalls_Percent_1_Bucket_2: 158840
Critical_ROB_Stalls_Percent_1_Bucket_3: 1306
Non-critical_ROB_Stalls_Percent_1_Bucket_3: 180875
Critical_ROB_Stalls_Percent_1_Bucket_4: 1635
Non-critical_ROB_Stalls_Percent_1_Bucket_4: 176455
Critical_ROB_Stalls_Percent_1_Bucket_5: 2354
Non-critical_ROB_Stalls_Percent_1_Bucket_5: 167559
Critical_ROB_Stalls_Percent_1_Bucket_6: 109811
Non-critical_ROB_Stalls_Percent_1_Bucket_6: 1892561
Critical_ROB_Stalls_Percent_2_Bucket_0: 1112
Non-critical_ROB_Stalls_Percent_2_Bucket_0: 529025
Critical_ROB_Stalls_Percent_2_Bucket_1: 468
Non-critical_ROB_Stalls_Percent_2_Bucket_1: 204109
Critical_ROB_Stalls_Percent_2_Bucket_2: 1574
Non-critical_ROB_Stalls_Percent_2_Bucket_2: 158840
Critical_ROB_Stalls_Percent_2_Bucket_3: 1306
Non-critical_ROB_Stalls_Percent_2_Bucket_3: 180875
Critical_ROB_Stalls_Percent_2_Bucket_4: 1635
Non-critical_ROB_Stalls_Percent_2_Bucket_4: 176455
Critical_ROB_Stalls_Percent_2_Bucket_5: 2354
Non-critical_ROB_Stalls_Percent_2_Bucket_5: 167559
Critical_ROB_Stalls_Percent_2_Bucket_6: 109811
Non-critical_ROB_Stalls_Percent_2_Bucket_6: 1892561
Critical_ROB_Stalls_Percent_3_Bucket_0: 1112
Non-critical_ROB_Stalls_Percent_3_Bucket_0: 529025
Critical_ROB_Stalls_Percent_3_Bucket_1: 468
Non-critical_ROB_Stalls_Percent_3_Bucket_1: 204109
Critical_ROB_Stalls_Percent_3_Bucket_2: 1574
Non-critical_ROB_Stalls_Percent_3_Bucket_2: 158840
Critical_ROB_Stalls_Percent_3_Bucket_3: 1306
Non-critical_ROB_Stalls_Percent_3_Bucket_3: 180875
Critical_ROB_Stalls_Percent_3_Bucket_4: 1635
Non-critical_ROB_Stalls_Percent_3_Bucket_4: 176455
Critical_ROB_Stalls_Percent_3_Bucket_5: 2354
Non-critical_ROB_Stalls_Percent_3_Bucket_5: 167559
Critical_ROB_Stalls_Percent_3_Bucket_6: 109811
Non-critical_ROB_Stalls_Percent_3_Bucket_6: 1892561
Critical_ROB_Stalls_Percent_4_Bucket_0: 1112
Non-critical_ROB_Stalls_Percent_4_Bucket_0: 529025
Critical_ROB_Stalls_Percent_4_Bucket_1: 468
Non-critical_ROB_Stalls_Percent_4_Bucket_1: 204109
Critical_ROB_Stalls_Percent_4_Bucket_2: 1574
Non-critical_ROB_Stalls_Percent_4_Bucket_2: 158840
Critical_ROB_Stalls_Percent_4_Bucket_3: 1306
Non-critical_ROB_Stalls_Percent_4_Bucket_3: 180875
Critical_ROB_Stalls_Percent_4_Bucket_4: 1635
Non-critical_ROB_Stalls_Percent_4_Bucket_4: 176455
Critical_ROB_Stalls_Percent_4_Bucket_5: 2354
Non-critical_ROB_Stalls_Percent_4_Bucket_5: 167559
Critical_ROB_Stalls_Percent_4_Bucket_6: 109811
Non-critical_ROB_Stalls_Percent_4_Bucket_6: 1892561
Critical_ROB_Stalls_Percent_5_Bucket_0: 1112
Non-critical_ROB_Stalls_Percent_5_Bucket_0: 529025
Critical_ROB_Stalls_Percent_5_Bucket_1: 468
Non-critical_ROB_Stalls_Percent_5_Bucket_1: 204109
Critical_ROB_Stalls_Percent_5_Bucket_2: 1574
Non-critical_ROB_Stalls_Percent_5_Bucket_2: 158840
Critical_ROB_Stalls_Percent_5_Bucket_3: 1306
Non-critical_ROB_Stalls_Percent_5_Bucket_3: 180875
Critical_ROB_Stalls_Percent_5_Bucket_4: 1635
Non-critical_ROB_Stalls_Percent_5_Bucket_4: 176455
Critical_ROB_Stalls_Percent_5_Bucket_5: 2354
Non-critical_ROB_Stalls_Percent_5_Bucket_5: 167559
Critical_ROB_Stalls_Percent_5_Bucket_6: 109811
Non-critical_ROB_Stalls_Percent_5_Bucket_6: 1892561
Critical_ROB_Stalls_Percent_6_Bucket_0: 1112
Non-critical_ROB_Stalls_Percent_6_Bucket_0: 529025
Critical_ROB_Stalls_Percent_6_Bucket_1: 468
Non-critical_ROB_Stalls_Percent_6_Bucket_1: 204109
Critical_ROB_Stalls_Percent_6_Bucket_2: 1574
Non-critical_ROB_Stalls_Percent_6_Bucket_2: 158840
Critical_ROB_Stalls_Percent_6_Bucket_3: 1306
Non-critical_ROB_Stalls_Percent_6_Bucket_3: 180875
Critical_ROB_Stalls_Percent_6_Bucket_4: 1635
Non-critical_ROB_Stalls_Percent_6_Bucket_4: 176455
Critical_ROB_Stalls_Percent_6_Bucket_5: 2354
Non-critical_ROB_Stalls_Percent_6_Bucket_5: 167559
Critical_ROB_Stalls_Percent_6_Bucket_6: 109811
Non-critical_ROB_Stalls_Percent_6_Bucket_6: 1892561
Critical_ROB_Stalls_Percent_7_Bucket_0: 1112
Non-critical_ROB_Stalls_Percent_7_Bucket_0: 529025
Critical_ROB_Stalls_Percent_7_Bucket_1: 468
Non-critical_ROB_Stalls_Percent_7_Bucket_1: 204109
Critical_ROB_Stalls_Percent_7_Bucket_2: 1574
Non-critical_ROB_Stalls_Percent_7_Bucket_2: 158840
Critical_ROB_Stalls_Percent_7_Bucket_3: 1306
Non-critical_ROB_Stalls_Percent_7_Bucket_3: 180875
Critical_ROB_Stalls_Percent_7_Bucket_4: 1635
Non-critical_ROB_Stalls_Percent_7_Bucket_4: 176455
Critical_ROB_Stalls_Percent_7_Bucket_5: 2354
Non-critical_ROB_Stalls_Percent_7_Bucket_5: 167559
Critical_ROB_Stalls_Percent_7_Bucket_6: 109811
Non-critical_ROB_Stalls_Percent_7_Bucket_6: 1892561
Critical_ROB_Stalls_Percent_8_Bucket_0: 1112
Non-critical_ROB_Stalls_Percent_8_Bucket_0: 529025
Critical_ROB_Stalls_Percent_8_Bucket_1: 468
Non-critical_ROB_Stalls_Percent_8_Bucket_1: 204109
Critical_ROB_Stalls_Percent_8_Bucket_2: 1574
Non-critical_ROB_Stalls_Percent_8_Bucket_2: 158840
Critical_ROB_Stalls_Percent_8_Bucket_3: 1306
Non-critical_ROB_Stalls_Percent_8_Bucket_3: 180875
Critical_ROB_Stalls_Percent_8_Bucket_4: 1635
Non-critical_ROB_Stalls_Percent_8_Bucket_4: 176455
Critical_ROB_Stalls_Percent_8_Bucket_5: 2354
Non-critical_ROB_Stalls_Percent_8_Bucket_5: 167559
Critical_ROB_Stalls_Percent_8_Bucket_6: 109811
Non-critical_ROB_Stalls_Percent_8_Bucket_6: 1892561
Average ROB occupancy Load Stall Begin: 238.547
Average ROB occupancy Load Stall End: 251.691
Min ROB occupancy Load Stall Begin: 1
Max ROB occupancy Load Stall Begin: 352
Min ROB occupancy Load Stall End: 1
Max ROB occupancy Load Stall End: 352
Average ROB occupancy Critical Load Stall Begin: 82.0015
Average ROB occupancy Critical Load Stall End: 88.3925
Min ROB occupancy Critical Load Stall Begin: 1
Max ROB occupancy Critical Load Stall Begin: 352
Min ROB occupancy Critical Load Stall End: 1
Max ROB occupancy Critical Load Stall End: 352
 ROB Load Stall Begin Bucket Count 0: 651382
 ROB Load Stall End Bucket Count 0: 530137
 ROB Critical Load Stall Begin Bucket Count 0: 33910
 ROB Critical Load Stall End Bucket Count 0: 33682
 ROB Load Stall Begin Bucket Count 1: 171384
 ROB Load Stall End Bucket Count 1: 204577
 ROB Critical Load Stall Begin Bucket Count 1: 624
 ROB Critical Load Stall End Bucket Count 1: 757
 ROB Load Stall Begin Bucket Count 2: 176152
 ROB Load Stall End Bucket Count 2: 160414
 ROB Critical Load Stall Begin Bucket Count 2: 899
 ROB Critical Load Stall End Bucket Count 2: 695
 ROB Load Stall Begin Bucket Count 3: 187246
 ROB Load Stall End Bucket Count 3: 182181
 ROB Critical Load Stall Begin Bucket Count 3: 2049
 ROB Critical Load Stall End Bucket Count 3: 1816
 ROB Load Stall Begin Bucket Count 4: 177905
 ROB Load Stall End Bucket Count 4: 178090
 ROB Critical Load Stall Begin Bucket Count 4: 2652
 ROB Critical Load Stall End Bucket Count 4: 2652
 ROB Load Stall Begin Bucket Count 5: 161277
 ROB Load Stall End Bucket Count 5: 169913
 ROB Critical Load Stall Begin Bucket Count 5: 3606
 ROB Critical Load Stall End Bucket Count 5: 3035
 ROB Load Stall Begin Bucket Count 6: 1902338
 ROB Load Stall End Bucket Count 6: 2002372
 ROB Critical Load Stall Begin Bucket Count 6: 4329
 ROB Critical Load Stall End Bucket Count 6: 5432
PIST Tag Read Accesses: 0
PIST Read Accesses: 0
PIST Tag Write Accesses: 0
PIST Write Accesses: 0
Criticality detector called times: 0
Max global_stall_cycles_count: 0
Threshold Modified: 0 times, factor: 0
Sturdy critical IP cache stats: 
 Unused entries: 0
CIC Tag Read Accesses: 0
CIC Read Accesses: 0
CIC Tag Write Accesses: 0
CIC Write Accesses: 0
Wobbly critical IP cache stats: 
 Unused entries: 11
CIC Tag Read Accesses: 243052184
CIC Read Accesses: 0
CIC Tag Write Accesses: 36300
CIC Write Accesses: 0
ITLB TOTAL     ACCESS:   14965493  HIT:   14965449  MISS:         44  HIT %:    99.9997  MISS %: 0.00029401   MPKI: 0.00044
ITLB LOAD TRANSLATION ACCESS:   14965493  HIT:   14965449  MISS:         44  HIT %:    99.9997  MISS %: 0.00029401   MPKI: 0.00044
ITLB PREFETCH  REQUESTED:          0  ISSUED:          0  USEFUL:          0  USELESS:          0
ITLB USEFUL LOAD PREFETCHES:          0 PREFETCH ISSUED TO LOWER LEVEL:          0  ACCURACY: -nan
ITLB TIMELY PREFETCHES:          0 LATE PREFETCHES: 0 DROPPED PREFETCHES: 0
ITLB PREFETCHES SAME FILL-ORIGIN LEVEL: 0 DIFFERENT FILL-ORIGIN LEVEL: 0
ITLB AVERAGE MISS LATENCY: 244.75 cycles
ITLB RQ	ACCESS:   18373653	FORWARD:          0	MERGED:    3408145	TO_CACHE:   14965508

DTLB TOTAL     ACCESS:   18040428  HIT:   17996650  MISS:      43778  HIT %:    99.7573  MISS %:   0.242666   MPKI: 0.43778
DTLB LOAD TRANSLATION ACCESS:   18040428  HIT:   17996650  MISS:      43778  HIT %:    99.7573  MISS %:   0.242666   MPKI: 0.43778
DTLB PREFETCH  REQUESTED:          0  ISSUED:          0  USEFUL:          0  USELESS:          0
DTLB USEFUL LOAD PREFETCHES:          0 PREFETCH ISSUED TO LOWER LEVEL:          0  ACCURACY: -nan
DTLB TIMELY PREFETCHES:          0 LATE PREFETCHES: 0 DROPPED PREFETCHES: 0
DTLB PREFETCHES SAME FILL-ORIGIN LEVEL: 0 DIFFERENT FILL-ORIGIN LEVEL: 0
DTLB AVERAGE MISS LATENCY: 23.8917 cycles
DTLB RQ	ACCESS:   20499052	FORWARD:          0	MERGED:    2439701	TO_CACHE:   18059351

STLB TOTAL     ACCESS:      56295  HIT:      50405  MISS:       5890  HIT %:    89.5373  MISS %:    10.4627   MPKI: 0.0589
STLB LOAD TRANSLATION ACCESS:      43822  HIT:      37932  MISS:       5890  HIT %:    86.5593  MISS %:    13.4407   MPKI: 0.0589
STLB TRANSLATION FROM L1D PREFETCHER ACCESS:      12473  HIT:      12473  MISS:          0  HIT %:        100  MISS %:          0   MPKI: 0
STLB PREFETCH  REQUESTED:          0  ISSUED:          0  USEFUL:          0  USELESS:          0
STLB USEFUL LOAD PREFETCHES:          0 PREFETCH ISSUED TO LOWER LEVEL:          0  ACCURACY: -nan
STLB TIMELY PREFETCHES:          0 LATE PREFETCHES: 0 DROPPED PREFETCHES: 0
STLB PREFETCHES SAME FILL-ORIGIN LEVEL: 0 DIFFERENT FILL-ORIGIN LEVEL: 0
STLB AVERAGE MISS LATENCY: 111.326 cycles
STLB RQ	ACCESS:      71082	FORWARD:          0	MERGED:      14787	TO_CACHE:      56295

STLB Hit, L1D data hit: 0
STLB Hit, L2C data hit: 0
STLB Hit, LLC data hit: 0
STLB Hit, LLC data miss: 0
STLB STLB hints to L2: 0
L1D TOTAL     ACCESS:   19321663  HIT:   18237560  MISS:    1084103  HIT %:    94.3892  MISS %:    5.61082   MPKI: 10.841
L1D LOAD      ACCESS:   15902580  HIT:   15059152  MISS:     843428  HIT %:    94.6963  MISS %:    5.30372   MPKI: 8.43428
L1D RFO       ACCESS:    3393162  HIT:    3172598  MISS:     220564  HIT %:    93.4998  MISS %:    6.50025   MPKI: 2.20564
L1D PREFETCH  ACCESS:      25921  HIT:       5810  MISS:      20111  HIT %:    22.4143  MISS %:    77.5857   MPKI: 0.20111
L1D PREFETCH  REQUESTED:      80474  ISSUED:      54523  USEFUL:       6356  USELESS:      13787
L1D USEFUL LOAD PREFETCHES:       6356 PREFETCH ISSUED TO LOWER LEVEL:      20301  ACCURACY: 31.3088
L1D TIMELY PREFETCHES:       6356 LATE PREFETCHES: 178 DROPPED PREFETCHES: 0
L1D PREFETCHES SAME FILL-ORIGIN LEVEL: 20301 DIFFERENT FILL-ORIGIN LEVEL: 0
L1D AVERAGE MISS LATENCY: 19046 cycles
L1D RQ	ACCESS:   25937687	FORWARD:          0	MERGED:    9498961	TO_CACHE:   16433562
L1D WQ	ACCESS:    4083148	FORWARD:       5164	MERGED:      17658	TO_CACHE:    4065490
L1D PQ	ACCESS:      27263	FORWARD:          0	MERGED:          3	TO_CACHE:      27260

L1D UNIQUE REGIONS ACCESSED: 0
L1D REGIONS CONFLICTS: 0
L1D Cross Page Prefetch Requests: 0
L1D Same Page Prefetch Requests: 3428209
L1D ROI Sum of L1D PQ occupancy: 4576453
L1D PREFETCHES PUSHED FROM L2C: 0
L1I TOTAL     ACCESS:   18372617  HIT:   18370541  MISS:       2076  HIT %:    99.9887  MISS %:  0.0112994   MPKI: 0.02076
L1I LOAD      ACCESS:   18372617  HIT:   18370541  MISS:       2076  HIT %:    99.9887  MISS %:  0.0112994   MPKI: 0.02076
L1I PREFETCH  REQUESTED:          0  ISSUED:          0  USEFUL:          0  USELESS:          0
L1I USEFUL LOAD PREFETCHES:          0 PREFETCH ISSUED TO LOWER LEVEL:          0  ACCURACY: -nan
L1I TIMELY PREFETCHES:          0 LATE PREFETCHES: 0 DROPPED PREFETCHES: 0
L1I PREFETCHES SAME FILL-ORIGIN LEVEL: 0 DIFFERENT FILL-ORIGIN LEVEL: 0
L1I AVERAGE MISS LATENCY: 222.797 cycles
L1I RQ	ACCESS:   29002389	FORWARD:          0	MERGED:   10628736	TO_CACHE:   18373653

BTB TOTAL     ACCESS:    4428781  HIT:    4427957  MISS:        824  HIT %:    99.9814  MISS %:  0.0186056   MPKI: 0.00824
BTB BRANCH_DIRECT_JUMP	ACCESS:     279102  HIT:     279036  MISS:         66
BTB BRANCH_INDIRECT	ACCESS:          6  HIT:          4  MISS:          2
BTB BRANCH_CONDITIONAL	ACCESS:    3632376  HIT:    3632025  MISS:        351
BTB BRANCH_DIRECT_CALL	ACCESS:     258649  HIT:     258495  MISS:        154
BTB BRANCH_INDIRECT_CALL	ACCESS:          0  HIT:          0  MISS:          0
BTB BRANCH_RETURN	ACCESS:     258648  HIT:     258397  MISS:        251
BTB BRANCH_OTHER ACCESS:          0  HIT:          0  MISS:          0

L2C TOTAL     ACCESS:    1532519  HIT:     737032  MISS:     795487  HIT %:    48.0928  MISS %:    51.9072   MPKI: 7.95487
L2C LOAD      ACCESS:     845222  HIT:     270360  MISS:     574862  HIT %:    31.9869  MISS %:    68.0131   MPKI: 5.74862
L2C DATA LOAD MPKI: 5.72786
L2C INSTRUCTION LOAD MPKI: 0.02076
L2C RFO       ACCESS:     220552  HIT:      26084  MISS:     194468  HIT %:    11.8267  MISS %:    88.1733   MPKI: 1.94468
L2C PREFETCH  ACCESS:      20301  HIT:       2718  MISS:      17583  HIT %:    13.3885  MISS %:    86.6115   MPKI: 0.17583
L2C DATA PREFETCH MPKI: 0.17583
L2C INSTRUCTION PREFETCH MPKI: 0
L2C WRITEBACK ACCESS:     440535  HIT:     433048  MISS:       7487  HIT %:    98.3005  MISS %:    1.69952   MPKI: 0.07487
L2C LOAD TRANSLATION ACCESS:       5909  HIT:       4822  MISS:       1087  HIT %:    81.6043  MISS %:    18.3957   MPKI: 0.01087
L2C PREFETCH  REQUESTED:          0  ISSUED:          0  USEFUL:       1467  USELESS:      19219
L2C USEFUL LOAD PREFETCHES:       1467 PREFETCH ISSUED TO LOWER LEVEL:      17583  ACCURACY: 8.34329
L2C TIMELY PREFETCHES:       1467 LATE PREFETCHES: 0 DROPPED PREFETCHES: 0
L2C PREFETCHES SAME FILL-ORIGIN LEVEL: 0 DIFFERENT FILL-ORIGIN LEVEL: 0
L2C AVERAGE MISS LATENCY: 181.07 cycles
L2C RQ	ACCESS:    1071789	FORWARD:          0	MERGED:          0	TO_CACHE:    1071685
L2C WQ	ACCESS:     440535	FORWARD:        104	MERGED:          0	TO_CACHE:     440535
L2C PQ	ACCESS:      20301	FORWARD:          0	MERGED:          0	TO_CACHE:      20301

L2C Instructions Evicting Data 2073
L2C Translations Evicting Data 1086
L2C Data Evicting Data 781728
L2C Instructions Evicting Instructions 1
L2C Translations Evicting Instructions 1
L2C Data Evicting Instructions 2060
L2C Instructions Evicting Translations 2
L2C Translations Evicting Translations 0
L2C Data Evicting Translations 1049
L2C Dense regions hint from L2: 0
PSCL5 TOTAL     ACCESS:       5890  HIT:       5890  MISS:          0  HIT %:        100  MISS %:          0   MPKI: 0
PSCL5 LOAD TRANSLATION ACCESS:       5890  HIT:       5890  MISS:          0  HIT %:        100  MISS %:          0   MPKI: 0
PSCL5 PREFETCH  REQUESTED:          0  ISSUED:          0  USEFUL:          0  USELESS:          0
PSCL5 USEFUL LOAD PREFETCHES:          0 PREFETCH ISSUED TO LOWER LEVEL:          0  ACCURACY: -nan
PSCL5 TIMELY PREFETCHES:          0 LATE PREFETCHES: 0 DROPPED PREFETCHES: 0
PSCL5 PREFETCHES SAME FILL-ORIGIN LEVEL: 0 DIFFERENT FILL-ORIGIN LEVEL: 0

PSCL4 TOTAL     ACCESS:       5890  HIT:       5890  MISS:          0  HIT %:        100  MISS %:          0   MPKI: 0
PSCL4 LOAD TRANSLATION ACCESS:       5890  HIT:       5890  MISS:          0  HIT %:        100  MISS %:          0   MPKI: 0
PSCL4 PREFETCH  REQUESTED:          0  ISSUED:          0  USEFUL:          0  USELESS:          0
PSCL4 USEFUL LOAD PREFETCHES:          0 PREFETCH ISSUED TO LOWER LEVEL:          0  ACCURACY: -nan
PSCL4 TIMELY PREFETCHES:          0 LATE PREFETCHES: 0 DROPPED PREFETCHES: 0
PSCL4 PREFETCHES SAME FILL-ORIGIN LEVEL: 0 DIFFERENT FILL-ORIGIN LEVEL: 0

PSCL3 TOTAL     ACCESS:       5890  HIT:       5890  MISS:          0  HIT %:        100  MISS %:          0   MPKI: 0
PSCL3 LOAD TRANSLATION ACCESS:       5890  HIT:       5890  MISS:          0  HIT %:        100  MISS %:          0   MPKI: 0
PSCL3 PREFETCH  REQUESTED:          0  ISSUED:          0  USEFUL:          0  USELESS:          0
PSCL3 USEFUL LOAD PREFETCHES:          0 PREFETCH ISSUED TO LOWER LEVEL:          0  ACCURACY: -nan
PSCL3 TIMELY PREFETCHES:          0 LATE PREFETCHES: 0 DROPPED PREFETCHES: 0
PSCL3 PREFETCHES SAME FILL-ORIGIN LEVEL: 0 DIFFERENT FILL-ORIGIN LEVEL: 0

PSCL2 TOTAL     ACCESS:       5890  HIT:       5867  MISS:         23  HIT %:    99.6095  MISS %:   0.390492   MPKI: 0.00023
PSCL2 LOAD TRANSLATION ACCESS:       5890  HIT:       5867  MISS:         23  HIT %:    99.6095  MISS %:   0.390492   MPKI: 0.00023
PSCL2 PREFETCH  REQUESTED:          0  ISSUED:          0  USEFUL:          0  USELESS:          0
PSCL2 USEFUL LOAD PREFETCHES:          0 PREFETCH ISSUED TO LOWER LEVEL:          0  ACCURACY: -nan
PSCL2 TIMELY PREFETCHES:          0 LATE PREFETCHES: 0 DROPPED PREFETCHES: 0
PSCL2 PREFETCHES SAME FILL-ORIGIN LEVEL: 0 DIFFERENT FILL-ORIGIN LEVEL: 0

LLC TOTAL     ACCESS:    1174724  HIT:     638708  MISS:     536016  HIT %:    54.3709  MISS %:    45.6291   MPKI: 5.36016
LLC LOAD      ACCESS:     574861  HIT:     231836  MISS:     343025  HIT %:    40.3291  MISS %:    59.6709   MPKI: 3.43025
LLC RFO       ACCESS:     194468  HIT:      25340  MISS:     169128  HIT %:    13.0304  MISS %:    86.9696   MPKI: 1.69128
LLC PREFETCH  ACCESS:      17583  HIT:       4887  MISS:      12696  HIT %:    27.7939  MISS %:    72.2061   MPKI: 0.12696
LLC WRITEBACK ACCESS:     386725  HIT:     376555  MISS:      10170  HIT %:    97.3702  MISS %:    2.62978   MPKI: 0.1017
LLC LOAD TRANSLATION ACCESS:       1087  HIT:         90  MISS:        997  HIT %:    8.27967  MISS %:    91.7203   MPKI: 0.00997
LLC PREFETCH  REQUESTED:          0  ISSUED:          0  USEFUL:       9983  USELESS:      21303
LLC USEFUL LOAD PREFETCHES:       9983 PREFETCH ISSUED TO LOWER LEVEL:      12696  ACCURACY: 78.6311
LLC TIMELY PREFETCHES:       9983 LATE PREFETCHES: 0 DROPPED PREFETCHES: 0
LLC PREFETCHES SAME FILL-ORIGIN LEVEL: 0 DIFFERENT FILL-ORIGIN LEVEL: 0
LLC AVERAGE MISS LATENCY: 224.479 cycles
LLC RQ	ACCESS:     770417	FORWARD:          0	MERGED:          0	TO_CACHE:     770416
LLC WQ	ACCESS:     386726	FORWARD:          1	MERGED:          0	TO_CACHE:     386726
LLC PQ	ACCESS:      17583	FORWARD:          0	MERGED:          0	TO_CACHE:      17583

LLC Dense regions hint to LLC: 0

RAW hits: 122347
Loads Generated: 26060040
Loads sent to L1D: 25937687
Stores Generated: 4083143
Stores sent to L1D: 4083148
Major fault: 0 Minor fault: 6967
Allocated PAGES: 6967

stream: 
stream:times selected: 1477281
stream:pref_filled: 851212
stream:pref_useful: 684332
stream:pref_late: 3243
stream:misses: 7397
stream:misses_by_poll: 0

CS: 
CS:times selected: 1164804
CS:pref_filled: 14929
CS:pref_useful: 3559
CS:pref_late: 151
CS:misses: 13287
CS:misses_by_poll: 0

CPLX: 
CPLX:times selected: 1354665
CPLX:pref_filled: 58045
CPLX:pref_useful: 36101
CPLX:pref_late: 496
CPLX:misses: 39776
CPLX:misses_by_poll: 6

NL_L1: 
NL:times selected: 517
NL:pref_filled: 304
NL:pref_useful: 29
NL:pref_late: 4
NL:misses: 261
NL:misses_by_poll: 0

total selections: 3997267
total_filled: 20111
total_useful: 6356
total_late: 3950
total_polluted: 6
total_misses_after_warmup: 9561
conflicts: 9
Degree Incremented Times: 41992
Degree Decremented Times: 62786

L1 IP Table Write Accesses: 373747
L1 IP Table Read Accesses: 373738
L1 RST Write Accesses: 84663
L1 RST Read Accesses: 169326
L1 CSPT Write Accesses: 84663
L1 CSPT Read Accesses: 332846
L1 RR Filter Tag Write Accesses: 53214
L1 RR Filter Tag Read Accesses: 18233898
L1 IP Table Tag Write Accesses: 373756
L1 IP Table Tag Read Accesses: 373756
L1 RST Tag Write Accesses: 0
L1 RST Tag Read Accesses: 725222
L1 RR Filter Write Accesses: 0
L1 RR Filter Read Accesses: 752466
test: 80533

DRAM Statistics
 CHANNEL 0
 RQ ROW_BUFFER_HIT:     134581  ROW_BUFFER_MISS:     391181
 DBUS_CONGESTED:        402
 WQ ROW_BUFFER_HIT:      72052  ROW_BUFFER_MISS:     199346  FULL:          0

 AVG_CONGESTED_CYCLE: 4
 All warmup complete: 2
Channel 0 Bank busy for read cycles: 0
Channel 0 Bank busy for write cycles: 0
Channel 0
Rank 0
0banks busy for read cycles: 73180895
0banks busy for write cycles: 62908
1banks busy for read cycles: 18550786
1banks busy for write cycles: 7202612
2banks busy for read cycles: 8553702
2banks busy for write cycles: 4007769
3banks busy for read cycles: 2213990
3banks busy for write cycles: 778783
4banks busy for read cycles: 1366654
4banks busy for write cycles: 599964
5banks busy for read cycles: 842025
5banks busy for write cycles: 481389
6banks busy for read cycles: 468030
6banks busy for write cycles: 432794
7banks busy for read cycles: 379013
7banks busy for write cycles: 571821
8banks busy for read cycles: 1083380
8banks busy for write cycles: 3286495

CPU 0 Branch Prediction Accuracy: 99.89% MPKI: 0.07455 Average ROB Occupancy at Mispredict: 231.474
Branch types
NOT_BRANCH: 93224477 93.2245%
BRANCH_DIRECT_JUMP: 279102 0.279102%
BRANCH_INDIRECT: 6 6e-06%
BRANCH_CONDITIONAL: 5979041 5.97904%
BRANCH_DIRECT_CALL: 258649 0.258649%
BRANCH_INDIRECT_CALL: 0 0%
BRANCH_RETURN: 258648 0.258648%
BRANCH_OTHER: 0 0%

DRAM PAGES: 1048576
Allocated PAGES: 6967
