Initialize SIGNATURE TABLE
ST_SET: 1
ST_WAY: 16
ST_TAG_BIT: 16
ST_TAG_MASK: ffff

Initialize PATTERN TABLE
PT_SET: 16
PT_WAY: 4
SIG_DELTA_BIT: 7
C_SIG_BIT: 4
C_DELTA_BIT: 4

Initialize PREFETCH FILTER
FILTER_SET: 1024

Initialize PERCEPTRON
PERC_ENTRIES: 4096
PERC_FEATURES: 9

*** ChampSim Multicore Out-of-Order Simulator ***

Warmup Instructions: 50000000
Simulation Instructions: 100000000
Number of CPUs: 1
LLC sets: 2048
LLC ways: 16
Off-chip DRAM Size: 4096 MB Channels: 1 Width: 64-bit Data Rate: 6400 MT/s
CPU 0 runs ../SPEC2017//621.wrf_s-8065B.champsimtrace.xz
.xz
BTB has LRU replacement policy
ITLB has LRU replacement policy
DTLB has LRU replacement policy
STLB has LRU replacement policy
L1I has LRU replacement policy
L1D has LRU replacement policy
Initialize SRRIP state for L2C
Initialize DRRIP state for LLC
Heartbeat CPU 0 instructions: 10000002 cycles: 3031027 heartbeat IPC: 3.29921 cumulative IPC: 3.29921 (Simulation time: 0 hr 7 min 7 sec) 
Heartbeat CPU 0 instructions: 20000000 cycles: 6041584 heartbeat IPC: 3.32164 cumulative IPC: 3.31039 (Simulation time: 0 hr 12 min 55 sec) 
Heartbeat CPU 0 instructions: 30000000 cycles: 9026930 heartbeat IPC: 3.3497 cumulative IPC: 3.32339 (Simulation time: 0 hr 17 min 56 sec) 
Heartbeat CPU 0 instructions: 40000003 cycles: 12097150 heartbeat IPC: 3.2571 cumulative IPC: 3.30656 (Simulation time: 0 hr 22 min 43 sec) 
Heartbeat CPU 0 instructions: 50000003 cycles: 15098826 heartbeat IPC: 3.33147 cumulative IPC: 3.31152 (Simulation time: 0 hr 27 min 24 sec) 

Warmup complete CPU 0 instructions: 50000003 cycles: 15098826 (Simulation time: 0 hr 27 min 24 sec) 

Heartbeat CPU 0 instructions: 60000003 cycles: 25570884 heartbeat IPC: 0.954922 cumulative IPC: 0.954922 (Simulation time: 0 hr 33 min 45 sec) 
Heartbeat CPU 0 instructions: 70000001 cycles: 37532464 heartbeat IPC: 0.83601 cumulative IPC: 0.891518 (Simulation time: 0 hr 39 min 23 sec) 
Heartbeat CPU 0 instructions: 80000003 cycles: 48301823 heartbeat IPC: 0.928561 cumulative IPC: 0.903533 (Simulation time: 0 hr 44 min 51 sec) 
Heartbeat CPU 0 instructions: 90000000 cycles: 60108626 heartbeat IPC: 0.846969 cumulative IPC: 0.888695 (Simulation time: 0 hr 49 min 45 sec) 
Heartbeat CPU 0 instructions: 100000002 cycles: 71036226 heartbeat IPC: 0.915114 cumulative IPC: 0.893856 (Simulation time: 0 hr 54 min 24 sec) 
Heartbeat CPU 0 instructions: 110000000 cycles: 82506484 heartbeat IPC: 0.87182 cumulative IPC: 0.890107 (Simulation time: 0 hr 58 min 45 sec) 
Heartbeat CPU 0 instructions: 120000000 cycles: 97581899 heartbeat IPC: 0.663332 cumulative IPC: 0.848659 (Simulation time: 1 hr 3 min 44 sec) 
Heartbeat CPU 0 instructions: 130000002 cycles: 111647103 heartbeat IPC: 0.710975 cumulative IPC: 0.828601 (Simulation time: 1 hr 10 min 16 sec) 
Heartbeat CPU 0 instructions: 140000001 cycles: 125726837 heartbeat IPC: 0.710241 cumulative IPC: 0.813537 (Simulation time: 1 hr 21 min 37 sec) 
Heartbeat CPU 0 instructions: 150000002 cycles: 141312564 heartbeat IPC: 0.641613 cumulative IPC: 0.792307 (Simulation time: 1 hr 33 min 12 sec) 
Finished CPU 0 instructions: 100000003 cycles: 126213739 cumulative IPC: 0.792307 (Simulation time: 1 hr 33 min 12 sec) 

ChampSim completed all CPUs

Region of Interest Statistics

CPU 0 cumulative IPC: 0.792307 instructions: 100000003 cycles: 126213739

CPU 0 Average Load ROB stall cycles: 1.78391e+07
CPU 0 Fraction of times ROB stalled by Loads: 19.7575
CPU 0 Percentage of Load stall cycles in Total stall cycles: 2.77888e+08
Issued all: 87657032
Issued LT all: 76923958
rob_not_full_when_issued_lt_all: 30305140
Issued LT one: 60862669
rob_not_full_when_issued_lt_one: 25648893
 Total stall cycles: 102542720
 Total load stall cycles: 284953662619931
Unique Load IPs: 3826
CPU 0 NUM of IPS identified critical: 7
CPU 0 Num of Load IPs stalling ROB: 0
Threshold modification factor: 0
Trouble in retire width: -nan
MaC = Marked as critical.
lt_50_percent_before_Mac: 5
gt_90_percent_before_Mac: 0
gt_75_percent_before_Mac: 0
gt_50_percent_before_Mac: 2
stall_proportion_bin_same_before_after: 0
stall_proportion_bin_lower_before_after: 0
stall_proportion_bin_upper_before_after: 0
average_stall_proportion_before: 0.0237035
average_stall_proportion_after: 0.0277587
Critical_IP_Detector_Accuracy_70: 0
Critical_IP_Detector_Accuracy_80: 0
Critical_IP_Detector_Accuracy_90: 0
Critical_IP_Detector_Coverage_70: 0
Critical_IP_Detector_Coverage_80: 0
Critical_IP_Detector_Coverage_90: 0
stat_90_percent_critical_ip_stalls_freq: 118260
stat_90_percent_non_critical_ip_stalls_freq: 18446744073709433356
AVERAGE_ROB_Occupancy_90_Percent_Critical_IP_Stalls: 339.18
AVERAGE_ROB_Occupancy_90_Percent_Non_Critical_IP_Stalls: 4.64389e-11
Critical_IP_ROB_Stalls_Bucket_0: 3911
Non-critical_IP_ROB_Stalls_Bucket_0: 230024
Critical_IP_ROB_Stalls_Bucket_1: 885
Non-critical_IP_ROB_Stalls_Bucket_1: 116153
Critical_IP_ROB_Stalls_Bucket_2: 1166
Non-critical_IP_ROB_Stalls_Bucket_2: 94945
Critical_IP_ROB_Stalls_Bucket_3: 3691
Non-critical_IP_ROB_Stalls_Bucket_3: 163422
Critical_IP_ROB_Stalls_Bucket_4: 4198
Non-critical_IP_ROB_Stalls_Bucket_4: 181455
Critical_IP_ROB_Stalls_Bucket_5: 2890
Non-critical_IP_ROB_Stalls_Bucket_5: 233421
Critical_IP_ROB_Stalls_Bucket_6: 8097
Non-critical_IP_ROB_Stalls_Bucket_6: 2111721
0 => IPs accounting for >50 percent of stalls, 1 => 55, 2 => 60, 3 => 65 and so on till 90.
percent50: inf num IPs:  1
percent55: inf num IPs: 1
percent60: inf num IPs: 1
percent65: inf num IPs: 1
percent70: inf num IPs: 1
percent75: inf num IPs: 1
percent80: inf num IPs: 1
percent85: inf num IPs: 1
percent90: inf num IPs: 1
Critical_ROB_Stalls_Percent_0_Bucket_0: 1112
Non-critical_ROB_Stalls_Percent_0_Bucket_0: 232823
Critical_ROB_Stalls_Percent_0_Bucket_1: 468
Non-critical_ROB_Stalls_Percent_0_Bucket_1: 116570
Critical_ROB_Stalls_Percent_0_Bucket_2: 1574
Non-critical_ROB_Stalls_Percent_0_Bucket_2: 94537
Critical_ROB_Stalls_Percent_0_Bucket_3: 1306
Non-critical_ROB_Stalls_Percent_0_Bucket_3: 165807
Critical_ROB_Stalls_Percent_0_Bucket_4: 1635
Non-critical_ROB_Stalls_Percent_0_Bucket_4: 184018
Critical_ROB_Stalls_Percent_0_Bucket_5: 2354
Non-critical_ROB_Stalls_Percent_0_Bucket_5: 233957
Critical_ROB_Stalls_Percent_0_Bucket_6: 109811
Non-critical_ROB_Stalls_Percent_0_Bucket_6: 2010007
Critical_ROB_Stalls_Percent_1_Bucket_0: 1112
Non-critical_ROB_Stalls_Percent_1_Bucket_0: 232823
Critical_ROB_Stalls_Percent_1_Bucket_1: 468
Non-critical_ROB_Stalls_Percent_1_Bucket_1: 116570
Critical_ROB_Stalls_Percent_1_Bucket_2: 1574
Non-critical_ROB_Stalls_Percent_1_Bucket_2: 94537
Critical_ROB_Stalls_Percent_1_Bucket_3: 1306
Non-critical_ROB_Stalls_Percent_1_Bucket_3: 165807
Critical_ROB_Stalls_Percent_1_Bucket_4: 1635
Non-critical_ROB_Stalls_Percent_1_Bucket_4: 184018
Critical_ROB_Stalls_Percent_1_Bucket_5: 2354
Non-critical_ROB_Stalls_Percent_1_Bucket_5: 233957
Critical_ROB_Stalls_Percent_1_Bucket_6: 109811
Non-critical_ROB_Stalls_Percent_1_Bucket_6: 2010007
Critical_ROB_Stalls_Percent_2_Bucket_0: 1112
Non-critical_ROB_Stalls_Percent_2_Bucket_0: 232823
Critical_ROB_Stalls_Percent_2_Bucket_1: 468
Non-critical_ROB_Stalls_Percent_2_Bucket_1: 116570
Critical_ROB_Stalls_Percent_2_Bucket_2: 1574
Non-critical_ROB_Stalls_Percent_2_Bucket_2: 94537
Critical_ROB_Stalls_Percent_2_Bucket_3: 1306
Non-critical_ROB_Stalls_Percent_2_Bucket_3: 165807
Critical_ROB_Stalls_Percent_2_Bucket_4: 1635
Non-critical_ROB_Stalls_Percent_2_Bucket_4: 184018
Critical_ROB_Stalls_Percent_2_Bucket_5: 2354
Non-critical_ROB_Stalls_Percent_2_Bucket_5: 233957
Critical_ROB_Stalls_Percent_2_Bucket_6: 109811
Non-critical_ROB_Stalls_Percent_2_Bucket_6: 2010007
Critical_ROB_Stalls_Percent_3_Bucket_0: 1112
Non-critical_ROB_Stalls_Percent_3_Bucket_0: 232823
Critical_ROB_Stalls_Percent_3_Bucket_1: 468
Non-critical_ROB_Stalls_Percent_3_Bucket_1: 116570
Critical_ROB_Stalls_Percent_3_Bucket_2: 1574
Non-critical_ROB_Stalls_Percent_3_Bucket_2: 94537
Critical_ROB_Stalls_Percent_3_Bucket_3: 1306
Non-critical_ROB_Stalls_Percent_3_Bucket_3: 165807
Critical_ROB_Stalls_Percent_3_Bucket_4: 1635
Non-critical_ROB_Stalls_Percent_3_Bucket_4: 184018
Critical_ROB_Stalls_Percent_3_Bucket_5: 2354
Non-critical_ROB_Stalls_Percent_3_Bucket_5: 233957
Critical_ROB_Stalls_Percent_3_Bucket_6: 109811
Non-critical_ROB_Stalls_Percent_3_Bucket_6: 2010007
Critical_ROB_Stalls_Percent_4_Bucket_0: 1112
Non-critical_ROB_Stalls_Percent_4_Bucket_0: 232823
Critical_ROB_Stalls_Percent_4_Bucket_1: 468
Non-critical_ROB_Stalls_Percent_4_Bucket_1: 116570
Critical_ROB_Stalls_Percent_4_Bucket_2: 1574
Non-critical_ROB_Stalls_Percent_4_Bucket_2: 94537
Critical_ROB_Stalls_Percent_4_Bucket_3: 1306
Non-critical_ROB_Stalls_Percent_4_Bucket_3: 165807
Critical_ROB_Stalls_Percent_4_Bucket_4: 1635
Non-critical_ROB_Stalls_Percent_4_Bucket_4: 184018
Critical_ROB_Stalls_Percent_4_Bucket_5: 2354
Non-critical_ROB_Stalls_Percent_4_Bucket_5: 233957
Critical_ROB_Stalls_Percent_4_Bucket_6: 109811
Non-critical_ROB_Stalls_Percent_4_Bucket_6: 2010007
Critical_ROB_Stalls_Percent_5_Bucket_0: 1112
Non-critical_ROB_Stalls_Percent_5_Bucket_0: 232823
Critical_ROB_Stalls_Percent_5_Bucket_1: 468
Non-critical_ROB_Stalls_Percent_5_Bucket_1: 116570
Critical_ROB_Stalls_Percent_5_Bucket_2: 1574
Non-critical_ROB_Stalls_Percent_5_Bucket_2: 94537
Critical_ROB_Stalls_Percent_5_Bucket_3: 1306
Non-critical_ROB_Stalls_Percent_5_Bucket_3: 165807
Critical_ROB_Stalls_Percent_5_Bucket_4: 1635
Non-critical_ROB_Stalls_Percent_5_Bucket_4: 184018
Critical_ROB_Stalls_Percent_5_Bucket_5: 2354
Non-critical_ROB_Stalls_Percent_5_Bucket_5: 233957
Critical_ROB_Stalls_Percent_5_Bucket_6: 109811
Non-critical_ROB_Stalls_Percent_5_Bucket_6: 2010007
Critical_ROB_Stalls_Percent_6_Bucket_0: 1112
Non-critical_ROB_Stalls_Percent_6_Bucket_0: 232823
Critical_ROB_Stalls_Percent_6_Bucket_1: 468
Non-critical_ROB_Stalls_Percent_6_Bucket_1: 116570
Critical_ROB_Stalls_Percent_6_Bucket_2: 1574
Non-critical_ROB_Stalls_Percent_6_Bucket_2: 94537
Critical_ROB_Stalls_Percent_6_Bucket_3: 1306
Non-critical_ROB_Stalls_Percent_6_Bucket_3: 165807
Critical_ROB_Stalls_Percent_6_Bucket_4: 1635
Non-critical_ROB_Stalls_Percent_6_Bucket_4: 184018
Critical_ROB_Stalls_Percent_6_Bucket_5: 2354
Non-critical_ROB_Stalls_Percent_6_Bucket_5: 233957
Critical_ROB_Stalls_Percent_6_Bucket_6: 109811
Non-critical_ROB_Stalls_Percent_6_Bucket_6: 2010007
Critical_ROB_Stalls_Percent_7_Bucket_0: 1112
Non-critical_ROB_Stalls_Percent_7_Bucket_0: 232823
Critical_ROB_Stalls_Percent_7_Bucket_1: 468
Non-critical_ROB_Stalls_Percent_7_Bucket_1: 116570
Critical_ROB_Stalls_Percent_7_Bucket_2: 1574
Non-critical_ROB_Stalls_Percent_7_Bucket_2: 94537
Critical_ROB_Stalls_Percent_7_Bucket_3: 1306
Non-critical_ROB_Stalls_Percent_7_Bucket_3: 165807
Critical_ROB_Stalls_Percent_7_Bucket_4: 1635
Non-critical_ROB_Stalls_Percent_7_Bucket_4: 184018
Critical_ROB_Stalls_Percent_7_Bucket_5: 2354
Non-critical_ROB_Stalls_Percent_7_Bucket_5: 233957
Critical_ROB_Stalls_Percent_7_Bucket_6: 109811
Non-critical_ROB_Stalls_Percent_7_Bucket_6: 2010007
Critical_ROB_Stalls_Percent_8_Bucket_0: 1112
Non-critical_ROB_Stalls_Percent_8_Bucket_0: 232823
Critical_ROB_Stalls_Percent_8_Bucket_1: 468
Non-critical_ROB_Stalls_Percent_8_Bucket_1: 116570
Critical_ROB_Stalls_Percent_8_Bucket_2: 1574
Non-critical_ROB_Stalls_Percent_8_Bucket_2: 94537
Critical_ROB_Stalls_Percent_8_Bucket_3: 1306
Non-critical_ROB_Stalls_Percent_8_Bucket_3: 165807
Critical_ROB_Stalls_Percent_8_Bucket_4: 1635
Non-critical_ROB_Stalls_Percent_8_Bucket_4: 184018
Critical_ROB_Stalls_Percent_8_Bucket_5: 2354
Non-critical_ROB_Stalls_Percent_8_Bucket_5: 233957
Critical_ROB_Stalls_Percent_8_Bucket_6: 109811
Non-critical_ROB_Stalls_Percent_8_Bucket_6: 2010007
Average ROB occupancy Load Stall Begin: 269.488
Average ROB occupancy Load Stall End: 284.146
Min ROB occupancy Load Stall Begin: 1
Max ROB occupancy Load Stall Begin: 352
Min ROB occupancy Load Stall End: 1
Max ROB occupancy Load Stall End: 352
Average ROB occupancy Critical Load Stall Begin: 188.933
Average ROB occupancy Critical Load Stall End: 199.958
Min ROB occupancy Critical Load Stall Begin: 5
Max ROB occupancy Critical Load Stall Begin: 352
Min ROB occupancy Critical Load Stall End: 7
Max ROB occupancy Critical Load Stall End: 352
 ROB Load Stall Begin Bucket Count 0: 291020
 ROB Load Stall End Bucket Count 0: 233935
 ROB Critical Load Stall Begin Bucket Count 0: 3542
 ROB Critical Load Stall End Bucket Count 0: 3448
 ROB Load Stall Begin Bucket Count 1: 116725
 ROB Load Stall End Bucket Count 1: 117038
 ROB Critical Load Stall Begin Bucket Count 1: 722
 ROB Critical Load Stall End Bucket Count 1: 697
 ROB Load Stall Begin Bucket Count 2: 137891
 ROB Load Stall End Bucket Count 2: 96111
 ROB Critical Load Stall Begin Bucket Count 2: 824
 ROB Critical Load Stall End Bucket Count 2: 722
 ROB Load Stall Begin Bucket Count 3: 197943
 ROB Load Stall End Bucket Count 3: 167113
 ROB Critical Load Stall Begin Bucket Count 3: 2171
 ROB Critical Load Stall End Bucket Count 3: 2035
 ROB Load Stall Begin Bucket Count 4: 219328
 ROB Load Stall End Bucket Count 4: 185653
 ROB Critical Load Stall Begin Bucket Count 4: 2054
 ROB Critical Load Stall End Bucket Count 4: 2084
 ROB Load Stall Begin Bucket Count 5: 224826
 ROB Load Stall End Bucket Count 5: 236311
 ROB Critical Load Stall Begin Bucket Count 5: 2116
 ROB Critical Load Stall End Bucket Count 5: 1550
 ROB Load Stall Begin Bucket Count 6: 1968246
 ROB Load Stall End Bucket Count 6: 2119818
 ROB Critical Load Stall Begin Bucket Count 6: 3606
 ROB Critical Load Stall End Bucket Count 6: 4499
PIST Tag Read Accesses: 0
PIST Read Accesses: 0
PIST Tag Write Accesses: 0
PIST Write Accesses: 0
Criticality detector called times: 0
Max global_stall_cycles_count: 0
Threshold Modified: 0 times, factor: 0
Sturdy critical IP cache stats: 
 Unused entries: 0
CIC Tag Read Accesses: 0
CIC Read Accesses: 0
CIC Tag Write Accesses: 0
CIC Write Accesses: 0
Wobbly critical IP cache stats: 
 Unused entries: 9
CIC Tag Read Accesses: 244032228
CIC Read Accesses: 0
CIC Tag Write Accesses: 111829
CIC Write Accesses: 0
ITLB TOTAL     ACCESS:   15005321  HIT:   15005277  MISS:         44  HIT %:    99.9997  MISS %: 0.000293229   MPKI: 0.00044
ITLB LOAD TRANSLATION ACCESS:   15005321  HIT:   15005277  MISS:         44  HIT %:    99.9997  MISS %: 0.000293229   MPKI: 0.00044
ITLB PREFETCH  REQUESTED:          0  ISSUED:          0  USEFUL:          0  USELESS:          0
ITLB USEFUL LOAD PREFETCHES:          0 PREFETCH ISSUED TO LOWER LEVEL:          0  ACCURACY: -nan
ITLB TIMELY PREFETCHES:          0 LATE PREFETCHES: 0 DROPPED PREFETCHES: 0
ITLB PREFETCHES SAME FILL-ORIGIN LEVEL: 0 DIFFERENT FILL-ORIGIN LEVEL: 0
ITLB AVERAGE MISS LATENCY: 241.659 cycles
ITLB RQ	ACCESS:   18413236	FORWARD:          0	MERGED:    3407900	TO_CACHE:   15005336

DTLB TOTAL     ACCESS:   17234390  HIT:   17190654  MISS:      43736  HIT %:    99.7462  MISS %:   0.253772   MPKI: 0.43736
DTLB LOAD TRANSLATION ACCESS:   17234390  HIT:   17190654  MISS:      43736  HIT %:    99.7462  MISS %:   0.253772   MPKI: 0.43736
DTLB PREFETCH  REQUESTED:          0  ISSUED:          0  USEFUL:          0  USELESS:          0
DTLB USEFUL LOAD PREFETCHES:          0 PREFETCH ISSUED TO LOWER LEVEL:          0  ACCURACY: -nan
DTLB TIMELY PREFETCHES:          0 LATE PREFETCHES: 0 DROPPED PREFETCHES: 0
DTLB PREFETCHES SAME FILL-ORIGIN LEVEL: 0 DIFFERENT FILL-ORIGIN LEVEL: 0
DTLB AVERAGE MISS LATENCY: 24.0784 cycles
DTLB RQ	ACCESS:   19703051	FORWARD:          0	MERGED:    2449903	TO_CACHE:   17253148

STLB TOTAL     ACCESS:      43780  HIT:      37886  MISS:       5894  HIT %:    86.5372  MISS %:    13.4628   MPKI: 0.05894
STLB LOAD TRANSLATION ACCESS:      43780  HIT:      37886  MISS:       5894  HIT %:    86.5372  MISS %:    13.4628   MPKI: 0.05894
STLB PREFETCH  REQUESTED:          0  ISSUED:          0  USEFUL:          0  USELESS:          0
STLB USEFUL LOAD PREFETCHES:          0 PREFETCH ISSUED TO LOWER LEVEL:          0  ACCURACY: -nan
STLB TIMELY PREFETCHES:          0 LATE PREFETCHES: 0 DROPPED PREFETCHES: 0
STLB PREFETCHES SAME FILL-ORIGIN LEVEL: 0 DIFFERENT FILL-ORIGIN LEVEL: 0
STLB AVERAGE MISS LATENCY: 112.495 cycles
STLB RQ	ACCESS:      43780	FORWARD:          0	MERGED:          0	TO_CACHE:      43780

STLB Hit, L1D data hit: 0
STLB Hit, L2C data hit: 0
STLB Hit, LLC data hit: 0
STLB Hit, LLC data miss: 0
STLB STLB hints to L2: 0
L1D TOTAL     ACCESS:   18465188  HIT:   17394371  MISS:    1070817  HIT %:    94.2009  MISS %:    5.79911   MPKI: 10.7082
L1D LOAD      ACCESS:   15077122  HIT:   14227476  MISS:     849646  HIT %:    94.3647  MISS %:    5.63533   MPKI: 8.49646
L1D RFO       ACCESS:    3388066  HIT:    3166895  MISS:     221171  HIT %:    93.4721  MISS %:    6.52794   MPKI: 2.21171
L1D PREFETCH  REQUESTED:          0  ISSUED:          0  USEFUL:          0  USELESS:          0
L1D USEFUL LOAD PREFETCHES:          0 PREFETCH ISSUED TO LOWER LEVEL:          0  ACCURACY: -nan
L1D TIMELY PREFETCHES:          0 LATE PREFETCHES: 0 DROPPED PREFETCHES: 0
L1D PREFETCHES SAME FILL-ORIGIN LEVEL: 0 DIFFERENT FILL-ORIGIN LEVEL: 0
L1D AVERAGE MISS LATENCY: 148.743 cycles
L1D RQ	ACCESS:   25931808	FORWARD:          0	MERGED:   10289702	TO_CACHE:   15637104
L1D WQ	ACCESS:    4083148	FORWARD:       5002	MERGED:      17201	TO_CACHE:    4065947

L1D UNIQUE REGIONS ACCESSED: 0
L1D REGIONS CONFLICTS: 0
L1D Cross Page Prefetch Requests: 0
L1D Same Page Prefetch Requests: 0
L1D ROI Sum of L1D PQ occupancy: 0
L1D PREFETCHES PUSHED FROM L2C: 0
L1I TOTAL     ACCESS:   18412206  HIT:   18410130  MISS:       2076  HIT %:    99.9887  MISS %:  0.0112751   MPKI: 0.02076
L1I LOAD      ACCESS:   18412206  HIT:   18410130  MISS:       2076  HIT %:    99.9887  MISS %:  0.0112751   MPKI: 0.02076
L1I PREFETCH  REQUESTED:          0  ISSUED:          0  USEFUL:          0  USELESS:          0
L1I USEFUL LOAD PREFETCHES:          0 PREFETCH ISSUED TO LOWER LEVEL:          0  ACCURACY: -nan
L1I TIMELY PREFETCHES:          0 LATE PREFETCHES: 0 DROPPED PREFETCHES: 0
L1I PREFETCHES SAME FILL-ORIGIN LEVEL: 0 DIFFERENT FILL-ORIGIN LEVEL: 0
L1I AVERAGE MISS LATENCY: 220.936 cycles
L1I RQ	ACCESS:   29090186	FORWARD:          0	MERGED:   10676950	TO_CACHE:   18413236

BTB TOTAL     ACCESS:    4428781  HIT:    4427957  MISS:        824  HIT %:    99.9814  MISS %:  0.0186056   MPKI: 0.00824
BTB BRANCH_DIRECT_JUMP	ACCESS:     279102  HIT:     279036  MISS:         66
BTB BRANCH_INDIRECT	ACCESS:          6  HIT:          4  MISS:          2
BTB BRANCH_CONDITIONAL	ACCESS:    3632376  HIT:    3632025  MISS:        351
BTB BRANCH_DIRECT_CALL	ACCESS:     258649  HIT:     258495  MISS:        154
BTB BRANCH_INDIRECT_CALL	ACCESS:          0  HIT:          0  MISS:          0
BTB BRANCH_RETURN	ACCESS:     258648  HIT:     258397  MISS:        251
BTB BRANCH_OTHER ACCESS:          0  HIT:          0  MISS:          0

L2C TOTAL     ACCESS:    1534443  HIT:     742117  MISS:     792326  HIT %:    48.3639  MISS %:    51.6361   MPKI: 7.92326
L2C LOAD      ACCESS:     851643  HIT:     269896  MISS:     581747  HIT %:    31.6912  MISS %:    68.3088   MPKI: 5.81747
L2C DATA LOAD MPKI: 5.79671
L2C INSTRUCTION LOAD MPKI: 0.02076
L2C RFO       ACCESS:     221171  HIT:      26359  MISS:     194812  HIT %:    11.9179  MISS %:    88.0821   MPKI: 1.94812
L2C PREFETCH  ACCESS:      15237  HIT:       8687  MISS:       6550  HIT %:    57.0125  MISS %:    42.9875   MPKI: 0.0655
L2C DATA PREFETCH MPKI: 0.0655
L2C INSTRUCTION PREFETCH MPKI: 0
L2C WRITEBACK ACCESS:     440479  HIT:     432347  MISS:       8132  HIT %:    98.1538  MISS %:    1.84617   MPKI: 0.08132
L2C LOAD TRANSLATION ACCESS:       5913  HIT:       4828  MISS:       1085  HIT %:    81.6506  MISS %:    18.3494   MPKI: 0.01085
L2C PREFETCH  REQUESTED:      20763  ISSUED:      20621  USEFUL:       1407  USELESS:       5223
L2C USEFUL LOAD PREFETCHES:       1407 PREFETCH ISSUED TO LOWER LEVEL:       8284  ACCURACY: 16.9845
L2C TIMELY PREFETCHES:       1407 LATE PREFETCHES: 1689 DROPPED PREFETCHES: 0
L2C PREFETCHES SAME FILL-ORIGIN LEVEL: 8239 DIFFERENT FILL-ORIGIN LEVEL: 45
L2C AVERAGE MISS LATENCY: 183.773 cycles
L2C RQ	ACCESS:    1078808	FORWARD:          0	MERGED:          0	TO_CACHE:    1078729
L2C WQ	ACCESS:     440479	FORWARD:         79	MERGED:          0	TO_CACHE:     440479
L2C PQ	ACCESS:      20621	FORWARD:          0	MERGED:         61	TO_CACHE:      20560

L2C Instructions Evicting Data 2071
L2C Translations Evicting Data 1082
L2C Data Evicting Data 777930
L2C Instructions Evicting Instructions 2
L2C Translations Evicting Instructions 2
L2C Data Evicting Instructions 2059
L2C Instructions Evicting Translations 3
L2C Translations Evicting Translations 1
L2C Data Evicting Translations 1044
L2C Dense regions hint from L2: 0
PSCL5 TOTAL     ACCESS:       5894  HIT:       5894  MISS:          0  HIT %:        100  MISS %:          0   MPKI: 0
PSCL5 LOAD TRANSLATION ACCESS:       5894  HIT:       5894  MISS:          0  HIT %:        100  MISS %:          0   MPKI: 0
PSCL5 PREFETCH  REQUESTED:          0  ISSUED:          0  USEFUL:          0  USELESS:          0
PSCL5 USEFUL LOAD PREFETCHES:          0 PREFETCH ISSUED TO LOWER LEVEL:          0  ACCURACY: -nan
PSCL5 TIMELY PREFETCHES:          0 LATE PREFETCHES: 0 DROPPED PREFETCHES: 0
PSCL5 PREFETCHES SAME FILL-ORIGIN LEVEL: 0 DIFFERENT FILL-ORIGIN LEVEL: 0

PSCL4 TOTAL     ACCESS:       5894  HIT:       5894  MISS:          0  HIT %:        100  MISS %:          0   MPKI: 0
PSCL4 LOAD TRANSLATION ACCESS:       5894  HIT:       5894  MISS:          0  HIT %:        100  MISS %:          0   MPKI: 0
PSCL4 PREFETCH  REQUESTED:          0  ISSUED:          0  USEFUL:          0  USELESS:          0
PSCL4 USEFUL LOAD PREFETCHES:          0 PREFETCH ISSUED TO LOWER LEVEL:          0  ACCURACY: -nan
PSCL4 TIMELY PREFETCHES:          0 LATE PREFETCHES: 0 DROPPED PREFETCHES: 0
PSCL4 PREFETCHES SAME FILL-ORIGIN LEVEL: 0 DIFFERENT FILL-ORIGIN LEVEL: 0

PSCL3 TOTAL     ACCESS:       5894  HIT:       5894  MISS:          0  HIT %:        100  MISS %:          0   MPKI: 0
PSCL3 LOAD TRANSLATION ACCESS:       5894  HIT:       5894  MISS:          0  HIT %:        100  MISS %:          0   MPKI: 0
PSCL3 PREFETCH  REQUESTED:          0  ISSUED:          0  USEFUL:          0  USELESS:          0
PSCL3 USEFUL LOAD PREFETCHES:          0 PREFETCH ISSUED TO LOWER LEVEL:          0  ACCURACY: -nan
PSCL3 TIMELY PREFETCHES:          0 LATE PREFETCHES: 0 DROPPED PREFETCHES: 0
PSCL3 PREFETCHES SAME FILL-ORIGIN LEVEL: 0 DIFFERENT FILL-ORIGIN LEVEL: 0

PSCL2 TOTAL     ACCESS:       5894  HIT:       5871  MISS:         23  HIT %:    99.6098  MISS %:   0.390227   MPKI: 0.00023
PSCL2 LOAD TRANSLATION ACCESS:       5894  HIT:       5871  MISS:         23  HIT %:    99.6098  MISS %:   0.390227   MPKI: 0.00023
PSCL2 PREFETCH  REQUESTED:          0  ISSUED:          0  USEFUL:          0  USELESS:          0
PSCL2 USEFUL LOAD PREFETCHES:          0 PREFETCH ISSUED TO LOWER LEVEL:          0  ACCURACY: -nan
PSCL2 TIMELY PREFETCHES:          0 LATE PREFETCHES: 0 DROPPED PREFETCHES: 0
PSCL2 PREFETCHES SAME FILL-ORIGIN LEVEL: 0 DIFFERENT FILL-ORIGIN LEVEL: 0

LLC TOTAL     ACCESS:    1169816  HIT:     481630  MISS:     688186  HIT %:    41.1714  MISS %:    58.8286   MPKI: 6.88186
LLC LOAD      ACCESS:     580057  HIT:     185110  MISS:     394947  HIT %:    31.9124  MISS %:    68.0876   MPKI: 3.94947
LLC RFO       ACCESS:     194812  HIT:      33141  MISS:     161671  HIT %:    17.0118  MISS %:    82.9882   MPKI: 1.61671
LLC PREFETCH  ACCESS:       8271  HIT:        650  MISS:       7621  HIT %:    7.85878  MISS %:    92.1412   MPKI: 0.07621
LLC WRITEBACK ACCESS:     385591  HIT:     262672  MISS:     122919  HIT %:    68.1219  MISS %:    31.8781   MPKI: 1.22919
LLC LOAD TRANSLATION ACCESS:       1085  HIT:         57  MISS:       1028  HIT %:    5.25346  MISS %:    94.7465   MPKI: 0.01028
LLC PREFETCH  REQUESTED:          0  ISSUED:          0  USEFUL:       6616  USELESS:      14322
LLC USEFUL LOAD PREFETCHES:       6616 PREFETCH ISSUED TO LOWER LEVEL:       7632  ACCURACY: 86.6876
LLC TIMELY PREFETCHES:       6616 LATE PREFETCHES: 11 DROPPED PREFETCHES: 0
LLC PREFETCHES SAME FILL-ORIGIN LEVEL: 32 DIFFERENT FILL-ORIGIN LEVEL: 0
LLC AVERAGE MISS LATENCY: 177.52 cycles
LLC RQ	ACCESS:     775955	FORWARD:          0	MERGED:          0	TO_CACHE:     775954
LLC WQ	ACCESS:     385591	FORWARD:          2	MERGED:          0	TO_CACHE:     385591
LLC PQ	ACCESS:       8284	FORWARD:          0	MERGED:          1	TO_CACHE:       8282

LLC Dense regions hint to LLC: 0

RAW hits: 128226
Loads Generated: 26060040
Loads sent to L1D: 25931808
Stores Generated: 4083143
Stores sent to L1D: 4083148
Major fault: 0 Minor fault: 6967
Allocated PAGES: 6967
------------------
Depth Distribution
------------------
depth 0: 11791
depth 1: 30836
depth 2: 77105
depth 3: 80836
depth 4: 69365
depth 5: 98520
depth 6: 52724
depth 7: 87477
depth 8: 69012
depth 9: 8777
depth 10: 6
depth 11: 3
depth 12: 0
depth 13: 0
depth 14: 0
depth 15: 0
depth 16: 0
depth 17: 0
depth 18: 0
depth 19: 0
depth 20: 0
depth 21: 0
depth 22: 0
depth 23: 0
depth 24: 0
depth 25: 0
depth 26: 0
depth 27: 0
depth 28: 0
depth 29: 0
Total: 586452
------------------
ST read accesses: 12150
ST write accesses: 1095
PT read accesses: 216900
PT write accesses: 17638
FILTER read accesses: 848665
FILTER write accesses: 1615341
GHR read accesses: 48441
GHR write accesses: 6396
PERC read accesses: 1415403
PERC write accesses: 234482
GHR counter read accesses: 26490
GHR counter write accesses: 49043
GHR ip read accesses: 102135
GHR ip write accesses: 52980
ST tag read accesses: 360048
ST tag write accesses: 29875

DRAM Statistics
 CHANNEL 0
 RQ ROW_BUFFER_HIT:     114811  ROW_BUFFER_MISS:     450353
 DBUS_CONGESTED:        251
 WQ ROW_BUFFER_HIT:      66107  ROW_BUFFER_MISS:     196010  FULL:        736

 AVG_CONGESTED_CYCLE: 4
 All warmup complete: 2
Channel 0 Bank busy for read cycles: 0
Channel 0 Bank busy for write cycles: 0
Channel 0
Rank 0
0banks busy for read cycles: 69022084
0banks busy for write cycles: 55148
1banks busy for read cycles: 21731460
1banks busy for write cycles: 7576858
2banks busy for read cycles: 11139361
2banks busy for write cycles: 3861292
3banks busy for read cycles: 2381866
3banks busy for write cycles: 1590810
4banks busy for read cycles: 1515597
4banks busy for write cycles: 587084
5banks busy for read cycles: 876454
5banks busy for write cycles: 359884
6banks busy for read cycles: 524252
6banks busy for write cycles: 275361
7banks busy for read cycles: 353971
7banks busy for write cycles: 468337
8banks busy for read cycles: 850424
8banks busy for write cycles: 3043497

CPU 0 Branch Prediction Accuracy: 99.89% MPKI: 0.07455 Average ROB Occupancy at Mispredict: 236.7
Branch types
NOT_BRANCH: 93224476 93.2245%
BRANCH_DIRECT_JUMP: 279102 0.279102%
BRANCH_INDIRECT: 6 6e-06%
BRANCH_CONDITIONAL: 5979041 5.97904%
BRANCH_DIRECT_CALL: 258649 0.258649%
BRANCH_INDIRECT_CALL: 0 0%
BRANCH_RETURN: 258648 0.258648%
BRANCH_OTHER: 0 0%

DRAM PAGES: 1048576
Allocated PAGES: 6967
