Initialize SIGNATURE TABLE
ST_SET: 1
ST_WAY: 256
ST_TAG_BIT: 16
ST_TAG_MASK: ffff

Initialize PATTERN TABLE
PT_SET: 512
PT_WAY: 4
SIG_DELTA_BIT: 7
C_SIG_BIT: 4
C_DELTA_BIT: 4

Initialize PREFETCH FILTER
FILTER_SET: 1024

*** ChampSim Multicore Out-of-Order Simulator ***

Warmup Instructions: 50000000
Simulation Instructions: 100000000
Number of CPUs: 1
LLC sets: 2048
LLC ways: 16
Off-chip DRAM Size: 4096 MB Channels: 1 Width: 64-bit Data Rate: 6400 MT/s
CPU 0 runs ../SPEC2017//621.wrf_s-6673B.champsimtrace.xz
.xz
BTB has LRU replacement policy
ITLB has LRU replacement policy
DTLB has LRU replacement policy
STLB has LRU replacement policy
L1I has LRU replacement policy
L1D has LRU replacement policy
Initialize SRRIP state for L2C
Initialize DRRIP state for LLC
Heartbeat CPU 0 instructions: 10000002 cycles: 3564357 heartbeat IPC: 2.80556 cumulative IPC: 2.80556 (Simulation time: 0 hr 5 min 40 sec) 
Heartbeat CPU 0 instructions: 20000003 cycles: 6476580 heartbeat IPC: 3.4338 cumulative IPC: 3.08805 (Simulation time: 0 hr 9 min 47 sec) 
Heartbeat CPU 0 instructions: 30000000 cycles: 9303567 heartbeat IPC: 3.53733 cumulative IPC: 3.22457 (Simulation time: 0 hr 13 min 33 sec) 
Heartbeat CPU 0 instructions: 40000002 cycles: 12200291 heartbeat IPC: 3.45218 cumulative IPC: 3.27861 (Simulation time: 0 hr 17 min 18 sec) 
Heartbeat CPU 0 instructions: 50000001 cycles: 15107683 heartbeat IPC: 3.43951 cumulative IPC: 3.30957 (Simulation time: 0 hr 20 min 59 sec) 

Warmup complete CPU 0 instructions: 50000001 cycles: 15107683 (Simulation time: 0 hr 20 min 59 sec) 

Heartbeat CPU 0 instructions: 60000000 cycles: 34410805 heartbeat IPC: 0.518051 cumulative IPC: 0.518051 (Simulation time: 0 hr 27 min 57 sec) 
Heartbeat CPU 0 instructions: 70000000 cycles: 56507555 heartbeat IPC: 0.452555 cumulative IPC: 0.483093 (Simulation time: 0 hr 34 min 35 sec) 
Heartbeat CPU 0 instructions: 80000000 cycles: 73349497 heartbeat IPC: 0.593756 cumulative IPC: 0.515094 (Simulation time: 0 hr 39 min 59 sec) 
Heartbeat CPU 0 instructions: 90000003 cycles: 91636669 heartbeat IPC: 0.546832 cumulative IPC: 0.522678 (Simulation time: 0 hr 45 min 22 sec) 
Heartbeat CPU 0 instructions: 100000000 cycles: 119885592 heartbeat IPC: 0.353996 cumulative IPC: 0.4772 (Simulation time: 0 hr 52 min 2 sec) 
Heartbeat CPU 0 instructions: 110000000 cycles: 129302481 heartbeat IPC: 1.06192 cumulative IPC: 0.525418 (Simulation time: 0 hr 55 min 55 sec) 
Heartbeat CPU 0 instructions: 120000003 cycles: 141934853 heartbeat IPC: 0.791617 cumulative IPC: 0.551932 (Simulation time: 0 hr 59 min 47 sec) 
Heartbeat CPU 0 instructions: 130000002 cycles: 152416042 heartbeat IPC: 0.95409 cumulative IPC: 0.58263 (Simulation time: 1 hr 3 min 7 sec) 
Heartbeat CPU 0 instructions: 140000002 cycles: 163392132 heartbeat IPC: 0.911071 cumulative IPC: 0.606942 (Simulation time: 1 hr 6 min 29 sec) 
Heartbeat CPU 0 instructions: 150000002 cycles: 174603730 heartbeat IPC: 0.891934 cumulative IPC: 0.626975 (Simulation time: 1 hr 14 min 27 sec) 
Finished CPU 0 instructions: 100000001 cycles: 159496047 cumulative IPC: 0.626975 (Simulation time: 1 hr 14 min 27 sec) 

ChampSim completed all CPUs

Region of Interest Statistics

CPU 0 cumulative IPC: 0.626975 instructions: 100000001 cycles: 159496047

CPU 0 Average Load ROB stall cycles: 2.44809e+07
CPU 0 Fraction of times ROB stalled by Loads: 26.0862
CPU 0 Percentage of Load stall cycles in Total stall cycles: 1.8325e+08
Issued all: 111968661
Issued LT all: 99384336
rob_not_full_when_issued_lt_all: 35712849
Issued LT one: 90504124
rob_not_full_when_issued_lt_one: 31108872
 Total stall cycles: 134098080
 Total load stall cycles: 245734171432390
Unique Load IPs: 7660
CPU 0 NUM of IPS identified critical: 38
CPU 0 Num of Load IPs stalling ROB: 0
Threshold modification factor: 0
Trouble in retire width: -nan
MaC = Marked as critical.
lt_50_percent_before_Mac: 12
gt_90_percent_before_Mac: 9
gt_75_percent_before_Mac: 6
gt_50_percent_before_Mac: 10
stall_proportion_bin_same_before_after: 0
stall_proportion_bin_lower_before_after: 0
stall_proportion_bin_upper_before_after: 0
average_stall_proportion_before: 0.0187204
average_stall_proportion_after: 0.0265213
Critical_IP_Detector_Accuracy_70: 0
Critical_IP_Detector_Accuracy_80: 0
Critical_IP_Detector_Accuracy_90: 0
Critical_IP_Detector_Coverage_70: 0
Critical_IP_Detector_Coverage_80: 0
Critical_IP_Detector_Coverage_90: 0
stat_90_percent_critical_ip_stalls_freq: 176356
stat_90_percent_non_critical_ip_stalls_freq: 18446744073709375260
AVERAGE_ROB_Occupancy_90_Percent_Critical_IP_Stalls: 46.0503
AVERAGE_ROB_Occupancy_90_Percent_Non_Critical_IP_Stalls: 2.72782e-11
Critical_IP_ROB_Stalls_Bucket_0: 60650
Non-critical_IP_ROB_Stalls_Bucket_0: 774127
Critical_IP_ROB_Stalls_Bucket_1: 21671
Non-critical_IP_ROB_Stalls_Bucket_1: 169198
Critical_IP_ROB_Stalls_Bucket_2: 3743
Non-critical_IP_ROB_Stalls_Bucket_2: 64687
Critical_IP_ROB_Stalls_Bucket_3: 6693
Non-critical_IP_ROB_Stalls_Bucket_3: 108115
Critical_IP_ROB_Stalls_Bucket_4: 10228
Non-critical_IP_ROB_Stalls_Bucket_4: 154144
Critical_IP_ROB_Stalls_Bucket_5: 13648
Non-critical_IP_ROB_Stalls_Bucket_5: 277412
Critical_IP_ROB_Stalls_Bucket_6: 43629
Non-critical_IP_ROB_Stalls_Bucket_6: 910531
0 => IPs accounting for >50 percent of stalls, 1 => 55, 2 => 60, 3 => 65 and so on till 90.
percent50: inf num IPs:  1
percent55: inf num IPs: 1
percent60: inf num IPs: 1
percent65: inf num IPs: 1
percent70: inf num IPs: 1
percent75: inf num IPs: 1
percent80: inf num IPs: 1
percent85: inf num IPs: 1
percent90: inf num IPs: 1
Critical_ROB_Stalls_Percent_0_Bucket_0: 154181
Non-critical_ROB_Stalls_Percent_0_Bucket_0: 680596
Critical_ROB_Stalls_Percent_0_Bucket_1: 20471
Non-critical_ROB_Stalls_Percent_0_Bucket_1: 170398
Critical_ROB_Stalls_Percent_0_Bucket_2: 246
Non-critical_ROB_Stalls_Percent_0_Bucket_2: 68184
Critical_ROB_Stalls_Percent_0_Bucket_3: 282
Non-critical_ROB_Stalls_Percent_0_Bucket_3: 114526
Critical_ROB_Stalls_Percent_0_Bucket_4: 429
Non-critical_ROB_Stalls_Percent_0_Bucket_4: 163943
Critical_ROB_Stalls_Percent_0_Bucket_5: 566
Non-critical_ROB_Stalls_Percent_0_Bucket_5: 290494
Critical_ROB_Stalls_Percent_0_Bucket_6: 181
Non-critical_ROB_Stalls_Percent_0_Bucket_6: 953979
Critical_ROB_Stalls_Percent_1_Bucket_0: 154181
Non-critical_ROB_Stalls_Percent_1_Bucket_0: 680596
Critical_ROB_Stalls_Percent_1_Bucket_1: 20471
Non-critical_ROB_Stalls_Percent_1_Bucket_1: 170398
Critical_ROB_Stalls_Percent_1_Bucket_2: 246
Non-critical_ROB_Stalls_Percent_1_Bucket_2: 68184
Critical_ROB_Stalls_Percent_1_Bucket_3: 282
Non-critical_ROB_Stalls_Percent_1_Bucket_3: 114526
Critical_ROB_Stalls_Percent_1_Bucket_4: 429
Non-critical_ROB_Stalls_Percent_1_Bucket_4: 163943
Critical_ROB_Stalls_Percent_1_Bucket_5: 566
Non-critical_ROB_Stalls_Percent_1_Bucket_5: 290494
Critical_ROB_Stalls_Percent_1_Bucket_6: 181
Non-critical_ROB_Stalls_Percent_1_Bucket_6: 953979
Critical_ROB_Stalls_Percent_2_Bucket_0: 154181
Non-critical_ROB_Stalls_Percent_2_Bucket_0: 680596
Critical_ROB_Stalls_Percent_2_Bucket_1: 20471
Non-critical_ROB_Stalls_Percent_2_Bucket_1: 170398
Critical_ROB_Stalls_Percent_2_Bucket_2: 246
Non-critical_ROB_Stalls_Percent_2_Bucket_2: 68184
Critical_ROB_Stalls_Percent_2_Bucket_3: 282
Non-critical_ROB_Stalls_Percent_2_Bucket_3: 114526
Critical_ROB_Stalls_Percent_2_Bucket_4: 429
Non-critical_ROB_Stalls_Percent_2_Bucket_4: 163943
Critical_ROB_Stalls_Percent_2_Bucket_5: 566
Non-critical_ROB_Stalls_Percent_2_Bucket_5: 290494
Critical_ROB_Stalls_Percent_2_Bucket_6: 181
Non-critical_ROB_Stalls_Percent_2_Bucket_6: 953979
Critical_ROB_Stalls_Percent_3_Bucket_0: 154181
Non-critical_ROB_Stalls_Percent_3_Bucket_0: 680596
Critical_ROB_Stalls_Percent_3_Bucket_1: 20471
Non-critical_ROB_Stalls_Percent_3_Bucket_1: 170398
Critical_ROB_Stalls_Percent_3_Bucket_2: 246
Non-critical_ROB_Stalls_Percent_3_Bucket_2: 68184
Critical_ROB_Stalls_Percent_3_Bucket_3: 282
Non-critical_ROB_Stalls_Percent_3_Bucket_3: 114526
Critical_ROB_Stalls_Percent_3_Bucket_4: 429
Non-critical_ROB_Stalls_Percent_3_Bucket_4: 163943
Critical_ROB_Stalls_Percent_3_Bucket_5: 566
Non-critical_ROB_Stalls_Percent_3_Bucket_5: 290494
Critical_ROB_Stalls_Percent_3_Bucket_6: 181
Non-critical_ROB_Stalls_Percent_3_Bucket_6: 953979
Critical_ROB_Stalls_Percent_4_Bucket_0: 154181
Non-critical_ROB_Stalls_Percent_4_Bucket_0: 680596
Critical_ROB_Stalls_Percent_4_Bucket_1: 20471
Non-critical_ROB_Stalls_Percent_4_Bucket_1: 170398
Critical_ROB_Stalls_Percent_4_Bucket_2: 246
Non-critical_ROB_Stalls_Percent_4_Bucket_2: 68184
Critical_ROB_Stalls_Percent_4_Bucket_3: 282
Non-critical_ROB_Stalls_Percent_4_Bucket_3: 114526
Critical_ROB_Stalls_Percent_4_Bucket_4: 429
Non-critical_ROB_Stalls_Percent_4_Bucket_4: 163943
Critical_ROB_Stalls_Percent_4_Bucket_5: 566
Non-critical_ROB_Stalls_Percent_4_Bucket_5: 290494
Critical_ROB_Stalls_Percent_4_Bucket_6: 181
Non-critical_ROB_Stalls_Percent_4_Bucket_6: 953979
Critical_ROB_Stalls_Percent_5_Bucket_0: 154181
Non-critical_ROB_Stalls_Percent_5_Bucket_0: 680596
Critical_ROB_Stalls_Percent_5_Bucket_1: 20471
Non-critical_ROB_Stalls_Percent_5_Bucket_1: 170398
Critical_ROB_Stalls_Percent_5_Bucket_2: 246
Non-critical_ROB_Stalls_Percent_5_Bucket_2: 68184
Critical_ROB_Stalls_Percent_5_Bucket_3: 282
Non-critical_ROB_Stalls_Percent_5_Bucket_3: 114526
Critical_ROB_Stalls_Percent_5_Bucket_4: 429
Non-critical_ROB_Stalls_Percent_5_Bucket_4: 163943
Critical_ROB_Stalls_Percent_5_Bucket_5: 566
Non-critical_ROB_Stalls_Percent_5_Bucket_5: 290494
Critical_ROB_Stalls_Percent_5_Bucket_6: 181
Non-critical_ROB_Stalls_Percent_5_Bucket_6: 953979
Critical_ROB_Stalls_Percent_6_Bucket_0: 154181
Non-critical_ROB_Stalls_Percent_6_Bucket_0: 680596
Critical_ROB_Stalls_Percent_6_Bucket_1: 20471
Non-critical_ROB_Stalls_Percent_6_Bucket_1: 170398
Critical_ROB_Stalls_Percent_6_Bucket_2: 246
Non-critical_ROB_Stalls_Percent_6_Bucket_2: 68184
Critical_ROB_Stalls_Percent_6_Bucket_3: 282
Non-critical_ROB_Stalls_Percent_6_Bucket_3: 114526
Critical_ROB_Stalls_Percent_6_Bucket_4: 429
Non-critical_ROB_Stalls_Percent_6_Bucket_4: 163943
Critical_ROB_Stalls_Percent_6_Bucket_5: 566
Non-critical_ROB_Stalls_Percent_6_Bucket_5: 290494
Critical_ROB_Stalls_Percent_6_Bucket_6: 181
Non-critical_ROB_Stalls_Percent_6_Bucket_6: 953979
Critical_ROB_Stalls_Percent_7_Bucket_0: 154181
Non-critical_ROB_Stalls_Percent_7_Bucket_0: 680596
Critical_ROB_Stalls_Percent_7_Bucket_1: 20471
Non-critical_ROB_Stalls_Percent_7_Bucket_1: 170398
Critical_ROB_Stalls_Percent_7_Bucket_2: 246
Non-critical_ROB_Stalls_Percent_7_Bucket_2: 68184
Critical_ROB_Stalls_Percent_7_Bucket_3: 282
Non-critical_ROB_Stalls_Percent_7_Bucket_3: 114526
Critical_ROB_Stalls_Percent_7_Bucket_4: 429
Non-critical_ROB_Stalls_Percent_7_Bucket_4: 163943
Critical_ROB_Stalls_Percent_7_Bucket_5: 566
Non-critical_ROB_Stalls_Percent_7_Bucket_5: 290494
Critical_ROB_Stalls_Percent_7_Bucket_6: 181
Non-critical_ROB_Stalls_Percent_7_Bucket_6: 953979
Critical_ROB_Stalls_Percent_8_Bucket_0: 154181
Non-critical_ROB_Stalls_Percent_8_Bucket_0: 680596
Critical_ROB_Stalls_Percent_8_Bucket_1: 20471
Non-critical_ROB_Stalls_Percent_8_Bucket_1: 170398
Critical_ROB_Stalls_Percent_8_Bucket_2: 246
Non-critical_ROB_Stalls_Percent_8_Bucket_2: 68184
Critical_ROB_Stalls_Percent_8_Bucket_3: 282
Non-critical_ROB_Stalls_Percent_8_Bucket_3: 114526
Critical_ROB_Stalls_Percent_8_Bucket_4: 429
Non-critical_ROB_Stalls_Percent_8_Bucket_4: 163943
Critical_ROB_Stalls_Percent_8_Bucket_5: 566
Non-critical_ROB_Stalls_Percent_8_Bucket_5: 290494
Critical_ROB_Stalls_Percent_8_Bucket_6: 181
Non-critical_ROB_Stalls_Percent_8_Bucket_6: 953979
Average ROB occupancy Load Stall Begin: 174.803
Average ROB occupancy Load Stall End: 195.272
Min ROB occupancy Load Stall Begin: 1
Max ROB occupancy Load Stall Begin: 352
Min ROB occupancy Load Stall End: 1
Max ROB occupancy Load Stall End: 352
Average ROB occupancy Critical Load Stall Begin: 89.8226
Average ROB occupancy Critical Load Stall End: 98.7471
Min ROB occupancy Critical Load Stall Begin: 1
Max ROB occupancy Critical Load Stall Begin: 352
Min ROB occupancy Critical Load Stall End: 1
Max ROB occupancy Critical Load Stall End: 352
 ROB Load Stall Begin Bucket Count 0: 940242
 ROB Load Stall End Bucket Count 0: 834777
 ROB Critical Load Stall Begin Bucket Count 0: 52805
 ROB Critical Load Stall End Bucket Count 0: 48671
 ROB Load Stall Begin Bucket Count 1: 145749
 ROB Load Stall End Bucket Count 1: 190869
 ROB Critical Load Stall Begin Bucket Count 1: 1299
 ROB Critical Load Stall End Bucket Count 1: 5221
 ROB Load Stall Begin Bucket Count 2: 86700
 ROB Load Stall End Bucket Count 2: 68430
 ROB Critical Load Stall Begin Bucket Count 2: 1127
 ROB Critical Load Stall End Bucket Count 2: 905
 ROB Load Stall Begin Bucket Count 3: 150702
 ROB Load Stall End Bucket Count 3: 114808
 ROB Critical Load Stall Begin Bucket Count 3: 2840
 ROB Critical Load Stall End Bucket Count 3: 2515
 ROB Load Stall Begin Bucket Count 4: 226014
 ROB Load Stall End Bucket Count 4: 164372
 ROB Critical Load Stall Begin Bucket Count 4: 4214
 ROB Critical Load Stall End Bucket Count 4: 4005
 ROB Load Stall Begin Bucket Count 5: 381162
 ROB Load Stall End Bucket Count 5: 291060
 ROB Critical Load Stall Begin Bucket Count 5: 5824
 ROB Critical Load Stall End Bucket Count 5: 4919
 ROB Load Stall Begin Bucket Count 6: 687907
 ROB Load Stall End Bucket Count 6: 954160
 ROB Critical Load Stall Begin Bucket Count 6: 8144
 ROB Critical Load Stall End Bucket Count 6: 10020
PIST Tag Read Accesses: 0
PIST Read Accesses: 0
PIST Tag Write Accesses: 0
PIST Write Accesses: 0
Criticality detector called times: 0
Max global_stall_cycles_count: 0
Threshold Modified: 0 times, factor: 0
Sturdy critical IP cache stats: 
 Unused entries: 0
CIC Tag Read Accesses: 0
CIC Read Accesses: 0
CIC Tag Write Accesses: 0
CIC Write Accesses: 0
Wobbly critical IP cache stats: 
 Unused entries: 0
CIC Tag Read Accesses: 318051730
CIC Read Accesses: 0
CIC Tag Write Accesses: 312067
CIC Write Accesses: 0
ITLB TOTAL     ACCESS:   14740603  HIT:   14740511  MISS:         92  HIT %:    99.9994  MISS %: 0.000624126   MPKI: 0.00092
ITLB LOAD TRANSLATION ACCESS:   14740603  HIT:   14740511  MISS:         92  HIT %:    99.9994  MISS %: 0.000624126   MPKI: 0.00092
ITLB PREFETCH  REQUESTED:          0  ISSUED:          0  USEFUL:          0  USELESS:          0
ITLB USEFUL LOAD PREFETCHES:          0 PREFETCH ISSUED TO LOWER LEVEL:          0  ACCURACY: -nan
ITLB TIMELY PREFETCHES:          0 LATE PREFETCHES: 0 DROPPED PREFETCHES: 0
ITLB PREFETCHES SAME FILL-ORIGIN LEVEL: 0 DIFFERENT FILL-ORIGIN LEVEL: 0
ITLB AVERAGE MISS LATENCY: 257.641 cycles
ITLB RQ	ACCESS:   17733065	FORWARD:          0	MERGED:    2992430	TO_CACHE:   14740635

DTLB TOTAL     ACCESS:   21810202  HIT:   21667227  MISS:     142975  HIT %:    99.3445  MISS %:   0.655542   MPKI: 1.42975
DTLB LOAD TRANSLATION ACCESS:   21810202  HIT:   21667227  MISS:     142975  HIT %:    99.3445  MISS %:   0.655542   MPKI: 1.42975
DTLB PREFETCH  REQUESTED:          0  ISSUED:          0  USEFUL:          0  USELESS:          0
DTLB USEFUL LOAD PREFETCHES:          0 PREFETCH ISSUED TO LOWER LEVEL:          0  ACCURACY: -nan
DTLB TIMELY PREFETCHES:          0 LATE PREFETCHES: 0 DROPPED PREFETCHES: 0
DTLB PREFETCHES SAME FILL-ORIGIN LEVEL: 0 DIFFERENT FILL-ORIGIN LEVEL: 0
DTLB AVERAGE MISS LATENCY: 21.7723 cycles
DTLB RQ	ACCESS:   25258641	FORWARD:          0	MERGED:    3423013	TO_CACHE:   21835628

STLB TOTAL     ACCESS:     143067  HIT:     125064  MISS:      18003  HIT %:    87.4164  MISS %:    12.5836   MPKI: 0.18003
STLB LOAD TRANSLATION ACCESS:     143067  HIT:     125064  MISS:      18003  HIT %:    87.4164  MISS %:    12.5836   MPKI: 0.18003
STLB PREFETCH  REQUESTED:          0  ISSUED:          0  USEFUL:          0  USELESS:          0
STLB USEFUL LOAD PREFETCHES:          0 PREFETCH ISSUED TO LOWER LEVEL:          0  ACCURACY: -nan
STLB TIMELY PREFETCHES:          0 LATE PREFETCHES: 0 DROPPED PREFETCHES: 0
STLB PREFETCHES SAME FILL-ORIGIN LEVEL: 0 DIFFERENT FILL-ORIGIN LEVEL: 0
STLB AVERAGE MISS LATENCY: 101.94 cycles
STLB RQ	ACCESS:     143067	FORWARD:          0	MERGED:          0	TO_CACHE:     143067

STLB Hit, L1D data hit: 0
STLB Hit, L2C data hit: 0
STLB Hit, LLC data hit: 0
STLB Hit, LLC data miss: 0
STLB STLB hints to L2: 0
L1D TOTAL     ACCESS:   22935854  HIT:   20580836  MISS:    2355018  HIT %:    89.7322  MISS %:    10.2678   MPKI: 23.5502
L1D LOAD      ACCESS:   18172752  HIT:   16180398  MISS:    1992354  HIT %:    89.0366  MISS %:    10.9634   MPKI: 19.9235
L1D RFO       ACCESS:    4763102  HIT:    4400438  MISS:     362664  HIT %:     92.386  MISS %:    7.61403   MPKI: 3.62664
L1D PREFETCH  REQUESTED:          0  ISSUED:          0  USEFUL:          0  USELESS:          0
L1D USEFUL LOAD PREFETCHES:          0 PREFETCH ISSUED TO LOWER LEVEL:          0  ACCURACY: -nan
L1D TIMELY PREFETCHES:          0 LATE PREFETCHES: 0 DROPPED PREFETCHES: 0
L1D PREFETCHES SAME FILL-ORIGIN LEVEL: 0 DIFFERENT FILL-ORIGIN LEVEL: 0
L1D AVERAGE MISS LATENCY: 165.291 cycles
L1D RQ	ACCESS:   33320042	FORWARD:          0	MERGED:   13729018	TO_CACHE:   19559490
L1D WQ	ACCESS:    5714372	FORWARD:      31534	MERGED:      15221	TO_CACHE:    5699151

L1D UNIQUE REGIONS ACCESSED: 0
L1D REGIONS CONFLICTS: 0
L1D Cross Page Prefetch Requests: 0
L1D Same Page Prefetch Requests: 0
L1D ROI Sum of L1D PQ occupancy: 0
L1D PREFETCHES PUSHED FROM L2C: 0
L1I TOTAL     ACCESS:   17731135  HIT:   17727229  MISS:       3906  HIT %:     99.978  MISS %:   0.022029   MPKI: 0.03906
L1I LOAD      ACCESS:   17731135  HIT:   17727229  MISS:       3906  HIT %:     99.978  MISS %:   0.022029   MPKI: 0.03906
L1I PREFETCH  REQUESTED:          0  ISSUED:          0  USEFUL:          0  USELESS:          0
L1I USEFUL LOAD PREFETCHES:          0 PREFETCH ISSUED TO LOWER LEVEL:          0  ACCURACY: -nan
L1I TIMELY PREFETCHES:          0 LATE PREFETCHES: 0 DROPPED PREFETCHES: 0
L1I PREFETCHES SAME FILL-ORIGIN LEVEL: 0 DIFFERENT FILL-ORIGIN LEVEL: 0
L1I AVERAGE MISS LATENCY: 213.243 cycles
L1I RQ	ACCESS:   25914644	FORWARD:          0	MERGED:    8181579	TO_CACHE:   17733065

BTB TOTAL     ACCESS:    3967843  HIT:    3961301  MISS:       6542  HIT %:    99.8351  MISS %:   0.164875   MPKI: 0.06542
BTB BRANCH_DIRECT_JUMP	ACCESS:      17267  HIT:      17198  MISS:         69
BTB BRANCH_INDIRECT	ACCESS:          6  HIT:          4  MISS:          2
BTB BRANCH_CONDITIONAL	ACCESS:    3898598  HIT:    3897989  MISS:        609
BTB BRANCH_DIRECT_CALL	ACCESS:      25986  HIT:      25723  MISS:        263
BTB BRANCH_INDIRECT_CALL	ACCESS:          0  HIT:          0  MISS:          0
BTB BRANCH_RETURN	ACCESS:      25986  HIT:      20387  MISS:       5599
BTB BRANCH_OTHER ACCESS:          0  HIT:          0  MISS:          0

L2C TOTAL     ACCESS:    3308854  HIT:    1535212  MISS:    1773642  HIT %:    46.3971  MISS %:    53.6029   MPKI: 17.7364
L2C LOAD      ACCESS:    1996206  HIT:     508782  MISS:    1487424  HIT %:    25.4874  MISS %:    74.5126   MPKI: 14.8742
L2C DATA LOAD MPKI: 14.8352
L2C INSTRUCTION LOAD MPKI: 0.03906
L2C RFO       ACCESS:     362655  HIT:     107345  MISS:     255310  HIT %:    29.5998  MISS %:    70.4002   MPKI: 2.5531
L2C PREFETCH  ACCESS:      70367  HIT:      53267  MISS:      17100  HIT %:    75.6988  MISS %:    24.3012   MPKI: 0.171
L2C DATA PREFETCH MPKI: 0.171
L2C INSTRUCTION PREFETCH MPKI: 0
L2C WRITEBACK ACCESS:     861494  HIT:     850816  MISS:      10678  HIT %:    98.7605  MISS %:    1.23947   MPKI: 0.10678
L2C LOAD TRANSLATION ACCESS:      18132  HIT:      15002  MISS:       3130  HIT %:    82.7377  MISS %:    17.2623   MPKI: 0.0313
L2C PREFETCH  REQUESTED:     249694  ISSUED:     249005  USEFUL:      16929  USELESS:        178
L2C USEFUL LOAD PREFETCHES:      16929 PREFETCH ISSUED TO LOWER LEVEL:     171756  ACCURACY: 9.85642
L2C TIMELY PREFETCHES:      16929 LATE PREFETCHES: 2765 DROPPED PREFETCHES: 0
L2C PREFETCHES SAME FILL-ORIGIN LEVEL: 19865 DIFFERENT FILL-ORIGIN LEVEL: 151891
L2C AVERAGE MISS LATENCY: 200.259 cycles
L2C RQ	ACCESS:    2377059	FORWARD:          0	MERGED:          0	TO_CACHE:    2376996
L2C WQ	ACCESS:     861494	FORWARD:         67	MERGED:          0	TO_CACHE:     861494
L2C PQ	ACCESS:     249005	FORWARD:          0	MERGED:      20322	TO_CACHE:     228679

L2C Instructions Evicting Data 3891
L2C Translations Evicting Data 3121
L2C Data Evicting Data 1748998
L2C Instructions Evicting Instructions 5
L2C Translations Evicting Instructions 8
L2C Data Evicting Instructions 3834
L2C Instructions Evicting Translations 10
L2C Translations Evicting Translations 1
L2C Data Evicting Translations 3096
L2C Dense regions hint from L2: 0
PSCL5 TOTAL     ACCESS:      18003  HIT:      18003  MISS:          0  HIT %:        100  MISS %:          0   MPKI: 0
PSCL5 LOAD TRANSLATION ACCESS:      18003  HIT:      18003  MISS:          0  HIT %:        100  MISS %:          0   MPKI: 0
PSCL5 PREFETCH  REQUESTED:          0  ISSUED:          0  USEFUL:          0  USELESS:          0
PSCL5 USEFUL LOAD PREFETCHES:          0 PREFETCH ISSUED TO LOWER LEVEL:          0  ACCURACY: -nan
PSCL5 TIMELY PREFETCHES:          0 LATE PREFETCHES: 0 DROPPED PREFETCHES: 0
PSCL5 PREFETCHES SAME FILL-ORIGIN LEVEL: 0 DIFFERENT FILL-ORIGIN LEVEL: 0

PSCL4 TOTAL     ACCESS:      18003  HIT:      18003  MISS:          0  HIT %:        100  MISS %:          0   MPKI: 0
PSCL4 LOAD TRANSLATION ACCESS:      18003  HIT:      18003  MISS:          0  HIT %:        100  MISS %:          0   MPKI: 0
PSCL4 PREFETCH  REQUESTED:          0  ISSUED:          0  USEFUL:          0  USELESS:          0
PSCL4 USEFUL LOAD PREFETCHES:          0 PREFETCH ISSUED TO LOWER LEVEL:          0  ACCURACY: -nan
PSCL4 TIMELY PREFETCHES:          0 LATE PREFETCHES: 0 DROPPED PREFETCHES: 0
PSCL4 PREFETCHES SAME FILL-ORIGIN LEVEL: 0 DIFFERENT FILL-ORIGIN LEVEL: 0

PSCL3 TOTAL     ACCESS:      18003  HIT:      18003  MISS:          0  HIT %:        100  MISS %:          0   MPKI: 0
PSCL3 LOAD TRANSLATION ACCESS:      18003  HIT:      18003  MISS:          0  HIT %:        100  MISS %:          0   MPKI: 0
PSCL3 PREFETCH  REQUESTED:          0  ISSUED:          0  USEFUL:          0  USELESS:          0
PSCL3 USEFUL LOAD PREFETCHES:          0 PREFETCH ISSUED TO LOWER LEVEL:          0  ACCURACY: -nan
PSCL3 TIMELY PREFETCHES:          0 LATE PREFETCHES: 0 DROPPED PREFETCHES: 0
PSCL3 PREFETCHES SAME FILL-ORIGIN LEVEL: 0 DIFFERENT FILL-ORIGIN LEVEL: 0

PSCL2 TOTAL     ACCESS:      18003  HIT:      17866  MISS:        137  HIT %:     99.239  MISS %:   0.760984   MPKI: 0.00137
PSCL2 LOAD TRANSLATION ACCESS:      18003  HIT:      17866  MISS:        137  HIT %:     99.239  MISS %:   0.760984   MPKI: 0.00137
PSCL2 PREFETCH  REQUESTED:          0  ISSUED:          0  USEFUL:          0  USELESS:          0
PSCL2 USEFUL LOAD PREFETCHES:          0 PREFETCH ISSUED TO LOWER LEVEL:          0  ACCURACY: -nan
PSCL2 TIMELY PREFETCHES:          0 LATE PREFETCHES: 0 DROPPED PREFETCHES: 0
PSCL2 PREFETCHES SAME FILL-ORIGIN LEVEL: 0 DIFFERENT FILL-ORIGIN LEVEL: 0

LLC TOTAL     ACCESS:    2570522  HIT:     839180  MISS:    1731342  HIT %:    32.6463  MISS %:    67.3537   MPKI: 17.3134
LLC LOAD      ACCESS:    1484659  HIT:     297528  MISS:    1187131  HIT %:    20.0402  MISS %:    79.9598   MPKI: 11.8713
LLC RFO       ACCESS:     255310  HIT:      56530  MISS:     198780  HIT %:    22.1417  MISS %:    77.8583   MPKI: 1.9878
LLC PREFETCH  ACCESS:     160393  HIT:     138261  MISS:      22132  HIT %:    86.2014  MISS %:    13.7986   MPKI: 0.22132
LLC WRITEBACK ACCESS:     667030  HIT:     346767  MISS:     320263  HIT %:    51.9867  MISS %:    48.0133   MPKI: 3.20263
LLC LOAD TRANSLATION ACCESS:       3130  HIT:         94  MISS:       3036  HIT %:    3.00319  MISS %:    96.9968   MPKI: 0.03036
LLC PREFETCH  REQUESTED:          0  ISSUED:          0  USEFUL:      12583  USELESS:      10462
LLC USEFUL LOAD PREFETCHES:      12583 PREFETCH ISSUED TO LOWER LEVEL:      22275  ACCURACY: 56.4893
LLC TIMELY PREFETCHES:      12583 LATE PREFETCHES: 143 DROPPED PREFETCHES: 0
LLC PREFETCHES SAME FILL-ORIGIN LEVEL: 21827 DIFFERENT FILL-ORIGIN LEVEL: 0
LLC AVERAGE MISS LATENCY: 177.567 cycles
LLC RQ	ACCESS:    1743101	FORWARD:          0	MERGED:          0	TO_CACHE:    1743101
LLC WQ	ACCESS:     667030	FORWARD:          0	MERGED:          0	TO_CACHE:     667030
LLC PQ	ACCESS:     171756	FORWARD:          0	MERGED:       7218	TO_CACHE:     164538

LLC Dense regions hint to LLC: 0

RAW hits: 277102
Loads Generated: 33597148
Loads sent to L1D: 33320042
Stores Generated: 5714369
Stores sent to L1D: 5714372
Major fault: 0 Minor fault: 9197
Allocated PAGES: 9197
 All Calls: 2883909
 Critical Calls: 698824
------------------
Depth Distribution
------------------
depth 0: 0
depth 1: 735137
depth 2: 515222
depth 3: 276370
depth 4: 133429
depth 5: 66445
depth 6: 21895
depth 7: 4325
depth 8: 364
depth 9: 0
depth 10: 0
depth 11: 0
depth 12: 0
depth 13: 0
depth 14: 0
depth 15: 0
depth 16: 0
depth 17: 0
depth 18: 0
depth 19: 0
depth 20: 0
depth 21: 0
depth 22: 0
depth 23: 0
depth 24: 0
depth 25: 0
depth 26: 0
depth 27: 0
depth 28: 0
depth 29: 0
Total: 1753187
-----------------------------
-----------------------------
	Captured at Filter
-----------------------------
depth 0: 0
depth 1: 6366
depth 2: 5316
depth 3: 2881
depth 4: 1400
depth 5: 706
depth 6: 275
depth 7: 57
depth 8: 6
depth 9: 0
depth 10: 0
depth 11: 0
depth 12: 0
depth 13: 0
depth 14: 0
depth 15: 0
depth 16: 0
depth 17: 0
depth 18: 0
depth 19: 0
depth 20: 0
depth 21: 0
depth 22: 0
depth 23: 0
depth 24: 0
depth 25: 0
depth 26: 0
depth 27: 0
depth 28: 0
depth 29: 0
-----------------------------
-----------------------------
		Lost at Page
-----------------------------
depth 0: 0
depth 1: 14487
depth 2: 17454
depth 3: 14510
depth 4: 9400
depth 5: 5920
depth 6: 2369
depth 7: 594
depth 8: 51
depth 9: 0
depth 10: 0
depth 11: 0
depth 12: 0
depth 13: 0
depth 14: 0
depth 15: 0
depth 16: 0
depth 17: 0
depth 18: 0
depth 19: 0
depth 20: 0
depth 21: 0
depth 22: 0
depth 23: 0
depth 24: 0
depth 25: 0
depth 26: 0
depth 27: 0
depth 28: 0
depth 29: 0
-----------------------------
-----------------------------
	Lost due to PQ Size
-----------------------------
5248
-----------------------------
ST read accesses: 59921
ST write accesses: 1207
PT read accesses: 1669969
PT write accesses: 89520
FILTER read accesses: 1923290
FILTER write accesses: 1663105
GHR read accesses: 65528
GHR write accesses: 13234
GHR counter read accesses: 1414656
GHR counter write accesses: 116550
ST tag read accesses: 24463395
ST tag write accesses: 465334

DRAM Statistics
 CHANNEL 0
 RQ ROW_BUFFER_HIT:     342914  ROW_BUFFER_MISS:    1068072
 DBUS_CONGESTED:       1068
 WQ ROW_BUFFER_HIT:     201759  ROW_BUFFER_MISS:     217950  FULL:       6744

 AVG_CONGESTED_CYCLE: 5
 All warmup complete: 2
Channel 0 Bank busy for read cycles: 0
Channel 0 Bank busy for write cycles: 0
Channel 0
Rank 0
0banks busy for read cycles: 43513802
0banks busy for write cycles: 57448
1banks busy for read cycles: 41196282
1banks busy for write cycles: 9921239
2banks busy for read cycles: 27663243
2banks busy for write cycles: 4104647
3banks busy for read cycles: 8777046
3banks busy for write cycles: 1925691
4banks busy for read cycles: 6102923
4banks busy for write cycles: 1292125
5banks busy for read cycles: 2459829
5banks busy for write cycles: 985331
6banks busy for read cycles: 811249
6banks busy for write cycles: 825288
7banks busy for read cycles: 777172
7banks busy for write cycles: 1185522
8banks busy for read cycles: 1060717
8banks busy for write cycles: 6836494

CPU 0 Branch Prediction Accuracy: 99.8231% MPKI: 0.07731 Average ROB Occupancy at Mispredict: 178.934
Branch types
NOT_BRANCH: 95630821 95.6308%
BRANCH_DIRECT_JUMP: 17267 0.017267%
BRANCH_INDIRECT: 6 6e-06%
BRANCH_CONDITIONAL: 4299901 4.2999%
BRANCH_DIRECT_CALL: 25986 0.025986%
BRANCH_INDIRECT_CALL: 0 0%
BRANCH_RETURN: 25986 0.025986%
BRANCH_OTHER: 0 0%

DRAM PAGES: 1048576
Allocated PAGES: 9197
