
*** ChampSim Multicore Out-of-Order Simulator ***

Warmup Instructions: 50000000
Simulation Instructions: 100000000
Number of CPUs: 1
LLC sets: 2048
LLC ways: 16
Off-chip DRAM Size: 4096 MB Channels: 1 Width: 64-bit Data Rate: 6400 MT/s
CPU 0 runs ../SPEC2017//621.wrf_s-8065B.champsimtrace.xz
.xz
NUM_OF_IPS_IN_CRITICAL_IP_TRAINING: 64
NUM_OF_CRITICAL_IP_TRAINING_TABLE_WAYS: 2
NUM_OF_CRITICAL_IP_TRAINING_TABLE_SETS: 32
WOBBLY_CRITICAL_IP_CACHE_SETS: 32
WOBBLY_CRITICAL_IP_CACHE_WAYS: 4
BTB has LRU replacement policy
ITLB has LRU replacement policy
DTLB has LRU replacement policy
STLB has LRU replacement policy
L1I has LRU replacement policy
IP Table Entries: 64
L1D has LRU replacement policy
Initialize SRRIP state for L2C
Initialize DRRIP state for LLC
Heartbeat CPU 0 instructions: 10000002 cycles: 3025556 heartbeat IPC: 3.30518 cumulative IPC: 3.30518 (Simulation time: 0 hr 5 min 38 sec) 
Heartbeat CPU 0 instructions: 20000000 cycles: 6035792 heartbeat IPC: 3.322 cumulative IPC: 3.31357 (Simulation time: 0 hr 10 min 11 sec) 
Heartbeat CPU 0 instructions: 30000000 cycles: 9021315 heartbeat IPC: 3.3495 cumulative IPC: 3.32546 (Simulation time: 0 hr 14 min 46 sec) 
Heartbeat CPU 0 instructions: 40000003 cycles: 12091171 heartbeat IPC: 3.25748 cumulative IPC: 3.3082 (Simulation time: 0 hr 18 min 48 sec) 
Heartbeat CPU 0 instructions: 50000002 cycles: 15092851 heartbeat IPC: 3.33147 cumulative IPC: 3.31283 (Simulation time: 0 hr 22 min 40 sec) 

Warmup complete CPU 0 instructions: 50000002 cycles: 15092851 (Simulation time: 0 hr 22 min 40 sec) 

% increase in all ip prefetch 412.179
% increase in all ip prefetch -0.182866
Heartbeat CPU 0 instructions: 60000003 cycles: 24590761 heartbeat IPC: 1.05286 cumulative IPC: 1.05286 (Simulation time: 0 hr 26 min 10 sec) 
Heartbeat CPU 0 instructions: 70000001 cycles: 35551518 heartbeat IPC: 0.912346 cumulative IPC: 0.977581 (Simulation time: 0 hr 29 min 19 sec) 
Heartbeat CPU 0 instructions: 80000001 cycles: 45362059 heartbeat IPC: 1.01931 cumulative IPC: 0.991106 (Simulation time: 0 hr 32 min 38 sec) 
Heartbeat CPU 0 instructions: 90000000 cycles: 56128789 heartbeat IPC: 0.928787 cumulative IPC: 0.974755 (Simulation time: 0 hr 35 min 35 sec) 
Heartbeat CPU 0 instructions: 100000000 cycles: 66136135 heartbeat IPC: 0.999266 cumulative IPC: 0.979561 (Simulation time: 0 hr 39 min 10 sec) 
Heartbeat CPU 0 instructions: 110000000 cycles: 76707308 heartbeat IPC: 0.945969 cumulative IPC: 0.973797 (Simulation time: 0 hr 42 min 7 sec) 
Heartbeat CPU 0 instructions: 120000000 cycles: 90399546 heartbeat IPC: 0.730341 cumulative IPC: 0.929532 (Simulation time: 0 hr 46 min 30 sec) 
Heartbeat CPU 0 instructions: 130000002 cycles: 104028431 heartbeat IPC: 0.733736 cumulative IPC: 0.899527 (Simulation time: 0 hr 50 min 54 sec) 
Heartbeat CPU 0 instructions: 140000001 cycles: 117659648 heartbeat IPC: 0.73361 cumulative IPC: 0.877477 (Simulation time: 0 hr 54 min 27 sec) 
Heartbeat CPU 0 instructions: 150000002 cycles: 133050099 heartbeat IPC: 0.649754 cumulative IPC: 0.847765 (Simulation time: 0 hr 58 min 10 sec) 
Finished CPU 0 instructions: 100000000 cycles: 117957248 cumulative IPC: 0.847765 (Simulation time: 0 hr 58 min 10 sec) 

ChampSim completed all CPUs

Region of Interest Statistics

CPU 0 cumulative IPC: 0.847765 instructions: 100000000 cycles: 117957248

CPU 0 Average Load ROB stall cycles: 1.55092e+07
CPU 0 Fraction of times ROB stalled by Loads: 21.1547
CPU 0 Percentage of Load stall cycles in Total stall cycles: 3.7165e+08
Issued all: 78108612
Issued LT all: 66783985
rob_not_full_when_issued_lt_all: 31650104
Issued LT one: 52019521
rob_not_full_when_issued_lt_one: 26868598
 Total stall cycles: 95396773
 Total load stall cycles: 354542557337539
CPU 0 NUM of IPS identified critical: 0
CPU 0 Num of Load IPs stalling ROB: 2322
Threshold modification factor: -1
Max PIST entries: 63
Min PIST entries: 0
Avg PIST entries: 29.26
Trouble in retire width: 0.966422
MaC = Marked as critical.
lt_50_percent_before_Mac: 0
gt_90_percent_before_Mac: 0
gt_75_percent_before_Mac: 0
gt_50_percent_before_Mac: 0
stall_proportion_bin_same_before_after: 0
stall_proportion_bin_lower_before_after: 0
stall_proportion_bin_upper_before_after: 0
average_stall_proportion_before: -nan
average_stall_proportion_after: -nan
Critical IP stalls, total frequency: 0
Non-critical IP stalls, total frequency: 4835982
Total Freq all stalling IPs: 4835982
stat_90_percent_critical_ip_stalls_freq: 4358703
stat_90_percent_non_critical_ip_stalls_freq: 477279
Critical_IP_ROB_Stalls_Bucket_0: 0
Non-critical_IP_ROB_Stalls_Bucket_0: 2285988
Critical_IP_ROB_Stalls_Bucket_1: 0
Non-critical_IP_ROB_Stalls_Bucket_1: 403890
Critical_IP_ROB_Stalls_Bucket_2: 0
Non-critical_IP_ROB_Stalls_Bucket_2: 99473
Critical_IP_ROB_Stalls_Bucket_3: 0
Non-critical_IP_ROB_Stalls_Bucket_3: 111098
Critical_IP_ROB_Stalls_Bucket_4: 0
Non-critical_IP_ROB_Stalls_Bucket_4: 80877
Critical_IP_ROB_Stalls_Bucket_5: 0
Non-critical_IP_ROB_Stalls_Bucket_5: 75286
Critical_IP_ROB_Stalls_Bucket_6: 0
Non-critical_IP_ROB_Stalls_Bucket_6: 1779370
0 => IPs accounting for >50 percent of stalls, 1 => 55, 2 => 60, 3 => 65 and so on till 90.
percent50: 52.0745 num IPs:  18
percent55: 55.8464 num IPs: 20
percent60: 60.4075 num IPs: 23
percent65: 65.2507 num IPs: 27
percent70: 70.6349 num IPs: 33
percent75: 75.1564 num IPs: 39
percent80: 80.454 num IPs: 47
percent85: 85.1348 num IPs: 59
percent90: 90.1307 num IPs: 81
Critical_ROB_Stalls_Percent_0_Bucket_0: 714552
Non-critical_ROB_Stalls_Percent_0_Bucket_0: 1571436
Critical_ROB_Stalls_Percent_0_Bucket_1: 68722
Non-critical_ROB_Stalls_Percent_0_Bucket_1: 335168
Critical_ROB_Stalls_Percent_0_Bucket_2: 34815
Non-critical_ROB_Stalls_Percent_0_Bucket_2: 64658
Critical_ROB_Stalls_Percent_0_Bucket_3: 33109
Non-critical_ROB_Stalls_Percent_0_Bucket_3: 77989
Critical_ROB_Stalls_Percent_0_Bucket_4: 28487
Non-critical_ROB_Stalls_Percent_0_Bucket_4: 52390
Critical_ROB_Stalls_Percent_0_Bucket_5: 30667
Non-critical_ROB_Stalls_Percent_0_Bucket_5: 44619
Critical_ROB_Stalls_Percent_0_Bucket_6: 1607961
Non-critical_ROB_Stalls_Percent_0_Bucket_6: 171409
Critical_ROB_Stalls_Percent_1_Bucket_0: 811766
Non-critical_ROB_Stalls_Percent_1_Bucket_0: 1474222
Critical_ROB_Stalls_Percent_1_Bucket_1: 113898
Non-critical_ROB_Stalls_Percent_1_Bucket_1: 289992
Critical_ROB_Stalls_Percent_1_Bucket_2: 44028
Non-critical_ROB_Stalls_Percent_1_Bucket_2: 55445
Critical_ROB_Stalls_Percent_1_Bucket_3: 39914
Non-critical_ROB_Stalls_Percent_1_Bucket_3: 71184
Critical_ROB_Stalls_Percent_1_Bucket_4: 34629
Non-critical_ROB_Stalls_Percent_1_Bucket_4: 46248
Critical_ROB_Stalls_Percent_1_Bucket_5: 42522
Non-critical_ROB_Stalls_Percent_1_Bucket_5: 32764
Critical_ROB_Stalls_Percent_1_Bucket_6: 1613965
Non-critical_ROB_Stalls_Percent_1_Bucket_6: 165405
Critical_ROB_Stalls_Percent_2_Bucket_0: 945564
Non-critical_ROB_Stalls_Percent_2_Bucket_0: 1340424
Critical_ROB_Stalls_Percent_2_Bucket_1: 181211
Non-critical_ROB_Stalls_Percent_2_Bucket_1: 222679
Critical_ROB_Stalls_Percent_2_Bucket_2: 46647
Non-critical_ROB_Stalls_Percent_2_Bucket_2: 52826
Critical_ROB_Stalls_Percent_2_Bucket_3: 42880
Non-critical_ROB_Stalls_Percent_2_Bucket_3: 68218
Critical_ROB_Stalls_Percent_2_Bucket_4: 37949
Non-critical_ROB_Stalls_Percent_2_Bucket_4: 42928
Critical_ROB_Stalls_Percent_2_Bucket_5: 47112
Non-critical_ROB_Stalls_Percent_2_Bucket_5: 28174
Critical_ROB_Stalls_Percent_2_Bucket_6: 1619931
Non-critical_ROB_Stalls_Percent_2_Bucket_6: 159439
Critical_ROB_Stalls_Percent_3_Bucket_0: 1149741
Non-critical_ROB_Stalls_Percent_3_Bucket_0: 1136247
Critical_ROB_Stalls_Percent_3_Bucket_1: 188730
Non-critical_ROB_Stalls_Percent_3_Bucket_1: 215160
Critical_ROB_Stalls_Percent_3_Bucket_2: 56067
Non-critical_ROB_Stalls_Percent_3_Bucket_2: 43406
Critical_ROB_Stalls_Percent_3_Bucket_3: 52445
Non-critical_ROB_Stalls_Percent_3_Bucket_3: 58653
Critical_ROB_Stalls_Percent_3_Bucket_4: 39825
Non-critical_ROB_Stalls_Percent_3_Bucket_4: 41052
Critical_ROB_Stalls_Percent_3_Bucket_5: 47940
Non-critical_ROB_Stalls_Percent_3_Bucket_5: 27346
Critical_ROB_Stalls_Percent_3_Bucket_6: 1620763
Non-critical_ROB_Stalls_Percent_3_Bucket_6: 158607
Critical_ROB_Stalls_Percent_4_Bucket_0: 1397191
Non-critical_ROB_Stalls_Percent_4_Bucket_0: 888797
Critical_ROB_Stalls_Percent_4_Bucket_1: 195071
Non-critical_ROB_Stalls_Percent_4_Bucket_1: 208819
Critical_ROB_Stalls_Percent_4_Bucket_2: 57769
Non-critical_ROB_Stalls_Percent_4_Bucket_2: 41704
Critical_ROB_Stalls_Percent_4_Bucket_3: 54979
Non-critical_ROB_Stalls_Percent_4_Bucket_3: 56119
Critical_ROB_Stalls_Percent_4_Bucket_4: 40864
Non-critical_ROB_Stalls_Percent_4_Bucket_4: 40013
Critical_ROB_Stalls_Percent_4_Bucket_5: 48372
Non-critical_ROB_Stalls_Percent_4_Bucket_5: 26914
Critical_ROB_Stalls_Percent_4_Bucket_6: 1621644
Non-critical_ROB_Stalls_Percent_4_Bucket_6: 157726
Critical_ROB_Stalls_Percent_5_Bucket_0: 1581245
Non-critical_ROB_Stalls_Percent_5_Bucket_0: 704743
Critical_ROB_Stalls_Percent_5_Bucket_1: 202456
Non-critical_ROB_Stalls_Percent_5_Bucket_1: 201434
Critical_ROB_Stalls_Percent_5_Bucket_2: 64247
Non-critical_ROB_Stalls_Percent_5_Bucket_2: 35226
Critical_ROB_Stalls_Percent_5_Bucket_3: 69835
Non-critical_ROB_Stalls_Percent_5_Bucket_3: 41263
Critical_ROB_Stalls_Percent_5_Bucket_4: 43907
Non-critical_ROB_Stalls_Percent_5_Bucket_4: 36970
Critical_ROB_Stalls_Percent_5_Bucket_5: 49841
Non-critical_ROB_Stalls_Percent_5_Bucket_5: 25445
Critical_ROB_Stalls_Percent_5_Bucket_6: 1623017
Non-critical_ROB_Stalls_Percent_5_Bucket_6: 156353
Critical_ROB_Stalls_Percent_6_Bucket_0: 1814962
Non-critical_ROB_Stalls_Percent_6_Bucket_0: 471026
Critical_ROB_Stalls_Percent_6_Bucket_1: 212811
Non-critical_ROB_Stalls_Percent_6_Bucket_1: 191079
Critical_ROB_Stalls_Percent_6_Bucket_2: 67881
Non-critical_ROB_Stalls_Percent_6_Bucket_2: 31592
Critical_ROB_Stalls_Percent_6_Bucket_3: 74084
Non-critical_ROB_Stalls_Percent_6_Bucket_3: 37014
Critical_ROB_Stalls_Percent_6_Bucket_4: 46029
Non-critical_ROB_Stalls_Percent_6_Bucket_4: 34848
Critical_ROB_Stalls_Percent_6_Bucket_5: 50799
Non-critical_ROB_Stalls_Percent_6_Bucket_5: 24487
Critical_ROB_Stalls_Percent_6_Bucket_6: 1624177
Non-critical_ROB_Stalls_Percent_6_Bucket_6: 155193
Critical_ROB_Stalls_Percent_7_Bucket_0: 1955755
Non-critical_ROB_Stalls_Percent_7_Bucket_0: 330233
Critical_ROB_Stalls_Percent_7_Bucket_1: 262281
Non-critical_ROB_Stalls_Percent_7_Bucket_1: 141609
Critical_ROB_Stalls_Percent_7_Bucket_2: 74161
Non-critical_ROB_Stalls_Percent_7_Bucket_2: 25312
Critical_ROB_Stalls_Percent_7_Bucket_3: 80791
Non-critical_ROB_Stalls_Percent_7_Bucket_3: 30307
Critical_ROB_Stalls_Percent_7_Bucket_4: 53677
Non-critical_ROB_Stalls_Percent_7_Bucket_4: 27200
Critical_ROB_Stalls_Percent_7_Bucket_5: 55350
Non-critical_ROB_Stalls_Percent_7_Bucket_5: 19936
Critical_ROB_Stalls_Percent_7_Bucket_6: 1635087
Non-critical_ROB_Stalls_Percent_7_Bucket_6: 144283
Critical_ROB_Stalls_Percent_8_Bucket_0: 2033681
Non-critical_ROB_Stalls_Percent_8_Bucket_0: 252307
Critical_ROB_Stalls_Percent_8_Bucket_1: 309747
Non-critical_ROB_Stalls_Percent_8_Bucket_1: 94143
Critical_ROB_Stalls_Percent_8_Bucket_2: 81466
Non-critical_ROB_Stalls_Percent_8_Bucket_2: 18007
Critical_ROB_Stalls_Percent_8_Bucket_3: 96256
Non-critical_ROB_Stalls_Percent_8_Bucket_3: 14842
Critical_ROB_Stalls_Percent_8_Bucket_4: 64410
Non-critical_ROB_Stalls_Percent_8_Bucket_4: 16467
Critical_ROB_Stalls_Percent_8_Bucket_5: 63162
Non-critical_ROB_Stalls_Percent_8_Bucket_5: 12124
Critical_ROB_Stalls_Percent_8_Bucket_6: 1709981
Non-critical_ROB_Stalls_Percent_8_Bucket_6: 69389
Average ROB occupancy Load Stall Begin: 152.886
Average ROB occupancy Load Stall End: 161.189
Min ROB occupancy Load Stall Begin: 1
Max ROB occupancy Load Stall Begin: 352
Min ROB occupancy Load Stall End: 1
Max ROB occupancy Load Stall End: 352
Average ROB occupancy Critical Load Stall Begin: -nan
Average ROB occupancy Critical Load Stall End: -nan
Min ROB occupancy Critical Load Stall Begin: 400
Max ROB occupancy Critical Load Stall Begin: 0
Min ROB occupancy Critical Load Stall End: 400
Max ROB occupancy Critical Load Stall End: 0
 ROB Load Stall Begin Bucket Count 0: 2446443
 ROB Load Stall End Bucket Count 0: 2285988
 ROB Critical Load Stall Begin Bucket Count 0: 0
 ROB Critical Load Stall End Bucket Count 0: 0
 ROB Load Stall Begin Bucket Count 1: 297614
 ROB Load Stall End Bucket Count 1: 403890
 ROB Critical Load Stall Begin Bucket Count 1: 0
 ROB Critical Load Stall End Bucket Count 1: 0
 ROB Load Stall Begin Bucket Count 2: 94647
 ROB Load Stall End Bucket Count 2: 99473
 ROB Critical Load Stall Begin Bucket Count 2: 0
 ROB Critical Load Stall End Bucket Count 2: 0
 ROB Load Stall Begin Bucket Count 3: 104980
 ROB Load Stall End Bucket Count 3: 111098
 ROB Critical Load Stall Begin Bucket Count 3: 0
 ROB Critical Load Stall End Bucket Count 3: 0
 ROB Load Stall Begin Bucket Count 4: 76201
 ROB Load Stall End Bucket Count 4: 80877
 ROB Critical Load Stall Begin Bucket Count 4: 0
 ROB Critical Load Stall End Bucket Count 4: 0
 ROB Load Stall Begin Bucket Count 5: 71844
 ROB Load Stall End Bucket Count 5: 75286
 ROB Critical Load Stall Begin Bucket Count 5: 0
 ROB Critical Load Stall End Bucket Count 5: 0
 ROB Load Stall Begin Bucket Count 6: 1744253
 ROB Load Stall End Bucket Count 6: 1779370
 ROB Critical Load Stall Begin Bucket Count 6: 0
 ROB Critical Load Stall End Bucket Count 6: 0
PIST Tag Read Accesses: 609944
PIST Read Accesses: 304972
PIST Tag Write Accesses: 609944
PIST Write Accesses: 304972
Criticality detector called times: 1137083
Max global_stall_cycles_count: 1661983
Threshold Modified: 1 times, factor: -1
Sturdy critical IP cache stats: 
 Unused entries: 0
CIC Tag Read Accesses: 0
CIC Read Accesses: 0
CIC Tag Write Accesses: 0
CIC Write Accesses: 0
Wobbly critical IP cache stats: 
 Unused entries: 20
CIC Tag Read Accesses: 178240042
CIC Read Accesses: 0
CIC Tag Write Accesses: 2719465
CIC Write Accesses: 0
ITLB TOTAL     ACCESS:   14858692  HIT:   14858648  MISS:         44  HIT %:    99.9997  MISS %: 0.000296123   MPKI: 0.00044
ITLB LOAD TRANSLATION ACCESS:   14858692  HIT:   14858648  MISS:         44  HIT %:    99.9997  MISS %: 0.000296123   MPKI: 0.00044
ITLB PREFETCH  REQUESTED:          0  ISSUED:          0  USEFUL:          0  USELESS:          0
ITLB USEFUL LOAD PREFETCHES:          0 PREFETCH ISSUED TO LOWER LEVEL:          0  ACCURACY: -nan
ITLB TIMELY PREFETCHES:          0 LATE PREFETCHES: 0 DROPPED PREFETCHES: 0
ITLB PREFETCHES SAME FILL-ORIGIN LEVEL: 0 DIFFERENT FILL-ORIGIN LEVEL: 0
ITLB AVERAGE MISS LATENCY: 251.705 cycles
ITLB RQ	ACCESS:   18251256	FORWARD:          0	MERGED:    3392548	TO_CACHE:   14858708

DTLB TOTAL     ACCESS:   19743940  HIT:   19699864  MISS:      44076  HIT %:    99.7768  MISS %:   0.223238   MPKI: 0.44076
DTLB LOAD TRANSLATION ACCESS:   19743940  HIT:   19699864  MISS:      44076  HIT %:    99.7768  MISS %:   0.223238   MPKI: 0.44076
DTLB PREFETCH  REQUESTED:          0  ISSUED:          0  USEFUL:          0  USELESS:          0
DTLB USEFUL LOAD PREFETCHES:          0 PREFETCH ISSUED TO LOWER LEVEL:          0  ACCURACY: -nan
DTLB TIMELY PREFETCHES:          0 LATE PREFETCHES: 0 DROPPED PREFETCHES: 0
DTLB PREFETCHES SAME FILL-ORIGIN LEVEL: 0 DIFFERENT FILL-ORIGIN LEVEL: 0
DTLB AVERAGE MISS LATENCY: 25.004 cycles
DTLB RQ	ACCESS:   22153992	FORWARD:          0	MERGED:    2392369	TO_CACHE:   19761623

STLB TOTAL     ACCESS:     684323  HIT:     678430  MISS:       5893  HIT %:    99.1389  MISS %:   0.861143   MPKI: 0.05893
STLB LOAD TRANSLATION ACCESS:      44120  HIT:      38227  MISS:       5893  HIT %:    86.6432  MISS %:    13.3568   MPKI: 0.05893
STLB TRANSLATION FROM L1D PREFETCHER ACCESS:     640203  HIT:     640203  MISS:          0  HIT %:        100  MISS %:          0   MPKI: 0
STLB PREFETCH  REQUESTED:          0  ISSUED:          0  USEFUL:          0  USELESS:          0
STLB USEFUL LOAD PREFETCHES:          0 PREFETCH ISSUED TO LOWER LEVEL:          0  ACCURACY: -nan
STLB TIMELY PREFETCHES:          0 LATE PREFETCHES: 0 DROPPED PREFETCHES: 0
STLB PREFETCHES SAME FILL-ORIGIN LEVEL: 0 DIFFERENT FILL-ORIGIN LEVEL: 0
STLB AVERAGE MISS LATENCY: 120.3 cycles
STLB RQ	ACCESS:    1443391	FORWARD:          0	MERGED:     759069	TO_CACHE:     684322

STLB Hit, L1D data hit: 0
STLB Hit, L2C data hit: 0
STLB Hit, LLC data hit: 0
STLB Hit, LLC data miss: 0
STLB STLB hints to L2: 0
L1D TOTAL     ACCESS:   22790102  HIT:   21618150  MISS:    1171952  HIT %:    94.8576  MISS %:    5.14237   MPKI: 11.7195
L1D LOAD      ACCESS:   17952354  HIT:   17651378  MISS:     300976  HIT %:    98.3235  MISS %:    1.67653   MPKI: 3.00976
L1D RFO       ACCESS:    3467855  HIT:    3246683  MISS:     221172  HIT %:    93.6222  MISS %:    6.37778   MPKI: 2.21172
L1D PREFETCH  ACCESS:    1369893  HIT:     720089  MISS:     649804  HIT %:    52.5653  MISS %:    47.4347   MPKI: 6.49804
L1D PREFETCH  REQUESTED:    3104466  ISSUED:    2798597  USEFUL:     549198  USELESS:     100609
L1D USEFUL LOAD PREFETCHES:     549198 PREFETCH ISSUED TO LOWER LEVEL:     667302  ACCURACY: 82.3013
L1D TIMELY PREFETCHES:     549198 LATE PREFETCHES: 16909 DROPPED PREFETCHES: 0
L1D PREFETCHES SAME FILL-ORIGIN LEVEL: 667302 DIFFERENT FILL-ORIGIN LEVEL: 0
L1D AVERAGE MISS LATENCY: 1.18599e+06 cycles
L1D RQ	ACCESS:   25975657	FORWARD:          0	MERGED:    7881073	TO_CACHE:   18088558
L1D WQ	ACCESS:    4083148	FORWARD:       6067	MERGED:      17714	TO_CACHE:    4065434
L1D PQ	ACCESS:    1399326	FORWARD:          0	MERGED:         14	TO_CACHE:    1399271

L1D UNIQUE REGIONS ACCESSED: 0
L1D REGIONS CONFLICTS: 0
L1D Cross Page Prefetch Requests: 0
L1D Same Page Prefetch Requests: 5071195
L1D ROI Sum of L1D PQ occupancy: 45111796
L1D PREFETCHES PUSHED FROM L2C: 0
L1I TOTAL     ACCESS:   18250207  HIT:   18248131  MISS:       2076  HIT %:    99.9886  MISS %:  0.0113752   MPKI: 0.02076
L1I LOAD      ACCESS:   18250207  HIT:   18248131  MISS:       2076  HIT %:    99.9886  MISS %:  0.0113752   MPKI: 0.02076
L1I PREFETCH  REQUESTED:          0  ISSUED:          0  USEFUL:          0  USELESS:          0
L1I USEFUL LOAD PREFETCHES:          0 PREFETCH ISSUED TO LOWER LEVEL:          0  ACCURACY: -nan
L1I TIMELY PREFETCHES:          0 LATE PREFETCHES: 0 DROPPED PREFETCHES: 0
L1I PREFETCHES SAME FILL-ORIGIN LEVEL: 0 DIFFERENT FILL-ORIGIN LEVEL: 0
L1I AVERAGE MISS LATENCY: 223.192 cycles
L1I RQ	ACCESS:   28757260	FORWARD:          0	MERGED:   10506004	TO_CACHE:   18251256

BTB TOTAL     ACCESS:    4428782  HIT:    4427958  MISS:        824  HIT %:    99.9814  MISS %:  0.0186056   MPKI: 0.00824
BTB BRANCH_DIRECT_JUMP	ACCESS:     279102  HIT:     279036  MISS:         66
BTB BRANCH_INDIRECT	ACCESS:          6  HIT:          4  MISS:          2
BTB BRANCH_CONDITIONAL	ACCESS:    3632377  HIT:    3632026  MISS:        351
BTB BRANCH_DIRECT_CALL	ACCESS:     258649  HIT:     258495  MISS:        154
BTB BRANCH_INDIRECT_CALL	ACCESS:          0  HIT:          0  MISS:          0
BTB BRANCH_RETURN	ACCESS:     258648  HIT:     258397  MISS:        251
BTB BRANCH_OTHER ACCESS:          0  HIT:          0  MISS:          0

L2C TOTAL     ACCESS:    1620637  HIT:     761976  MISS:     858661  HIT %:    47.0171  MISS %:    52.9829   MPKI: 8.58661
L2C LOAD      ACCESS:     286142  HIT:     131676  MISS:     154466  HIT %:    46.0177  MISS %:    53.9823   MPKI: 1.54466
L2C DATA LOAD MPKI: 1.5239
L2C INSTRUCTION LOAD MPKI: 0.02076
L2C RFO       ACCESS:     220588  HIT:      27694  MISS:     192894  HIT %:    12.5546  MISS %:    87.4454   MPKI: 1.92894
L2C PREFETCH  ACCESS:     667292  HIT:     161647  MISS:     505645  HIT %:    24.2243  MISS %:    75.7757   MPKI: 5.05645
L2C DATA PREFETCH MPKI: 5.05645
L2C INSTRUCTION PREFETCH MPKI: 0
L2C WRITEBACK ACCESS:     440703  HIT:     436141  MISS:       4562  HIT %:    98.9648  MISS %:    1.03516   MPKI: 0.04562
L2C LOAD TRANSLATION ACCESS:       5912  HIT:       4818  MISS:       1094  HIT %:    81.4953  MISS %:    18.5047   MPKI: 0.01094
L2C PREFETCH  REQUESTED:          0  ISSUED:          0  USEFUL:      46471  USELESS:     460157
L2C USEFUL LOAD PREFETCHES:      46471 PREFETCH ISSUED TO LOWER LEVEL:     505650  ACCURACY: 9.19035
L2C TIMELY PREFETCHES:      46471 LATE PREFETCHES: 0 DROPPED PREFETCHES: 0
L2C PREFETCHES SAME FILL-ORIGIN LEVEL: 0 DIFFERENT FILL-ORIGIN LEVEL: 0
L2C AVERAGE MISS LATENCY: 201.911 cycles
L2C RQ	ACCESS:     512645	FORWARD:          0	MERGED:          0	TO_CACHE:     512644
L2C WQ	ACCESS:     440704	FORWARD:          6	MERGED:          0	TO_CACHE:     440704
L2C PQ	ACCESS:     667302	FORWARD:          0	MERGED:          0	TO_CACHE:     667297

L2C Instructions Evicting Data 2072
L2C Translations Evicting Data 1092
L2C Data Evicting Data 847792
L2C Instructions Evicting Instructions 1
L2C Translations Evicting Instructions 1
L2C Data Evicting Instructions 2072
L2C Instructions Evicting Translations 3
L2C Translations Evicting Translations 1
L2C Data Evicting Translations 1065
L2C Dense regions hint from L2: 0
PSCL5 TOTAL     ACCESS:       5893  HIT:       5893  MISS:          0  HIT %:        100  MISS %:          0   MPKI: 0
PSCL5 LOAD TRANSLATION ACCESS:       5893  HIT:       5893  MISS:          0  HIT %:        100  MISS %:          0   MPKI: 0
PSCL5 PREFETCH  REQUESTED:          0  ISSUED:          0  USEFUL:          0  USELESS:          0
PSCL5 USEFUL LOAD PREFETCHES:          0 PREFETCH ISSUED TO LOWER LEVEL:          0  ACCURACY: -nan
PSCL5 TIMELY PREFETCHES:          0 LATE PREFETCHES: 0 DROPPED PREFETCHES: 0
PSCL5 PREFETCHES SAME FILL-ORIGIN LEVEL: 0 DIFFERENT FILL-ORIGIN LEVEL: 0

PSCL4 TOTAL     ACCESS:       5893  HIT:       5893  MISS:          0  HIT %:        100  MISS %:          0   MPKI: 0
PSCL4 LOAD TRANSLATION ACCESS:       5893  HIT:       5893  MISS:          0  HIT %:        100  MISS %:          0   MPKI: 0
PSCL4 PREFETCH  REQUESTED:          0  ISSUED:          0  USEFUL:          0  USELESS:          0
PSCL4 USEFUL LOAD PREFETCHES:          0 PREFETCH ISSUED TO LOWER LEVEL:          0  ACCURACY: -nan
PSCL4 TIMELY PREFETCHES:          0 LATE PREFETCHES: 0 DROPPED PREFETCHES: 0
PSCL4 PREFETCHES SAME FILL-ORIGIN LEVEL: 0 DIFFERENT FILL-ORIGIN LEVEL: 0

PSCL3 TOTAL     ACCESS:       5893  HIT:       5893  MISS:          0  HIT %:        100  MISS %:          0   MPKI: 0
PSCL3 LOAD TRANSLATION ACCESS:       5893  HIT:       5893  MISS:          0  HIT %:        100  MISS %:          0   MPKI: 0
PSCL3 PREFETCH  REQUESTED:          0  ISSUED:          0  USEFUL:          0  USELESS:          0
PSCL3 USEFUL LOAD PREFETCHES:          0 PREFETCH ISSUED TO LOWER LEVEL:          0  ACCURACY: -nan
PSCL3 TIMELY PREFETCHES:          0 LATE PREFETCHES: 0 DROPPED PREFETCHES: 0
PSCL3 PREFETCHES SAME FILL-ORIGIN LEVEL: 0 DIFFERENT FILL-ORIGIN LEVEL: 0

PSCL2 TOTAL     ACCESS:       5893  HIT:       5870  MISS:         23  HIT %:    99.6097  MISS %:   0.390294   MPKI: 0.00023
PSCL2 LOAD TRANSLATION ACCESS:       5893  HIT:       5870  MISS:         23  HIT %:    99.6097  MISS %:   0.390294   MPKI: 0.00023
PSCL2 PREFETCH  REQUESTED:          0  ISSUED:          0  USEFUL:          0  USELESS:          0
PSCL2 USEFUL LOAD PREFETCHES:          0 PREFETCH ISSUED TO LOWER LEVEL:          0  ACCURACY: -nan
PSCL2 TIMELY PREFETCHES:          0 LATE PREFETCHES: 0 DROPPED PREFETCHES: 0
PSCL2 PREFETCHES SAME FILL-ORIGIN LEVEL: 0 DIFFERENT FILL-ORIGIN LEVEL: 0

LLC TOTAL     ACCESS:    1242429  HIT:     651682  MISS:     590747  HIT %:    52.4523  MISS %:    47.5477   MPKI: 5.90747
LLC LOAD      ACCESS:     154466  HIT:      64702  MISS:      89764  HIT %:    41.8875  MISS %:    58.1125   MPKI: 0.89764
LLC RFO       ACCESS:     192893  HIT:      25684  MISS:     167209  HIT %:    13.3152  MISS %:    86.6848   MPKI: 1.67209
LLC PREFETCH  ACCESS:     505643  HIT:     183935  MISS:     321708  HIT %:    36.3765  MISS %:    63.6235   MPKI: 3.21708
LLC WRITEBACK ACCESS:     388333  HIT:     377264  MISS:      11069  HIT %:    97.1496  MISS %:    2.85039   MPKI: 0.11069
LLC LOAD TRANSLATION ACCESS:       1094  HIT:         97  MISS:        997  HIT %:    8.86654  MISS %:    91.1335   MPKI: 0.00997
LLC PREFETCH  REQUESTED:          0  ISSUED:          0  USEFUL:      40715  USELESS:     289123
LLC USEFUL LOAD PREFETCHES:      40715 PREFETCH ISSUED TO LOWER LEVEL:     321712  ACCURACY: 12.6557
LLC TIMELY PREFETCHES:      40715 LATE PREFETCHES: 0 DROPPED PREFETCHES: 0
LLC PREFETCHES SAME FILL-ORIGIN LEVEL: 0 DIFFERENT FILL-ORIGIN LEVEL: 0
LLC AVERAGE MISS LATENCY: 249.83 cycles
LLC RQ	ACCESS:     348456	FORWARD:          0	MERGED:          0	TO_CACHE:     348455
LLC WQ	ACCESS:     388334	FORWARD:          3	MERGED:          0	TO_CACHE:     388334
LLC PQ	ACCESS:     505650	FORWARD:          0	MERGED:          0	TO_CACHE:     505648

LLC Dense regions hint to LLC: 0

RAW hits: 84393
Loads Generated: 26060046
Loads sent to L1D: 25975657
Stores Generated: 4083148
Stores sent to L1D: 4083148
Major fault: 0 Minor fault: 6967
Allocated PAGES: 6967

stream: 
stream:times selected: 3313002
stream:pref_filled: 1436734
stream:pref_useful: 1183230
stream:pref_late: 17426
stream:misses: 16828
stream:misses_by_poll: 0

CS: 
CS:times selected: 2785680
CS:pref_filled: 89537
CS:pref_useful: 61245
CS:pref_late: 660
CS:misses: 294765
CS:misses_by_poll: 180

CPLX: 
CPLX:times selected: 527170
CPLX:pref_filled: 32281
CPLX:pref_useful: 23558
CPLX:pref_late: 234
CPLX:misses: 86605
CPLX:misses_by_poll: 44

NL_L1: 
NL:times selected: 679
NL:pref_filled: 295
NL:pref_useful: 22
NL:pref_late: 4
NL:misses: 422
NL:misses_by_poll: 0

total selections: 6626531
total_filled: 649804
total_useful: 549198
total_late: 18890
total_polluted: 224
total_misses_after_warmup: 437180
conflicts: 351220
Degree Incremented Times: 157482
Degree Decremented Times: 74

L1 IP Table Write Accesses: 16359932
L1 IP Table Read Accesses: 16008712
L1 RST Write Accesses: 1722663
L1 RST Read Accesses: 3445326
L1 CSPT Write Accesses: 1722663
L1 CSPT Read Accesses: 2612168
L1 RR Filter Tag Write Accesses: 1705195
L1 RR Filter Tag Read Accesses: 174264133
L1 IP Table Tag Write Accesses: 18088558
L1 IP Table Tag Read Accesses: 18088558
L1 RST Tag Write Accesses: 0
L1 RST Tag Read Accesses: 15373448
L1 RR Filter Write Accesses: 0
L1 RR Filter Read Accesses: 7115814
test: 147217

DRAM Statistics
 CHANNEL 0
 RQ ROW_BUFFER_HIT:     165212  ROW_BUFFER_MISS:     414143
 DBUS_CONGESTED:        487
 WQ ROW_BUFFER_HIT:      44297  ROW_BUFFER_MISS:     232585  FULL:          0

 AVG_CONGESTED_CYCLE: 4
 All warmup complete: 2
Channel 0 Bank busy for read cycles: 0
Channel 0 Bank busy for write cycles: 0
Channel 0
Rank 0
0banks busy for read cycles: 75356509
0banks busy for write cycles: 49332
1banks busy for read cycles: 14160246
1banks busy for write cycles: 5823326
2banks busy for read cycles: 5677664
2banks busy for write cycles: 2014759
3banks busy for read cycles: 2019728
3banks busy for write cycles: 859888
4banks busy for read cycles: 1238237
4banks busy for write cycles: 512163
5banks busy for read cycles: 1092713
5banks busy for write cycles: 362702
6banks busy for read cycles: 1057261
6banks busy for write cycles: 295649
7banks busy for read cycles: 1349135
7banks busy for write cycles: 550743
8banks busy for read cycles: 1813744
8banks busy for write cycles: 3723450

CPU 0 Branch Prediction Accuracy: 99.89% MPKI: 0.07455 Average ROB Occupancy at Mispredict: 172.137
Branch types
NOT_BRANCH: 93224492 93.2245%
BRANCH_DIRECT_JUMP: 279102 0.279102%
BRANCH_INDIRECT: 6 6e-06%
BRANCH_CONDITIONAL: 5979042 5.97904%
BRANCH_DIRECT_CALL: 258649 0.258649%
BRANCH_INDIRECT_CALL: 0 0%
BRANCH_RETURN: 258648 0.258648%
BRANCH_OTHER: 0 0%

DRAM PAGES: 1048576
Allocated PAGES: 6967
