Initialize SIGNATURE TABLE
ST_SET: 1
ST_WAY: 256
ST_TAG_BIT: 16
ST_TAG_MASK: ffff

Initialize PATTERN TABLE
PT_SET: 512
PT_WAY: 4
SIG_DELTA_BIT: 7
C_SIG_BIT: 4
C_DELTA_BIT: 4

Initialize PREFETCH FILTER
FILTER_SET: 1024

*** ChampSim Multicore Out-of-Order Simulator ***

Warmup Instructions: 50000000
Simulation Instructions: 100000000
Number of CPUs: 1
LLC sets: 2048
LLC ways: 16
Off-chip DRAM Size: 4096 MB Channels: 1 Width: 64-bit Data Rate: 6400 MT/s
CPU 0 runs ../SPEC2017//621.wrf_s-6673B.champsimtrace.xz
.xz
BTB has LRU replacement policy
ITLB has LRU replacement policy
DTLB has LRU replacement policy
STLB has LRU replacement policy
L1I has LRU replacement policy
L1D has LRU replacement policy
Initialize SRRIP state for L2C
Initialize DRRIP state for LLC
Heartbeat CPU 0 instructions: 10000002 cycles: 3568520 heartbeat IPC: 2.80228 cumulative IPC: 2.80228 (Simulation time: 0 hr 7 min 0 sec) 
Heartbeat CPU 0 instructions: 20000003 cycles: 6486366 heartbeat IPC: 3.42719 cumulative IPC: 3.08339 (Simulation time: 0 hr 11 min 47 sec) 
Heartbeat CPU 0 instructions: 30000000 cycles: 9319174 heartbeat IPC: 3.53007 cumulative IPC: 3.21917 (Simulation time: 0 hr 15 min 54 sec) 
Heartbeat CPU 0 instructions: 40000002 cycles: 12219794 heartbeat IPC: 3.44754 cumulative IPC: 3.27338 (Simulation time: 0 hr 20 min 4 sec) 
Heartbeat CPU 0 instructions: 50000001 cycles: 15129683 heartbeat IPC: 3.43656 cumulative IPC: 3.30476 (Simulation time: 0 hr 24 min 1 sec) 

Warmup complete CPU 0 instructions: 50000001 cycles: 15129683 (Simulation time: 0 hr 24 min 1 sec) 

Heartbeat CPU 0 instructions: 60000001 cycles: 29250233 heartbeat IPC: 0.708188 cumulative IPC: 0.708188 (Simulation time: 0 hr 30 min 8 sec) 
Heartbeat CPU 0 instructions: 70000000 cycles: 44963547 heartbeat IPC: 0.636403 cumulative IPC: 0.670379 (Simulation time: 0 hr 35 min 36 sec) 
Heartbeat CPU 0 instructions: 80000000 cycles: 57563127 heartbeat IPC: 0.793677 cumulative IPC: 0.706989 (Simulation time: 0 hr 40 min 15 sec) 
Heartbeat CPU 0 instructions: 90000003 cycles: 71226099 heartbeat IPC: 0.731905 cumulative IPC: 0.713058 (Simulation time: 0 hr 45 min 14 sec) 
Heartbeat CPU 0 instructions: 100000000 cycles: 88023451 heartbeat IPC: 0.595332 cumulative IPC: 0.68593 (Simulation time: 0 hr 50 min 59 sec) 
Heartbeat CPU 0 instructions: 110000000 cycles: 96967239 heartbeat IPC: 1.11809 cumulative IPC: 0.73316 (Simulation time: 0 hr 54 min 28 sec) 
Heartbeat CPU 0 instructions: 120000003 cycles: 107911812 heartbeat IPC: 0.913695 cumulative IPC: 0.754456 (Simulation time: 0 hr 58 min 3 sec) 
Heartbeat CPU 0 instructions: 130000002 cycles: 117273010 heartbeat IPC: 1.06824 cumulative IPC: 0.783213 (Simulation time: 1 hr 0 min 53 sec) 
Heartbeat CPU 0 instructions: 140000002 cycles: 127552391 heartbeat IPC: 0.972821 cumulative IPC: 0.80055 (Simulation time: 1 hr 4 min 28 sec) 
Heartbeat CPU 0 instructions: 150000001 cycles: 138010360 heartbeat IPC: 0.956209 cumulative IPC: 0.813798 (Simulation time: 1 hr 8 min 34 sec) 
Finished CPU 0 instructions: 100000000 cycles: 122880677 cumulative IPC: 0.813798 (Simulation time: 1 hr 8 min 34 sec) 

ChampSim completed all CPUs

Region of Interest Statistics

CPU 0 cumulative IPC: 0.813798 instructions: 100000000 cycles: 122880677

CPU 0 Average Load ROB stall cycles: 2.00876e+07
CPU 0 Fraction of times ROB stalled by Loads: 25.4566
CPU 0 Percentage of Load stall cycles in Total stall cycles: 3.19894e+08
Issued all: 72300775
Issued LT all: 58609669
rob_not_full_when_issued_lt_all: 38712898
Issued LT one: 52334847
rob_not_full_when_issued_lt_one: 33787770
FVP critical_dynamic_instances_0: 24637025
FVP unique_critical_ips_0: 2465
 Total stall cycles: 98742066
 Total load stall cycles: 315869586421237
Unique Load IPs: 7660
CPU 0 NUM of IPS identified critical: 0
CPU 0 Num of Load IPs stalling ROB: 0
Threshold modification factor: 0
Trouble in retire width: -nan
MaC = Marked as critical.
lt_50_percent_before_Mac: 0
gt_90_percent_before_Mac: 0
gt_75_percent_before_Mac: 0
gt_50_percent_before_Mac: 0
stall_proportion_bin_same_before_after: 0
stall_proportion_bin_lower_before_after: 0
stall_proportion_bin_upper_before_after: 0
average_stall_proportion_before: -nan
average_stall_proportion_after: -nan
Critical IP stalls, total frequency: 0
Non-critical IP stalls, total frequency: 0
Total Freq all stalling IPs: 0
Critical_IP_Detector_Accuracy_70: 0.00040568
Critical_IP_Detector_Accuracy_80: 0.00040568
Critical_IP_Detector_Accuracy_90: 0.00040568
Critical_IP_Detector_Coverage_70: 1
Critical_IP_Detector_Coverage_80: 1
Critical_IP_Detector_Coverage_90: 1
stat_90_percent_critical_ip_stalls_freq: 257355
stat_90_percent_non_critical_ip_stalls_freq: 18446744073709294261
AVERAGE_ROB_Occupancy_90_Percent_Critical_IP_Stalls: 49.5925
AVERAGE_ROB_Occupancy_90_Percent_Non_Critical_IP_Stalls: 1.69557e-11
Critical_IP_ROB_Stalls_Bucket_0: 0
Non-critical_IP_ROB_Stalls_Bucket_0: 2628932
Critical_IP_ROB_Stalls_Bucket_1: 0
Non-critical_IP_ROB_Stalls_Bucket_1: 570068
Critical_IP_ROB_Stalls_Bucket_2: 0
Non-critical_IP_ROB_Stalls_Bucket_2: 100218
Critical_IP_ROB_Stalls_Bucket_3: 0
Non-critical_IP_ROB_Stalls_Bucket_3: 108305
Critical_IP_ROB_Stalls_Bucket_4: 0
Non-critical_IP_ROB_Stalls_Bucket_4: 130300
Critical_IP_ROB_Stalls_Bucket_5: 0
Non-critical_IP_ROB_Stalls_Bucket_5: 152808
Critical_IP_ROB_Stalls_Bucket_6: 0
Non-critical_IP_ROB_Stalls_Bucket_6: 312330
0 => IPs accounting for >50 percent of stalls, 1 => 55, 2 => 60, 3 => 65 and so on till 90.
percent50: inf num IPs:  1
percent55: inf num IPs: 1
percent60: inf num IPs: 1
percent65: inf num IPs: 1
percent70: inf num IPs: 1
percent75: inf num IPs: 1
percent80: inf num IPs: 1
percent85: inf num IPs: 1
percent90: inf num IPs: 1
Critical_ROB_Stalls_Percent_0_Bucket_0: 227062
Non-critical_ROB_Stalls_Percent_0_Bucket_0: 2401870
Critical_ROB_Stalls_Percent_0_Bucket_1: 28153
Non-critical_ROB_Stalls_Percent_0_Bucket_1: 541915
Critical_ROB_Stalls_Percent_0_Bucket_2: 1205
Non-critical_ROB_Stalls_Percent_0_Bucket_2: 99013
Critical_ROB_Stalls_Percent_0_Bucket_3: 313
Non-critical_ROB_Stalls_Percent_0_Bucket_3: 107992
Critical_ROB_Stalls_Percent_0_Bucket_4: 251
Non-critical_ROB_Stalls_Percent_0_Bucket_4: 130049
Critical_ROB_Stalls_Percent_0_Bucket_5: 302
Non-critical_ROB_Stalls_Percent_0_Bucket_5: 152506
Critical_ROB_Stalls_Percent_0_Bucket_6: 69
Non-critical_ROB_Stalls_Percent_0_Bucket_6: 312261
Critical_ROB_Stalls_Percent_1_Bucket_0: 227062
Non-critical_ROB_Stalls_Percent_1_Bucket_0: 2401870
Critical_ROB_Stalls_Percent_1_Bucket_1: 28153
Non-critical_ROB_Stalls_Percent_1_Bucket_1: 541915
Critical_ROB_Stalls_Percent_1_Bucket_2: 1205
Non-critical_ROB_Stalls_Percent_1_Bucket_2: 99013
Critical_ROB_Stalls_Percent_1_Bucket_3: 313
Non-critical_ROB_Stalls_Percent_1_Bucket_3: 107992
Critical_ROB_Stalls_Percent_1_Bucket_4: 251
Non-critical_ROB_Stalls_Percent_1_Bucket_4: 130049
Critical_ROB_Stalls_Percent_1_Bucket_5: 302
Non-critical_ROB_Stalls_Percent_1_Bucket_5: 152506
Critical_ROB_Stalls_Percent_1_Bucket_6: 69
Non-critical_ROB_Stalls_Percent_1_Bucket_6: 312261
Critical_ROB_Stalls_Percent_2_Bucket_0: 227062
Non-critical_ROB_Stalls_Percent_2_Bucket_0: 2401870
Critical_ROB_Stalls_Percent_2_Bucket_1: 28153
Non-critical_ROB_Stalls_Percent_2_Bucket_1: 541915
Critical_ROB_Stalls_Percent_2_Bucket_2: 1205
Non-critical_ROB_Stalls_Percent_2_Bucket_2: 99013
Critical_ROB_Stalls_Percent_2_Bucket_3: 313
Non-critical_ROB_Stalls_Percent_2_Bucket_3: 107992
Critical_ROB_Stalls_Percent_2_Bucket_4: 251
Non-critical_ROB_Stalls_Percent_2_Bucket_4: 130049
Critical_ROB_Stalls_Percent_2_Bucket_5: 302
Non-critical_ROB_Stalls_Percent_2_Bucket_5: 152506
Critical_ROB_Stalls_Percent_2_Bucket_6: 69
Non-critical_ROB_Stalls_Percent_2_Bucket_6: 312261
Critical_ROB_Stalls_Percent_3_Bucket_0: 227062
Non-critical_ROB_Stalls_Percent_3_Bucket_0: 2401870
Critical_ROB_Stalls_Percent_3_Bucket_1: 28153
Non-critical_ROB_Stalls_Percent_3_Bucket_1: 541915
Critical_ROB_Stalls_Percent_3_Bucket_2: 1205
Non-critical_ROB_Stalls_Percent_3_Bucket_2: 99013
Critical_ROB_Stalls_Percent_3_Bucket_3: 313
Non-critical_ROB_Stalls_Percent_3_Bucket_3: 107992
Critical_ROB_Stalls_Percent_3_Bucket_4: 251
Non-critical_ROB_Stalls_Percent_3_Bucket_4: 130049
Critical_ROB_Stalls_Percent_3_Bucket_5: 302
Non-critical_ROB_Stalls_Percent_3_Bucket_5: 152506
Critical_ROB_Stalls_Percent_3_Bucket_6: 69
Non-critical_ROB_Stalls_Percent_3_Bucket_6: 312261
Critical_ROB_Stalls_Percent_4_Bucket_0: 227062
Non-critical_ROB_Stalls_Percent_4_Bucket_0: 2401870
Critical_ROB_Stalls_Percent_4_Bucket_1: 28153
Non-critical_ROB_Stalls_Percent_4_Bucket_1: 541915
Critical_ROB_Stalls_Percent_4_Bucket_2: 1205
Non-critical_ROB_Stalls_Percent_4_Bucket_2: 99013
Critical_ROB_Stalls_Percent_4_Bucket_3: 313
Non-critical_ROB_Stalls_Percent_4_Bucket_3: 107992
Critical_ROB_Stalls_Percent_4_Bucket_4: 251
Non-critical_ROB_Stalls_Percent_4_Bucket_4: 130049
Critical_ROB_Stalls_Percent_4_Bucket_5: 302
Non-critical_ROB_Stalls_Percent_4_Bucket_5: 152506
Critical_ROB_Stalls_Percent_4_Bucket_6: 69
Non-critical_ROB_Stalls_Percent_4_Bucket_6: 312261
Critical_ROB_Stalls_Percent_5_Bucket_0: 227062
Non-critical_ROB_Stalls_Percent_5_Bucket_0: 2401870
Critical_ROB_Stalls_Percent_5_Bucket_1: 28153
Non-critical_ROB_Stalls_Percent_5_Bucket_1: 541915
Critical_ROB_Stalls_Percent_5_Bucket_2: 1205
Non-critical_ROB_Stalls_Percent_5_Bucket_2: 99013
Critical_ROB_Stalls_Percent_5_Bucket_3: 313
Non-critical_ROB_Stalls_Percent_5_Bucket_3: 107992
Critical_ROB_Stalls_Percent_5_Bucket_4: 251
Non-critical_ROB_Stalls_Percent_5_Bucket_4: 130049
Critical_ROB_Stalls_Percent_5_Bucket_5: 302
Non-critical_ROB_Stalls_Percent_5_Bucket_5: 152506
Critical_ROB_Stalls_Percent_5_Bucket_6: 69
Non-critical_ROB_Stalls_Percent_5_Bucket_6: 312261
Critical_ROB_Stalls_Percent_6_Bucket_0: 227062
Non-critical_ROB_Stalls_Percent_6_Bucket_0: 2401870
Critical_ROB_Stalls_Percent_6_Bucket_1: 28153
Non-critical_ROB_Stalls_Percent_6_Bucket_1: 541915
Critical_ROB_Stalls_Percent_6_Bucket_2: 1205
Non-critical_ROB_Stalls_Percent_6_Bucket_2: 99013
Critical_ROB_Stalls_Percent_6_Bucket_3: 313
Non-critical_ROB_Stalls_Percent_6_Bucket_3: 107992
Critical_ROB_Stalls_Percent_6_Bucket_4: 251
Non-critical_ROB_Stalls_Percent_6_Bucket_4: 130049
Critical_ROB_Stalls_Percent_6_Bucket_5: 302
Non-critical_ROB_Stalls_Percent_6_Bucket_5: 152506
Critical_ROB_Stalls_Percent_6_Bucket_6: 69
Non-critical_ROB_Stalls_Percent_6_Bucket_6: 312261
Critical_ROB_Stalls_Percent_7_Bucket_0: 227062
Non-critical_ROB_Stalls_Percent_7_Bucket_0: 2401870
Critical_ROB_Stalls_Percent_7_Bucket_1: 28153
Non-critical_ROB_Stalls_Percent_7_Bucket_1: 541915
Critical_ROB_Stalls_Percent_7_Bucket_2: 1205
Non-critical_ROB_Stalls_Percent_7_Bucket_2: 99013
Critical_ROB_Stalls_Percent_7_Bucket_3: 313
Non-critical_ROB_Stalls_Percent_7_Bucket_3: 107992
Critical_ROB_Stalls_Percent_7_Bucket_4: 251
Non-critical_ROB_Stalls_Percent_7_Bucket_4: 130049
Critical_ROB_Stalls_Percent_7_Bucket_5: 302
Non-critical_ROB_Stalls_Percent_7_Bucket_5: 152506
Critical_ROB_Stalls_Percent_7_Bucket_6: 69
Non-critical_ROB_Stalls_Percent_7_Bucket_6: 312261
Critical_ROB_Stalls_Percent_8_Bucket_0: 227062
Non-critical_ROB_Stalls_Percent_8_Bucket_0: 2401870
Critical_ROB_Stalls_Percent_8_Bucket_1: 28153
Non-critical_ROB_Stalls_Percent_8_Bucket_1: 541915
Critical_ROB_Stalls_Percent_8_Bucket_2: 1205
Non-critical_ROB_Stalls_Percent_8_Bucket_2: 99013
Critical_ROB_Stalls_Percent_8_Bucket_3: 313
Non-critical_ROB_Stalls_Percent_8_Bucket_3: 107992
Critical_ROB_Stalls_Percent_8_Bucket_4: 251
Non-critical_ROB_Stalls_Percent_8_Bucket_4: 130049
Critical_ROB_Stalls_Percent_8_Bucket_5: 302
Non-critical_ROB_Stalls_Percent_8_Bucket_5: 152506
Critical_ROB_Stalls_Percent_8_Bucket_6: 69
Non-critical_ROB_Stalls_Percent_8_Bucket_6: 312261
Average ROB occupancy Load Stall Begin: 68.7826
Average ROB occupancy Load Stall End: 81.3247
Min ROB occupancy Load Stall Begin: 1
Max ROB occupancy Load Stall Begin: 352
Min ROB occupancy Load Stall End: 1
Max ROB occupancy Load Stall End: 352
Average ROB occupancy Critical Load Stall Begin: -nan
Average ROB occupancy Critical Load Stall End: -nan
Min ROB occupancy Critical Load Stall Begin: 400
Max ROB occupancy Critical Load Stall Begin: 0
Min ROB occupancy Critical Load Stall End: 400
Max ROB occupancy Critical Load Stall End: 0
 ROB Load Stall Begin Bucket Count 0: 2920353
 ROB Load Stall End Bucket Count 0: 2628932
 ROB Critical Load Stall Begin Bucket Count 0: 0
 ROB Critical Load Stall End Bucket Count 0: 0
 ROB Load Stall Begin Bucket Count 1: 338665
 ROB Load Stall End Bucket Count 1: 570068
 ROB Critical Load Stall Begin Bucket Count 1: 0
 ROB Critical Load Stall End Bucket Count 1: 0
 ROB Load Stall Begin Bucket Count 2: 93005
 ROB Load Stall End Bucket Count 2: 100218
 ROB Critical Load Stall Begin Bucket Count 2: 0
 ROB Critical Load Stall End Bucket Count 2: 0
 ROB Load Stall Begin Bucket Count 3: 130520
 ROB Load Stall End Bucket Count 3: 108305
 ROB Critical Load Stall Begin Bucket Count 3: 0
 ROB Critical Load Stall End Bucket Count 3: 0
 ROB Load Stall Begin Bucket Count 4: 143041
 ROB Load Stall End Bucket Count 4: 130300
 ROB Critical Load Stall Begin Bucket Count 4: 0
 ROB Critical Load Stall End Bucket Count 4: 0
 ROB Load Stall Begin Bucket Count 5: 175011
 ROB Load Stall End Bucket Count 5: 152808
 ROB Critical Load Stall Begin Bucket Count 5: 0
 ROB Critical Load Stall End Bucket Count 5: 0
 ROB Load Stall Begin Bucket Count 6: 202366
 ROB Load Stall End Bucket Count 6: 312330
 ROB Critical Load Stall Begin Bucket Count 6: 0
 ROB Critical Load Stall End Bucket Count 6: 0
PIST Tag Read Accesses: 0
PIST Read Accesses: 0
PIST Tag Write Accesses: 0
PIST Write Accesses: 0
Criticality detector called times: 0
Max global_stall_cycles_count: 0
Threshold Modified: 0 times, factor: 0
ITLB TOTAL     ACCESS:   14347827  HIT:   14347735  MISS:         92  HIT %:    99.9994  MISS %: 0.000641212   MPKI: 0.00092
ITLB LOAD TRANSLATION ACCESS:   14347827  HIT:   14347735  MISS:         92  HIT %:    99.9994  MISS %: 0.000641212   MPKI: 0.00092
ITLB PREFETCH  REQUESTED:          0  ISSUED:          0  USEFUL:          0  USELESS:          0
ITLB USEFUL LOAD PREFETCHES:          0 PREFETCH ISSUED TO LOWER LEVEL:          0  ACCURACY: -nan
ITLB TIMELY PREFETCHES:          0 LATE PREFETCHES: 0 DROPPED PREFETCHES: 0
ITLB PREFETCHES SAME FILL-ORIGIN LEVEL: 0 DIFFERENT FILL-ORIGIN LEVEL: 0
ITLB AVERAGE MISS LATENCY: 250.565 cycles
ITLB RQ	ACCESS:   17371348	FORWARD:          0	MERGED:    3023489	TO_CACHE:   14347859

DTLB TOTAL     ACCESS:   24729717  HIT:   24575091  MISS:     154626  HIT %:    99.3747  MISS %:   0.625264   MPKI: 1.54626
DTLB LOAD TRANSLATION ACCESS:   24729717  HIT:   24575091  MISS:     154626  HIT %:    99.3747  MISS %:   0.625264   MPKI: 1.54626
DTLB PREFETCH  REQUESTED:          0  ISSUED:          0  USEFUL:          0  USELESS:          0
DTLB USEFUL LOAD PREFETCHES:          0 PREFETCH ISSUED TO LOWER LEVEL:          0  ACCURACY: -nan
DTLB TIMELY PREFETCHES:          0 LATE PREFETCHES: 0 DROPPED PREFETCHES: 0
DTLB PREFETCHES SAME FILL-ORIGIN LEVEL: 0 DIFFERENT FILL-ORIGIN LEVEL: 0
DTLB AVERAGE MISS LATENCY: 22.4635 cycles
DTLB RQ	ACCESS:   28235796	FORWARD:          0	MERGED:    3475591	TO_CACHE:   24760205

STLB TOTAL     ACCESS:     154718  HIT:     136714  MISS:      18004  HIT %:    88.3633  MISS %:    11.6367   MPKI: 0.18004
STLB LOAD TRANSLATION ACCESS:     154718  HIT:     136714  MISS:      18004  HIT %:    88.3633  MISS %:    11.6367   MPKI: 0.18004
STLB PREFETCH  REQUESTED:          0  ISSUED:          0  USEFUL:          0  USELESS:          0
STLB USEFUL LOAD PREFETCHES:          0 PREFETCH ISSUED TO LOWER LEVEL:          0  ACCURACY: -nan
STLB TIMELY PREFETCHES:          0 LATE PREFETCHES: 0 DROPPED PREFETCHES: 0
STLB PREFETCHES SAME FILL-ORIGIN LEVEL: 0 DIFFERENT FILL-ORIGIN LEVEL: 0
STLB AVERAGE MISS LATENCY: 116.107 cycles
STLB RQ	ACCESS:     154718	FORWARD:          0	MERGED:          0	TO_CACHE:     154718

STLB Hit, L1D data hit: 0
STLB Hit, L2C data hit: 0
STLB Hit, LLC data hit: 0
STLB Hit, LLC data miss: 0
STLB STLB hints to L2: 0
L1D TOTAL     ACCESS:   26471668  HIT:   24115801  MISS:    2355867  HIT %:    91.1004  MISS %:    8.89958   MPKI: 23.5587
L1D LOAD      ACCESS:   21712151  HIT:   19719205  MISS:    1992946  HIT %:    90.8211  MISS %:    9.17894   MPKI: 19.9295
L1D RFO       ACCESS:    4759517  HIT:    4396596  MISS:     362921  HIT %:    92.3748  MISS %:    7.62516   MPKI: 3.62921
L1D PREFETCH  REQUESTED:          0  ISSUED:          0  USEFUL:          0  USELESS:          0
L1D USEFUL LOAD PREFETCHES:          0 PREFETCH ISSUED TO LOWER LEVEL:          0  ACCURACY: -nan
L1D TIMELY PREFETCHES:          0 LATE PREFETCHES: 0 DROPPED PREFETCHES: 0
L1D PREFETCHES SAME FILL-ORIGIN LEVEL: 0 DIFFERENT FILL-ORIGIN LEVEL: 0
L1D AVERAGE MISS LATENCY: 86.9483 cycles
L1D RQ	ACCESS:   33393442	FORWARD:          0	MERGED:   10832663	TO_CACHE:   22539803
L1D WQ	ACCESS:    5714372	FORWARD:      20976	MERGED:      18379	TO_CACHE:    5695993

L1D UNIQUE REGIONS ACCESSED: 0
L1D REGIONS CONFLICTS: 0
L1D Cross Page Prefetch Requests: 0
L1D Same Page Prefetch Requests: 0
L1D ROI Sum of L1D PQ occupancy: 0
L1D PREFETCHES PUSHED FROM L2C: 0
L1I TOTAL     ACCESS:   17369413  HIT:   17365507  MISS:       3906  HIT %:    99.9775  MISS %:  0.0224878   MPKI: 0.03906
L1I LOAD      ACCESS:   17369413  HIT:   17365507  MISS:       3906  HIT %:    99.9775  MISS %:  0.0224878   MPKI: 0.03906
L1I PREFETCH  REQUESTED:          0  ISSUED:          0  USEFUL:          0  USELESS:          0
L1I USEFUL LOAD PREFETCHES:          0 PREFETCH ISSUED TO LOWER LEVEL:          0  ACCURACY: -nan
L1I TIMELY PREFETCHES:          0 LATE PREFETCHES: 0 DROPPED PREFETCHES: 0
L1I PREFETCHES SAME FILL-ORIGIN LEVEL: 0 DIFFERENT FILL-ORIGIN LEVEL: 0
L1I AVERAGE MISS LATENCY: 220.111 cycles
L1I RQ	ACCESS:   25268943	FORWARD:          0	MERGED:    7897595	TO_CACHE:   17371348

BTB TOTAL     ACCESS:    3967839  HIT:    3961297  MISS:       6542  HIT %:    99.8351  MISS %:   0.164876   MPKI: 0.06542
BTB BRANCH_DIRECT_JUMP	ACCESS:      17267  HIT:      17198  MISS:         69
BTB BRANCH_INDIRECT	ACCESS:          6  HIT:          4  MISS:          2
BTB BRANCH_CONDITIONAL	ACCESS:    3898594  HIT:    3897985  MISS:        609
BTB BRANCH_DIRECT_CALL	ACCESS:      25986  HIT:      25723  MISS:        263
BTB BRANCH_INDIRECT_CALL	ACCESS:          0  HIT:          0  MISS:          0
BTB BRANCH_RETURN	ACCESS:      25986  HIT:      20387  MISS:       5599
BTB BRANCH_OTHER ACCESS:          0  HIT:          0  MISS:          0

L2C TOTAL     ACCESS:    4909769  HIT:    3124591  MISS:    1785178  HIT %:    63.6403  MISS %:    36.3597   MPKI: 17.8518
L2C LOAD      ACCESS:    1996811  HIT:    1044812  MISS:     951999  HIT %:     52.324  MISS %:     47.676   MPKI: 9.51999
L2C DATA LOAD MPKI: 9.48093
L2C INSTRUCTION LOAD MPKI: 0.03906
L2C RFO       ACCESS:     362919  HIT:     106648  MISS:     256271  HIT %:    29.3862  MISS %:    70.6138   MPKI: 2.56271
L2C PREFETCH  ACCESS:    1670225  HIT:    1110083  MISS:     560142  HIT %:    66.4631  MISS %:    33.5369   MPKI: 5.60142
L2C DATA PREFETCH MPKI: 5.60142
L2C INSTRUCTION PREFETCH MPKI: 0
L2C WRITEBACK ACCESS:     861681  HIT:     848107  MISS:      13574  HIT %:    98.4247  MISS %:    1.57529   MPKI: 0.13574
L2C LOAD TRANSLATION ACCESS:      18133  HIT:      14941  MISS:       3192  HIT %:    82.3967  MISS %:    17.6033   MPKI: 0.03192
L2C PREFETCH  REQUESTED:    7876911  ISSUED:    7116600  USEFUL:     553005  USELESS:       7111
L2C USEFUL LOAD PREFETCHES:     553005 PREFETCH ISSUED TO LOWER LEVEL:    5617056  ACCURACY: 9.8451
L2C TIMELY PREFETCHES:     553005 LATE PREFETCHES: 91747 DROPPED PREFETCHES: 0
L2C PREFETCHES SAME FILL-ORIGIN LEVEL: 653223 DIFFERENT FILL-ORIGIN LEVEL: 4963833
L2C AVERAGE MISS LATENCY: 112.647 cycles
L2C RQ	ACCESS:    2377908	FORWARD:          0	MERGED:          0	TO_CACHE:    2377865
L2C WQ	ACCESS:     861681	FORWARD:        130	MERGED:          0	TO_CACHE:     861681
L2C PQ	ACCESS:    7116600	FORWARD:          0	MERGED:     304989	TO_CACHE:    6811524

L2C Instructions Evicting Data 3882
L2C Translations Evicting Data 3181
L2C Data Evicting Data 1757553
L2C Instructions Evicting Instructions 13
L2C Translations Evicting Instructions 8
L2C Data Evicting Instructions 3816
L2C Instructions Evicting Translations 11
L2C Translations Evicting Translations 3
L2C Data Evicting Translations 3137
L2C Dense regions hint from L2: 0
PSCL5 TOTAL     ACCESS:      18004  HIT:      18004  MISS:          0  HIT %:        100  MISS %:          0   MPKI: 0
PSCL5 LOAD TRANSLATION ACCESS:      18004  HIT:      18004  MISS:          0  HIT %:        100  MISS %:          0   MPKI: 0
PSCL5 PREFETCH  REQUESTED:          0  ISSUED:          0  USEFUL:          0  USELESS:          0
PSCL5 USEFUL LOAD PREFETCHES:          0 PREFETCH ISSUED TO LOWER LEVEL:          0  ACCURACY: -nan
PSCL5 TIMELY PREFETCHES:          0 LATE PREFETCHES: 0 DROPPED PREFETCHES: 0
PSCL5 PREFETCHES SAME FILL-ORIGIN LEVEL: 0 DIFFERENT FILL-ORIGIN LEVEL: 0

PSCL4 TOTAL     ACCESS:      18004  HIT:      18004  MISS:          0  HIT %:        100  MISS %:          0   MPKI: 0
PSCL4 LOAD TRANSLATION ACCESS:      18004  HIT:      18004  MISS:          0  HIT %:        100  MISS %:          0   MPKI: 0
PSCL4 PREFETCH  REQUESTED:          0  ISSUED:          0  USEFUL:          0  USELESS:          0
PSCL4 USEFUL LOAD PREFETCHES:          0 PREFETCH ISSUED TO LOWER LEVEL:          0  ACCURACY: -nan
PSCL4 TIMELY PREFETCHES:          0 LATE PREFETCHES: 0 DROPPED PREFETCHES: 0
PSCL4 PREFETCHES SAME FILL-ORIGIN LEVEL: 0 DIFFERENT FILL-ORIGIN LEVEL: 0

PSCL3 TOTAL     ACCESS:      18004  HIT:      18004  MISS:          0  HIT %:        100  MISS %:          0   MPKI: 0
PSCL3 LOAD TRANSLATION ACCESS:      18004  HIT:      18004  MISS:          0  HIT %:        100  MISS %:          0   MPKI: 0
PSCL3 PREFETCH  REQUESTED:          0  ISSUED:          0  USEFUL:          0  USELESS:          0
PSCL3 USEFUL LOAD PREFETCHES:          0 PREFETCH ISSUED TO LOWER LEVEL:          0  ACCURACY: -nan
PSCL3 TIMELY PREFETCHES:          0 LATE PREFETCHES: 0 DROPPED PREFETCHES: 0
PSCL3 PREFETCHES SAME FILL-ORIGIN LEVEL: 0 DIFFERENT FILL-ORIGIN LEVEL: 0

PSCL2 TOTAL     ACCESS:      18004  HIT:      17867  MISS:        137  HIT %:    99.2391  MISS %:   0.760942   MPKI: 0.00137
PSCL2 LOAD TRANSLATION ACCESS:      18004  HIT:      17867  MISS:        137  HIT %:    99.2391  MISS %:   0.760942   MPKI: 0.00137
PSCL2 PREFETCH  REQUESTED:          0  ISSUED:          0  USEFUL:          0  USELESS:          0
PSCL2 USEFUL LOAD PREFETCHES:          0 PREFETCH ISSUED TO LOWER LEVEL:          0  ACCURACY: -nan
PSCL2 TIMELY PREFETCHES:          0 LATE PREFETCHES: 0 DROPPED PREFETCHES: 0
PSCL2 PREFETCHES SAME FILL-ORIGIN LEVEL: 0 DIFFERENT FILL-ORIGIN LEVEL: 0

LLC TOTAL     ACCESS:    6408763  HIT:    4538567  MISS:    1870196  HIT %:    70.8181  MISS %:    29.1819   MPKI: 18.702
LLC LOAD      ACCESS:     860252  HIT:     605795  MISS:     254457  HIT %:    70.4206  MISS %:    29.5794   MPKI: 2.54457
LLC RFO       ACCESS:     256271  HIT:      28305  MISS:     227966  HIT %:    11.0449  MISS %:    88.9551   MPKI: 2.27966
LLC PREFETCH  ACCESS:    4617644  HIT:    3488403  MISS:    1129241  HIT %:    75.5451  MISS %:    24.4549   MPKI: 11.2924
LLC WRITEBACK ACCESS:     671404  HIT:     416016  MISS:     255388  HIT %:    61.9621  MISS %:    38.0379   MPKI: 2.55388
LLC LOAD TRANSLATION ACCESS:       3192  HIT:         48  MISS:       3144  HIT %:    1.50376  MISS %:    98.4962   MPKI: 0.03144
LLC PREFETCH  REQUESTED:          0  ISSUED:          0  USEFUL:     534522  USELESS:     580668
LLC USEFUL LOAD PREFETCHES:     534522 PREFETCH ISSUED TO LOWER LEVEL:    1200800  ACCURACY: 44.5138
LLC TIMELY PREFETCHES:     534522 LATE PREFETCHES: 71557 DROPPED PREFETCHES: 0
LLC PREFETCHES SAME FILL-ORIGIN LEVEL: 1167868 DIFFERENT FILL-ORIGIN LEVEL: 0
LLC AVERAGE MISS LATENCY: 242.525 cycles
LLC RQ	ACCESS:    1119716	FORWARD:          0	MERGED:          0	TO_CACHE:    1119716
LLC WQ	ACCESS:     671404	FORWARD:          2	MERGED:          0	TO_CACHE:     671404
LLC PQ	ACCESS:    5611672	FORWARD:          0	MERGED:      76748	TO_CACHE:    5534922

LLC Dense regions hint to LLC: 0

RAW hits: 203698
Loads Generated: 33597148
Loads sent to L1D: 33393442
Stores Generated: 5714367
Stores sent to L1D: 5714372
Major fault: 0 Minor fault: 9197
Allocated PAGES: 9197
 All Calls: 2884169
 Critical Calls: 1785769
------------------
Depth Distribution
------------------
depth 0: 0
depth 1: 1569348
depth 2: 1423878
depth 3: 1273157
depth 4: 1046528
depth 5: 709098
depth 6: 433310
depth 7: 256595
depth 8: 171147
depth 9: 105767
depth 10: 69283
depth 11: 39603
depth 12: 20663
depth 13: 4291
depth 14: 3
depth 15: 3
depth 16: 0
depth 17: 0
depth 18: 0
depth 19: 0
depth 20: 0
depth 21: 0
depth 22: 0
depth 23: 0
depth 24: 0
depth 25: 0
depth 26: 0
depth 27: 0
depth 28: 0
depth 29: 0
Total: 7122674
-----------------------------
-----------------------------
	Captured at Filter
-----------------------------
depth 0: 0
depth 1: 59147
depth 2: 54618
depth 3: 50791
depth 4: 43397
depth 5: 18229
depth 6: 7027
depth 7: 2456
depth 8: 1199
depth 9: 606
depth 10: 423
depth 11: 205
depth 12: 95
depth 13: 35
depth 14: 0
depth 15: 0
depth 16: 0
depth 17: 0
depth 18: 0
depth 19: 0
depth 20: 0
depth 21: 0
depth 22: 0
depth 23: 0
depth 24: 0
depth 25: 0
depth 26: 0
depth 27: 0
depth 28: 0
depth 29: 0
-----------------------------
-----------------------------
		Lost at Page
-----------------------------
depth 0: 0
depth 1: 39073
depth 2: 62011
depth 3: 77423
depth 4: 84580
depth 5: 68989
depth 6: 49995
depth 7: 33932
depth 8: 26325
depth 9: 18748
depth 10: 13951
depth 11: 9185
depth 12: 5388
depth 13: 1217
depth 14: 3
depth 15: 3
depth 16: 0
depth 17: 0
depth 18: 0
depth 19: 0
depth 20: 0
depth 21: 0
depth 22: 0
depth 23: 0
depth 24: 0
depth 25: 0
depth 26: 0
depth 27: 0
depth 28: 0
depth 29: 0
-----------------------------
-----------------------------
	Lost due to PQ Size
-----------------------------
760311
-----------------------------
ST read accesses: 1713178
ST write accesses: 31060
PT read accesses: 54484356
PT write accesses: 2560978
FILTER read accesses: 11644551
FILTER write accesses: 3459178
GHR read accesses: 2778399
GHR write accesses: 490282
GHR counter read accesses: 44574836
GHR counter write accesses: 3516830
ST tag read accesses: 688051898
ST tag write accesses: 22786159

DRAM Statistics
 CHANNEL 0
 RQ ROW_BUFFER_HIT:     418626  ROW_BUFFER_MISS:    1195833
 DBUS_CONGESTED:       1354
 WQ ROW_BUFFER_HIT:     111091  ROW_BUFFER_MISS:     472929  FULL:        627

 AVG_CONGESTED_CYCLE: 4
 All warmup complete: 2
Channel 0 Bank busy for read cycles: 0
Channel 0 Bank busy for write cycles: 0
Channel 0
Rank 0
0banks busy for read cycles: 36870148
0banks busy for write cycles: 57566
1banks busy for read cycles: 16169431
1banks busy for write cycles: 6625310
2banks busy for read cycles: 12524255
2banks busy for write cycles: 3545512
3banks busy for read cycles: 7619426
3banks busy for write cycles: 1736305
4banks busy for read cycles: 5820383
4banks busy for write cycles: 1055607
5banks busy for read cycles: 5168255
5banks busy for write cycles: 784172
6banks busy for read cycles: 4317551
6banks busy for write cycles: 675352
7banks busy for read cycles: 3563890
7banks busy for write cycles: 1453688
8banks busy for read cycles: 5492522
8banks busy for write cycles: 9401305

CPU 0 Branch Prediction Accuracy: 99.8231% MPKI: 0.07731 Average ROB Occupancy at Mispredict: 101.35
Branch types
NOT_BRANCH: 95630771 95.6308%
BRANCH_DIRECT_JUMP: 17267 0.017267%
BRANCH_INDIRECT: 6 6e-06%
BRANCH_CONDITIONAL: 4299897 4.2999%
BRANCH_DIRECT_CALL: 25986 0.025986%
BRANCH_INDIRECT_CALL: 0 0%
BRANCH_RETURN: 25986 0.025986%
BRANCH_OTHER: 0 0%

DRAM PAGES: 1048576
Allocated PAGES: 9197
