
*** ChampSim Multicore Out-of-Order Simulator ***

Warmup Instructions: 50000000
Simulation Instructions: 100000000
Number of CPUs: 1
LLC sets: 2048
LLC ways: 16
Off-chip DRAM Size: 4096 MB Channels: 1 Width: 64-bit Data Rate: 6400 MT/s
CPU 0 runs ../SPEC2017//621.wrf_s-6673B.champsimtrace.xz
.xz
BTB has LRU replacement policy
ITLB has LRU replacement policy
DTLB has LRU replacement policy
STLB has LRU replacement policy
L1I has LRU replacement policy
IP Table Entries: 64
L1D has LRU replacement policy
Initialize SRRIP state for L2C
Initialize DRRIP state for LLC
Heartbeat CPU 0 instructions: 10000002 cycles: 3567714 heartbeat IPC: 2.80292 cumulative IPC: 2.80292 (Simulation time: 0 hr 3 min 20 sec) 
Heartbeat CPU 0 instructions: 20000003 cycles: 6481246 heartbeat IPC: 3.43226 cumulative IPC: 3.08583 (Simulation time: 0 hr 6 min 24 sec) 
Heartbeat CPU 0 instructions: 30000000 cycles: 9308791 heartbeat IPC: 3.53664 cumulative IPC: 3.22276 (Simulation time: 0 hr 8 min 49 sec) 
Heartbeat CPU 0 instructions: 40000002 cycles: 12200274 heartbeat IPC: 3.45843 cumulative IPC: 3.27861 (Simulation time: 0 hr 11 min 20 sec) 
Heartbeat CPU 0 instructions: 50000001 cycles: 15107373 heartbeat IPC: 3.43986 cumulative IPC: 3.30964 (Simulation time: 0 hr 13 min 45 sec) 

Warmup complete CPU 0 instructions: 50000001 cycles: 15107373 (Simulation time: 0 hr 13 min 45 sec) 

Heartbeat CPU 0 instructions: 60000001 cycles: 28216204 heartbeat IPC: 0.762845 cumulative IPC: 0.762845 (Simulation time: 0 hr 17 min 34 sec) 
Heartbeat CPU 0 instructions: 70000000 cycles: 43480170 heartbeat IPC: 0.655138 cumulative IPC: 0.704901 (Simulation time: 0 hr 21 min 38 sec) 
Heartbeat CPU 0 instructions: 80000001 cycles: 55447741 heartbeat IPC: 0.835592 cumulative IPC: 0.743672 (Simulation time: 0 hr 25 min 17 sec) 
Heartbeat CPU 0 instructions: 90000003 cycles: 68465316 heartbeat IPC: 0.768192 cumulative IPC: 0.749654 (Simulation time: 0 hr 29 min 19 sec) 
Heartbeat CPU 0 instructions: 100000000 cycles: 85510989 heartbeat IPC: 0.586659 cumulative IPC: 0.710191 (Simulation time: 0 hr 34 min 32 sec) 
Heartbeat CPU 0 instructions: 110000000 cycles: 94273153 heartbeat IPC: 1.14127 cumulative IPC: 0.757903 (Simulation time: 0 hr 37 min 45 sec) 
Heartbeat CPU 0 instructions: 120000003 cycles: 105157654 heartbeat IPC: 0.918738 cumulative IPC: 0.777344 (Simulation time: 0 hr 40 min 38 sec) 
Heartbeat CPU 0 instructions: 130000002 cycles: 114386671 heartbeat IPC: 1.08354 cumulative IPC: 0.805807 (Simulation time: 0 hr 42 min 59 sec) 
Heartbeat CPU 0 instructions: 140000002 cycles: 124369835 heartbeat IPC: 1.00169 cumulative IPC: 0.823705 (Simulation time: 0 hr 45 min 31 sec) 
Heartbeat CPU 0 instructions: 150000001 cycles: 134821068 heartbeat IPC: 0.956825 cumulative IPC: 0.835326 (Simulation time: 0 hr 48 min 7 sec) 
Finished CPU 0 instructions: 100000000 cycles: 119713695 cumulative IPC: 0.835326 (Simulation time: 0 hr 48 min 7 sec) 

ChampSim completed all CPUs

Region of Interest Statistics

CPU 0 cumulative IPC: 0.835326 instructions: 100000000 cycles: 119713695

CPU 0 Average Load ROB stall cycles: 1.94172e+07
CPU 0 Fraction of times ROB stalled by Loads: 25.7461
CPU 0 Percentage of Load stall cycles in Total stall cycles: 3.94123e+08
Issued all: 68426155
Issued LT all: 54568017
rob_not_full_when_issued_lt_all: 39015265
Issued LT one: 48652162
rob_not_full_when_issued_lt_one: 34047027
FVP critical_dynamic_instances_0: 24783789
FVP unique_critical_ips_0: 2485
 Total stall cycles: 96075254
 Total load stall cycles: 378654643786238
Unique Load IPs: 7660
CPU 0 NUM of IPS identified critical: 0
CPU 0 Num of Load IPs stalling ROB: 0
Threshold modification factor: 0
Trouble in retire width: -nan
MaC = Marked as critical.
lt_50_percent_before_Mac: 0
gt_90_percent_before_Mac: 0
gt_75_percent_before_Mac: 0
gt_50_percent_before_Mac: 0
stall_proportion_bin_same_before_after: 0
stall_proportion_bin_lower_before_after: 0
stall_proportion_bin_upper_before_after: 0
average_stall_proportion_before: -nan
average_stall_proportion_after: -nan
Critical IP stalls, total frequency: 0
Non-critical IP stalls, total frequency: 0
Total Freq all stalling IPs: 0
Critical_IP_Detector_Accuracy_70: 0.000402414
Critical_IP_Detector_Accuracy_80: 0.000402414
Critical_IP_Detector_Accuracy_90: 0.000402414
Critical_IP_Detector_Coverage_70: 1
Critical_IP_Detector_Coverage_80: 1
Critical_IP_Detector_Coverage_90: 1
stat_90_percent_critical_ip_stalls_freq: 294564
stat_90_percent_non_critical_ip_stalls_freq: 18446744073709257052
AVERAGE_ROB_Occupancy_90_Percent_Critical_IP_Stalls: 49.1068
AVERAGE_ROB_Occupancy_90_Percent_Non_Critical_IP_Stalls: 1.40109e-11
Critical_IP_ROB_Stalls_Bucket_0: 0
Non-critical_IP_ROB_Stalls_Bucket_0: 4028075
Critical_IP_ROB_Stalls_Bucket_1: 0
Non-critical_IP_ROB_Stalls_Bucket_1: 469748
Critical_IP_ROB_Stalls_Bucket_2: 0
Non-critical_IP_ROB_Stalls_Bucket_2: 73213
Critical_IP_ROB_Stalls_Bucket_3: 0
Non-critical_IP_ROB_Stalls_Bucket_3: 68625
Critical_IP_ROB_Stalls_Bucket_4: 0
Non-critical_IP_ROB_Stalls_Bucket_4: 83092
Critical_IP_ROB_Stalls_Bucket_5: 0
Non-critical_IP_ROB_Stalls_Bucket_5: 94462
Critical_IP_ROB_Stalls_Bucket_6: 0
Non-critical_IP_ROB_Stalls_Bucket_6: 203528
0 => IPs accounting for >50 percent of stalls, 1 => 55, 2 => 60, 3 => 65 and so on till 90.
percent50: inf num IPs:  1
percent55: inf num IPs: 1
percent60: inf num IPs: 1
percent65: inf num IPs: 1
percent70: inf num IPs: 1
percent75: inf num IPs: 1
percent80: inf num IPs: 1
percent85: inf num IPs: 1
percent90: inf num IPs: 1
Critical_ROB_Stalls_Percent_0_Bucket_0: 263290
Non-critical_ROB_Stalls_Percent_0_Bucket_0: 3764785
Critical_ROB_Stalls_Percent_0_Bucket_1: 29669
Non-critical_ROB_Stalls_Percent_0_Bucket_1: 440079
Critical_ROB_Stalls_Percent_0_Bucket_2: 652
Non-critical_ROB_Stalls_Percent_0_Bucket_2: 72561
Critical_ROB_Stalls_Percent_0_Bucket_3: 270
Non-critical_ROB_Stalls_Percent_0_Bucket_3: 68355
Critical_ROB_Stalls_Percent_0_Bucket_4: 260
Non-critical_ROB_Stalls_Percent_0_Bucket_4: 82832
Critical_ROB_Stalls_Percent_0_Bucket_5: 322
Non-critical_ROB_Stalls_Percent_0_Bucket_5: 94140
Critical_ROB_Stalls_Percent_0_Bucket_6: 101
Non-critical_ROB_Stalls_Percent_0_Bucket_6: 203427
Critical_ROB_Stalls_Percent_1_Bucket_0: 263290
Non-critical_ROB_Stalls_Percent_1_Bucket_0: 3764785
Critical_ROB_Stalls_Percent_1_Bucket_1: 29669
Non-critical_ROB_Stalls_Percent_1_Bucket_1: 440079
Critical_ROB_Stalls_Percent_1_Bucket_2: 652
Non-critical_ROB_Stalls_Percent_1_Bucket_2: 72561
Critical_ROB_Stalls_Percent_1_Bucket_3: 270
Non-critical_ROB_Stalls_Percent_1_Bucket_3: 68355
Critical_ROB_Stalls_Percent_1_Bucket_4: 260
Non-critical_ROB_Stalls_Percent_1_Bucket_4: 82832
Critical_ROB_Stalls_Percent_1_Bucket_5: 322
Non-critical_ROB_Stalls_Percent_1_Bucket_5: 94140
Critical_ROB_Stalls_Percent_1_Bucket_6: 101
Non-critical_ROB_Stalls_Percent_1_Bucket_6: 203427
Critical_ROB_Stalls_Percent_2_Bucket_0: 263290
Non-critical_ROB_Stalls_Percent_2_Bucket_0: 3764785
Critical_ROB_Stalls_Percent_2_Bucket_1: 29669
Non-critical_ROB_Stalls_Percent_2_Bucket_1: 440079
Critical_ROB_Stalls_Percent_2_Bucket_2: 652
Non-critical_ROB_Stalls_Percent_2_Bucket_2: 72561
Critical_ROB_Stalls_Percent_2_Bucket_3: 270
Non-critical_ROB_Stalls_Percent_2_Bucket_3: 68355
Critical_ROB_Stalls_Percent_2_Bucket_4: 260
Non-critical_ROB_Stalls_Percent_2_Bucket_4: 82832
Critical_ROB_Stalls_Percent_2_Bucket_5: 322
Non-critical_ROB_Stalls_Percent_2_Bucket_5: 94140
Critical_ROB_Stalls_Percent_2_Bucket_6: 101
Non-critical_ROB_Stalls_Percent_2_Bucket_6: 203427
Critical_ROB_Stalls_Percent_3_Bucket_0: 263290
Non-critical_ROB_Stalls_Percent_3_Bucket_0: 3764785
Critical_ROB_Stalls_Percent_3_Bucket_1: 29669
Non-critical_ROB_Stalls_Percent_3_Bucket_1: 440079
Critical_ROB_Stalls_Percent_3_Bucket_2: 652
Non-critical_ROB_Stalls_Percent_3_Bucket_2: 72561
Critical_ROB_Stalls_Percent_3_Bucket_3: 270
Non-critical_ROB_Stalls_Percent_3_Bucket_3: 68355
Critical_ROB_Stalls_Percent_3_Bucket_4: 260
Non-critical_ROB_Stalls_Percent_3_Bucket_4: 82832
Critical_ROB_Stalls_Percent_3_Bucket_5: 322
Non-critical_ROB_Stalls_Percent_3_Bucket_5: 94140
Critical_ROB_Stalls_Percent_3_Bucket_6: 101
Non-critical_ROB_Stalls_Percent_3_Bucket_6: 203427
Critical_ROB_Stalls_Percent_4_Bucket_0: 263290
Non-critical_ROB_Stalls_Percent_4_Bucket_0: 3764785
Critical_ROB_Stalls_Percent_4_Bucket_1: 29669
Non-critical_ROB_Stalls_Percent_4_Bucket_1: 440079
Critical_ROB_Stalls_Percent_4_Bucket_2: 652
Non-critical_ROB_Stalls_Percent_4_Bucket_2: 72561
Critical_ROB_Stalls_Percent_4_Bucket_3: 270
Non-critical_ROB_Stalls_Percent_4_Bucket_3: 68355
Critical_ROB_Stalls_Percent_4_Bucket_4: 260
Non-critical_ROB_Stalls_Percent_4_Bucket_4: 82832
Critical_ROB_Stalls_Percent_4_Bucket_5: 322
Non-critical_ROB_Stalls_Percent_4_Bucket_5: 94140
Critical_ROB_Stalls_Percent_4_Bucket_6: 101
Non-critical_ROB_Stalls_Percent_4_Bucket_6: 203427
Critical_ROB_Stalls_Percent_5_Bucket_0: 263290
Non-critical_ROB_Stalls_Percent_5_Bucket_0: 3764785
Critical_ROB_Stalls_Percent_5_Bucket_1: 29669
Non-critical_ROB_Stalls_Percent_5_Bucket_1: 440079
Critical_ROB_Stalls_Percent_5_Bucket_2: 652
Non-critical_ROB_Stalls_Percent_5_Bucket_2: 72561
Critical_ROB_Stalls_Percent_5_Bucket_3: 270
Non-critical_ROB_Stalls_Percent_5_Bucket_3: 68355
Critical_ROB_Stalls_Percent_5_Bucket_4: 260
Non-critical_ROB_Stalls_Percent_5_Bucket_4: 82832
Critical_ROB_Stalls_Percent_5_Bucket_5: 322
Non-critical_ROB_Stalls_Percent_5_Bucket_5: 94140
Critical_ROB_Stalls_Percent_5_Bucket_6: 101
Non-critical_ROB_Stalls_Percent_5_Bucket_6: 203427
Critical_ROB_Stalls_Percent_6_Bucket_0: 263290
Non-critical_ROB_Stalls_Percent_6_Bucket_0: 3764785
Critical_ROB_Stalls_Percent_6_Bucket_1: 29669
Non-critical_ROB_Stalls_Percent_6_Bucket_1: 440079
Critical_ROB_Stalls_Percent_6_Bucket_2: 652
Non-critical_ROB_Stalls_Percent_6_Bucket_2: 72561
Critical_ROB_Stalls_Percent_6_Bucket_3: 270
Non-critical_ROB_Stalls_Percent_6_Bucket_3: 68355
Critical_ROB_Stalls_Percent_6_Bucket_4: 260
Non-critical_ROB_Stalls_Percent_6_Bucket_4: 82832
Critical_ROB_Stalls_Percent_6_Bucket_5: 322
Non-critical_ROB_Stalls_Percent_6_Bucket_5: 94140
Critical_ROB_Stalls_Percent_6_Bucket_6: 101
Non-critical_ROB_Stalls_Percent_6_Bucket_6: 203427
Critical_ROB_Stalls_Percent_7_Bucket_0: 263290
Non-critical_ROB_Stalls_Percent_7_Bucket_0: 3764785
Critical_ROB_Stalls_Percent_7_Bucket_1: 29669
Non-critical_ROB_Stalls_Percent_7_Bucket_1: 440079
Critical_ROB_Stalls_Percent_7_Bucket_2: 652
Non-critical_ROB_Stalls_Percent_7_Bucket_2: 72561
Critical_ROB_Stalls_Percent_7_Bucket_3: 270
Non-critical_ROB_Stalls_Percent_7_Bucket_3: 68355
Critical_ROB_Stalls_Percent_7_Bucket_4: 260
Non-critical_ROB_Stalls_Percent_7_Bucket_4: 82832
Critical_ROB_Stalls_Percent_7_Bucket_5: 322
Non-critical_ROB_Stalls_Percent_7_Bucket_5: 94140
Critical_ROB_Stalls_Percent_7_Bucket_6: 101
Non-critical_ROB_Stalls_Percent_7_Bucket_6: 203427
Critical_ROB_Stalls_Percent_8_Bucket_0: 263290
Non-critical_ROB_Stalls_Percent_8_Bucket_0: 3764785
Critical_ROB_Stalls_Percent_8_Bucket_1: 29669
Non-critical_ROB_Stalls_Percent_8_Bucket_1: 440079
Critical_ROB_Stalls_Percent_8_Bucket_2: 652
Non-critical_ROB_Stalls_Percent_8_Bucket_2: 72561
Critical_ROB_Stalls_Percent_8_Bucket_3: 270
Non-critical_ROB_Stalls_Percent_8_Bucket_3: 68355
Critical_ROB_Stalls_Percent_8_Bucket_4: 260
Non-critical_ROB_Stalls_Percent_8_Bucket_4: 82832
Critical_ROB_Stalls_Percent_8_Bucket_5: 322
Non-critical_ROB_Stalls_Percent_8_Bucket_5: 94140
Critical_ROB_Stalls_Percent_8_Bucket_6: 101
Non-critical_ROB_Stalls_Percent_8_Bucket_6: 203427
Average ROB occupancy Load Stall Begin: 45.1553
Average ROB occupancy Load Stall End: 54.3586
Min ROB occupancy Load Stall Begin: 1
Max ROB occupancy Load Stall Begin: 352
Min ROB occupancy Load Stall End: 1
Max ROB occupancy Load Stall End: 352
Average ROB occupancy Critical Load Stall Begin: -nan
Average ROB occupancy Critical Load Stall End: -nan
Min ROB occupancy Critical Load Stall Begin: 400
Max ROB occupancy Critical Load Stall Begin: 0
Min ROB occupancy Critical Load Stall End: 400
Max ROB occupancy Critical Load Stall End: 0
 ROB Load Stall Begin Bucket Count 0: 4223749
 ROB Load Stall End Bucket Count 0: 4028075
 ROB Critical Load Stall Begin Bucket Count 0: 0
 ROB Critical Load Stall End Bucket Count 0: 0
 ROB Load Stall Begin Bucket Count 1: 327617
 ROB Load Stall End Bucket Count 1: 469748
 ROB Critical Load Stall Begin Bucket Count 1: 0
 ROB Critical Load Stall End Bucket Count 1: 0
 ROB Load Stall Begin Bucket Count 2: 68565
 ROB Load Stall End Bucket Count 2: 73213
 ROB Critical Load Stall Begin Bucket Count 2: 0
 ROB Critical Load Stall End Bucket Count 2: 0
 ROB Load Stall Begin Bucket Count 3: 79894
 ROB Load Stall End Bucket Count 3: 68625
 ROB Critical Load Stall Begin Bucket Count 3: 0
 ROB Critical Load Stall End Bucket Count 3: 0
 ROB Load Stall Begin Bucket Count 4: 89726
 ROB Load Stall End Bucket Count 4: 83092
 ROB Critical Load Stall Begin Bucket Count 4: 0
 ROB Critical Load Stall End Bucket Count 4: 0
 ROB Load Stall Begin Bucket Count 5: 107022
 ROB Load Stall End Bucket Count 5: 94462
 ROB Critical Load Stall Begin Bucket Count 5: 0
 ROB Critical Load Stall End Bucket Count 5: 0
 ROB Load Stall Begin Bucket Count 6: 124170
 ROB Load Stall End Bucket Count 6: 203528
 ROB Critical Load Stall Begin Bucket Count 6: 0
 ROB Critical Load Stall End Bucket Count 6: 0
PIST Tag Read Accesses: 0
PIST Read Accesses: 0
PIST Tag Write Accesses: 0
PIST Write Accesses: 0
Criticality detector called times: 0
Max global_stall_cycles_count: 0
Threshold Modified: 0 times, factor: 0
ITLB TOTAL     ACCESS:   14313374  HIT:   14313282  MISS:         92  HIT %:    99.9994  MISS %: 0.000642756   MPKI: 0.00092
ITLB LOAD TRANSLATION ACCESS:   14313374  HIT:   14313282  MISS:         92  HIT %:    99.9994  MISS %: 0.000642756   MPKI: 0.00092
ITLB PREFETCH  REQUESTED:          0  ISSUED:          0  USEFUL:          0  USELESS:          0
ITLB USEFUL LOAD PREFETCHES:          0 PREFETCH ISSUED TO LOWER LEVEL:          0  ACCURACY: -nan
ITLB TIMELY PREFETCHES:          0 LATE PREFETCHES: 0 DROPPED PREFETCHES: 0
ITLB PREFETCHES SAME FILL-ORIGIN LEVEL: 0 DIFFERENT FILL-ORIGIN LEVEL: 0
ITLB AVERAGE MISS LATENCY: 269.261 cycles
ITLB RQ	ACCESS:   17344177	FORWARD:          0	MERGED:    3030770	TO_CACHE:   14313407

DTLB TOTAL     ACCESS:   25323182  HIT:   25168592  MISS:     154590  HIT %:    99.3895  MISS %:   0.610468   MPKI: 1.5459
DTLB LOAD TRANSLATION ACCESS:   25323182  HIT:   25168592  MISS:     154590  HIT %:    99.3895  MISS %:   0.610468   MPKI: 1.5459
DTLB PREFETCH  REQUESTED:          0  ISSUED:          0  USEFUL:          0  USELESS:          0
DTLB USEFUL LOAD PREFETCHES:          0 PREFETCH ISSUED TO LOWER LEVEL:          0  ACCURACY: -nan
DTLB TIMELY PREFETCHES:          0 LATE PREFETCHES: 0 DROPPED PREFETCHES: 0
DTLB PREFETCHES SAME FILL-ORIGIN LEVEL: 0 DIFFERENT FILL-ORIGIN LEVEL: 0
DTLB AVERAGE MISS LATENCY: 22.1334 cycles
DTLB RQ	ACCESS:   28936376	FORWARD:          0	MERGED:    3583061	TO_CACHE:   25353315

STLB TOTAL     ACCESS:    2240290  HIT:    2222288  MISS:      18002  HIT %:    99.1964  MISS %:   0.803557   MPKI: 0.18002
STLB LOAD TRANSLATION ACCESS:     154682  HIT:     136681  MISS:      18001  HIT %:    88.3626  MISS %:    11.6374   MPKI: 0.18001
STLB TRANSLATION FROM L1D PREFETCHER ACCESS:    2085608  HIT:    2085607  MISS:          1  HIT %:        100  MISS %: 4.79476e-05   MPKI: 1e-05
STLB PREFETCH  REQUESTED:          0  ISSUED:          0  USEFUL:          0  USELESS:          1
STLB USEFUL LOAD PREFETCHES:          0 PREFETCH ISSUED TO LOWER LEVEL:          0  ACCURACY: -nan
STLB TIMELY PREFETCHES:          0 LATE PREFETCHES: 0 DROPPED PREFETCHES: 0
STLB PREFETCHES SAME FILL-ORIGIN LEVEL: 0 DIFFERENT FILL-ORIGIN LEVEL: 0
STLB AVERAGE MISS LATENCY: 113.178 cycles
STLB RQ	ACCESS:    6512571	FORWARD:          0	MERGED:    4272280	TO_CACHE:    2240291

STLB Hit, L1D data hit: 0
STLB Hit, L2C data hit: 0
STLB Hit, LLC data hit: 0
STLB Hit, LLC data miss: 0
STLB STLB hints to L2: 0
L1D TOTAL     ACCESS:   33955751  HIT:   31318160  MISS:    2637591  HIT %:    92.2323  MISS %:    7.76773   MPKI: 26.3759
L1D LOAD      ACCESS:   23014613  HIT:   22561743  MISS:     452870  HIT %:    98.0323  MISS %:    1.96775   MPKI: 4.5287
L1D RFO       ACCESS:    4882943  HIT:    4525379  MISS:     357564  HIT %:    92.6773  MISS %:    7.32272   MPKI: 3.57564
L1D PREFETCH  ACCESS:    6058195  HIT:    4231038  MISS:    1827157  HIT %:    69.8399  MISS %:    30.1601   MPKI: 18.2716
L1D PREFETCH  REQUESTED:   15103911  ISSUED:   12725466  USEFUL:    1572227  USELESS:     254878
L1D USEFUL LOAD PREFETCHES:    1572227 PREFETCH ISSUED TO LOWER LEVEL:    1919885  ACCURACY: 81.8917
L1D TIMELY PREFETCHES:    1572227 LATE PREFETCHES: 90737 DROPPED PREFETCHES: 0
L1D PREFETCHES SAME FILL-ORIGIN LEVEL: 1919885 DIFFERENT FILL-ORIGIN LEVEL: 0
L1D AVERAGE MISS LATENCY: 2.04965e+06 cycles
L1D RQ	ACCESS:   33438886	FORWARD:          0	MERGED:   10183135	TO_CACHE:   23238013
L1D WQ	ACCESS:    5714372	FORWARD:      17786	MERGED:      16009	TO_CACHE:    5698363
L1D PQ	ACCESS:    6367577	FORWARD:          0	MERGED:       9640	TO_CACHE:    6357889

L1D UNIQUE REGIONS ACCESSED: 0
L1D REGIONS CONFLICTS: 0
L1D Cross Page Prefetch Requests: 0
L1D Same Page Prefetch Requests: 7068028
L1D ROI Sum of L1D PQ occupancy: 160003571
L1D PREFETCHES PUSHED FROM L2C: 0
L1I TOTAL     ACCESS:   17342221  HIT:   17338315  MISS:       3906  HIT %:    99.9775  MISS %:  0.0225231   MPKI: 0.03906
L1I LOAD      ACCESS:   17342221  HIT:   17338315  MISS:       3906  HIT %:    99.9775  MISS %:  0.0225231   MPKI: 0.03906
L1I PREFETCH  REQUESTED:          0  ISSUED:          0  USEFUL:          0  USELESS:          0
L1I USEFUL LOAD PREFETCHES:          0 PREFETCH ISSUED TO LOWER LEVEL:          0  ACCURACY: -nan
L1I TIMELY PREFETCHES:          0 LATE PREFETCHES: 0 DROPPED PREFETCHES: 0
L1I PREFETCHES SAME FILL-ORIGIN LEVEL: 0 DIFFERENT FILL-ORIGIN LEVEL: 0
L1I AVERAGE MISS LATENCY: 223.272 cycles
L1I RQ	ACCESS:   25175521	FORWARD:          0	MERGED:    7831344	TO_CACHE:   17344177

BTB TOTAL     ACCESS:    3967833  HIT:    3961291  MISS:       6542  HIT %:    99.8351  MISS %:   0.164876   MPKI: 0.06542
BTB BRANCH_DIRECT_JUMP	ACCESS:      17267  HIT:      17198  MISS:         69
BTB BRANCH_INDIRECT	ACCESS:          6  HIT:          4  MISS:          2
BTB BRANCH_CONDITIONAL	ACCESS:    3898588  HIT:    3897979  MISS:        609
BTB BRANCH_DIRECT_CALL	ACCESS:      25986  HIT:      25723  MISS:        263
BTB BRANCH_INDIRECT_CALL	ACCESS:          0  HIT:          0  MISS:          0
BTB BRANCH_RETURN	ACCESS:      25986  HIT:      20387  MISS:       5599
BTB BRANCH_OTHER ACCESS:          0  HIT:          0  MISS:          0

L2C TOTAL     ACCESS:    3527305  HIT:    1589251  MISS:    1938054  HIT %:    45.0557  MISS %:    54.9443   MPKI: 19.3805
L2C LOAD      ACCESS:     366033  HIT:     142177  MISS:     223856  HIT %:    38.8427  MISS %:    61.1573   MPKI: 2.23856
L2C DATA LOAD MPKI: 2.1995
L2C INSTRUCTION LOAD MPKI: 0.03906
L2C RFO       ACCESS:     355567  HIT:     116095  MISS:     239472  HIT %:    32.6507  MISS %:    67.3493   MPKI: 2.39472
L2C PREFETCH  ACCESS:    1919821  HIT:     455616  MISS:    1464205  HIT %:    23.7322  MISS %:    76.2678   MPKI: 14.642
L2C DATA PREFETCH MPKI: 14.642
L2C INSTRUCTION PREFETCH MPKI: 0
L2C WRITEBACK ACCESS:     867753  HIT:     860370  MISS:       7383  HIT %:    99.1492  MISS %:   0.850818   MPKI: 0.07383
L2C LOAD TRANSLATION ACCESS:      18130  HIT:      14992  MISS:       3138  HIT %:    82.6917  MISS %:    17.3083   MPKI: 0.03138
L2C TRANSLATION FROM L1D PREFETCHER ACCESS:          1  HIT:          1  MISS:          0  HIT %:        100  MISS %:          0   MPKI: 0
L2C PREFETCH  REQUESTED:          0  ISSUED:          0  USEFUL:      75192  USELESS:    1382458
L2C USEFUL LOAD PREFETCHES:      75192 PREFETCH ISSUED TO LOWER LEVEL:    1464206  ACCURACY: 5.13534
L2C TIMELY PREFETCHES:      75192 LATE PREFETCHES: 0 DROPPED PREFETCHES: 0
L2C PREFETCHES SAME FILL-ORIGIN LEVEL: 0 DIFFERENT FILL-ORIGIN LEVEL: 0
L2C AVERAGE MISS LATENCY: 221.584 cycles
L2C RQ	ACCESS:     739746	FORWARD:          0	MERGED:          0	TO_CACHE:     739733
L2C WQ	ACCESS:     867753	FORWARD:         76	MERGED:          0	TO_CACHE:     867753
L2C PQ	ACCESS:    1919885	FORWARD:          0	MERGED:          0	TO_CACHE:    1919822

L2C Instructions Evicting Data 3879
L2C Translations Evicting Data 3130
L2C Data Evicting Data 1916676
L2C Instructions Evicting Instructions 13
L2C Translations Evicting Instructions 8
L2C Data Evicting Instructions 3843
L2C Instructions Evicting Translations 14
L2C Translations Evicting Translations 0
L2C Data Evicting Translations 3108
L2C Dense regions hint from L2: 0
PSCL5 TOTAL     ACCESS:      18002  HIT:      18002  MISS:          0  HIT %:        100  MISS %:          0   MPKI: 0
PSCL5 LOAD TRANSLATION ACCESS:      18001  HIT:      18001  MISS:          0  HIT %:        100  MISS %:          0   MPKI: 0
PSCL5 TRANSLATION FROM L1D PREFETCHER ACCESS:          1  HIT:          1  MISS:          0  HIT %:        100  MISS %:          0   MPKI: 0
PSCL5 PREFETCH  REQUESTED:          0  ISSUED:          0  USEFUL:          0  USELESS:          0
PSCL5 USEFUL LOAD PREFETCHES:          0 PREFETCH ISSUED TO LOWER LEVEL:          0  ACCURACY: -nan
PSCL5 TIMELY PREFETCHES:          0 LATE PREFETCHES: 0 DROPPED PREFETCHES: 0
PSCL5 PREFETCHES SAME FILL-ORIGIN LEVEL: 0 DIFFERENT FILL-ORIGIN LEVEL: 0

PSCL4 TOTAL     ACCESS:      18002  HIT:      18002  MISS:          0  HIT %:        100  MISS %:          0   MPKI: 0
PSCL4 LOAD TRANSLATION ACCESS:      18001  HIT:      18001  MISS:          0  HIT %:        100  MISS %:          0   MPKI: 0
PSCL4 TRANSLATION FROM L1D PREFETCHER ACCESS:          1  HIT:          1  MISS:          0  HIT %:        100  MISS %:          0   MPKI: 0
PSCL4 PREFETCH  REQUESTED:          0  ISSUED:          0  USEFUL:          0  USELESS:          0
PSCL4 USEFUL LOAD PREFETCHES:          0 PREFETCH ISSUED TO LOWER LEVEL:          0  ACCURACY: -nan
PSCL4 TIMELY PREFETCHES:          0 LATE PREFETCHES: 0 DROPPED PREFETCHES: 0
PSCL4 PREFETCHES SAME FILL-ORIGIN LEVEL: 0 DIFFERENT FILL-ORIGIN LEVEL: 0

PSCL3 TOTAL     ACCESS:      18002  HIT:      18002  MISS:          0  HIT %:        100  MISS %:          0   MPKI: 0
PSCL3 LOAD TRANSLATION ACCESS:      18001  HIT:      18001  MISS:          0  HIT %:        100  MISS %:          0   MPKI: 0
PSCL3 TRANSLATION FROM L1D PREFETCHER ACCESS:          1  HIT:          1  MISS:          0  HIT %:        100  MISS %:          0   MPKI: 0
PSCL3 PREFETCH  REQUESTED:          0  ISSUED:          0  USEFUL:          0  USELESS:          0
PSCL3 USEFUL LOAD PREFETCHES:          0 PREFETCH ISSUED TO LOWER LEVEL:          0  ACCURACY: -nan
PSCL3 TIMELY PREFETCHES:          0 LATE PREFETCHES: 0 DROPPED PREFETCHES: 0
PSCL3 PREFETCHES SAME FILL-ORIGIN LEVEL: 0 DIFFERENT FILL-ORIGIN LEVEL: 0

PSCL2 TOTAL     ACCESS:      18002  HIT:      17865  MISS:        137  HIT %:     99.239  MISS %:   0.761027   MPKI: 0.00137
PSCL2 LOAD TRANSLATION ACCESS:      18001  HIT:      17864  MISS:        137  HIT %:    99.2389  MISS %:   0.761069   MPKI: 0.00137
PSCL2 TRANSLATION FROM L1D PREFETCHER ACCESS:          1  HIT:          1  MISS:          0  HIT %:        100  MISS %:          0   MPKI: 0
PSCL2 PREFETCH  REQUESTED:          0  ISSUED:          0  USEFUL:          0  USELESS:          0
PSCL2 USEFUL LOAD PREFETCHES:          0 PREFETCH ISSUED TO LOWER LEVEL:          0  ACCURACY: -nan
PSCL2 TIMELY PREFETCHES:          0 LATE PREFETCHES: 0 DROPPED PREFETCHES: 0
PSCL2 PREFETCHES SAME FILL-ORIGIN LEVEL: 0 DIFFERENT FILL-ORIGIN LEVEL: 0

LLC TOTAL     ACCESS:    2600614  HIT:     703635  MISS:    1896979  HIT %:    27.0565  MISS %:    72.9435   MPKI: 18.9698
LLC LOAD      ACCESS:     223855  HIT:      50138  MISS:     173717  HIT %:    22.3975  MISS %:    77.6025   MPKI: 1.73717
LLC RFO       ACCESS:     239472  HIT:      56640  MISS:     182832  HIT %:     23.652  MISS %:     76.348   MPKI: 1.82832
LLC PREFETCH  ACCESS:    1464204  HIT:     340881  MISS:    1123323  HIT %:     23.281  MISS %:     76.719   MPKI: 11.2332
LLC WRITEBACK ACCESS:     669945  HIT:     255923  MISS:     414022  HIT %:    38.2006  MISS %:    61.7994   MPKI: 4.14022
LLC LOAD TRANSLATION ACCESS:       3138  HIT:         53  MISS:       3085  HIT %:    1.68897  MISS %:     98.311   MPKI: 0.03085
LLC PREFETCH  REQUESTED:          0  ISSUED:          0  USEFUL:       4043  USELESS:    1117098
LLC USEFUL LOAD PREFETCHES:       4043 PREFETCH ISSUED TO LOWER LEVEL:    1123324  ACCURACY: 0.359914
LLC TIMELY PREFETCHES:       4043 LATE PREFETCHES: 0 DROPPED PREFETCHES: 0
LLC PREFETCHES SAME FILL-ORIGIN LEVEL: 0 DIFFERENT FILL-ORIGIN LEVEL: 0
LLC AVERAGE MISS LATENCY: 195.679 cycles
LLC RQ	ACCESS:     466467	FORWARD:          0	MERGED:          0	TO_CACHE:     466466
LLC WQ	ACCESS:     669945	FORWARD:          2	MERGED:          0	TO_CACHE:     669945
LLC PQ	ACCESS:    1464206	FORWARD:          0	MERGED:          0	TO_CACHE:    1464205

LLC Dense regions hint to LLC: 0

RAW hits: 158254
Loads Generated: 33597148
Loads sent to L1D: 33438886
Stores Generated: 5714367
Stores sent to L1D: 5714372
Major fault: 0 Minor fault: 9197
Allocated PAGES: 9197

stream: 
stream:times selected: 3273391
stream:pref_filled: 2099155
stream:pref_useful: 1795023
stream:pref_late: 88187
stream:misses: 21482
stream:misses_by_poll: 0

CS: 
CS:times selected: 2762464
CS:pref_filled: 6492
CS:pref_useful: 2106
CS:pref_late: 541
CS:misses: 7801
CS:misses_by_poll: 45

CPLX: 
CPLX:times selected: 3261457
CPLX:pref_filled: 134056
CPLX:pref_useful: 106734
CPLX:pref_late: 2622
CPLX:misses: 450663
CPLX:misses_by_poll: 1604

NL_L1: 
NL:times selected: 991
NL:pref_filled: 291
NL:pref_useful: 90
NL:pref_late: 7
NL:misses: 718
NL:misses_by_poll: 0

total selections: 9298303
total_filled: 1827157
total_useful: 1572227
total_late: 93357
total_polluted: 1649
total_misses_after_warmup: 472577
conflicts: 95921
Degree Incremented Times: 163668
Degree Decremented Times: 50183

L1 IP Table Write Accesses: 17263258
L1 IP Table Read Accesses: 17167337
L1 RST Write Accesses: 3068886
L1 RST Read Accesses: 6137772
L1 CSPT Write Accesses: 3068886
L1 CSPT Read Accesses: 12036970
L1 RR Filter Tag Write Accesses: 8746022
L1 RR Filter Tag Read Accesses: 683969677
L1 IP Table Tag Write Accesses: 17984030
L1 IP Table Tag Read Accesses: 17984030
L1 RST Tag Write Accesses: 0
L1 RST Tag Read Accesses: 27656495
L1 RR Filter Write Accesses: 0
L1 RR Filter Read Accesses: 28392225
test: 165394

DRAM Statistics
 CHANNEL 0
 RQ ROW_BUFFER_HIT:     368312  ROW_BUFFER_MISS:    1114282
 DBUS_CONGESTED:       1972
 WQ ROW_BUFFER_HIT:      85206  ROW_BUFFER_MISS:     350784  FULL:       7885

 AVG_CONGESTED_CYCLE: 5
 All warmup complete: 2
Channel 0 Bank busy for read cycles: 0
Channel 0 Bank busy for write cycles: 0
Channel 0
Rank 0
0banks busy for read cycles: 39548348
0banks busy for write cycles: 34659
1banks busy for read cycles: 21780315
1banks busy for write cycles: 5300646
2banks busy for read cycles: 11909055
2banks busy for write cycles: 2098474
3banks busy for read cycles: 6107592
3banks busy for write cycles: 1050052
4banks busy for read cycles: 4439931
4banks busy for write cycles: 665467
5banks busy for read cycles: 3966619
5banks busy for write cycles: 511511
6banks busy for read cycles: 4095220
6banks busy for write cycles: 486125
7banks busy for read cycles: 4547513
7banks busy for write cycles: 1091544
8banks busy for read cycles: 4131885
8banks busy for write cycles: 7948740

CPU 0 Branch Prediction Accuracy: 99.8231% MPKI: 0.07731 Average ROB Occupancy at Mispredict: 84.6951
Branch types
NOT_BRANCH: 95630632 95.6306%
BRANCH_DIRECT_JUMP: 17267 0.017267%
BRANCH_INDIRECT: 6 6e-06%
BRANCH_CONDITIONAL: 4299887 4.29989%
BRANCH_DIRECT_CALL: 25986 0.025986%
BRANCH_INDIRECT_CALL: 0 0%
BRANCH_RETURN: 25986 0.025986%
BRANCH_OTHER: 0 0%

DRAM PAGES: 1048576
Allocated PAGES: 9197
