
*** ChampSim Multicore Out-of-Order Simulator ***

Warmup Instructions: 50000000
Simulation Instructions: 100000000
Number of CPUs: 1
LLC sets: 2048
LLC ways: 16
Off-chip DRAM Size: 4096 MB Channels: 1 Width: 64-bit Data Rate: 6400 MT/s
CPU 0 runs ../SPEC_2006_2017//621.wrf_s-8065B.champsimtrace.xz
.xz
NUM_OF_IPS_IN_CRITICAL_IP_TRAINING: 64
NUM_OF_CRITICAL_IP_TRAINING_TABLE_WAYS: 2
NUM_OF_CRITICAL_IP_TRAINING_TABLE_SETS: 32
WOBBLY_CRITICAL_IP_CACHE_SETS: 32
WOBBLY_CRITICAL_IP_CACHE_WAYS: 4
BTB has LRU replacement policy
ITLB has LRU replacement policy
DTLB has LRU replacement policy
STLB has LRU replacement policy
L1I has LRU replacement policy
IP Table Entries: 64
L1D has LRU replacement policy
Initialize SRRIP state for L2C
Initialize DRRIP state for LLC
Heartbeat CPU 0 instructions: 10000002 cycles: 3025556 heartbeat IPC: 3.30518 cumulative IPC: 3.30518 (Simulation time: 0 hr 5 min 45 sec) 
Heartbeat CPU 0 instructions: 20000000 cycles: 6035792 heartbeat IPC: 3.322 cumulative IPC: 3.31357 (Simulation time: 0 hr 10 min 37 sec) 
Heartbeat CPU 0 instructions: 30000000 cycles: 9021315 heartbeat IPC: 3.3495 cumulative IPC: 3.32546 (Simulation time: 0 hr 15 min 29 sec) 
Heartbeat CPU 0 instructions: 40000003 cycles: 12091171 heartbeat IPC: 3.25748 cumulative IPC: 3.3082 (Simulation time: 0 hr 20 min 13 sec) 
Heartbeat CPU 0 instructions: 50000002 cycles: 15092851 heartbeat IPC: 3.33147 cumulative IPC: 3.31283 (Simulation time: 0 hr 24 min 43 sec) 

Warmup complete CPU 0 instructions: 50000002 cycles: 15092851 (Simulation time: 0 hr 24 min 43 sec) 

% increase in all ip prefetch 412.844
% increase in all ip prefetch 0.630228
Heartbeat CPU 0 instructions: 60000003 cycles: 24606207 heartbeat IPC: 1.05115 cumulative IPC: 1.05115 (Simulation time: 0 hr 28 min 22 sec) 
Heartbeat CPU 0 instructions: 70000001 cycles: 35560392 heartbeat IPC: 0.912893 cumulative IPC: 0.977157 (Simulation time: 0 hr 31 min 31 sec) 
Heartbeat CPU 0 instructions: 80000001 cycles: 45380136 heartbeat IPC: 1.01836 cumulative IPC: 0.990515 (Simulation time: 0 hr 35 min 7 sec) 
Heartbeat CPU 0 instructions: 90000000 cycles: 56139514 heartbeat IPC: 0.929422 cumulative IPC: 0.974501 (Simulation time: 0 hr 38 min 4 sec) 
Heartbeat CPU 0 instructions: 100000000 cycles: 66174033 heartbeat IPC: 0.99656 cumulative IPC: 0.978834 (Simulation time: 0 hr 41 min 40 sec) 
Heartbeat CPU 0 instructions: 110000000 cycles: 76748815 heartbeat IPC: 0.945646 cumulative IPC: 0.973142 (Simulation time: 0 hr 44 min 29 sec) 
Heartbeat CPU 0 instructions: 120000000 cycles: 90451506 heartbeat IPC: 0.729784 cumulative IPC: 0.928891 (Simulation time: 0 hr 48 min 28 sec) 
Heartbeat CPU 0 instructions: 130000002 cycles: 104077786 heartbeat IPC: 0.733876 cumulative IPC: 0.899029 (Simulation time: 0 hr 52 min 35 sec) 
Heartbeat CPU 0 instructions: 140000001 cycles: 117707802 heartbeat IPC: 0.733675 cumulative IPC: 0.877065 (Simulation time: 0 hr 56 min 18 sec) 
Heartbeat CPU 0 instructions: 150000002 cycles: 133096026 heartbeat IPC: 0.649848 cumulative IPC: 0.847435 (Simulation time: 0 hr 59 min 51 sec) 
Finished CPU 0 instructions: 100000000 cycles: 118003175 cumulative IPC: 0.847435 (Simulation time: 0 hr 59 min 51 sec) 

ChampSim completed all CPUs

Region of Interest Statistics

CPU 0 cumulative IPC: 0.847435 instructions: 100000000 cycles: 118003175

CPU 0 Average Load ROB stall cycles: 1.55566e+07
CPU 0 Fraction of times ROB stalled by Loads: 21.1025
CPU 0 Percentage of Load stall cycles in Total stall cycles: 3.70518e+08
Issued all: 78151212
Issued LT all: 66827646
rob_not_full_when_issued_lt_all: 31657658
Issued LT one: 52062588
rob_not_full_when_issued_lt_one: 26874877
 Total stall cycles: 95407407
 Total load stall cycles: 353501279492731
CPU 0 NUM of IPS identified critical: 0
CPU 0 Num of Load IPs stalling ROB: 2329
Threshold modification factor: -1
Max PIST entries: 63
Min PIST entries: 0
Avg PIST entries: 29.3
Trouble in retire width: 0.96765
MaC = Marked as critical.
lt_50_percent_before_Mac: 0
gt_90_percent_before_Mac: 0
gt_75_percent_before_Mac: 0
gt_50_percent_before_Mac: 0
stall_proportion_bin_same_before_after: 0
stall_proportion_bin_lower_before_after: 0
stall_proportion_bin_upper_before_after: 0
average_stall_proportion_before: -nan
average_stall_proportion_after: -nan
Critical IP stalls, total frequency: 0
Non-critical IP stalls, total frequency: 4795236
Total Freq all stalling IPs: 4795236
stat_90_percent_critical_ip_stalls_freq: 4318847
stat_90_percent_non_critical_ip_stalls_freq: 476389
Critical_IP_ROB_Stalls_Bucket_0: 0
Non-critical_IP_ROB_Stalls_Bucket_0: 2221753
Critical_IP_ROB_Stalls_Bucket_1: 0
Non-critical_IP_ROB_Stalls_Bucket_1: 406965
Critical_IP_ROB_Stalls_Bucket_2: 0
Non-critical_IP_ROB_Stalls_Bucket_2: 112235
Critical_IP_ROB_Stalls_Bucket_3: 0
Non-critical_IP_ROB_Stalls_Bucket_3: 117172
Critical_IP_ROB_Stalls_Bucket_4: 0
Non-critical_IP_ROB_Stalls_Bucket_4: 81821
Critical_IP_ROB_Stalls_Bucket_5: 0
Non-critical_IP_ROB_Stalls_Bucket_5: 76384
Critical_IP_ROB_Stalls_Bucket_6: 0
Non-critical_IP_ROB_Stalls_Bucket_6: 1778906
0 => IPs accounting for >50 percent of stalls, 1 => 55, 2 => 60, 3 => 65 and so on till 90.
percent50: 50.1515 num IPs:  17
percent55: 56.3086 num IPs: 20
percent60: 60.8811 num IPs: 23
percent65: 65.8441 num IPs: 27
percent70: 70.1176 num IPs: 32
percent75: 75.583 num IPs: 40
percent80: 80.5069 num IPs: 48
percent85: 85.3002 num IPs: 60
percent90: 90.0654 num IPs: 80
Critical_ROB_Stalls_Percent_0_Bucket_0: 714886
Non-critical_ROB_Stalls_Percent_0_Bucket_0: 1506867
Critical_ROB_Stalls_Percent_0_Bucket_1: 66510
Non-critical_ROB_Stalls_Percent_0_Bucket_1: 340455
Critical_ROB_Stalls_Percent_0_Bucket_2: 33277
Non-critical_ROB_Stalls_Percent_0_Bucket_2: 78958
Critical_ROB_Stalls_Percent_0_Bucket_3: 31346
Non-critical_ROB_Stalls_Percent_0_Bucket_3: 85826
Critical_ROB_Stalls_Percent_0_Bucket_4: 27115
Non-critical_ROB_Stalls_Percent_0_Bucket_4: 54706
Critical_ROB_Stalls_Percent_0_Bucket_5: 28817
Non-critical_ROB_Stalls_Percent_0_Bucket_5: 47567
Critical_ROB_Stalls_Percent_0_Bucket_6: 1502932
Non-critical_ROB_Stalls_Percent_0_Bucket_6: 275974
Critical_ROB_Stalls_Percent_1_Bucket_0: 812158
Non-critical_ROB_Stalls_Percent_1_Bucket_0: 1409595
Critical_ROB_Stalls_Percent_1_Bucket_1: 112598
Non-critical_ROB_Stalls_Percent_1_Bucket_1: 294367
Critical_ROB_Stalls_Percent_1_Bucket_2: 44126
Non-critical_ROB_Stalls_Percent_1_Bucket_2: 68109
Critical_ROB_Stalls_Percent_1_Bucket_3: 40352
Non-critical_ROB_Stalls_Percent_1_Bucket_3: 76820
Critical_ROB_Stalls_Percent_1_Bucket_4: 34927
Non-critical_ROB_Stalls_Percent_1_Bucket_4: 46894
Critical_ROB_Stalls_Percent_1_Bucket_5: 43084
Non-critical_ROB_Stalls_Percent_1_Bucket_5: 33300
Critical_ROB_Stalls_Percent_1_Bucket_6: 1612885
Non-critical_ROB_Stalls_Percent_1_Bucket_6: 166021
Critical_ROB_Stalls_Percent_2_Bucket_0: 946248
Non-critical_ROB_Stalls_Percent_2_Bucket_0: 1275505
Critical_ROB_Stalls_Percent_2_Bucket_1: 177987
Non-critical_ROB_Stalls_Percent_2_Bucket_1: 228978
Critical_ROB_Stalls_Percent_2_Bucket_2: 46664
Non-critical_ROB_Stalls_Percent_2_Bucket_2: 65571
Critical_ROB_Stalls_Percent_2_Bucket_3: 43297
Non-critical_ROB_Stalls_Percent_2_Bucket_3: 73875
Critical_ROB_Stalls_Percent_2_Bucket_4: 38345
Non-critical_ROB_Stalls_Percent_2_Bucket_4: 43476
Critical_ROB_Stalls_Percent_2_Bucket_5: 47770
Non-critical_ROB_Stalls_Percent_2_Bucket_5: 28614
Critical_ROB_Stalls_Percent_2_Bucket_6: 1619080
Non-critical_ROB_Stalls_Percent_2_Bucket_6: 159826
Critical_ROB_Stalls_Percent_3_Bucket_0: 1142492
Non-critical_ROB_Stalls_Percent_3_Bucket_0: 1079261
Critical_ROB_Stalls_Percent_3_Bucket_1: 188295
Non-critical_ROB_Stalls_Percent_3_Bucket_1: 218670
Critical_ROB_Stalls_Percent_3_Bucket_2: 63605
Non-critical_ROB_Stalls_Percent_3_Bucket_2: 48630
Critical_ROB_Stalls_Percent_3_Bucket_3: 54387
Non-critical_ROB_Stalls_Percent_3_Bucket_3: 62785
Critical_ROB_Stalls_Percent_3_Bucket_4: 40133
Non-critical_ROB_Stalls_Percent_3_Bucket_4: 41688
Critical_ROB_Stalls_Percent_3_Bucket_5: 48585
Non-critical_ROB_Stalls_Percent_3_Bucket_5: 27799
Critical_ROB_Stalls_Percent_3_Bucket_6: 1619885
Non-critical_ROB_Stalls_Percent_3_Bucket_6: 159021
Critical_ROB_Stalls_Percent_4_Bucket_0: 1334754
Non-critical_ROB_Stalls_Percent_4_Bucket_0: 886999
Critical_ROB_Stalls_Percent_4_Bucket_1: 194671
Non-critical_ROB_Stalls_Percent_4_Bucket_1: 212294
Critical_ROB_Stalls_Percent_4_Bucket_2: 65375
Non-critical_ROB_Stalls_Percent_4_Bucket_2: 46860
Critical_ROB_Stalls_Percent_4_Bucket_3: 56654
Non-critical_ROB_Stalls_Percent_4_Bucket_3: 60518
Critical_ROB_Stalls_Percent_4_Bucket_4: 41100
Non-critical_ROB_Stalls_Percent_4_Bucket_4: 40721
Critical_ROB_Stalls_Percent_4_Bucket_5: 49021
Non-critical_ROB_Stalls_Percent_4_Bucket_5: 27363
Critical_ROB_Stalls_Percent_4_Bucket_6: 1620728
Non-critical_ROB_Stalls_Percent_4_Bucket_6: 158178
Critical_ROB_Stalls_Percent_5_Bucket_0: 1552702
Non-critical_ROB_Stalls_Percent_5_Bucket_0: 669051
Critical_ROB_Stalls_Percent_5_Bucket_1: 204109
Non-critical_ROB_Stalls_Percent_5_Bucket_1: 202856
Critical_ROB_Stalls_Percent_5_Bucket_2: 75935
Non-critical_ROB_Stalls_Percent_5_Bucket_2: 36300
Critical_ROB_Stalls_Percent_5_Bucket_3: 74947
Non-critical_ROB_Stalls_Percent_5_Bucket_3: 42225
Critical_ROB_Stalls_Percent_5_Bucket_4: 44239
Non-critical_ROB_Stalls_Percent_5_Bucket_4: 37582
Critical_ROB_Stalls_Percent_5_Bucket_5: 50407
Non-critical_ROB_Stalls_Percent_5_Bucket_5: 25977
Critical_ROB_Stalls_Percent_5_Bucket_6: 1622044
Non-critical_ROB_Stalls_Percent_5_Bucket_6: 156862
Critical_ROB_Stalls_Percent_6_Bucket_0: 1763133
Non-critical_ROB_Stalls_Percent_6_Bucket_0: 458620
Critical_ROB_Stalls_Percent_6_Bucket_1: 218347
Non-critical_ROB_Stalls_Percent_6_Bucket_1: 188618
Critical_ROB_Stalls_Percent_6_Bucket_2: 79381
Non-critical_ROB_Stalls_Percent_6_Bucket_2: 32854
Critical_ROB_Stalls_Percent_6_Bucket_3: 78137
Non-critical_ROB_Stalls_Percent_6_Bucket_3: 39035
Critical_ROB_Stalls_Percent_6_Bucket_4: 46948
Non-critical_ROB_Stalls_Percent_6_Bucket_4: 34873
Critical_ROB_Stalls_Percent_6_Bucket_5: 51336
Non-critical_ROB_Stalls_Percent_6_Bucket_5: 25048
Critical_ROB_Stalls_Percent_6_Bucket_6: 1623213
Non-critical_ROB_Stalls_Percent_6_Bucket_6: 155693
Critical_ROB_Stalls_Percent_7_Bucket_0: 1907551
Non-critical_ROB_Stalls_Percent_7_Bucket_0: 314202
Critical_ROB_Stalls_Percent_7_Bucket_1: 260310
Non-critical_ROB_Stalls_Percent_7_Bucket_1: 146655
Critical_ROB_Stalls_Percent_7_Bucket_2: 84999
Non-critical_ROB_Stalls_Percent_7_Bucket_2: 27236
Critical_ROB_Stalls_Percent_7_Bucket_3: 92467
Non-critical_ROB_Stalls_Percent_7_Bucket_3: 24705
Critical_ROB_Stalls_Percent_7_Bucket_4: 55085
Non-critical_ROB_Stalls_Percent_7_Bucket_4: 26736
Critical_ROB_Stalls_Percent_7_Bucket_5: 56724
Non-critical_ROB_Stalls_Percent_7_Bucket_5: 19660
Critical_ROB_Stalls_Percent_7_Bucket_6: 1633210
Non-critical_ROB_Stalls_Percent_7_Bucket_6: 145696
Critical_ROB_Stalls_Percent_8_Bucket_0: 1976241
Non-critical_ROB_Stalls_Percent_8_Bucket_0: 245512
Critical_ROB_Stalls_Percent_8_Bucket_1: 313237
Non-critical_ROB_Stalls_Percent_8_Bucket_1: 93728
Critical_ROB_Stalls_Percent_8_Bucket_2: 93298
Non-critical_ROB_Stalls_Percent_8_Bucket_2: 18937
Critical_ROB_Stalls_Percent_8_Bucket_3: 100173
Non-critical_ROB_Stalls_Percent_8_Bucket_3: 16999
Critical_ROB_Stalls_Percent_8_Bucket_4: 64026
Non-critical_ROB_Stalls_Percent_8_Bucket_4: 17795
Critical_ROB_Stalls_Percent_8_Bucket_5: 63380
Non-critical_ROB_Stalls_Percent_8_Bucket_5: 13004
Critical_ROB_Stalls_Percent_8_Bucket_6: 1708492
Non-critical_ROB_Stalls_Percent_8_Bucket_6: 70414
Average ROB occupancy Load Stall Begin: 154.494
Average ROB occupancy Load Stall End: 162.892
Min ROB occupancy Load Stall Begin: 1
Max ROB occupancy Load Stall Begin: 352
Min ROB occupancy Load Stall End: 1
Max ROB occupancy Load Stall End: 352
Average ROB occupancy Critical Load Stall Begin: -nan
Average ROB occupancy Critical Load Stall End: -nan
Min ROB occupancy Critical Load Stall Begin: 400
Max ROB occupancy Critical Load Stall Begin: 0
Min ROB occupancy Critical Load Stall End: 400
Max ROB occupancy Critical Load Stall End: 0
 ROB Load Stall Begin Bucket Count 0: 2386904
 ROB Load Stall End Bucket Count 0: 2221753
 ROB Critical Load Stall Begin Bucket Count 0: 0
 ROB Critical Load Stall End Bucket Count 0: 0
 ROB Load Stall Begin Bucket Count 1: 298327
 ROB Load Stall End Bucket Count 1: 406965
 ROB Critical Load Stall Begin Bucket Count 1: 0
 ROB Critical Load Stall End Bucket Count 1: 0
 ROB Load Stall Begin Bucket Count 2: 106064
 ROB Load Stall End Bucket Count 2: 112235
 ROB Critical Load Stall Begin Bucket Count 2: 0
 ROB Critical Load Stall End Bucket Count 2: 0
 ROB Load Stall Begin Bucket Count 3: 110805
 ROB Load Stall End Bucket Count 3: 117172
 ROB Critical Load Stall Begin Bucket Count 3: 0
 ROB Critical Load Stall End Bucket Count 3: 0
 ROB Load Stall Begin Bucket Count 4: 76763
 ROB Load Stall End Bucket Count 4: 81821
 ROB Critical Load Stall Begin Bucket Count 4: 0
 ROB Critical Load Stall End Bucket Count 4: 0
 ROB Load Stall Begin Bucket Count 5: 72796
 ROB Load Stall End Bucket Count 5: 76384
 ROB Critical Load Stall Begin Bucket Count 5: 0
 ROB Critical Load Stall End Bucket Count 5: 0
 ROB Load Stall Begin Bucket Count 6: 1743577
 ROB Load Stall End Bucket Count 6: 1778906
 ROB Critical Load Stall Begin Bucket Count 6: 0
 ROB Critical Load Stall End Bucket Count 6: 0
PIST Tag Read Accesses: 647280
PIST Read Accesses: 323640
PIST Tag Write Accesses: 647280
PIST Write Accesses: 323640
Criticality detector called times: 1134919
Max global_stall_cycles_count: 1745229
Threshold Modified: 1 times, factor: -1
Sturdy critical IP cache stats: 
 Unused entries: 0
CIC Tag Read Accesses: 0
CIC Read Accesses: 0
CIC Tag Write Accesses: 0
CIC Write Accesses: 0
Wobbly critical IP cache stats: 
 Unused entries: 21
CIC Tag Read Accesses: 177135319
CIC Read Accesses: 0
CIC Tag Write Accesses: 2660321
CIC Write Accesses: 0
ITLB TOTAL     ACCESS:   14859372  HIT:   14859328  MISS:         44  HIT %:    99.9997  MISS %: 0.000296109   MPKI: 0.00044
ITLB LOAD TRANSLATION ACCESS:   14859372  HIT:   14859328  MISS:         44  HIT %:    99.9997  MISS %: 0.000296109   MPKI: 0.00044
ITLB PREFETCH  REQUESTED:          0  ISSUED:          0  USEFUL:          0  USELESS:          0
ITLB USEFUL LOAD PREFETCHES:          0 PREFETCH ISSUED TO LOWER LEVEL:          0  ACCURACY: -nan
ITLB TIMELY PREFETCHES:          0 LATE PREFETCHES: 0 DROPPED PREFETCHES: 0
ITLB PREFETCHES SAME FILL-ORIGIN LEVEL: 0 DIFFERENT FILL-ORIGIN LEVEL: 0
ITLB AVERAGE MISS LATENCY: 253.636 cycles
ITLB RQ	ACCESS:   18252006	FORWARD:          0	MERGED:    3392619	TO_CACHE:   14859387

DTLB TOTAL     ACCESS:   19723082  HIT:   19678999  MISS:      44083  HIT %:    99.7765  MISS %:    0.22351   MPKI: 0.44083
DTLB LOAD TRANSLATION ACCESS:   19723082  HIT:   19678999  MISS:      44083  HIT %:    99.7765  MISS %:    0.22351   MPKI: 0.44083
DTLB PREFETCH  REQUESTED:          0  ISSUED:          0  USEFUL:          0  USELESS:          0
DTLB USEFUL LOAD PREFETCHES:          0 PREFETCH ISSUED TO LOWER LEVEL:          0  ACCURACY: -nan
DTLB TIMELY PREFETCHES:          0 LATE PREFETCHES: 0 DROPPED PREFETCHES: 0
DTLB PREFETCHES SAME FILL-ORIGIN LEVEL: 0 DIFFERENT FILL-ORIGIN LEVEL: 0
DTLB AVERAGE MISS LATENCY: 25.2364 cycles
DTLB RQ	ACCESS:   22134477	FORWARD:          0	MERGED:    2393698	TO_CACHE:   19740779

STLB TOTAL     ACCESS:     674215  HIT:     668322  MISS:       5893  HIT %:    99.1259  MISS %:   0.874054   MPKI: 0.05893
STLB LOAD TRANSLATION ACCESS:      44127  HIT:      38234  MISS:       5893  HIT %:    86.6454  MISS %:    13.3546   MPKI: 0.05893
STLB TRANSLATION FROM L1D PREFETCHER ACCESS:     630088  HIT:     630088  MISS:          0  HIT %:        100  MISS %:          0   MPKI: 0
STLB PREFETCH  REQUESTED:          0  ISSUED:          0  USEFUL:          0  USELESS:          0
STLB USEFUL LOAD PREFETCHES:          0 PREFETCH ISSUED TO LOWER LEVEL:          0  ACCURACY: -nan
STLB TIMELY PREFETCHES:          0 LATE PREFETCHES: 0 DROPPED PREFETCHES: 0
STLB PREFETCHES SAME FILL-ORIGIN LEVEL: 0 DIFFERENT FILL-ORIGIN LEVEL: 0
STLB AVERAGE MISS LATENCY: 122.07 cycles
STLB RQ	ACCESS:    1343266	FORWARD:          0	MERGED:     669052	TO_CACHE:     674214

STLB Hit, L1D data hit: 0
STLB Hit, L2C data hit: 0
STLB Hit, LLC data hit: 0
STLB Hit, LLC data miss: 0
STLB STLB hints to L2: 0
L1D TOTAL     ACCESS:   22669152  HIT:   21497736  MISS:    1171416  HIT %:    94.8326  MISS %:    5.16745   MPKI: 11.7142
L1D LOAD      ACCESS:   17930858  HIT:   17606548  MISS:     324310  HIT %:    98.1913  MISS %:    1.80867   MPKI: 3.2431
L1D RFO       ACCESS:    3468836  HIT:    3247671  MISS:     221165  HIT %:    93.6242  MISS %:    6.37577   MPKI: 2.21165
L1D PREFETCH  ACCESS:    1269458  HIT:     643517  MISS:     625941  HIT %:    50.6923  MISS %:    49.3077   MPKI: 6.25941
L1D PREFETCH  REQUESTED:    2920822  ISSUED:    2598319  USEFUL:     525849  USELESS:     100100
L1D USEFUL LOAD PREFETCHES:     525849 PREFETCH ISSUED TO LOWER LEVEL:     643395  ACCURACY: 81.7304
L1D TIMELY PREFETCHES:     525849 LATE PREFETCHES: 16861 DROPPED PREFETCHES: 0
L1D PREFETCHES SAME FILL-ORIGIN LEVEL: 643395 DIFFERENT FILL-ORIGIN LEVEL: 0
L1D AVERAGE MISS LATENCY: 1.16598e+06 cycles
L1D RQ	ACCESS:   25974087	FORWARD:          0	MERGED:    7898847	TO_CACHE:   18069029
L1D WQ	ACCESS:    4083148	FORWARD:       6245	MERGED:      17700	TO_CACHE:    4065448
L1D PQ	ACCESS:    1299180	FORWARD:          0	MERGED:          7	TO_CACHE:    1299139

L1D UNIQUE REGIONS ACCESSED: 0
L1D REGIONS CONFLICTS: 0
L1D Cross Page Prefetch Requests: 0
L1D Same Page Prefetch Requests: 4971049
L1D ROI Sum of L1D PQ occupancy: 43640252
L1D PREFETCHES PUSHED FROM L2C: 0
L1I TOTAL     ACCESS:   18250946  HIT:   18248870  MISS:       2076  HIT %:    99.9886  MISS %:  0.0113748   MPKI: 0.02076
L1I LOAD      ACCESS:   18250946  HIT:   18248870  MISS:       2076  HIT %:    99.9886  MISS %:  0.0113748   MPKI: 0.02076
L1I PREFETCH  REQUESTED:          0  ISSUED:          0  USEFUL:          0  USELESS:          0
L1I USEFUL LOAD PREFETCHES:          0 PREFETCH ISSUED TO LOWER LEVEL:          0  ACCURACY: -nan
L1I TIMELY PREFETCHES:          0 LATE PREFETCHES: 0 DROPPED PREFETCHES: 0
L1I PREFETCHES SAME FILL-ORIGIN LEVEL: 0 DIFFERENT FILL-ORIGIN LEVEL: 0
L1I AVERAGE MISS LATENCY: 223.388 cycles
L1I RQ	ACCESS:   28757586	FORWARD:          0	MERGED:   10505580	TO_CACHE:   18252006

BTB TOTAL     ACCESS:    4428779  HIT:    4427955  MISS:        824  HIT %:    99.9814  MISS %:  0.0186056   MPKI: 0.00824
BTB BRANCH_DIRECT_JUMP	ACCESS:     279102  HIT:     279036  MISS:         66
BTB BRANCH_INDIRECT	ACCESS:          6  HIT:          4  MISS:          2
BTB BRANCH_CONDITIONAL	ACCESS:    3632374  HIT:    3632023  MISS:        351
BTB BRANCH_DIRECT_CALL	ACCESS:     258649  HIT:     258495  MISS:        154
BTB BRANCH_INDIRECT_CALL	ACCESS:          0  HIT:          0  MISS:          0
BTB BRANCH_RETURN	ACCESS:     258648  HIT:     258397  MISS:        251
BTB BRANCH_OTHER ACCESS:          0  HIT:          0  MISS:          0

L2C TOTAL     ACCESS:    1620093  HIT:     761150  MISS:     858943  HIT %:    46.9819  MISS %:    53.0181   MPKI: 8.58943
L2C LOAD      ACCESS:     309524  HIT:     133975  MISS:     175549  HIT %:    43.2842  MISS %:    56.7158   MPKI: 1.75549
L2C DATA LOAD MPKI: 1.73473
L2C INSTRUCTION LOAD MPKI: 0.02076
L2C RFO       ACCESS:     220576  HIT:      27684  MISS:     192892  HIT %:    12.5508  MISS %:    87.4492   MPKI: 1.92892
L2C PREFETCH  ACCESS:     643383  HIT:     158501  MISS:     484882  HIT %:    24.6356  MISS %:    75.3644   MPKI: 4.84882
L2C DATA PREFETCH MPKI: 4.84882
L2C INSTRUCTION PREFETCH MPKI: 0
L2C WRITEBACK ACCESS:     440698  HIT:     436165  MISS:       4533  HIT %:    98.9714  MISS %:     1.0286   MPKI: 0.04533
L2C LOAD TRANSLATION ACCESS:       5912  HIT:       4825  MISS:       1087  HIT %:    81.6137  MISS %:    18.3863   MPKI: 0.01087
L2C PREFETCH  REQUESTED:          0  ISSUED:          0  USEFUL:      19284  USELESS:     466570
L2C USEFUL LOAD PREFETCHES:      19284 PREFETCH ISSUED TO LOWER LEVEL:     484887  ACCURACY: 3.97701
L2C TIMELY PREFETCHES:      19284 LATE PREFETCHES: 0 DROPPED PREFETCHES: 0
L2C PREFETCHES SAME FILL-ORIGIN LEVEL: 0 DIFFERENT FILL-ORIGIN LEVEL: 0
L2C AVERAGE MISS LATENCY: 202.438 cycles
L2C RQ	ACCESS:     536016	FORWARD:          0	MERGED:          0	TO_CACHE:     536014
L2C WQ	ACCESS:     440699	FORWARD:          9	MERGED:          0	TO_CACHE:     440699
L2C PQ	ACCESS:     643395	FORWARD:          0	MERGED:          0	TO_CACHE:     643388

L2C Instructions Evicting Data 2073
L2C Translations Evicting Data 1085
L2C Data Evicting Data 848118
L2C Instructions Evicting Instructions 0
L2C Translations Evicting Instructions 2
L2C Data Evicting Instructions 2069
L2C Instructions Evicting Translations 3
L2C Translations Evicting Translations 0
L2C Data Evicting Translations 1060
L2C Dense regions hint from L2: 0
PSCL5 TOTAL     ACCESS:       5893  HIT:       5893  MISS:          0  HIT %:        100  MISS %:          0   MPKI: 0
PSCL5 LOAD TRANSLATION ACCESS:       5893  HIT:       5893  MISS:          0  HIT %:        100  MISS %:          0   MPKI: 0
PSCL5 PREFETCH  REQUESTED:          0  ISSUED:          0  USEFUL:          0  USELESS:          0
PSCL5 USEFUL LOAD PREFETCHES:          0 PREFETCH ISSUED TO LOWER LEVEL:          0  ACCURACY: -nan
PSCL5 TIMELY PREFETCHES:          0 LATE PREFETCHES: 0 DROPPED PREFETCHES: 0
PSCL5 PREFETCHES SAME FILL-ORIGIN LEVEL: 0 DIFFERENT FILL-ORIGIN LEVEL: 0

PSCL4 TOTAL     ACCESS:       5893  HIT:       5893  MISS:          0  HIT %:        100  MISS %:          0   MPKI: 0
PSCL4 LOAD TRANSLATION ACCESS:       5893  HIT:       5893  MISS:          0  HIT %:        100  MISS %:          0   MPKI: 0
PSCL4 PREFETCH  REQUESTED:          0  ISSUED:          0  USEFUL:          0  USELESS:          0
PSCL4 USEFUL LOAD PREFETCHES:          0 PREFETCH ISSUED TO LOWER LEVEL:          0  ACCURACY: -nan
PSCL4 TIMELY PREFETCHES:          0 LATE PREFETCHES: 0 DROPPED PREFETCHES: 0
PSCL4 PREFETCHES SAME FILL-ORIGIN LEVEL: 0 DIFFERENT FILL-ORIGIN LEVEL: 0

PSCL3 TOTAL     ACCESS:       5893  HIT:       5893  MISS:          0  HIT %:        100  MISS %:          0   MPKI: 0
PSCL3 LOAD TRANSLATION ACCESS:       5893  HIT:       5893  MISS:          0  HIT %:        100  MISS %:          0   MPKI: 0
PSCL3 PREFETCH  REQUESTED:          0  ISSUED:          0  USEFUL:          0  USELESS:          0
PSCL3 USEFUL LOAD PREFETCHES:          0 PREFETCH ISSUED TO LOWER LEVEL:          0  ACCURACY: -nan
PSCL3 TIMELY PREFETCHES:          0 LATE PREFETCHES: 0 DROPPED PREFETCHES: 0
PSCL3 PREFETCHES SAME FILL-ORIGIN LEVEL: 0 DIFFERENT FILL-ORIGIN LEVEL: 0

PSCL2 TOTAL     ACCESS:       5893  HIT:       5870  MISS:         23  HIT %:    99.6097  MISS %:   0.390294   MPKI: 0.00023
PSCL2 LOAD TRANSLATION ACCESS:       5893  HIT:       5870  MISS:         23  HIT %:    99.6097  MISS %:   0.390294   MPKI: 0.00023
PSCL2 PREFETCH  REQUESTED:          0  ISSUED:          0  USEFUL:          0  USELESS:          0
PSCL2 USEFUL LOAD PREFETCHES:          0 PREFETCH ISSUED TO LOWER LEVEL:          0  ACCURACY: -nan
PSCL2 TIMELY PREFETCHES:          0 LATE PREFETCHES: 0 DROPPED PREFETCHES: 0
PSCL2 PREFETCHES SAME FILL-ORIGIN LEVEL: 0 DIFFERENT FILL-ORIGIN LEVEL: 0

LLC TOTAL     ACCESS:    1242720  HIT:     651339  MISS:     591381  HIT %:    52.4124  MISS %:    47.5876   MPKI: 5.91381
LLC LOAD      ACCESS:     175549  HIT:      84779  MISS:      90770  HIT %:    48.2936  MISS %:    51.7064   MPKI: 0.9077
LLC RFO       ACCESS:     192891  HIT:      25671  MISS:     167220  HIT %:    13.3086  MISS %:    86.6914   MPKI: 1.6722
LLC PREFETCH  ACCESS:     484880  HIT:     163513  MISS:     321367  HIT %:    33.7224  MISS %:    66.2776   MPKI: 3.21367
LLC WRITEBACK ACCESS:     388313  HIT:     377289  MISS:      11024  HIT %:    97.1611  MISS %:    2.83895   MPKI: 0.11024
LLC LOAD TRANSLATION ACCESS:       1087  HIT:         87  MISS:       1000  HIT %:    8.00368  MISS %:    91.9963   MPKI: 0.01
LLC PREFETCH  REQUESTED:          0  ISSUED:          0  USEFUL:      40672  USELESS:     288754
LLC USEFUL LOAD PREFETCHES:      40672 PREFETCH ISSUED TO LOWER LEVEL:     321369  ACCURACY: 12.6559
LLC TIMELY PREFETCHES:      40672 LATE PREFETCHES: 0 DROPPED PREFETCHES: 0
LLC PREFETCHES SAME FILL-ORIGIN LEVEL: 0 DIFFERENT FILL-ORIGIN LEVEL: 0
LLC AVERAGE MISS LATENCY: 250.402 cycles
LLC RQ	ACCESS:     369529	FORWARD:          0	MERGED:          0	TO_CACHE:     369528
LLC WQ	ACCESS:     388314	FORWARD:          3	MERGED:          0	TO_CACHE:     388314
LLC PQ	ACCESS:     484887	FORWARD:          0	MERGED:          0	TO_CACHE:     484885

LLC Dense regions hint to LLC: 0

RAW hits: 85950
Loads Generated: 26060038
Loads sent to L1D: 25974087
Stores Generated: 4083143
Stores sent to L1D: 4083148
Major fault: 0 Minor fault: 6967
Allocated PAGES: 6967

stream: 
stream:times selected: 2432090
stream:pref_filled: 1412146
stream:pref_useful: 1159088
stream:pref_late: 17438
stream:misses: 15137
stream:misses_by_poll: 0

CS: 
CS:times selected: 2103876
CS:pref_filled: 91997
CS:pref_useful: 63586
CS:pref_late: 576
CS:misses: 162102
CS:misses_by_poll: 203

CPLX: 
CPLX:times selected: 328067
CPLX:pref_filled: 30556
CPLX:pref_useful: 22015
CPLX:pref_late: 256
CPLX:misses: 44003
CPLX:misses_by_poll: 29

NL_L1: 
NL:times selected: 625
NL:pref_filled: 285
NL:pref_useful: 17
NL:pref_late: 3
NL:misses: 379
NL:misses_by_poll: 0

total selections: 4864658
total_filled: 625941
total_useful: 525849
total_late: 18842
total_polluted: 232
total_misses_after_warmup: 185274
conflicts: 76206
Degree Incremented Times: 136027
Degree Decremented Times: 86

L1 IP Table Write Accesses: 9804772
L1 IP Table Read Accesses: 9728566
L1 RST Write Accesses: 841751
L1 RST Read Accesses: 1683502
L1 CSPT Write Accesses: 841751
L1 CSPT Read Accesses: 1154269
L1 RR Filter Tag Write Accesses: 1621683
L1 RR Filter Tag Read Accesses: 173064934
L1 IP Table Tag Write Accesses: 10545877
L1 IP Table Tag Read Accesses: 10545877
L1 RST Tag Write Accesses: 0
L1 RST Tag Read Accesses: 7507331
L1 RR Filter Write Accesses: 0
L1 RR Filter Read Accesses: 7111713
test: 118907

DRAM Statistics
 CHANNEL 0
 RQ ROW_BUFFER_HIT:     163736  ROW_BUFFER_MISS:     416303
 DBUS_CONGESTED:        461
 WQ ROW_BUFFER_HIT:      45009  ROW_BUFFER_MISS:     231871  FULL:          0

 AVG_CONGESTED_CYCLE: 4
 All warmup complete: 2
Channel 0 Bank busy for read cycles: 0
Channel 0 Bank busy for write cycles: 0
Channel 0
Rank 0
0banks busy for read cycles: 74379112
0banks busy for write cycles: 50502
1banks busy for read cycles: 14893831
1banks busy for write cycles: 5962303
2banks busy for read cycles: 6090021
2banks busy for write cycles: 2074702
3banks busy for read cycles: 1973934
3banks busy for write cycles: 825297
4banks busy for read cycles: 1208652
4banks busy for write cycles: 475800
5banks busy for read cycles: 1027942
5banks busy for write cycles: 360269
6banks busy for read cycles: 1029734
6banks busy for write cycles: 302112
7banks busy for read cycles: 1313771
7banks busy for write cycles: 552978
8banks busy for read cycles: 1772861
8banks busy for write cycles: 3709355

CPU 0 Branch Prediction Accuracy: 99.89% MPKI: 0.07455 Average ROB Occupancy at Mispredict: 171.852
Branch types
NOT_BRANCH: 93224452 93.2245%
BRANCH_DIRECT_JUMP: 279102 0.279102%
BRANCH_INDIRECT: 6 6e-06%
BRANCH_CONDITIONAL: 5979039 5.97904%
BRANCH_DIRECT_CALL: 258649 0.258649%
BRANCH_INDIRECT_CALL: 0 0%
BRANCH_RETURN: 258648 0.258648%
BRANCH_OTHER: 0 0%

DRAM PAGES: 1048576
Allocated PAGES: 6967
