
*** ChampSim Multicore Out-of-Order Simulator ***

Warmup Instructions: 50000000
Simulation Instructions: 100000000
Number of CPUs: 1
LLC sets: 2048
LLC ways: 16
Off-chip DRAM Size: 4096 MB Channels: 1 Width: 64-bit Data Rate: 6400 MT/s
CPU 0 runs ../SPEC2017//621.wrf_s-8065B.champsimtrace.xz
.xz
NUM_OF_IPS_IN_CRITICAL_IP_TRAINING: 64
NUM_OF_CRITICAL_IP_TRAINING_TABLE_WAYS: 2
NUM_OF_CRITICAL_IP_TRAINING_TABLE_SETS: 32
WOBBLY_CRITICAL_IP_CACHE_SETS: 32
WOBBLY_CRITICAL_IP_CACHE_WAYS: 4
BTB has LRU replacement policy
ITLB has LRU replacement policy
DTLB has LRU replacement policy
STLB has LRU replacement policy
L1I has LRU replacement policy
L1D has LRU replacement policy
Bingo PHT WAYS: 16 and PHT_SIZE: 16384
Initialize SRRIP state for L2C
Initialize DRRIP state for LLC
Heartbeat CPU 0 instructions: 10000002 cycles: 3030817 heartbeat IPC: 3.29944 cumulative IPC: 3.29944 (Simulation time: 0 hr 4 min 59 sec) 
Heartbeat CPU 0 instructions: 20000000 cycles: 6041416 heartbeat IPC: 3.3216 cumulative IPC: 3.31048 (Simulation time: 0 hr 9 min 12 sec) 
Heartbeat CPU 0 instructions: 30000003 cycles: 9027086 heartbeat IPC: 3.34933 cumulative IPC: 3.32333 (Simulation time: 0 hr 13 min 4 sec) 
Heartbeat CPU 0 instructions: 40000003 cycles: 12097308 heartbeat IPC: 3.25709 cumulative IPC: 3.30652 (Simulation time: 0 hr 16 min 26 sec) 
Heartbeat CPU 0 instructions: 50000003 cycles: 15099131 heartbeat IPC: 3.33131 cumulative IPC: 3.31145 (Simulation time: 0 hr 19 min 34 sec) 

Warmup complete CPU 0 instructions: 50000003 cycles: 15099131 (Simulation time: 0 hr 19 min 34 sec) 

% increase in all ip prefetch 339.871
% increase in all ip prefetch -0.0492103
Heartbeat CPU 0 instructions: 60000003 cycles: 24202480 heartbeat IPC: 1.0985 cumulative IPC: 1.0985 (Simulation time: 0 hr 23 min 11 sec) 
Heartbeat CPU 0 instructions: 70000003 cycles: 35130726 heartbeat IPC: 0.91506 cumulative IPC: 0.998423 (Simulation time: 0 hr 26 min 28 sec) 
Heartbeat CPU 0 instructions: 80000001 cycles: 44501412 heartbeat IPC: 1.06716 cumulative IPC: 1.02033 (Simulation time: 0 hr 29 min 44 sec) 
Heartbeat CPU 0 instructions: 90000000 cycles: 55248300 heartbeat IPC: 0.930502 cumulative IPC: 0.996285 (Simulation time: 0 hr 32 min 48 sec) 
Heartbeat CPU 0 instructions: 100000000 cycles: 64814261 heartbeat IPC: 1.04537 cumulative IPC: 1.00573 (Simulation time: 0 hr 35 min 46 sec) 
Heartbeat CPU 0 instructions: 110000000 cycles: 75379717 heartbeat IPC: 0.946481 cumulative IPC: 0.995345 (Simulation time: 0 hr 38 min 24 sec) 
Heartbeat CPU 0 instructions: 120000000 cycles: 89003597 heartbeat IPC: 0.734005 cumulative IPC: 0.947169 (Simulation time: 0 hr 42 min 1 sec) 
Heartbeat CPU 0 instructions: 130000002 cycles: 102682096 heartbeat IPC: 0.731075 cumulative IPC: 0.91342 (Simulation time: 0 hr 45 min 46 sec) 
Heartbeat CPU 0 instructions: 140000001 cycles: 116356582 heartbeat IPC: 0.731289 cumulative IPC: 0.888823 (Simulation time: 0 hr 49 min 12 sec) 
Heartbeat CPU 0 instructions: 150000002 cycles: 131180702 heartbeat IPC: 0.674576 cumulative IPC: 0.861463 (Simulation time: 0 hr 55 min 43 sec) 
Finished CPU 0 instructions: 100000003 cycles: 116081572 cumulative IPC: 0.861463 (Simulation time: 0 hr 55 min 43 sec) 

ChampSim completed all CPUs

Region of Interest Statistics

CPU 0 cumulative IPC: 0.861463 instructions: 100000003 cycles: 116081572

CPU 0 Average Load ROB stall cycles: 1.51119e+07
CPU 0 Fraction of times ROB stalled by Loads: 21.634
CPU 0 Percentage of Load stall cycles in Total stall cycles: 3.98583e+08
Issued all: 76192544
Issued LT all: 64796705
rob_not_full_when_issued_lt_all: 31698957
Issued LT one: 50166930
rob_not_full_when_issued_lt_one: 26920402
 Total stall cycles: 94636850
 Total load stall cycles: 377206755184805
CPU 0 NUM of IPS identified critical: 0
CPU 0 Num of Load IPs stalling ROB: 2369
Threshold modification factor: -1
Max PIST entries: 64
Min PIST entries: 0
Avg PIST entries: 29.64
Trouble in retire width: 0.972021
MaC = Marked as critical.
lt_50_percent_before_Mac: 0
gt_90_percent_before_Mac: 0
gt_75_percent_before_Mac: 0
gt_50_percent_before_Mac: 0
stall_proportion_bin_same_before_after: 0
stall_proportion_bin_lower_before_after: 0
stall_proportion_bin_upper_before_after: 0
average_stall_proportion_before: -nan
average_stall_proportion_after: -nan
Critical IP stalls, total frequency: 0
Non-critical IP stalls, total frequency: 5400031
Total Freq all stalling IPs: 5400031
stat_90_percent_critical_ip_stalls_freq: 4868601
stat_90_percent_non_critical_ip_stalls_freq: 531430
Critical_IP_ROB_Stalls_Bucket_0: 0
Non-critical_IP_ROB_Stalls_Bucket_0: 2765925
Critical_IP_ROB_Stalls_Bucket_1: 0
Non-critical_IP_ROB_Stalls_Bucket_1: 646086
Critical_IP_ROB_Stalls_Bucket_2: 0
Non-critical_IP_ROB_Stalls_Bucket_2: 91052
Critical_IP_ROB_Stalls_Bucket_3: 0
Non-critical_IP_ROB_Stalls_Bucket_3: 58221
Critical_IP_ROB_Stalls_Bucket_4: 0
Non-critical_IP_ROB_Stalls_Bucket_4: 47881
Critical_IP_ROB_Stalls_Bucket_5: 0
Non-critical_IP_ROB_Stalls_Bucket_5: 47044
Critical_IP_ROB_Stalls_Bucket_6: 0
Non-critical_IP_ROB_Stalls_Bucket_6: 1743822
0 => IPs accounting for >50 percent of stalls, 1 => 55, 2 => 60, 3 => 65 and so on till 90.
percent50: 51.6944 num IPs:  20
percent55: 55.5311 num IPs: 23
percent60: 60.5644 num IPs: 27
percent65: 65.3772 num IPs: 31
percent70: 70.8098 num IPs: 36
percent75: 75.3409 num IPs: 41
percent80: 80.266 num IPs: 48
percent85: 85.3368 num IPs: 60
percent90: 90.1588 num IPs: 80
Critical_ROB_Stalls_Percent_0_Bucket_0: 745630
Non-critical_ROB_Stalls_Percent_0_Bucket_0: 2020295
Critical_ROB_Stalls_Percent_0_Bucket_1: 280873
Non-critical_ROB_Stalls_Percent_0_Bucket_1: 365213
Critical_ROB_Stalls_Percent_0_Bucket_2: 53792
Non-critical_ROB_Stalls_Percent_0_Bucket_2: 37260
Critical_ROB_Stalls_Percent_0_Bucket_3: 34163
Non-critical_ROB_Stalls_Percent_0_Bucket_3: 24058
Critical_ROB_Stalls_Percent_0_Bucket_4: 29133
Non-critical_ROB_Stalls_Percent_0_Bucket_4: 18748
Critical_ROB_Stalls_Percent_0_Bucket_5: 31744
Non-critical_ROB_Stalls_Percent_0_Bucket_5: 15300
Critical_ROB_Stalls_Percent_0_Bucket_6: 1616177
Non-critical_ROB_Stalls_Percent_0_Bucket_6: 127645
Critical_ROB_Stalls_Percent_1_Bucket_0: 944430
Non-critical_ROB_Stalls_Percent_1_Bucket_0: 1821495
Critical_ROB_Stalls_Percent_1_Bucket_1: 283086
Non-critical_ROB_Stalls_Percent_1_Bucket_1: 363000
Critical_ROB_Stalls_Percent_1_Bucket_2: 55392
Non-critical_ROB_Stalls_Percent_1_Bucket_2: 35660
Critical_ROB_Stalls_Percent_1_Bucket_3: 37056
Non-critical_ROB_Stalls_Percent_1_Bucket_3: 21165
Critical_ROB_Stalls_Percent_1_Bucket_4: 29736
Non-critical_ROB_Stalls_Percent_1_Bucket_4: 18145
Critical_ROB_Stalls_Percent_1_Bucket_5: 32334
Non-critical_ROB_Stalls_Percent_1_Bucket_5: 14710
Critical_ROB_Stalls_Percent_1_Bucket_6: 1616661
Non-critical_ROB_Stalls_Percent_1_Bucket_6: 127161
Critical_ROB_Stalls_Percent_2_Bucket_0: 1208486
Non-critical_ROB_Stalls_Percent_2_Bucket_0: 1557439
Critical_ROB_Stalls_Percent_2_Bucket_1: 288809
Non-critical_ROB_Stalls_Percent_2_Bucket_1: 357277
Critical_ROB_Stalls_Percent_2_Bucket_2: 55729
Non-critical_ROB_Stalls_Percent_2_Bucket_2: 35323
Critical_ROB_Stalls_Percent_2_Bucket_3: 37463
Non-critical_ROB_Stalls_Percent_2_Bucket_3: 20758
Critical_ROB_Stalls_Percent_2_Bucket_4: 30338
Non-critical_ROB_Stalls_Percent_2_Bucket_4: 17543
Critical_ROB_Stalls_Percent_2_Bucket_5: 32544
Non-critical_ROB_Stalls_Percent_2_Bucket_5: 14500
Critical_ROB_Stalls_Percent_2_Bucket_6: 1617130
Non-critical_ROB_Stalls_Percent_2_Bucket_6: 126692
Critical_ROB_Stalls_Percent_3_Bucket_0: 1446747
Non-critical_ROB_Stalls_Percent_3_Bucket_0: 1319178
Critical_ROB_Stalls_Percent_3_Bucket_1: 307793
Non-critical_ROB_Stalls_Percent_3_Bucket_1: 338293
Critical_ROB_Stalls_Percent_3_Bucket_2: 56537
Non-critical_ROB_Stalls_Percent_3_Bucket_2: 34515
Critical_ROB_Stalls_Percent_3_Bucket_3: 38418
Non-critical_ROB_Stalls_Percent_3_Bucket_3: 19803
Critical_ROB_Stalls_Percent_3_Bucket_4: 30709
Non-critical_ROB_Stalls_Percent_3_Bucket_4: 17172
Critical_ROB_Stalls_Percent_3_Bucket_5: 32945
Non-critical_ROB_Stalls_Percent_3_Bucket_5: 14099
Critical_ROB_Stalls_Percent_3_Bucket_6: 1617241
Non-critical_ROB_Stalls_Percent_3_Bucket_6: 126581
Critical_ROB_Stalls_Percent_4_Bucket_0: 1733606
Non-critical_ROB_Stalls_Percent_4_Bucket_0: 1032319
Critical_ROB_Stalls_Percent_4_Bucket_1: 311846
Non-critical_ROB_Stalls_Percent_4_Bucket_1: 334240
Critical_ROB_Stalls_Percent_4_Bucket_2: 57099
Non-critical_ROB_Stalls_Percent_4_Bucket_2: 33953
Critical_ROB_Stalls_Percent_4_Bucket_3: 39140
Non-critical_ROB_Stalls_Percent_4_Bucket_3: 19081
Critical_ROB_Stalls_Percent_4_Bucket_4: 31360
Non-critical_ROB_Stalls_Percent_4_Bucket_4: 16521
Critical_ROB_Stalls_Percent_4_Bucket_5: 33164
Non-critical_ROB_Stalls_Percent_4_Bucket_5: 13880
Critical_ROB_Stalls_Percent_4_Bucket_6: 1617535
Non-critical_ROB_Stalls_Percent_4_Bucket_6: 126287
Critical_ROB_Stalls_Percent_5_Bucket_0: 1966441
Non-critical_ROB_Stalls_Percent_5_Bucket_0: 799484
Critical_ROB_Stalls_Percent_5_Bucket_1: 318784
Non-critical_ROB_Stalls_Percent_5_Bucket_1: 327302
Critical_ROB_Stalls_Percent_5_Bucket_2: 58157
Non-critical_ROB_Stalls_Percent_5_Bucket_2: 32895
Critical_ROB_Stalls_Percent_5_Bucket_3: 41179
Non-critical_ROB_Stalls_Percent_5_Bucket_3: 17042
Critical_ROB_Stalls_Percent_5_Bucket_4: 32027
Non-critical_ROB_Stalls_Percent_5_Bucket_4: 15854
Critical_ROB_Stalls_Percent_5_Bucket_5: 33683
Non-critical_ROB_Stalls_Percent_5_Bucket_5: 13361
Critical_ROB_Stalls_Percent_5_Bucket_6: 1618160
Non-critical_ROB_Stalls_Percent_5_Bucket_6: 125662
Critical_ROB_Stalls_Percent_6_Bucket_0: 2212357
Non-critical_ROB_Stalls_Percent_6_Bucket_0: 553568
Critical_ROB_Stalls_Percent_6_Bucket_1: 332785
Non-critical_ROB_Stalls_Percent_6_Bucket_1: 313301
Critical_ROB_Stalls_Percent_6_Bucket_2: 59100
Non-critical_ROB_Stalls_Percent_6_Bucket_2: 31952
Critical_ROB_Stalls_Percent_6_Bucket_3: 43296
Non-critical_ROB_Stalls_Percent_6_Bucket_3: 14925
Critical_ROB_Stalls_Percent_6_Bucket_4: 33203
Non-critical_ROB_Stalls_Percent_6_Bucket_4: 14678
Critical_ROB_Stalls_Percent_6_Bucket_5: 35116
Non-critical_ROB_Stalls_Percent_6_Bucket_5: 11928
Critical_ROB_Stalls_Percent_6_Bucket_6: 1618531
Non-critical_ROB_Stalls_Percent_6_Bucket_6: 125291
Critical_ROB_Stalls_Percent_7_Bucket_0: 2342538
Non-critical_ROB_Stalls_Percent_7_Bucket_0: 423387
Critical_ROB_Stalls_Percent_7_Bucket_1: 455186
Non-critical_ROB_Stalls_Percent_7_Bucket_1: 190900
Critical_ROB_Stalls_Percent_7_Bucket_2: 69656
Non-critical_ROB_Stalls_Percent_7_Bucket_2: 21396
Critical_ROB_Stalls_Percent_7_Bucket_3: 46346
Non-critical_ROB_Stalls_Percent_7_Bucket_3: 11875
Critical_ROB_Stalls_Percent_7_Bucket_4: 35972
Non-critical_ROB_Stalls_Percent_7_Bucket_4: 11909
Critical_ROB_Stalls_Percent_7_Bucket_5: 36634
Non-critical_ROB_Stalls_Percent_7_Bucket_5: 10410
Critical_ROB_Stalls_Percent_7_Bucket_6: 1621882
Non-critical_ROB_Stalls_Percent_7_Bucket_6: 121940
Critical_ROB_Stalls_Percent_8_Bucket_0: 2480294
Non-critical_ROB_Stalls_Percent_8_Bucket_0: 285631
Critical_ROB_Stalls_Percent_8_Bucket_1: 520137
Non-critical_ROB_Stalls_Percent_8_Bucket_1: 125949
Critical_ROB_Stalls_Percent_8_Bucket_2: 77683
Non-critical_ROB_Stalls_Percent_8_Bucket_2: 13369
Critical_ROB_Stalls_Percent_8_Bucket_3: 49974
Non-critical_ROB_Stalls_Percent_8_Bucket_3: 8247
Critical_ROB_Stalls_Percent_8_Bucket_4: 39680
Non-critical_ROB_Stalls_Percent_8_Bucket_4: 8201
Critical_ROB_Stalls_Percent_8_Bucket_5: 39532
Non-critical_ROB_Stalls_Percent_8_Bucket_5: 7512
Critical_ROB_Stalls_Percent_8_Bucket_6: 1661301
Non-critical_ROB_Stalls_Percent_8_Bucket_6: 82521
Average ROB occupancy Load Stall Begin: 136.147
Average ROB occupancy Load Stall End: 143.218
Min ROB occupancy Load Stall Begin: 1
Max ROB occupancy Load Stall Begin: 352
Min ROB occupancy Load Stall End: 1
Max ROB occupancy Load Stall End: 352
Average ROB occupancy Critical Load Stall Begin: -nan
Average ROB occupancy Critical Load Stall End: -nan
Min ROB occupancy Critical Load Stall Begin: 400
Max ROB occupancy Critical Load Stall Begin: 0
Min ROB occupancy Critical Load Stall End: 400
Max ROB occupancy Critical Load Stall End: 0
 ROB Load Stall Begin Bucket Count 0: 2924266
 ROB Load Stall End Bucket Count 0: 2765925
 ROB Critical Load Stall Begin Bucket Count 0: 0
 ROB Critical Load Stall End Bucket Count 0: 0
 ROB Load Stall Begin Bucket Count 1: 535395
 ROB Load Stall End Bucket Count 1: 646086
 ROB Critical Load Stall Begin Bucket Count 1: 0
 ROB Critical Load Stall End Bucket Count 1: 0
 ROB Load Stall Begin Bucket Count 2: 66209
 ROB Load Stall End Bucket Count 2: 91052
 ROB Critical Load Stall Begin Bucket Count 2: 0
 ROB Critical Load Stall End Bucket Count 2: 0
 ROB Load Stall Begin Bucket Count 3: 56500
 ROB Load Stall End Bucket Count 3: 58221
 ROB Critical Load Stall Begin Bucket Count 3: 0
 ROB Critical Load Stall End Bucket Count 3: 0
 ROB Load Stall Begin Bucket Count 4: 44703
 ROB Load Stall End Bucket Count 4: 47881
 ROB Critical Load Stall Begin Bucket Count 4: 0
 ROB Critical Load Stall End Bucket Count 4: 0
 ROB Load Stall Begin Bucket Count 5: 45385
 ROB Load Stall End Bucket Count 5: 47044
 ROB Critical Load Stall Begin Bucket Count 5: 0
 ROB Critical Load Stall End Bucket Count 5: 0
 ROB Load Stall Begin Bucket Count 6: 1727573
 ROB Load Stall End Bucket Count 6: 1743822
 ROB Critical Load Stall Begin Bucket Count 6: 0
 ROB Critical Load Stall End Bucket Count 6: 0
PIST Tag Read Accesses: 571000
PIST Read Accesses: 285500
PIST Tag Write Accesses: 571000
PIST Write Accesses: 285500
Criticality detector called times: 1522151
Max global_stall_cycles_count: 977320
Threshold Modified: 1 times, factor: -1
Sturdy critical IP cache stats: 
 Unused entries: 0
CIC Tag Read Accesses: 0
CIC Read Accesses: 0
CIC Tag Write Accesses: 0
CIC Write Accesses: 0
Wobbly critical IP cache stats: 
 Unused entries: 26
CIC Tag Read Accesses: 174252256
CIC Read Accesses: 0
CIC Tag Write Accesses: 2443001
CIC Write Accesses: 0
ITLB TOTAL     ACCESS:   14844870  HIT:   14844826  MISS:         44  HIT %:    99.9997  MISS %: 0.000296399   MPKI: 0.00044
ITLB LOAD TRANSLATION ACCESS:   14844870  HIT:   14844826  MISS:         44  HIT %:    99.9997  MISS %: 0.000296399   MPKI: 0.00044
ITLB PREFETCH  REQUESTED:          0  ISSUED:          0  USEFUL:          0  USELESS:          0
ITLB USEFUL LOAD PREFETCHES:          0 PREFETCH ISSUED TO LOWER LEVEL:          0  ACCURACY: -nan
ITLB TIMELY PREFETCHES:          0 LATE PREFETCHES: 0 DROPPED PREFETCHES: 0
ITLB PREFETCHES SAME FILL-ORIGIN LEVEL: 0 DIFFERENT FILL-ORIGIN LEVEL: 0
ITLB AVERAGE MISS LATENCY: 243.591 cycles
ITLB RQ	ACCESS:   18232460	FORWARD:          0	MERGED:    3387575	TO_CACHE:   14844885

DTLB TOTAL     ACCESS:   20263095  HIT:   20218773  MISS:      44322  HIT %:    99.7813  MISS %:   0.218733   MPKI: 0.44322
DTLB LOAD TRANSLATION ACCESS:   20263095  HIT:   20218773  MISS:      44322  HIT %:    99.7813  MISS %:   0.218733   MPKI: 0.44322
DTLB PREFETCH  REQUESTED:          0  ISSUED:          0  USEFUL:          0  USELESS:          0
DTLB USEFUL LOAD PREFETCHES:          0 PREFETCH ISSUED TO LOWER LEVEL:          0  ACCURACY: -nan
DTLB TIMELY PREFETCHES:          0 LATE PREFETCHES: 0 DROPPED PREFETCHES: 0
DTLB PREFETCHES SAME FILL-ORIGIN LEVEL: 0 DIFFERENT FILL-ORIGIN LEVEL: 0
DTLB AVERAGE MISS LATENCY: 24.6888 cycles
DTLB RQ	ACCESS:   22717948	FORWARD:          0	MERGED:    2436496	TO_CACHE:   20281452

STLB TOTAL     ACCESS:      44366  HIT:      38471  MISS:       5895  HIT %:    86.7128  MISS %:    13.2872   MPKI: 0.05895
STLB LOAD TRANSLATION ACCESS:      44366  HIT:      38471  MISS:       5895  HIT %:    86.7128  MISS %:    13.2872   MPKI: 0.05895
STLB PREFETCH  REQUESTED:          0  ISSUED:          0  USEFUL:          0  USELESS:          0
STLB USEFUL LOAD PREFETCHES:          0 PREFETCH ISSUED TO LOWER LEVEL:          0  ACCURACY: -nan
STLB TIMELY PREFETCHES:          0 LATE PREFETCHES: 0 DROPPED PREFETCHES: 0
STLB PREFETCHES SAME FILL-ORIGIN LEVEL: 0 DIFFERENT FILL-ORIGIN LEVEL: 0
STLB AVERAGE MISS LATENCY: 118.61 cycles
STLB RQ	ACCESS:      44366	FORWARD:          0	MERGED:          0	TO_CACHE:      44366

STLB Hit, L1D data hit: 0
STLB Hit, L2C data hit: 0
STLB Hit, LLC data hit: 0
STLB Hit, LLC data miss: 0
STLB STLB hints to L2: 0
L1D TOTAL     ACCESS:   21960502  HIT:   20889637  MISS:    1070865  HIT %:    95.1237  MISS %:    4.87632   MPKI: 10.7086
L1D LOAD      ACCESS:   18532500  HIT:   17682772  MISS:     849728  HIT %:    95.4149  MISS %:    4.58507   MPKI: 8.49728
L1D RFO       ACCESS:    3428002  HIT:    3206865  MISS:     221137  HIT %:    93.5491  MISS %:     6.4509   MPKI: 2.21137
L1D PREFETCH  REQUESTED:          0  ISSUED:          0  USEFUL:          0  USELESS:          0
L1D USEFUL LOAD PREFETCHES:          0 PREFETCH ISSUED TO LOWER LEVEL:          0  ACCURACY: -nan
L1D TIMELY PREFETCHES:          0 LATE PREFETCHES: 0 DROPPED PREFETCHES: 0
L1D PREFETCHES SAME FILL-ORIGIN LEVEL: 0 DIFFERENT FILL-ORIGIN LEVEL: 0
L1D AVERAGE MISS LATENCY: 79.3866 cycles
L1D RQ	ACCESS:   26006425	FORWARD:          0	MERGED:    7348566	TO_CACHE:   18651993
L1D WQ	ACCESS:    4083148	FORWARD:       5866	MERGED:      17193	TO_CACHE:    4065955

L1D UNIQUE REGIONS ACCESSED: 0
L1D REGIONS CONFLICTS: 0
L1D Cross Page Prefetch Requests: 0
L1D Same Page Prefetch Requests: 0
L1D ROI Sum of L1D PQ occupancy: 0
L1D PREFETCHES PUSHED FROM L2C: 0
L1I TOTAL     ACCESS:   18231427  HIT:   18229351  MISS:       2076  HIT %:    99.9886  MISS %:  0.0113869   MPKI: 0.02076
L1I LOAD      ACCESS:   18231427  HIT:   18229351  MISS:       2076  HIT %:    99.9886  MISS %:  0.0113869   MPKI: 0.02076
L1I PREFETCH  REQUESTED:          0  ISSUED:          0  USEFUL:          0  USELESS:          0
L1I USEFUL LOAD PREFETCHES:          0 PREFETCH ISSUED TO LOWER LEVEL:          0  ACCURACY: -nan
L1I TIMELY PREFETCHES:          0 LATE PREFETCHES: 0 DROPPED PREFETCHES: 0
L1I PREFETCHES SAME FILL-ORIGIN LEVEL: 0 DIFFERENT FILL-ORIGIN LEVEL: 0
L1I AVERAGE MISS LATENCY: 226.641 cycles
L1I RQ	ACCESS:   28737411	FORWARD:          0	MERGED:   10504951	TO_CACHE:   18232460

BTB TOTAL     ACCESS:    4428759  HIT:    4427935  MISS:        824  HIT %:    99.9814  MISS %:  0.0186057   MPKI: 0.00824
BTB BRANCH_DIRECT_JUMP	ACCESS:     279102  HIT:     279036  MISS:         66
BTB BRANCH_INDIRECT	ACCESS:          6  HIT:          4  MISS:          2
BTB BRANCH_CONDITIONAL	ACCESS:    3632354  HIT:    3632003  MISS:        351
BTB BRANCH_DIRECT_CALL	ACCESS:     258649  HIT:     258495  MISS:        154
BTB BRANCH_INDIRECT_CALL	ACCESS:          0  HIT:          0  MISS:          0
BTB BRANCH_RETURN	ACCESS:     258648  HIT:     258397  MISS:        251
BTB BRANCH_OTHER ACCESS:          0  HIT:          0  MISS:          0

L2C TOTAL     ACCESS:    2104812  HIT:    1271235  MISS:     833577  HIT %:    60.3966  MISS %:    39.6034   MPKI: 8.33577
L2C LOAD      ACCESS:     851797  HIT:     777281  MISS:      74516  HIT %:    91.2519  MISS %:    8.74809   MPKI: 0.74516
L2C DATA LOAD MPKI: 0.7244
L2C INSTRUCTION LOAD MPKI: 0.02076
L2C RFO       ACCESS:     221137  HIT:      25550  MISS:     195587  HIT %:    11.5539  MISS %:    88.4461   MPKI: 1.95587
L2C PREFETCH  ACCESS:     585486  HIT:      34920  MISS:     550566  HIT %:    5.96428  MISS %:    94.0357   MPKI: 5.50566
L2C DATA PREFETCH MPKI: 5.50566
L2C INSTRUCTION PREFETCH MPKI: 0
L2C WRITEBACK ACCESS:     440478  HIT:     428695  MISS:      11783  HIT %:     97.325  MISS %:    2.67505   MPKI: 0.11783
L2C LOAD TRANSLATION ACCESS:       5914  HIT:       4789  MISS:       1125  HIT %:    80.9773  MISS %:    19.0227   MPKI: 0.01125
L2C PREFETCH  REQUESTED:     611901  ISSUED:     611901  USEFUL:     513593  USELESS:      37028
L2C USEFUL LOAD PREFETCHES:     513593 PREFETCH ISSUED TO LOWER LEVEL:     564085  ACCURACY: 91.0489
L2C TIMELY PREFETCHES:     513593 LATE PREFETCHES: 13499 DROPPED PREFETCHES: 0
L2C PREFETCHES SAME FILL-ORIGIN LEVEL: 564085 DIFFERENT FILL-ORIGIN LEVEL: 0
L2C AVERAGE MISS LATENCY: 199.942 cycles
L2C RQ	ACCESS:    1078859	FORWARD:          0	MERGED:          0	TO_CACHE:    1078852
L2C WQ	ACCESS:     440478	FORWARD:          7	MERGED:          0	TO_CACHE:     440478
L2C PQ	ACCESS:     611901	FORWARD:          0	MERGED:         16	TO_CACHE:     611885

L2C Instructions Evicting Data 2073
L2C Translations Evicting Data 1122
L2C Data Evicting Data 815440
L2C Instructions Evicting Instructions 1
L2C Translations Evicting Instructions 2
L2C Data Evicting Instructions 2062
L2C Instructions Evicting Translations 2
L2C Translations Evicting Translations 1
L2C Data Evicting Translations 1091
L2C Dense regions hint from L2: 0
PSCL5 TOTAL     ACCESS:       5895  HIT:       5895  MISS:          0  HIT %:        100  MISS %:          0   MPKI: 0
PSCL5 LOAD TRANSLATION ACCESS:       5895  HIT:       5895  MISS:          0  HIT %:        100  MISS %:          0   MPKI: 0
PSCL5 PREFETCH  REQUESTED:          0  ISSUED:          0  USEFUL:          0  USELESS:          0
PSCL5 USEFUL LOAD PREFETCHES:          0 PREFETCH ISSUED TO LOWER LEVEL:          0  ACCURACY: -nan
PSCL5 TIMELY PREFETCHES:          0 LATE PREFETCHES: 0 DROPPED PREFETCHES: 0
PSCL5 PREFETCHES SAME FILL-ORIGIN LEVEL: 0 DIFFERENT FILL-ORIGIN LEVEL: 0

PSCL4 TOTAL     ACCESS:       5895  HIT:       5895  MISS:          0  HIT %:        100  MISS %:          0   MPKI: 0
PSCL4 LOAD TRANSLATION ACCESS:       5895  HIT:       5895  MISS:          0  HIT %:        100  MISS %:          0   MPKI: 0
PSCL4 PREFETCH  REQUESTED:          0  ISSUED:          0  USEFUL:          0  USELESS:          0
PSCL4 USEFUL LOAD PREFETCHES:          0 PREFETCH ISSUED TO LOWER LEVEL:          0  ACCURACY: -nan
PSCL4 TIMELY PREFETCHES:          0 LATE PREFETCHES: 0 DROPPED PREFETCHES: 0
PSCL4 PREFETCHES SAME FILL-ORIGIN LEVEL: 0 DIFFERENT FILL-ORIGIN LEVEL: 0

PSCL3 TOTAL     ACCESS:       5895  HIT:       5895  MISS:          0  HIT %:        100  MISS %:          0   MPKI: 0
PSCL3 LOAD TRANSLATION ACCESS:       5895  HIT:       5895  MISS:          0  HIT %:        100  MISS %:          0   MPKI: 0
PSCL3 PREFETCH  REQUESTED:          0  ISSUED:          0  USEFUL:          0  USELESS:          0
PSCL3 USEFUL LOAD PREFETCHES:          0 PREFETCH ISSUED TO LOWER LEVEL:          0  ACCURACY: -nan
PSCL3 TIMELY PREFETCHES:          0 LATE PREFETCHES: 0 DROPPED PREFETCHES: 0
PSCL3 PREFETCHES SAME FILL-ORIGIN LEVEL: 0 DIFFERENT FILL-ORIGIN LEVEL: 0

PSCL2 TOTAL     ACCESS:       5895  HIT:       5872  MISS:         23  HIT %:    99.6098  MISS %:   0.390161   MPKI: 0.00023
PSCL2 LOAD TRANSLATION ACCESS:       5895  HIT:       5872  MISS:         23  HIT %:    99.6098  MISS %:   0.390161   MPKI: 0.00023
PSCL2 PREFETCH  REQUESTED:          0  ISSUED:          0  USEFUL:          0  USELESS:          0
PSCL2 USEFUL LOAD PREFETCHES:          0 PREFETCH ISSUED TO LOWER LEVEL:          0  ACCURACY: -nan
PSCL2 TIMELY PREFETCHES:          0 LATE PREFETCHES: 0 DROPPED PREFETCHES: 0
PSCL2 PREFETCHES SAME FILL-ORIGIN LEVEL: 0 DIFFERENT FILL-ORIGIN LEVEL: 0

LLC TOTAL     ACCESS:    1215332  HIT:     494523  MISS:     720809  HIT %:    40.6904  MISS %:    59.3096   MPKI: 7.20809
LLC LOAD      ACCESS:      61442  HIT:      12199  MISS:      49243  HIT %:    19.8545  MISS %:    80.1455   MPKI: 0.49243
LLC RFO       ACCESS:     195162  HIT:      31384  MISS:     163778  HIT %:     16.081  MISS %:     83.919   MPKI: 1.63778
LLC PREFETCH  ACCESS:     564065  HIT:     178085  MISS:     385980  HIT %:    31.5717  MISS %:    68.4283   MPKI: 3.8598
LLC WRITEBACK ACCESS:     393538  HIT:     272767  MISS:     120771  HIT %:    69.3115  MISS %:    30.6885   MPKI: 1.20771
LLC LOAD TRANSLATION ACCESS:       1125  HIT:         88  MISS:       1037  HIT %:    7.82222  MISS %:    92.1778   MPKI: 0.01037
LLC PREFETCH  REQUESTED:          0  ISSUED:          0  USEFUL:       6743  USELESS:     387377
LLC USEFUL LOAD PREFETCHES:       6743 PREFETCH ISSUED TO LOWER LEVEL:     386000  ACCURACY: 1.74689
LLC TIMELY PREFETCHES:       6743 LATE PREFETCHES: 0 DROPPED PREFETCHES: 0
LLC PREFETCHES SAME FILL-ORIGIN LEVEL: 0 DIFFERENT FILL-ORIGIN LEVEL: 0
LLC AVERAGE MISS LATENCY: 199.319 cycles
LLC RQ	ACCESS:     257733	FORWARD:          0	MERGED:          0	TO_CACHE:     257733
LLC WQ	ACCESS:     393538	FORWARD:          0	MERGED:          0	TO_CACHE:     393538
LLC PQ	ACCESS:     564085	FORWARD:          0	MERGED:          0	TO_CACHE:     564085

LLC Dense regions hint to LLC: 0

RAW hits: 53594
Loads Generated: 26060017
Loads sent to L1D: 26006425
Stores Generated: 4083141
Stores sent to L1D: 4083148
Major fault: 0 Minor fault: 6967
Allocated PAGES: 6967
[Bingo] PHT Access: 33313
[Bingo] PHT Hit PC+Addr: 2326
[Bingo] PHT Hit PC+Offs: 27692
[Bingo] PHT Miss: 3295
[Bingo] Prefetch PC+Addr: 0
[Bingo] Prefetch PC+Offs: 0
[Bingo] Useful PC+Addr: 0
[Bingo] Useful PC+Offs: 0
[Bingo] Useless PC+Addr: 0
[Bingo] Useless PC+Offs: 0
[Bingo] L1 Prefetch per Region: 0
[Bingo] L2 Prefetch per Region: 21.5462
[Bingo] L3 Prefetch per Region: 0
[Bingo] No Prefetch per Region: 10.4538
[Bingo] Number of Voters Mean: 13.982
[Bingo] Number of Voters SD: 13.5817
PHT read accesses: 472806
PHT write accesses: 29162
AT read accesses: 834976
AT write accesses: 845576
FT read accesses: 91542
FT write accesses: 33313
PS read accesses: 87527
PS write accesses: 30018
PHT tag read accesses: 1394356
PHT tag write accesses: 31488
AT tag read accesses: 28196604
AT tag write accesses: 864541
FT tag read accesses: 15456399
FT tag write accesses: 94894
PS tag read accesses: 14691971
PS tag write accesses: 116892

DRAM Statistics
 CHANNEL 0
 RQ ROW_BUFFER_HIT:     322078  ROW_BUFFER_MISS:     277852
 DBUS_CONGESTED:        355
 WQ ROW_BUFFER_HIT:      40247  ROW_BUFFER_MISS:     225862  FULL:       1012

 AVG_CONGESTED_CYCLE: 4
 All warmup complete: 2
Channel 0 Bank busy for read cycles: 0
Channel 0 Bank busy for write cycles: 0
Channel 0
Rank 0
0banks busy for read cycles: 93767693
0banks busy for write cycles: 17332
1banks busy for read cycles: 4058159
1banks busy for write cycles: 1756302
2banks busy for read cycles: 1728839
2banks busy for write cycles: 637264
3banks busy for read cycles: 877142
3banks busy for write cycles: 475353
4banks busy for read cycles: 646022
4banks busy for write cycles: 408732
5banks busy for read cycles: 633423
5banks busy for write cycles: 413033
6banks busy for read cycles: 708942
6banks busy for write cycles: 462277
7banks busy for read cycles: 1118979
7banks busy for write cycles: 728004
8banks busy for read cycles: 3869480
8banks busy for write cycles: 3774597

CPU 0 Branch Prediction Accuracy: 99.89% MPKI: 0.07455 Average ROB Occupancy at Mispredict: 168.108
Branch types
NOT_BRANCH: 93224232 93.2242%
BRANCH_DIRECT_JUMP: 279102 0.279102%
BRANCH_INDIRECT: 6 6e-06%
BRANCH_CONDITIONAL: 5979016 5.97902%
BRANCH_DIRECT_CALL: 258649 0.258649%
BRANCH_INDIRECT_CALL: 0 0%
BRANCH_RETURN: 258648 0.258648%
BRANCH_OTHER: 0 0%

DRAM PAGES: 1048576
Allocated PAGES: 6967
