
*** ChampSim Multicore Out-of-Order Simulator ***

Warmup Instructions: 50000000
Simulation Instructions: 100000000
Number of CPUs: 1
LLC sets: 2048
LLC ways: 16
Off-chip DRAM Size: 4096 MB Channels: 1 Width: 64-bit Data Rate: 6400 MT/s
CPU 0 runs ../SPEC2017//621.wrf_s-8065B.champsimtrace.xz
.xz
NUM_OF_IPS_IN_CRITICAL_IP_TRAINING: 64
NUM_OF_CRITICAL_IP_TRAINING_TABLE_WAYS: 2
NUM_OF_CRITICAL_IP_TRAINING_TABLE_SETS: 32
WOBBLY_CRITICAL_IP_CACHE_SETS: 32
WOBBLY_CRITICAL_IP_CACHE_WAYS: 4
BTB has LRU replacement policy
ITLB has LRU replacement policy
DTLB has LRU replacement policy
STLB has LRU replacement policy
L1I has LRU replacement policy
IP Table Entries: 256
L1D has LRU replacement policy
Initialize SRRIP state for L2C
Initialize DRRIP state for LLC
Heartbeat CPU 0 instructions: 10000002 cycles: 3040391 heartbeat IPC: 3.28905 cumulative IPC: 3.28905 (Simulation time: 0 hr 3 min 30 sec) 
Heartbeat CPU 0 instructions: 20000000 cycles: 6051244 heartbeat IPC: 3.32132 cumulative IPC: 3.30511 (Simulation time: 0 hr 5 min 53 sec) 
Heartbeat CPU 0 instructions: 30000000 cycles: 9038759 heartbeat IPC: 3.34726 cumulative IPC: 3.31904 (Simulation time: 0 hr 8 min 14 sec) 
Heartbeat CPU 0 instructions: 40000003 cycles: 12109104 heartbeat IPC: 3.25696 cumulative IPC: 3.3033 (Simulation time: 0 hr 10 min 21 sec) 
Heartbeat CPU 0 instructions: 50000003 cycles: 15112045 heartbeat IPC: 3.33007 cumulative IPC: 3.30862 (Simulation time: 0 hr 12 min 12 sec) 

Warmup complete CPU 0 instructions: 50000003 cycles: 15112045 (Simulation time: 0 hr 12 min 12 sec) 

Heartbeat CPU 0 instructions: 60000003 cycles: 24695136 heartbeat IPC: 1.0435 cumulative IPC: 1.0435 (Simulation time: 0 hr 14 min 47 sec) 
Heartbeat CPU 0 instructions: 70000003 cycles: 35639297 heartbeat IPC: 0.913729 cumulative IPC: 0.974315 (Simulation time: 0 hr 16 min 43 sec) 
Heartbeat CPU 0 instructions: 80000001 cycles: 45453893 heartbeat IPC: 1.01889 cumulative IPC: 0.988733 (Simulation time: 0 hr 19 min 4 sec) 
Heartbeat CPU 0 instructions: 90000000 cycles: 56189602 heartbeat IPC: 0.931471 cumulative IPC: 0.973768 (Simulation time: 0 hr 21 min 7 sec) 
Heartbeat CPU 0 instructions: 100000000 cycles: 66283554 heartbeat IPC: 0.990692 cumulative IPC: 0.977106 (Simulation time: 0 hr 23 min 35 sec) 
Heartbeat CPU 0 instructions: 110000000 cycles: 76842972 heartbeat IPC: 0.947022 cumulative IPC: 0.97196 (Simulation time: 0 hr 25 min 33 sec) 
Heartbeat CPU 0 instructions: 120000000 cycles: 90562586 heartbeat IPC: 0.728884 cumulative IPC: 0.92776 (Simulation time: 0 hr 28 min 35 sec) 
Heartbeat CPU 0 instructions: 130000002 cycles: 104229835 heartbeat IPC: 0.731676 cumulative IPC: 0.897688 (Simulation time: 0 hr 31 min 51 sec) 
Heartbeat CPU 0 instructions: 140000001 cycles: 117897886 heartbeat IPC: 0.731633 cumulative IPC: 0.875607 (Simulation time: 0 hr 36 min 19 sec) 
Heartbeat CPU 0 instructions: 150000002 cycles: 133328025 heartbeat IPC: 0.648082 cumulative IPC: 0.845909 (Simulation time: 0 hr 44 min 38 sec) 
Finished CPU 0 instructions: 100000003 cycles: 118215981 cumulative IPC: 0.845909 (Simulation time: 0 hr 44 min 38 sec) 

ChampSim completed all CPUs

Region of Interest Statistics

CPU 0 cumulative IPC: 0.845909 instructions: 100000003 cycles: 118215981

CPU 0 Average Load ROB stall cycles: 1.55861e+07
CPU 0 Fraction of times ROB stalled by Loads: 21.6003
CPU 0 Percentage of Load stall cycles in Total stall cycles: 3.8813e+08
Issued all: 78372519
Issued LT all: 67065455
rob_not_full_when_issued_lt_all: 31627145
Issued LT one: 52255474
rob_not_full_when_issued_lt_one: 26850188
 Total stall cycles: 95934644
 Total load stall cycles: 372350769151522
CPU 0 NUM of IPS identified critical: 0
CPU 0 Num of Load IPs stalling ROB: 2337
Threshold modification factor: 0
Max PIST entries: 63
Min PIST entries: 0
Avg PIST entries: 28.1933
Trouble in retire width: 0.96722
MaC = Marked as critical.
lt_50_percent_before_Mac: 0
gt_90_percent_before_Mac: 0
gt_75_percent_before_Mac: 0
gt_50_percent_before_Mac: 0
stall_proportion_bin_same_before_after: 0
stall_proportion_bin_lower_before_after: 0
stall_proportion_bin_upper_before_after: 0
average_stall_proportion_before: -nan
average_stall_proportion_after: -nan
Critical IP stalls, total frequency: 0
Non-critical IP stalls, total frequency: 5160289
Total Freq all stalling IPs: 5160289
stat_90_percent_critical_ip_stalls_freq: 4647142
stat_90_percent_non_critical_ip_stalls_freq: 513147
Critical_IP_ROB_Stalls_Bucket_0: 0
Non-critical_IP_ROB_Stalls_Bucket_0: 2679964
Critical_IP_ROB_Stalls_Bucket_1: 0
Non-critical_IP_ROB_Stalls_Bucket_1: 408382
Critical_IP_ROB_Stalls_Bucket_2: 0
Non-critical_IP_ROB_Stalls_Bucket_2: 72718
Critical_IP_ROB_Stalls_Bucket_3: 0
Non-critical_IP_ROB_Stalls_Bucket_3: 73719
Critical_IP_ROB_Stalls_Bucket_4: 0
Non-critical_IP_ROB_Stalls_Bucket_4: 70010
Critical_IP_ROB_Stalls_Bucket_5: 0
Non-critical_IP_ROB_Stalls_Bucket_5: 71332
Critical_IP_ROB_Stalls_Bucket_6: 0
Non-critical_IP_ROB_Stalls_Bucket_6: 1784164
0 => IPs accounting for >50 percent of stalls, 1 => 55, 2 => 60, 3 => 65 and so on till 90.
percent50: 50.694 num IPs:  19
percent55: 55.2335 num IPs: 22
percent60: 60.5799 num IPs: 26
percent65: 65.7462 num IPs: 30
percent70: 70.5882 num IPs: 34
percent75: 75.6659 num IPs: 39
percent80: 80.389 num IPs: 44
percent85: 85.0446 num IPs: 54
percent90: 90.0558 num IPs: 74
Critical_ROB_Stalls_Percent_0_Bucket_0: 810635
Non-critical_ROB_Stalls_Percent_0_Bucket_0: 1869329
Critical_ROB_Stalls_Percent_0_Bucket_1: 69003
Non-critical_ROB_Stalls_Percent_0_Bucket_1: 339379
Critical_ROB_Stalls_Percent_0_Bucket_2: 33486
Non-critical_ROB_Stalls_Percent_0_Bucket_2: 39232
Critical_ROB_Stalls_Percent_0_Bucket_3: 32060
Non-critical_ROB_Stalls_Percent_0_Bucket_3: 41659
Critical_ROB_Stalls_Percent_0_Bucket_4: 28275
Non-critical_ROB_Stalls_Percent_0_Bucket_4: 41735
Critical_ROB_Stalls_Percent_0_Bucket_5: 30299
Non-critical_ROB_Stalls_Percent_0_Bucket_5: 41033
Critical_ROB_Stalls_Percent_0_Bucket_6: 1612201
Non-critical_ROB_Stalls_Percent_0_Bucket_6: 171963
Critical_ROB_Stalls_Percent_1_Bucket_0: 941257
Non-critical_ROB_Stalls_Percent_1_Bucket_0: 1738707
Critical_ROB_Stalls_Percent_1_Bucket_1: 130491
Non-critical_ROB_Stalls_Percent_1_Bucket_1: 277891
Critical_ROB_Stalls_Percent_1_Bucket_2: 41780
Non-critical_ROB_Stalls_Percent_1_Bucket_2: 30938
Critical_ROB_Stalls_Percent_1_Bucket_3: 39175
Non-critical_ROB_Stalls_Percent_1_Bucket_3: 34544
Critical_ROB_Stalls_Percent_1_Bucket_4: 35148
Non-critical_ROB_Stalls_Percent_1_Bucket_4: 34862
Critical_ROB_Stalls_Percent_1_Bucket_5: 43550
Non-critical_ROB_Stalls_Percent_1_Bucket_5: 27782
Critical_ROB_Stalls_Percent_1_Bucket_6: 1618809
Non-critical_ROB_Stalls_Percent_1_Bucket_6: 165355
Critical_ROB_Stalls_Percent_2_Bucket_0: 1207448
Non-critical_ROB_Stalls_Percent_2_Bucket_0: 1472516
Critical_ROB_Stalls_Percent_2_Bucket_1: 135219
Non-critical_ROB_Stalls_Percent_2_Bucket_1: 273163
Critical_ROB_Stalls_Percent_2_Bucket_2: 43035
Non-critical_ROB_Stalls_Percent_2_Bucket_2: 29683
Critical_ROB_Stalls_Percent_2_Bucket_3: 41417
Non-critical_ROB_Stalls_Percent_2_Bucket_3: 32302
Critical_ROB_Stalls_Percent_2_Bucket_4: 35711
Non-critical_ROB_Stalls_Percent_2_Bucket_4: 34299
Critical_ROB_Stalls_Percent_2_Bucket_5: 44015
Non-critical_ROB_Stalls_Percent_2_Bucket_5: 27317
Critical_ROB_Stalls_Percent_2_Bucket_6: 1619251
Non-critical_ROB_Stalls_Percent_2_Bucket_6: 164913
Critical_ROB_Stalls_Percent_3_Bucket_0: 1470756
Non-critical_ROB_Stalls_Percent_3_Bucket_0: 1209208
Critical_ROB_Stalls_Percent_3_Bucket_1: 137113
Non-critical_ROB_Stalls_Percent_3_Bucket_1: 271269
Critical_ROB_Stalls_Percent_3_Bucket_2: 43283
Non-critical_ROB_Stalls_Percent_3_Bucket_2: 29435
Critical_ROB_Stalls_Percent_3_Bucket_3: 41816
Non-critical_ROB_Stalls_Percent_3_Bucket_3: 31903
Critical_ROB_Stalls_Percent_3_Bucket_4: 36035
Non-critical_ROB_Stalls_Percent_3_Bucket_4: 33975
Critical_ROB_Stalls_Percent_3_Bucket_5: 44188
Non-critical_ROB_Stalls_Percent_3_Bucket_5: 27144
Critical_ROB_Stalls_Percent_3_Bucket_6: 1619503
Non-critical_ROB_Stalls_Percent_3_Bucket_6: 164661
Critical_ROB_Stalls_Percent_4_Bucket_0: 1656613
Non-critical_ROB_Stalls_Percent_4_Bucket_0: 1023351
Critical_ROB_Stalls_Percent_4_Bucket_1: 181566
Non-critical_ROB_Stalls_Percent_4_Bucket_1: 226816
Critical_ROB_Stalls_Percent_4_Bucket_2: 45353
Non-critical_ROB_Stalls_Percent_4_Bucket_2: 27365
Critical_ROB_Stalls_Percent_4_Bucket_3: 44355
Non-critical_ROB_Stalls_Percent_4_Bucket_3: 29364
Critical_ROB_Stalls_Percent_4_Bucket_4: 39440
Non-critical_ROB_Stalls_Percent_4_Bucket_4: 30570
Critical_ROB_Stalls_Percent_4_Bucket_5: 49077
Non-critical_ROB_Stalls_Percent_4_Bucket_5: 22255
Critical_ROB_Stalls_Percent_4_Bucket_6: 1626152
Non-critical_ROB_Stalls_Percent_4_Bucket_6: 158012
Critical_ROB_Stalls_Percent_5_Bucket_0: 1906784
Non-critical_ROB_Stalls_Percent_5_Bucket_0: 773180
Critical_ROB_Stalls_Percent_5_Bucket_1: 191173
Non-critical_ROB_Stalls_Percent_5_Bucket_1: 217209
Critical_ROB_Stalls_Percent_5_Bucket_2: 45815
Non-critical_ROB_Stalls_Percent_5_Bucket_2: 26903
Critical_ROB_Stalls_Percent_5_Bucket_3: 45075
Non-critical_ROB_Stalls_Percent_5_Bucket_3: 28644
Critical_ROB_Stalls_Percent_5_Bucket_4: 39871
Non-critical_ROB_Stalls_Percent_5_Bucket_4: 30139
Critical_ROB_Stalls_Percent_5_Bucket_5: 49416
Non-critical_ROB_Stalls_Percent_5_Bucket_5: 21916
Critical_ROB_Stalls_Percent_5_Bucket_6: 1626443
Non-critical_ROB_Stalls_Percent_5_Bucket_6: 157721
Critical_ROB_Stalls_Percent_6_Bucket_0: 2143608
Non-critical_ROB_Stalls_Percent_6_Bucket_0: 536356
Critical_ROB_Stalls_Percent_6_Bucket_1: 193675
Non-critical_ROB_Stalls_Percent_6_Bucket_1: 214707
Critical_ROB_Stalls_Percent_6_Bucket_2: 46545
Non-critical_ROB_Stalls_Percent_6_Bucket_2: 26173
Critical_ROB_Stalls_Percent_6_Bucket_3: 47020
Non-critical_ROB_Stalls_Percent_6_Bucket_3: 26699
Critical_ROB_Stalls_Percent_6_Bucket_4: 40367
Non-critical_ROB_Stalls_Percent_6_Bucket_4: 29643
Critical_ROB_Stalls_Percent_6_Bucket_5: 49905
Non-critical_ROB_Stalls_Percent_6_Bucket_5: 21427
Critical_ROB_Stalls_Percent_6_Bucket_6: 1627185
Non-critical_ROB_Stalls_Percent_6_Bucket_6: 156979
Critical_ROB_Stalls_Percent_7_Bucket_0: 2335360
Non-critical_ROB_Stalls_Percent_7_Bucket_0: 344604
Critical_ROB_Stalls_Percent_7_Bucket_1: 231260
Non-critical_ROB_Stalls_Percent_7_Bucket_1: 177122
Critical_ROB_Stalls_Percent_7_Bucket_2: 49741
Non-critical_ROB_Stalls_Percent_7_Bucket_2: 22977
Critical_ROB_Stalls_Percent_7_Bucket_3: 50601
Non-critical_ROB_Stalls_Percent_7_Bucket_3: 23118
Critical_ROB_Stalls_Percent_7_Bucket_4: 42379
Non-critical_ROB_Stalls_Percent_7_Bucket_4: 27631
Critical_ROB_Stalls_Percent_7_Bucket_5: 50923
Non-critical_ROB_Stalls_Percent_7_Bucket_5: 20409
Critical_ROB_Stalls_Percent_7_Bucket_6: 1628282
Non-critical_ROB_Stalls_Percent_7_Bucket_6: 155882
Critical_ROB_Stalls_Percent_8_Bucket_0: 2414535
Non-critical_ROB_Stalls_Percent_8_Bucket_0: 265429
Critical_ROB_Stalls_Percent_8_Bucket_1: 302509
Non-critical_ROB_Stalls_Percent_8_Bucket_1: 105873
Critical_ROB_Stalls_Percent_8_Bucket_2: 58464
Non-critical_ROB_Stalls_Percent_8_Bucket_2: 14254
Critical_ROB_Stalls_Percent_8_Bucket_3: 59277
Non-critical_ROB_Stalls_Percent_8_Bucket_3: 14442
Critical_ROB_Stalls_Percent_8_Bucket_4: 54449
Non-critical_ROB_Stalls_Percent_8_Bucket_4: 15561
Critical_ROB_Stalls_Percent_8_Bucket_5: 58870
Non-critical_ROB_Stalls_Percent_8_Bucket_5: 12462
Critical_ROB_Stalls_Percent_8_Bucket_6: 1699038
Non-critical_ROB_Stalls_Percent_8_Bucket_6: 85126
Average ROB occupancy Load Stall Begin: 143.39
Average ROB occupancy Load Stall End: 151.089
Min ROB occupancy Load Stall Begin: 1
Max ROB occupancy Load Stall Begin: 352
Min ROB occupancy Load Stall End: 1
Max ROB occupancy Load Stall End: 352
Average ROB occupancy Critical Load Stall Begin: -nan
Average ROB occupancy Critical Load Stall End: -nan
Min ROB occupancy Critical Load Stall Begin: 400
Max ROB occupancy Critical Load Stall Begin: 0
Min ROB occupancy Critical Load Stall End: 400
Max ROB occupancy Critical Load Stall End: 0
 ROB Load Stall Begin Bucket Count 0: 2844576
 ROB Load Stall End Bucket Count 0: 2679964
 ROB Critical Load Stall Begin Bucket Count 0: 0
 ROB Critical Load Stall End Bucket Count 0: 0
 ROB Load Stall Begin Bucket Count 1: 281384
 ROB Load Stall End Bucket Count 1: 408382
 ROB Critical Load Stall Begin Bucket Count 1: 0
 ROB Critical Load Stall End Bucket Count 1: 0
 ROB Load Stall Begin Bucket Count 2: 66537
 ROB Load Stall End Bucket Count 2: 72718
 ROB Critical Load Stall Begin Bucket Count 2: 0
 ROB Critical Load Stall End Bucket Count 2: 0
 ROB Load Stall Begin Bucket Count 3: 79334
 ROB Load Stall End Bucket Count 3: 73719
 ROB Critical Load Stall Begin Bucket Count 3: 0
 ROB Critical Load Stall End Bucket Count 3: 0
 ROB Load Stall Begin Bucket Count 4: 68836
 ROB Load Stall End Bucket Count 4: 70010
 ROB Critical Load Stall Begin Bucket Count 4: 0
 ROB Critical Load Stall End Bucket Count 4: 0
 ROB Load Stall Begin Bucket Count 5: 70721
 ROB Load Stall End Bucket Count 5: 71332
 ROB Critical Load Stall Begin Bucket Count 5: 0
 ROB Critical Load Stall End Bucket Count 5: 0
 ROB Load Stall Begin Bucket Count 6: 1748901
 ROB Load Stall End Bucket Count 6: 1784164
 ROB Critical Load Stall Begin Bucket Count 6: 0
 ROB Critical Load Stall End Bucket Count 6: 0
PIST Tag Read Accesses: 412420
PIST Read Accesses: 206210
PIST Tag Write Accesses: 412420
PIST Write Accesses: 206210
Criticality detector called times: 1655668
Max global_stall_cycles_count: 994309
Threshold Modified: 0 times, factor: 0
Sturdy critical IP cache stats: 
 Unused entries: 0
CIC Tag Read Accesses: 0
CIC Read Accesses: 0
CIC Tag Write Accesses: 0
CIC Write Accesses: 0
Wobbly critical IP cache stats: 
 Unused entries: 27
CIC Tag Read Accesses: 256324741
CIC Read Accesses: 0
CIC Tag Write Accesses: 2449581
CIC Write Accesses: 0
ITLB TOTAL     ACCESS:   14863332  HIT:   14863288  MISS:         44  HIT %:    99.9997  MISS %: 0.000296031   MPKI: 0.00044
ITLB LOAD TRANSLATION ACCESS:   14863332  HIT:   14863288  MISS:         44  HIT %:    99.9997  MISS %: 0.000296031   MPKI: 0.00044
ITLB PREFETCH  REQUESTED:          0  ISSUED:          0  USEFUL:          0  USELESS:          0
ITLB USEFUL LOAD PREFETCHES:          0 PREFETCH ISSUED TO LOWER LEVEL:          0  ACCURACY: -nan
ITLB TIMELY PREFETCHES:          0 LATE PREFETCHES: 0 DROPPED PREFETCHES: 0
ITLB PREFETCHES SAME FILL-ORIGIN LEVEL: 0 DIFFERENT FILL-ORIGIN LEVEL: 0
ITLB AVERAGE MISS LATENCY: 244.114 cycles
ITLB RQ	ACCESS:   18255936	FORWARD:          0	MERGED:    3392589	TO_CACHE:   14863347

DTLB TOTAL     ACCESS:   19845332  HIT:   19800960  MISS:      44372  HIT %:    99.7764  MISS %:   0.223589   MPKI: 0.44372
DTLB LOAD TRANSLATION ACCESS:   19845332  HIT:   19800960  MISS:      44372  HIT %:    99.7764  MISS %:   0.223589   MPKI: 0.44372
DTLB PREFETCH  REQUESTED:          0  ISSUED:          0  USEFUL:          0  USELESS:          0
DTLB USEFUL LOAD PREFETCHES:          0 PREFETCH ISSUED TO LOWER LEVEL:          0  ACCURACY: -nan
DTLB TIMELY PREFETCHES:          0 LATE PREFETCHES: 0 DROPPED PREFETCHES: 0
DTLB PREFETCHES SAME FILL-ORIGIN LEVEL: 0 DIFFERENT FILL-ORIGIN LEVEL: 0
DTLB AVERAGE MISS LATENCY: 24.951 cycles
DTLB RQ	ACCESS:   22220171	FORWARD:          0	MERGED:    2356914	TO_CACHE:   19863257

STLB TOTAL     ACCESS:     686658  HIT:     680762  MISS:       5896  HIT %:    99.1413  MISS %:   0.858652   MPKI: 0.05896
STLB LOAD TRANSLATION ACCESS:      44416  HIT:      38520  MISS:       5896  HIT %:    86.7255  MISS %:    13.2745   MPKI: 0.05896
STLB TRANSLATION FROM L1D PREFETCHER ACCESS:     642242  HIT:     642242  MISS:          0  HIT %:        100  MISS %:          0   MPKI: 0
STLB PREFETCH  REQUESTED:          0  ISSUED:          0  USEFUL:          0  USELESS:          0
STLB USEFUL LOAD PREFETCHES:          0 PREFETCH ISSUED TO LOWER LEVEL:          0  ACCURACY: -nan
STLB TIMELY PREFETCHES:          0 LATE PREFETCHES: 0 DROPPED PREFETCHES: 0
STLB PREFETCHES SAME FILL-ORIGIN LEVEL: 0 DIFFERENT FILL-ORIGIN LEVEL: 0
STLB AVERAGE MISS LATENCY: 120.548 cycles
STLB RQ	ACCESS:    1455997	FORWARD:          0	MERGED:     769339	TO_CACHE:     686658

STLB Hit, L1D data hit: 0
STLB Hit, L2C data hit: 0
STLB Hit, LLC data hit: 0
STLB Hit, LLC data miss: 0
STLB STLB hints to L2: 0
L1D TOTAL     ACCESS:   22857754  HIT:   21687811  MISS:    1169943  HIT %:    94.8816  MISS %:    5.11836   MPKI: 11.6994
L1D LOAD      ACCESS:   18009407  HIT:   17684561  MISS:     324846  HIT %:    98.1962  MISS %:    1.80376   MPKI: 3.24846
L1D RFO       ACCESS:    3467483  HIT:    3246670  MISS:     220813  HIT %:    93.6319  MISS %:    6.36811   MPKI: 2.20813
L1D PREFETCH  ACCESS:    1380864  HIT:     756580  MISS:     624284  HIT %:    54.7903  MISS %:    45.2097   MPKI: 6.24284
L1D PREFETCH  REQUESTED:    3157377  ISSUED:    2823263  USEFUL:     525009  USELESS:      99254
L1D USEFUL LOAD PREFETCHES:     525009 PREFETCH ISSUED TO LOWER LEVEL:     642219  ACCURACY: 81.7492
L1D TIMELY PREFETCHES:     525009 LATE PREFETCHES: 17378 DROPPED PREFETCHES: 0
L1D PREFETCHES SAME FILL-ORIGIN LEVEL: 642219 DIFFERENT FILL-ORIGIN LEVEL: 0
L1D AVERAGE MISS LATENCY: 1.21293e+06 cycles
L1D RQ	ACCESS:   26006088	FORWARD:          0	MERGED:    7846605	TO_CACHE:   18154736
L1D WQ	ACCESS:    4083148	FORWARD:       4842	MERGED:      17713	TO_CACHE:    4065435
L1D PQ	ACCESS:    1411682	FORWARD:          0	MERGED:          6	TO_CACHE:    1411581

L1D UNIQUE REGIONS ACCESSED: 0
L1D REGIONS CONFLICTS: 0
L1D Cross Page Prefetch Requests: 0
L1D Same Page Prefetch Requests: 1411682
L1D ROI Sum of L1D PQ occupancy: 45246127
L1D PREFETCHES PUSHED FROM L2C: 0
L1I TOTAL     ACCESS:   18254896  HIT:   18252820  MISS:       2076  HIT %:    99.9886  MISS %:  0.0113723   MPKI: 0.02076
L1I LOAD      ACCESS:   18254896  HIT:   18252820  MISS:       2076  HIT %:    99.9886  MISS %:  0.0113723   MPKI: 0.02076
L1I PREFETCH  REQUESTED:          0  ISSUED:          0  USEFUL:          0  USELESS:          0
L1I USEFUL LOAD PREFETCHES:          0 PREFETCH ISSUED TO LOWER LEVEL:          0  ACCURACY: -nan
L1I TIMELY PREFETCHES:          0 LATE PREFETCHES: 0 DROPPED PREFETCHES: 0
L1I PREFETCHES SAME FILL-ORIGIN LEVEL: 0 DIFFERENT FILL-ORIGIN LEVEL: 0
L1I AVERAGE MISS LATENCY: 224.49 cycles
L1I RQ	ACCESS:   28769156	FORWARD:          0	MERGED:   10513220	TO_CACHE:   18255936

BTB TOTAL     ACCESS:    4428774  HIT:    4427950  MISS:        824  HIT %:    99.9814  MISS %:  0.0186056   MPKI: 0.00824
BTB BRANCH_DIRECT_JUMP	ACCESS:     279102  HIT:     279036  MISS:         66
BTB BRANCH_INDIRECT	ACCESS:          6  HIT:          4  MISS:          2
BTB BRANCH_CONDITIONAL	ACCESS:    3632369  HIT:    3632018  MISS:        351
BTB BRANCH_DIRECT_CALL	ACCESS:     258649  HIT:     258495  MISS:        154
BTB BRANCH_INDIRECT_CALL	ACCESS:          0  HIT:          0  MISS:          0
BTB BRANCH_RETURN	ACCESS:     258648  HIT:     258397  MISS:        251
BTB BRANCH_OTHER ACCESS:          0  HIT:          0  MISS:          0

L2C TOTAL     ACCESS:    1618595  HIT:     759880  MISS:     858715  HIT %:    46.9469  MISS %:    53.0531   MPKI: 8.58715
L2C LOAD      ACCESS:     309543  HIT:     154237  MISS:     155306  HIT %:    49.8273  MISS %:    50.1727   MPKI: 1.55306
L2C DATA LOAD MPKI: 1.5323
L2C INSTRUCTION LOAD MPKI: 0.02076
L2C RFO       ACCESS:     220263  HIT:      27333  MISS:     192930  HIT %:    12.4093  MISS %:    87.5907   MPKI: 1.9293
L2C PREFETCH  ACCESS:     642207  HIT:     137400  MISS:     504807  HIT %:     21.395  MISS %:     78.605   MPKI: 5.04807
L2C DATA PREFETCH MPKI: 5.04807
L2C INSTRUCTION PREFETCH MPKI: 0
L2C WRITEBACK ACCESS:     440667  HIT:     436088  MISS:       4579  HIT %:    98.9609  MISS %:    1.03911   MPKI: 0.04579
L2C LOAD TRANSLATION ACCESS:       5915  HIT:       4822  MISS:       1093  HIT %:    81.5216  MISS %:    18.4784   MPKI: 0.01093
L2C PREFETCH  REQUESTED:          0  ISSUED:          0  USEFUL:      54242  USELESS:     448452
L2C USEFUL LOAD PREFETCHES:      54242 PREFETCH ISSUED TO LOWER LEVEL:     504814  ACCURACY: 10.7449
L2C TIMELY PREFETCHES:      54242 LATE PREFETCHES: 0 DROPPED PREFETCHES: 0
L2C PREFETCHES SAME FILL-ORIGIN LEVEL: 0 DIFFERENT FILL-ORIGIN LEVEL: 0
L2C AVERAGE MISS LATENCY: 203.161 cycles
L2C RQ	ACCESS:     535727	FORWARD:          0	MERGED:          0	TO_CACHE:     535726
L2C WQ	ACCESS:     440667	FORWARD:          6	MERGED:          0	TO_CACHE:     440667
L2C PQ	ACCESS:     642219	FORWARD:          0	MERGED:          0	TO_CACHE:     642214

L2C Instructions Evicting Data 2075
L2C Translations Evicting Data 1092
L2C Data Evicting Data 847836
L2C Instructions Evicting Instructions 0
L2C Translations Evicting Instructions 1
L2C Data Evicting Instructions 2068
L2C Instructions Evicting Translations 1
L2C Translations Evicting Translations 0
L2C Data Evicting Translations 1063
L2C Dense regions hint from L2: 0
PSCL5 TOTAL     ACCESS:       5896  HIT:       5896  MISS:          0  HIT %:        100  MISS %:          0   MPKI: 0
PSCL5 LOAD TRANSLATION ACCESS:       5896  HIT:       5896  MISS:          0  HIT %:        100  MISS %:          0   MPKI: 0
PSCL5 PREFETCH  REQUESTED:          0  ISSUED:          0  USEFUL:          0  USELESS:          0
PSCL5 USEFUL LOAD PREFETCHES:          0 PREFETCH ISSUED TO LOWER LEVEL:          0  ACCURACY: -nan
PSCL5 TIMELY PREFETCHES:          0 LATE PREFETCHES: 0 DROPPED PREFETCHES: 0
PSCL5 PREFETCHES SAME FILL-ORIGIN LEVEL: 0 DIFFERENT FILL-ORIGIN LEVEL: 0

PSCL4 TOTAL     ACCESS:       5896  HIT:       5896  MISS:          0  HIT %:        100  MISS %:          0   MPKI: 0
PSCL4 LOAD TRANSLATION ACCESS:       5896  HIT:       5896  MISS:          0  HIT %:        100  MISS %:          0   MPKI: 0
PSCL4 PREFETCH  REQUESTED:          0  ISSUED:          0  USEFUL:          0  USELESS:          0
PSCL4 USEFUL LOAD PREFETCHES:          0 PREFETCH ISSUED TO LOWER LEVEL:          0  ACCURACY: -nan
PSCL4 TIMELY PREFETCHES:          0 LATE PREFETCHES: 0 DROPPED PREFETCHES: 0
PSCL4 PREFETCHES SAME FILL-ORIGIN LEVEL: 0 DIFFERENT FILL-ORIGIN LEVEL: 0

PSCL3 TOTAL     ACCESS:       5896  HIT:       5896  MISS:          0  HIT %:        100  MISS %:          0   MPKI: 0
PSCL3 LOAD TRANSLATION ACCESS:       5896  HIT:       5896  MISS:          0  HIT %:        100  MISS %:          0   MPKI: 0
PSCL3 PREFETCH  REQUESTED:          0  ISSUED:          0  USEFUL:          0  USELESS:          0
PSCL3 USEFUL LOAD PREFETCHES:          0 PREFETCH ISSUED TO LOWER LEVEL:          0  ACCURACY: -nan
PSCL3 TIMELY PREFETCHES:          0 LATE PREFETCHES: 0 DROPPED PREFETCHES: 0
PSCL3 PREFETCHES SAME FILL-ORIGIN LEVEL: 0 DIFFERENT FILL-ORIGIN LEVEL: 0

PSCL2 TOTAL     ACCESS:       5896  HIT:       5873  MISS:         23  HIT %:    99.6099  MISS %:   0.390095   MPKI: 0.00023
PSCL2 LOAD TRANSLATION ACCESS:       5896  HIT:       5873  MISS:         23  HIT %:    99.6099  MISS %:   0.390095   MPKI: 0.00023
PSCL2 PREFETCH  REQUESTED:          0  ISSUED:          0  USEFUL:          0  USELESS:          0
PSCL2 USEFUL LOAD PREFETCHES:          0 PREFETCH ISSUED TO LOWER LEVEL:          0  ACCURACY: -nan
PSCL2 TIMELY PREFETCHES:          0 LATE PREFETCHES: 0 DROPPED PREFETCHES: 0
PSCL2 PREFETCHES SAME FILL-ORIGIN LEVEL: 0 DIFFERENT FILL-ORIGIN LEVEL: 0

LLC TOTAL     ACCESS:    1242465  HIT:     649422  MISS:     593043  HIT %:    52.2688  MISS %:    47.7312   MPKI: 5.93043
LLC LOAD      ACCESS:     155305  HIT:      75685  MISS:      79620  HIT %:    48.7331  MISS %:    51.2669   MPKI: 0.7962
LLC RFO       ACCESS:     192930  HIT:      25937  MISS:     166993  HIT %:    13.4437  MISS %:    86.5563   MPKI: 1.66993
LLC PREFETCH  ACCESS:     504804  HIT:     172518  MISS:     332286  HIT %:    34.1752  MISS %:    65.8248   MPKI: 3.32286
LLC WRITEBACK ACCESS:     388333  HIT:     375188  MISS:      13145  HIT %:     96.615  MISS %:    3.38498   MPKI: 0.13145
LLC LOAD TRANSLATION ACCESS:       1093  HIT:         94  MISS:        999  HIT %:    8.60018  MISS %:    91.3998   MPKI: 0.00999
LLC PREFETCH  REQUESTED:          0  ISSUED:          0  USEFUL:      36326  USELESS:     281122
LLC USEFUL LOAD PREFETCHES:      36326 PREFETCH ISSUED TO LOWER LEVEL:     332290  ACCURACY: 10.932
LLC TIMELY PREFETCHES:      36326 LATE PREFETCHES: 0 DROPPED PREFETCHES: 0
LLC PREFETCHES SAME FILL-ORIGIN LEVEL: 0 DIFFERENT FILL-ORIGIN LEVEL: 0
LLC AVERAGE MISS LATENCY: 250.663 cycles
LLC RQ	ACCESS:     349333	FORWARD:          0	MERGED:          0	TO_CACHE:     349332
LLC WQ	ACCESS:     388333	FORWARD:          4	MERGED:          0	TO_CACHE:     388333
LLC PQ	ACCESS:     504814	FORWARD:          0	MERGED:          0	TO_CACHE:     504811

LLC Dense regions hint to LLC: 0

RAW hits: 53944
Loads Generated: 26060038
Loads sent to L1D: 26006088
Stores Generated: 4083143
Stores sent to L1D: 4083148
Major fault: 0 Minor fault: 6967
Allocated PAGES: 6967

stream: 
stream:times selected: 844299
stream:pref_filled: 598258
stream:pref_useful: 505770
stream:pref_late: 16404
stream:misses: 7996
stream:misses_by_poll: 0

CS: 
CS:times selected: 791814
CS:pref_filled: 25294
CS:pref_useful: 19082
CS:pref_late: 445
CS:misses: 114067
CS:misses_by_poll: 360

CPLX: 
CPLX:times selected: 52405
CPLX:pref_filled: 658
CPLX:pref_useful: 156
CPLX:pref_late: 20
CPLX:misses: 32029
CPLX:misses_by_poll: 1

NL_L1: 
NL:times selected: 224
NL:pref_filled: 74
NL:pref_useful: 1
NL:pref_late: 1
NL:misses: 208
NL:misses_by_poll: 0

total selections: 1688742
total_filled: 624284
total_useful: 525009
total_late: 17378
total_polluted: 361
total_misses_after_warmup: 154548
conflicts: 184
Degree Incremented Times: 42560
Degree Decremented Times: 100878

L1 IP Table Write Accesses: 9630875
L1 IP Table Read Accesses: 9630691
L1 RST Write Accesses: 844300
L1 RST Read Accesses: 1688592
L1 CSPT Write Accesses: 844300
L1 CSPT Read Accesses: 900279
L1 RR Filter Tag Write Accesses: 1745796
L1 RR Filter Tag Read Accesses: 174164598
L1 IP Table Tag Write Accesses: 9738972
L1 IP Table Tag Read Accesses: 9738972
L1 RST Tag Write Accesses: 56
L1 RST Tag Read Accesses: 7583777
L1 RR Filter Write Accesses: 0
L1 RR Filter Read Accesses: 7090958
test: 33658

DRAM Statistics
 CHANNEL 0
 RQ ROW_BUFFER_HIT:     162945  ROW_BUFFER_MISS:     416679
 DBUS_CONGESTED:        477
 WQ ROW_BUFFER_HIT:      44933  ROW_BUFFER_MISS:     232303  FULL:          0

 AVG_CONGESTED_CYCLE: 4
 All warmup complete: 2
Channel 0 Bank busy for read cycles: 0
Channel 0 Bank busy for write cycles: 0
Channel 0
Rank 0
0banks busy for read cycles: 73542678
0banks busy for write cycles: 50923
1banks busy for read cycles: 15596767
1banks busy for write cycles: 6117890
2banks busy for read cycles: 6196229
2banks busy for write cycles: 2246772
3banks busy for read cycles: 2133648
3banks busy for write cycles: 830753
4banks busy for read cycles: 1158824
4banks busy for write cycles: 455795
5banks busy for read cycles: 982251
5banks busy for write cycles: 334680
6banks busy for read cycles: 977829
6banks busy for write cycles: 296993
7banks busy for read cycles: 1250133
7banks busy for write cycles: 561838
8banks busy for read cycles: 1750508
8banks busy for write cycles: 3731471

CPU 0 Branch Prediction Accuracy: 99.89% MPKI: 0.07455 Average ROB Occupancy at Mispredict: 176.293
Branch types
NOT_BRANCH: 93224408 93.2244%
BRANCH_DIRECT_JUMP: 279102 0.279102%
BRANCH_INDIRECT: 6 6e-06%
BRANCH_CONDITIONAL: 5979034 5.97903%
BRANCH_DIRECT_CALL: 258649 0.258649%
BRANCH_INDIRECT_CALL: 0 0%
BRANCH_RETURN: 258648 0.258648%
BRANCH_OTHER: 0 0%

DRAM PAGES: 1048576
Allocated PAGES: 6967
