
*** ChampSim Multicore Out-of-Order Simulator ***

Warmup Instructions: 50000000
Simulation Instructions: 100000000
Number of CPUs: 1
LLC sets: 2048
LLC ways: 16
Off-chip DRAM Size: 4096 MB Channels: 1 Width: 64-bit Data Rate: 6400 MT/s
CPU 0 runs ../SPEC2017//621.wrf_s-8065B.champsimtrace.xz
.xz
NUM_OF_IPS_IN_CRITICAL_IP_TRAINING: 64
NUM_OF_CRITICAL_IP_TRAINING_TABLE_WAYS: 2
NUM_OF_CRITICAL_IP_TRAINING_TABLE_SETS: 32
WOBBLY_CRITICAL_IP_CACHE_SETS: 32
WOBBLY_CRITICAL_IP_CACHE_WAYS: 4
BTB has LRU replacement policy
ITLB has LRU replacement policy
DTLB has LRU replacement policy
STLB has LRU replacement policy
L1I has LRU replacement policy
IP Table Entries: 64
L1D has LRU replacement policy
IP_Table L2 entries: 64
Initialize SRRIP state for L2C
Initialize DRRIP state for LLC
Heartbeat CPU 0 instructions: 10000002 cycles: 3025599 heartbeat IPC: 3.30513 cumulative IPC: 3.30513 (Simulation time: 0 hr 7 min 29 sec) 
Heartbeat CPU 0 instructions: 20000000 cycles: 6035818 heartbeat IPC: 3.32202 cumulative IPC: 3.31355 (Simulation time: 0 hr 13 min 27 sec) 
Heartbeat CPU 0 instructions: 30000000 cycles: 9021786 heartbeat IPC: 3.349 cumulative IPC: 3.32528 (Simulation time: 0 hr 18 min 27 sec) 
Heartbeat CPU 0 instructions: 40000003 cycles: 12091639 heartbeat IPC: 3.25749 cumulative IPC: 3.30807 (Simulation time: 0 hr 23 min 2 sec) 
Heartbeat CPU 0 instructions: 50000002 cycles: 15093307 heartbeat IPC: 3.33148 cumulative IPC: 3.31273 (Simulation time: 0 hr 27 min 40 sec) 

Warmup complete CPU 0 instructions: 50000002 cycles: 15093307 (Simulation time: 0 hr 27 min 40 sec) 

% increase in all ip prefetch 434.951
% increase in all ip prefetch -0.181901
Heartbeat CPU 0 instructions: 60000003 cycles: 24482994 heartbeat IPC: 1.065 cumulative IPC: 1.065 (Simulation time: 0 hr 31 min 5 sec) 
Heartbeat CPU 0 instructions: 70000000 cycles: 35384164 heartbeat IPC: 0.917332 cumulative IPC: 0.985666 (Simulation time: 0 hr 34 min 12 sec) 
Heartbeat CPU 0 instructions: 80000001 cycles: 45063482 heartbeat IPC: 1.03313 cumulative IPC: 1.001 (Simulation time: 0 hr 37 min 48 sec) 
Heartbeat CPU 0 instructions: 90000000 cycles: 55783323 heartbeat IPC: 0.93285 cumulative IPC: 0.983042 (Simulation time: 0 hr 40 min 30 sec) 
Heartbeat CPU 0 instructions: 100000000 cycles: 65638018 heartbeat IPC: 1.01474 cumulative IPC: 0.989223 (Simulation time: 0 hr 43 min 26 sec) 
Heartbeat CPU 0 instructions: 110000000 cycles: 76179697 heartbeat IPC: 0.948615 cumulative IPC: 0.982215 (Simulation time: 0 hr 45 min 50 sec) 
Heartbeat CPU 0 instructions: 120000000 cycles: 89725885 heartbeat IPC: 0.738215 cumulative IPC: 0.937928 (Simulation time: 0 hr 49 min 27 sec) 
Heartbeat CPU 0 instructions: 130000002 cycles: 103348039 heartbeat IPC: 0.734098 cumulative IPC: 0.906467 (Simulation time: 0 hr 53 min 10 sec) 
Heartbeat CPU 0 instructions: 140000001 cycles: 116971186 heartbeat IPC: 0.734045 cumulative IPC: 0.883411 (Simulation time: 0 hr 56 min 53 sec) 
Heartbeat CPU 0 instructions: 150000002 cycles: 132396296 heartbeat IPC: 0.648294 cumulative IPC: 0.852493 (Simulation time: 1 hr 4 min 49 sec) 
Finished CPU 0 instructions: 100000000 cycles: 117302989 cumulative IPC: 0.852493 (Simulation time: 1 hr 4 min 49 sec) 

ChampSim completed all CPUs

Region of Interest Statistics

CPU 0 cumulative IPC: 0.852493 instructions: 100000000 cycles: 117302989

CPU 0 Average Load ROB stall cycles: 4.03846e+06
CPU 0 Fraction of times ROB stalled by Loads: 6.75702
CPU 0 Percentage of Load stall cycles in Total stall cycles: 1.2317e+08
 Total stall cycles: 74348170
 Total load stall cycles: 91574560352636
CPU 0 NUM of IPS identified critical: 37
CPU 0 Num of Load IPs stalling ROB: 823
Threshold modification factor: -1
Max PIST entries: 59
Min PIST entries: 0
Avg PIST entries: 22.9533
Trouble in retire width: 0.899273
MaC = Marked as critical.
lt_50_percent_before_Mac: 34
gt_90_percent_before_Mac: 0
gt_75_percent_before_Mac: 1
gt_50_percent_before_Mac: 2
stall_proportion_bin_same_before_after: 0
stall_proportion_bin_lower_before_after: 0
stall_proportion_bin_upper_before_after: 0
average_stall_proportion_before: 0.0656349
average_stall_proportion_after: 0.0607792
Critical IP stalls, total frequency: 254116
Non-critical IP stalls, total frequency: 1275752
Critical_IP_ROB_Stalls_Bucket_0: 87267
Non-critical_IP_ROB_Stalls_Bucket_0: 1205519
Critical_IP_ROB_Stalls_Bucket_1: 65539
Non-critical_IP_ROB_Stalls_Bucket_1: 55983
Critical_IP_ROB_Stalls_Bucket_2: 5066
Non-critical_IP_ROB_Stalls_Bucket_2: 3430
Critical_IP_ROB_Stalls_Bucket_3: 3485
Non-critical_IP_ROB_Stalls_Bucket_3: 2489
Critical_IP_ROB_Stalls_Bucket_4: 3110
Non-critical_IP_ROB_Stalls_Bucket_4: 2109
Critical_IP_ROB_Stalls_Bucket_5: 3511
Non-critical_IP_ROB_Stalls_Bucket_5: 1016
Critical_IP_ROB_Stalls_Bucket_6: 86138
Non-critical_IP_ROB_Stalls_Bucket_6: 7536
0 => IPs accounting for >50 percent of stalls, 1 => 55, 2 => 60, 3 => 65 and so on till 90.
percent50: 52.3824 num IPs:12
percent55: 55.6349 num IPs:13
percent60: 60.7074 num IPs:15
percent65: 66.0685 num IPs:18
percent70: 70.2533 num IPs:21
percent75: 75.1701 num IPs:26
percent80: 80.4013 num IPs:33
percent85: 85.1768 num IPs:43
percent90: 90.1346 num IPs:61
Critical_ROB_Stalls_Percent_0_Bucket_0: 797839
Non-critical_ROB_Stalls_Percent_0_Bucket_0: 494947
Critical_ROB_Stalls_Percent_0_Bucket_1: 1772
Non-critical_ROB_Stalls_Percent_0_Bucket_1: 119750
Critical_ROB_Stalls_Percent_0_Bucket_2: 493
Non-critical_ROB_Stalls_Percent_0_Bucket_2: 8003
Critical_ROB_Stalls_Percent_0_Bucket_3: 866
Non-critical_ROB_Stalls_Percent_0_Bucket_3: 5108
Critical_ROB_Stalls_Percent_0_Bucket_4: 186
Non-critical_ROB_Stalls_Percent_0_Bucket_4: 5033
Critical_ROB_Stalls_Percent_0_Bucket_5: 69
Non-critical_ROB_Stalls_Percent_0_Bucket_5: 4458
Critical_ROB_Stalls_Percent_0_Bucket_6: 156
Non-critical_ROB_Stalls_Percent_0_Bucket_6: 93518
Critical_ROB_Stalls_Percent_1_Bucket_0: 847589
Non-critical_ROB_Stalls_Percent_1_Bucket_0: 445197
Critical_ROB_Stalls_Percent_1_Bucket_1: 1780
Non-critical_ROB_Stalls_Percent_1_Bucket_1: 119742
Critical_ROB_Stalls_Percent_1_Bucket_2: 494
Non-critical_ROB_Stalls_Percent_1_Bucket_2: 8002
Critical_ROB_Stalls_Percent_1_Bucket_3: 867
Non-critical_ROB_Stalls_Percent_1_Bucket_3: 5107
Critical_ROB_Stalls_Percent_1_Bucket_4: 186
Non-critical_ROB_Stalls_Percent_1_Bucket_4: 5033
Critical_ROB_Stalls_Percent_1_Bucket_5: 69
Non-critical_ROB_Stalls_Percent_1_Bucket_5: 4458
Critical_ROB_Stalls_Percent_1_Bucket_6: 156
Non-critical_ROB_Stalls_Percent_1_Bucket_6: 93518
Critical_ROB_Stalls_Percent_2_Bucket_0: 890066
Non-critical_ROB_Stalls_Percent_2_Bucket_0: 402720
Critical_ROB_Stalls_Percent_2_Bucket_1: 2249
Non-critical_ROB_Stalls_Percent_2_Bucket_1: 119273
Critical_ROB_Stalls_Percent_2_Bucket_2: 1054
Non-critical_ROB_Stalls_Percent_2_Bucket_2: 7442
Critical_ROB_Stalls_Percent_2_Bucket_3: 1796
Non-critical_ROB_Stalls_Percent_2_Bucket_3: 4178
Critical_ROB_Stalls_Percent_2_Bucket_4: 706
Non-critical_ROB_Stalls_Percent_2_Bucket_4: 4513
Critical_ROB_Stalls_Percent_2_Bucket_5: 711
Non-critical_ROB_Stalls_Percent_2_Bucket_5: 3816
Critical_ROB_Stalls_Percent_2_Bucket_6: 32161
Non-critical_ROB_Stalls_Percent_2_Bucket_6: 61513
Critical_ROB_Stalls_Percent_3_Bucket_0: 971787
Non-critical_ROB_Stalls_Percent_3_Bucket_0: 320999
Critical_ROB_Stalls_Percent_3_Bucket_1: 2484
Non-critical_ROB_Stalls_Percent_3_Bucket_1: 119038
Critical_ROB_Stalls_Percent_3_Bucket_2: 1088
Non-critical_ROB_Stalls_Percent_3_Bucket_2: 7408
Critical_ROB_Stalls_Percent_3_Bucket_3: 1818
Non-critical_ROB_Stalls_Percent_3_Bucket_3: 4156
Critical_ROB_Stalls_Percent_3_Bucket_4: 710
Non-critical_ROB_Stalls_Percent_3_Bucket_4: 4509
Critical_ROB_Stalls_Percent_3_Bucket_5: 713
Non-critical_ROB_Stalls_Percent_3_Bucket_5: 3814
Critical_ROB_Stalls_Percent_3_Bucket_6: 32161
Non-critical_ROB_Stalls_Percent_3_Bucket_6: 61513
Critical_ROB_Stalls_Percent_4_Bucket_0: 1033862
Non-critical_ROB_Stalls_Percent_4_Bucket_0: 258924
Critical_ROB_Stalls_Percent_4_Bucket_1: 3674
Non-critical_ROB_Stalls_Percent_4_Bucket_1: 117848
Critical_ROB_Stalls_Percent_4_Bucket_2: 1261
Non-critical_ROB_Stalls_Percent_4_Bucket_2: 7235
Critical_ROB_Stalls_Percent_4_Bucket_3: 1980
Non-critical_ROB_Stalls_Percent_4_Bucket_3: 3994
Critical_ROB_Stalls_Percent_4_Bucket_4: 805
Non-critical_ROB_Stalls_Percent_4_Bucket_4: 4414
Critical_ROB_Stalls_Percent_4_Bucket_5: 813
Non-critical_ROB_Stalls_Percent_4_Bucket_5: 3714
Critical_ROB_Stalls_Percent_4_Bucket_6: 32387
Non-critical_ROB_Stalls_Percent_4_Bucket_6: 61287
Critical_ROB_Stalls_Percent_5_Bucket_0: 1078437
Non-critical_ROB_Stalls_Percent_5_Bucket_0: 214349
Critical_ROB_Stalls_Percent_5_Bucket_1: 30813
Non-critical_ROB_Stalls_Percent_5_Bucket_1: 90709
Critical_ROB_Stalls_Percent_5_Bucket_2: 2569
Non-critical_ROB_Stalls_Percent_5_Bucket_2: 5927
Critical_ROB_Stalls_Percent_5_Bucket_3: 2616
Non-critical_ROB_Stalls_Percent_5_Bucket_3: 3358
Critical_ROB_Stalls_Percent_5_Bucket_4: 1406
Non-critical_ROB_Stalls_Percent_5_Bucket_4: 3813
Critical_ROB_Stalls_Percent_5_Bucket_5: 1197
Non-critical_ROB_Stalls_Percent_5_Bucket_5: 3330
Critical_ROB_Stalls_Percent_5_Bucket_6: 32966
Non-critical_ROB_Stalls_Percent_5_Bucket_6: 60708
Critical_ROB_Stalls_Percent_6_Bucket_0: 1114409
Non-critical_ROB_Stalls_Percent_6_Bucket_0: 178377
Critical_ROB_Stalls_Percent_6_Bucket_1: 53415
Non-critical_ROB_Stalls_Percent_6_Bucket_1: 68107
Critical_ROB_Stalls_Percent_6_Bucket_2: 3260
Non-critical_ROB_Stalls_Percent_6_Bucket_2: 5236
Critical_ROB_Stalls_Percent_6_Bucket_3: 3240
Non-critical_ROB_Stalls_Percent_6_Bucket_3: 2734
Critical_ROB_Stalls_Percent_6_Bucket_4: 2118
Non-critical_ROB_Stalls_Percent_6_Bucket_4: 3101
Critical_ROB_Stalls_Percent_6_Bucket_5: 1714
Non-critical_ROB_Stalls_Percent_6_Bucket_5: 2813
Critical_ROB_Stalls_Percent_6_Bucket_6: 51877
Non-critical_ROB_Stalls_Percent_6_Bucket_6: 41797
Critical_ROB_Stalls_Percent_7_Bucket_0: 1163105
Non-critical_ROB_Stalls_Percent_7_Bucket_0: 129681
Critical_ROB_Stalls_Percent_7_Bucket_1: 69781
Non-critical_ROB_Stalls_Percent_7_Bucket_1: 51741
Critical_ROB_Stalls_Percent_7_Bucket_2: 3881
Non-critical_ROB_Stalls_Percent_7_Bucket_2: 4615
Critical_ROB_Stalls_Percent_7_Bucket_3: 3706
Non-critical_ROB_Stalls_Percent_7_Bucket_3: 2268
Critical_ROB_Stalls_Percent_7_Bucket_4: 2518
Non-critical_ROB_Stalls_Percent_7_Bucket_4: 2701
Critical_ROB_Stalls_Percent_7_Bucket_5: 2295
Non-critical_ROB_Stalls_Percent_7_Bucket_5: 2232
Critical_ROB_Stalls_Percent_7_Bucket_6: 57806
Non-critical_ROB_Stalls_Percent_7_Bucket_6: 35868
Critical_ROB_Stalls_Percent_8_Bucket_0: 1207987
Non-critical_ROB_Stalls_Percent_8_Bucket_0: 84799
Critical_ROB_Stalls_Percent_8_Bucket_1: 82963
Non-critical_ROB_Stalls_Percent_8_Bucket_1: 38559
Critical_ROB_Stalls_Percent_8_Bucket_2: 4832
Non-critical_ROB_Stalls_Percent_8_Bucket_2: 3664
Critical_ROB_Stalls_Percent_8_Bucket_3: 4216
Non-critical_ROB_Stalls_Percent_8_Bucket_3: 1758
Critical_ROB_Stalls_Percent_8_Bucket_4: 2927
Non-critical_ROB_Stalls_Percent_8_Bucket_4: 2292
Critical_ROB_Stalls_Percent_8_Bucket_5: 2724
Non-critical_ROB_Stalls_Percent_8_Bucket_5: 1803
Critical_ROB_Stalls_Percent_8_Bucket_6: 73292
Non-critical_ROB_Stalls_Percent_8_Bucket_6: 20382
Average ROB occupancy Load Stall Begin: 44.3364
Average ROB occupancy Load Stall End: 48.8379
Min ROB occupancy Load Stall Begin: 1
Max ROB occupancy Load Stall Begin: 351
Min ROB occupancy Load Stall End: 1
Max ROB occupancy Load Stall End: 352
Average ROB occupancy Critical Load Stall Begin: 153.814
Average ROB occupancy Critical Load Stall End: 160.855
Min ROB occupancy Critical Load Stall Begin: 2
Max ROB occupancy Critical Load Stall Begin: 351
Min ROB occupancy Critical Load Stall End: 2
Max ROB occupancy Critical Load Stall End: 352
 ROB Load Stall Begin Bucket Count 0: 1316671
 ROB Load Stall End Bucket Count 0: 1292786
 ROB Critical Load Stall Begin Bucket Count 0: 86068
 ROB Critical Load Stall End Bucket Count 0: 77765
 ROB Load Stall Begin Bucket Count 1: 102884
 ROB Load Stall End Bucket Count 1: 121522
 ROB Critical Load Stall Begin Bucket Count 1: 55100
 ROB Critical Load Stall End Bucket Count 1: 60980
 ROB Load Stall Begin Bucket Count 2: 7089
 ROB Load Stall End Bucket Count 2: 8496
 ROB Critical Load Stall Begin Bucket Count 2: 4071
 ROB Critical Load Stall End Bucket Count 2: 4759
 ROB Load Stall Begin Bucket Count 3: 5445
 ROB Load Stall End Bucket Count 3: 5974
 ROB Critical Load Stall Begin Bucket Count 3: 3036
 ROB Critical Load Stall End Bucket Count 3: 3257
 ROB Load Stall Begin Bucket Count 4: 4248
 ROB Load Stall End Bucket Count 4: 5219
 ROB Critical Load Stall Begin Bucket Count 4: 2831
 ROB Critical Load Stall End Bucket Count 4: 2901
 ROB Load Stall Begin Bucket Count 5: 4748
 ROB Load Stall End Bucket Count 5: 4527
 ROB Critical Load Stall Begin Bucket Count 5: 3546
 ROB Critical Load Stall End Bucket Count 5: 3231
 ROB Load Stall Begin Bucket Count 6: 91113
 ROB Load Stall End Bucket Count 6: 93674
 ROB Critical Load Stall Begin Bucket Count 6: 82438
 ROB Critical Load Stall End Bucket Count 6: 84197
PIST Tag Read Accesses: 141988
PIST Read Accesses: 70994
PIST Tag Write Accesses: 141988
PIST Write Accesses: 70994
Criticality detector called times: 673142
Max global_stall_cycles_count: 258342
Threshold Modified: 1 times, factor: -1
ITLB TOTAL     ACCESS:   14839733  HIT:   14839689  MISS:         44  HIT %:    99.9997  MISS %: 0.000296501   MPKI: 0.00044
ITLB LOAD TRANSLATION ACCESS:   14839733  HIT:   14839689  MISS:         44  HIT %:    99.9997  MISS %: 0.000296501   MPKI: 0.00044
ITLB PREFETCH  REQUESTED:          0  ISSUED:          0  USEFUL:          0  USELESS:          0
ITLB USEFUL LOAD PREFETCHES:          0 PREFETCH ISSUED TO LOWER LEVEL:          0  ACCURACY: -nan
ITLB TIMELY PREFETCHES:          0 LATE PREFETCHES: 0 DROPPED PREFETCHES: 0
ITLB PREFETCHES SAME FILL-ORIGIN LEVEL: 0 DIFFERENT FILL-ORIGIN LEVEL: 0
ITLB AVERAGE MISS LATENCY: 250.364 cycles
ITLB RQ	ACCESS:   18230083	FORWARD:          0	MERGED:    3390335	TO_CACHE:   14839748

DTLB TOTAL     ACCESS:   20478780  HIT:   20434378  MISS:      44402  HIT %:    99.7832  MISS %:    0.21682   MPKI: 0.44402
DTLB LOAD TRANSLATION ACCESS:   20478780  HIT:   20434378  MISS:      44402  HIT %:    99.7832  MISS %:    0.21682   MPKI: 0.44402
DTLB PREFETCH  REQUESTED:          0  ISSUED:          0  USEFUL:          0  USELESS:          0
DTLB USEFUL LOAD PREFETCHES:          0 PREFETCH ISSUED TO LOWER LEVEL:          0  ACCURACY: -nan
DTLB TIMELY PREFETCHES:          0 LATE PREFETCHES: 0 DROPPED PREFETCHES: 0
DTLB PREFETCHES SAME FILL-ORIGIN LEVEL: 0 DIFFERENT FILL-ORIGIN LEVEL: 0
DTLB AVERAGE MISS LATENCY: 25.7456 cycles
DTLB RQ	ACCESS:   22925881	FORWARD:          0	MERGED:    2429456	TO_CACHE:   20496425

STLB TOTAL     ACCESS:    1177816  HIT:    1171924  MISS:       5892  HIT %:    99.4998  MISS %:   0.500248   MPKI: 0.05892
STLB LOAD TRANSLATION ACCESS:      44446  HIT:      38555  MISS:       5891  HIT %:    86.7457  MISS %:    13.2543   MPKI: 0.05891
STLB TRANSLATION FROM L1D PREFETCHER ACCESS:    1133370  HIT:    1133369  MISS:          1  HIT %:    99.9999  MISS %: 8.82324e-05   MPKI: 1e-05
STLB PREFETCH  REQUESTED:          0  ISSUED:          0  USEFUL:          1  USELESS:          0
STLB USEFUL LOAD PREFETCHES:          1 PREFETCH ISSUED TO LOWER LEVEL:          0  ACCURACY: inf
STLB TIMELY PREFETCHES:          1 LATE PREFETCHES: 0 DROPPED PREFETCHES: 0
STLB PREFETCHES SAME FILL-ORIGIN LEVEL: 0 DIFFERENT FILL-ORIGIN LEVEL: 0
STLB AVERAGE MISS LATENCY: 126.857 cycles
STLB RQ	ACCESS:    3643316	FORWARD:          0	MERGED:    2465500	TO_CACHE:    1177816

STLB Hit, L1D data hit: 0
STLB Hit, L2C data hit: 0
STLB Hit, LLC data hit: 0
STLB Hit, LLC data miss: 0
STLB STLB hints to L2: 0
L1D TOTAL     ACCESS:   25905589  HIT:   24704483  MISS:    1201106  HIT %:    95.3635  MISS %:    4.63647   MPKI: 12.0111
L1D LOAD      ACCESS:   18832855  HIT:   18707379  MISS:     125476  HIT %:    99.3337  MISS %:   0.666261   MPKI: 1.25476
L1D RFO       ACCESS:    3493844  HIT:    3280371  MISS:     213473  HIT %:      93.89  MISS %:    6.10998   MPKI: 2.13473
L1D PREFETCH  ACCESS:    3578890  HIT:    2716733  MISS:     862157  HIT %:    75.9099  MISS %:    24.0901   MPKI: 8.62157
L1D PREFETCH  REQUESTED:    7600397  ISSUED:    7198275  USEFUL:     734246  USELESS:     127916
L1D USEFUL LOAD PREFETCHES:     734246 PREFETCH ISSUED TO LOWER LEVEL:    1027135  ACCURACY: 71.4849
L1D TIMELY PREFETCHES:     734246 LATE PREFETCHES: 8189 DROPPED PREFETCHES: 0
L1D PREFETCHES SAME FILL-ORIGIN LEVEL: 1027135 DIFFERENT FILL-ORIGIN LEVEL: 0
L1D AVERAGE MISS LATENCY: 577879 cycles
L1D RQ	ACCESS:   26011583	FORWARD:          0	MERGED:    7145507	TO_CACHE:   18860465
L1D WQ	ACCESS:    4083148	FORWARD:       5631	MERGED:      17732	TO_CACHE:    4065416
L1D PQ	ACCESS:    3599405	FORWARD:          0	MERGED:        515	TO_CACHE:    3598870

L1D UNIQUE REGIONS ACCESSED: 0
L1D REGIONS CONFLICTS: 0
L1D Cross Page Prefetch Requests: 0
L1D Same Page Prefetch Requests: 7253367
L1D ROI Sum of L1D PQ occupancy: 72918063
L1D PREFETCHES PUSHED FROM L2C: 0
L1I TOTAL     ACCESS:   18229065  HIT:   18226989  MISS:       2076  HIT %:    99.9886  MISS %:  0.0113884   MPKI: 0.02076
L1I LOAD      ACCESS:   18229065  HIT:   18226989  MISS:       2076  HIT %:    99.9886  MISS %:  0.0113884   MPKI: 0.02076
L1I PREFETCH  REQUESTED:          0  ISSUED:          0  USEFUL:          0  USELESS:          0
L1I USEFUL LOAD PREFETCHES:          0 PREFETCH ISSUED TO LOWER LEVEL:          0  ACCURACY: -nan
L1I TIMELY PREFETCHES:          0 LATE PREFETCHES: 0 DROPPED PREFETCHES: 0
L1I PREFETCHES SAME FILL-ORIGIN LEVEL: 0 DIFFERENT FILL-ORIGIN LEVEL: 0
L1I AVERAGE MISS LATENCY: 237.808 cycles
L1I RQ	ACCESS:   28716118	FORWARD:          0	MERGED:   10486035	TO_CACHE:   18230083

BTB TOTAL     ACCESS:    4428758  HIT:    4427934  MISS:        824  HIT %:    99.9814  MISS %:  0.0186057   MPKI: 0.00824
BTB BRANCH_DIRECT_JUMP	ACCESS:     279102  HIT:     279036  MISS:         66
BTB BRANCH_INDIRECT	ACCESS:          6  HIT:          4  MISS:          2
BTB BRANCH_CONDITIONAL	ACCESS:    3632353  HIT:    3632002  MISS:        351
BTB BRANCH_DIRECT_CALL	ACCESS:     258649  HIT:     258495  MISS:        154
BTB BRANCH_INDIRECT_CALL	ACCESS:          0  HIT:          0  MISS:          0
BTB BRANCH_RETURN	ACCESS:     258648  HIT:     258397  MISS:        251
BTB BRANCH_OTHER ACCESS:          0  HIT:          0  MISS:          0

L2C TOTAL     ACCESS:    4256972  HIT:    3315588  MISS:     941384  HIT %:    77.8861  MISS %:    22.1139   MPKI: 9.41384
L2C LOAD      ACCESS:     119363  HIT:      69111  MISS:      50252  HIT %:    57.8999  MISS %:    42.1001   MPKI: 0.50252
L2C DATA LOAD MPKI: 0.48176
L2C INSTRUCTION LOAD MPKI: 0.02076
L2C RFO       ACCESS:     212952  HIT:      27825  MISS:     185127  HIT %:    13.0663  MISS %:    86.9337   MPKI: 1.85127
L2C PREFETCH  ACCESS:    3477833  HIT:    2780606  MISS:     697227  HIT %:    79.9523  MISS %:    20.0477   MPKI: 6.97227
L2C DATA PREFETCH MPKI: 6.97227
L2C INSTRUCTION PREFETCH MPKI: 0
L2C WRITEBACK ACCESS:     440913  HIT:     433251  MISS:       7662  HIT %:    98.2622  MISS %:    1.73776   MPKI: 0.07662
L2C LOAD TRANSLATION ACCESS:       5910  HIT:       4795  MISS:       1115  HIT %:    81.1337  MISS %:    18.8663   MPKI: 0.01115
L2C TRANSLATION FROM L1D PREFETCHER ACCESS:          1  HIT:          0  MISS:          1  HIT %:          0  MISS %:        100   MPKI: 1e-05
L2C PREFETCH  REQUESTED:    4061116  ISSUED:    3578194  USEFUL:      52931  USELESS:     646253
L2C USEFUL LOAD PREFETCHES:      52931 PREFETCH ISSUED TO LOWER LEVEL:     699312  ACCURACY: 7.56901
L2C TIMELY PREFETCHES:      52931 LATE PREFETCHES: 2080 DROPPED PREFETCHES: 0
L2C PREFETCHES SAME FILL-ORIGIN LEVEL: 559290 DIFFERENT FILL-ORIGIN LEVEL: 0
L2C AVERAGE MISS LATENCY: 230.2 cycles
L2C RQ	ACCESS:     338232	FORWARD:          0	MERGED:          0	TO_CACHE:     338228
L2C WQ	ACCESS:     440913	FORWARD:         27	MERGED:          0	TO_CACHE:     440913
L2C PQ	ACCESS:    4449059	FORWARD:          0	MERGED:     748750	TO_CACHE:    3700286

L2C Instructions Evicting Data 2073
L2C Translations Evicting Data 1116
L2C Data Evicting Data 927382
L2C Instructions Evicting Instructions 0
L2C Translations Evicting Instructions 0
L2C Data Evicting Instructions 2062
L2C Instructions Evicting Translations 3
L2C Translations Evicting Translations 0
L2C Data Evicting Translations 1086
L2C Dense regions hint from L2: 0
PSCL5 TOTAL     ACCESS:       5892  HIT:       5892  MISS:          0  HIT %:        100  MISS %:          0   MPKI: 0
PSCL5 LOAD TRANSLATION ACCESS:       5891  HIT:       5891  MISS:          0  HIT %:        100  MISS %:          0   MPKI: 0
PSCL5 TRANSLATION FROM L1D PREFETCHER ACCESS:          1  HIT:          1  MISS:          0  HIT %:        100  MISS %:          0   MPKI: 0
PSCL5 PREFETCH  REQUESTED:          0  ISSUED:          0  USEFUL:          0  USELESS:          0
PSCL5 USEFUL LOAD PREFETCHES:          0 PREFETCH ISSUED TO LOWER LEVEL:          0  ACCURACY: -nan
PSCL5 TIMELY PREFETCHES:          0 LATE PREFETCHES: 0 DROPPED PREFETCHES: 0
PSCL5 PREFETCHES SAME FILL-ORIGIN LEVEL: 0 DIFFERENT FILL-ORIGIN LEVEL: 0

PSCL4 TOTAL     ACCESS:       5892  HIT:       5892  MISS:          0  HIT %:        100  MISS %:          0   MPKI: 0
PSCL4 LOAD TRANSLATION ACCESS:       5891  HIT:       5891  MISS:          0  HIT %:        100  MISS %:          0   MPKI: 0
PSCL4 TRANSLATION FROM L1D PREFETCHER ACCESS:          1  HIT:          1  MISS:          0  HIT %:        100  MISS %:          0   MPKI: 0
PSCL4 PREFETCH  REQUESTED:          0  ISSUED:          0  USEFUL:          0  USELESS:          0
PSCL4 USEFUL LOAD PREFETCHES:          0 PREFETCH ISSUED TO LOWER LEVEL:          0  ACCURACY: -nan
PSCL4 TIMELY PREFETCHES:          0 LATE PREFETCHES: 0 DROPPED PREFETCHES: 0
PSCL4 PREFETCHES SAME FILL-ORIGIN LEVEL: 0 DIFFERENT FILL-ORIGIN LEVEL: 0

PSCL3 TOTAL     ACCESS:       5892  HIT:       5892  MISS:          0  HIT %:        100  MISS %:          0   MPKI: 0
PSCL3 LOAD TRANSLATION ACCESS:       5891  HIT:       5891  MISS:          0  HIT %:        100  MISS %:          0   MPKI: 0
PSCL3 TRANSLATION FROM L1D PREFETCHER ACCESS:          1  HIT:          1  MISS:          0  HIT %:        100  MISS %:          0   MPKI: 0
PSCL3 PREFETCH  REQUESTED:          0  ISSUED:          0  USEFUL:          0  USELESS:          0
PSCL3 USEFUL LOAD PREFETCHES:          0 PREFETCH ISSUED TO LOWER LEVEL:          0  ACCURACY: -nan
PSCL3 TIMELY PREFETCHES:          0 LATE PREFETCHES: 0 DROPPED PREFETCHES: 0
PSCL3 PREFETCHES SAME FILL-ORIGIN LEVEL: 0 DIFFERENT FILL-ORIGIN LEVEL: 0

PSCL2 TOTAL     ACCESS:       5892  HIT:       5869  MISS:         23  HIT %:    99.6096  MISS %:    0.39036   MPKI: 0.00023
PSCL2 LOAD TRANSLATION ACCESS:       5891  HIT:       5868  MISS:         23  HIT %:    99.6096  MISS %:   0.390426   MPKI: 0.00023
PSCL2 TRANSLATION FROM L1D PREFETCHER ACCESS:          1  HIT:          1  MISS:          0  HIT %:        100  MISS %:          0   MPKI: 0
PSCL2 PREFETCH  REQUESTED:          0  ISSUED:          0  USEFUL:          0  USELESS:          0
PSCL2 USEFUL LOAD PREFETCHES:          0 PREFETCH ISSUED TO LOWER LEVEL:          0  ACCURACY: -nan
PSCL2 TIMELY PREFETCHES:          0 LATE PREFETCHES: 0 DROPPED PREFETCHES: 0
PSCL2 PREFETCHES SAME FILL-ORIGIN LEVEL: 0 DIFFERENT FILL-ORIGIN LEVEL: 0

LLC TOTAL     ACCESS:    1328599  HIT:     691892  MISS:     636707  HIT %:    52.0768  MISS %:    47.9232   MPKI: 6.36707
LLC LOAD      ACCESS:      48497  HIT:      12929  MISS:      35568  HIT %:    26.6594  MISS %:    73.3406   MPKI: 0.35568
LLC RFO       ACCESS:     184801  HIT:      27904  MISS:     156897  HIT %:    15.0995  MISS %:    84.9005   MPKI: 1.56897
LLC PREFETCH  ACCESS:     699304  HIT:     265918  MISS:     433386  HIT %:    38.0261  MISS %:    61.9739   MPKI: 4.33386
LLC WRITEBACK ACCESS:     394881  HIT:     385026  MISS:       9855  HIT %:    97.5043  MISS %:    2.49569   MPKI: 0.09855
LLC LOAD TRANSLATION ACCESS:       1115  HIT:        115  MISS:       1000  HIT %:    10.3139  MISS %:    89.6861   MPKI: 0.01
LLC TRANSLATION FROM L1D PREFETCHER ACCESS:          1  HIT:          0  MISS:          1  HIT %:          0  MISS %:        100   MPKI: 1e-05
LLC PREFETCH  REQUESTED:          0  ISSUED:          0  USEFUL:      15316  USELESS:     422466
LLC USEFUL LOAD PREFETCHES:      15316 PREFETCH ISSUED TO LOWER LEVEL:     433391  ACCURACY: 3.53399
LLC TIMELY PREFETCHES:      15316 LATE PREFETCHES: 0 DROPPED PREFETCHES: 0
LLC PREFETCHES SAME FILL-ORIGIN LEVEL: 0 DIFFERENT FILL-ORIGIN LEVEL: 0
LLC AVERAGE MISS LATENCY: 296.609 cycles
LLC RQ	ACCESS:     234417	FORWARD:          0	MERGED:          0	TO_CACHE:     234416
LLC WQ	ACCESS:     394884	FORWARD:          4	MERGED:          0	TO_CACHE:     394884
LLC PQ	ACCESS:     699312	FORWARD:          0	MERGED:          0	TO_CACHE:     699309

LLC Dense regions hint to LLC: 0

RAW hits: 48436
Loads Generated: 26060014
Loads sent to L1D: 26011583
Stores Generated: 4083140
Stores sent to L1D: 4083148
Major fault: 0 Minor fault: 6967
Allocated PAGES: 6967

stream: 
stream:times selected: 3308850
stream:pref_filled: 1584519
stream:pref_useful: 1321111
stream:pref_late: 9728
stream:misses: 16543
stream:misses_by_poll: 0

CS: 
CS:times selected: 2812581
CS:pref_filled: 124628
CS:pref_useful: 95169
CS:pref_late: 507
CS:misses: 128618
CS:misses_by_poll: 405

CPLX: 
CPLX:times selected: 496112
CPLX:pref_filled: 42718
CPLX:pref_useful: 32770
CPLX:pref_late: 235
CPLX:misses: 45328
CPLX:misses_by_poll: 56

NL_L1: 
NL:times selected: 707
NL:pref_filled: 262
NL:pref_useful: 4
NL:pref_late: 5
NL:misses: 463
NL:misses_by_poll: 0

total selections: 6618250
total_filled: 862157
total_useful: 734246
total_late: 10916
total_polluted: 461
total_misses_after_warmup: 153087
conflicts: 330878
Degree Incremented Times: 234632
Degree Decremented Times: 15129

L1 IP Table Write Accesses: 17045915
L1 IP Table Read Accesses: 16715037
L1 RST Write Accesses: 1718638
L1 RST Read Accesses: 3437276
L1 CSPT Write Accesses: 1718638
L1 CSPT Read Accesses: 2521512
L1 RR Filter Tag Write Accesses: 4001527
L1 RR Filter Tag Read Accesses: 351742190
L1 IP Table Tag Write Accesses: 18860466
L1 IP Table Tag Read Accesses: 18860466
L1 RST Tag Write Accesses: 0
L1 RST Tag Read Accesses: 15332923
L1 RR Filter Write Accesses: 0
L1 RR Filter Read Accesses: 14539352
test: 147061
L2 IP Table Read Accesses: 1635628
L2 IP Table Write Accesses: 1530508
L2 IP Table Tag Read Accesses: 824148
L2 IP Table Tag Write Accesses: 824148

DRAM Statistics
 CHANNEL 0
 RQ ROW_BUFFER_HIT:     213912  ROW_BUFFER_MISS:     412657
 DBUS_CONGESTED:        364
 WQ ROW_BUFFER_HIT:      47728  ROW_BUFFER_MISS:     241849  FULL:        311

 AVG_CONGESTED_CYCLE: 5
 All warmup complete: 2
Channel 0 Bank busy for read cycles: 0
Channel 0 Bank busy for write cycles: 0
Channel 0
Rank 0
0banks busy for read cycles: 78642171
0banks busy for write cycles: 44089
1banks busy for read cycles: 10733992
1banks busy for write cycles: 5143567
2banks busy for read cycles: 4750506
2banks busy for write cycles: 1689828
3banks busy for read cycles: 2027632
3banks busy for write cycles: 862224
4banks busy for read cycles: 1322486
4banks busy for write cycles: 558142
5banks busy for read cycles: 1092500
5banks busy for write cycles: 415562
6banks busy for read cycles: 928869
6banks busy for write cycles: 370821
7banks busy for read cycles: 1305531
7banks busy for write cycles: 629071
8banks busy for read cycles: 2879369
8banks busy for write cycles: 3906630

CPU 0 Branch Prediction Accuracy: 99.89% MPKI: 0.07455 Average ROB Occupancy at Mispredict: 156.259
Branch types
NOT_BRANCH: 93224228 93.2242%
BRANCH_DIRECT_JUMP: 279102 0.279102%
BRANCH_INDIRECT: 6 6e-06%
BRANCH_CONDITIONAL: 5979015 5.97902%
BRANCH_DIRECT_CALL: 258649 0.258649%
BRANCH_INDIRECT_CALL: 0 0%
BRANCH_RETURN: 258648 0.258648%
BRANCH_OTHER: 0 0%

DRAM PAGES: 1048576
Allocated PAGES: 6967
