Initialize SIGNATURE TABLE
ST_SET: 1
ST_WAY: 256
ST_TAG_BIT: 16
ST_TAG_MASK: ffff

Initialize PATTERN TABLE
PT_SET: 512
PT_WAY: 4
SIG_DELTA_BIT: 7
C_SIG_BIT: 4
C_DELTA_BIT: 4

Initialize PREFETCH FILTER
FILTER_SET: 1024

*** ChampSim Multicore Out-of-Order Simulator ***

Warmup Instructions: 50000000
Simulation Instructions: 100000000
Number of CPUs: 1
LLC sets: 2048
LLC ways: 16
Off-chip DRAM Size: 4096 MB Channels: 1 Width: 64-bit Data Rate: 6400 MT/s
CPU 0 runs ../SPEC2017//623.xalancbmk_s-202B.champsimtrace.xz
.xz
BTB has LRU replacement policy
ITLB has LRU replacement policy
DTLB has LRU replacement policy
STLB has LRU replacement policy
L1I has LRU replacement policy
L1D has LRU replacement policy
Initialize SRRIP state for L2C
Initialize DRRIP state for LLC
Heartbeat CPU 0 instructions: 10000001 cycles: 2854459 heartbeat IPC: 3.50329 cumulative IPC: 3.50329 (Simulation time: 0 hr 5 min 18 sec) 
Heartbeat CPU 0 instructions: 20000002 cycles: 5706525 heartbeat IPC: 3.50623 cumulative IPC: 3.50476 (Simulation time: 0 hr 10 min 27 sec) 
Heartbeat CPU 0 instructions: 30000001 cycles: 8563049 heartbeat IPC: 3.50076 cumulative IPC: 3.50343 (Simulation time: 0 hr 15 min 26 sec) 
Heartbeat CPU 0 instructions: 40000002 cycles: 11414083 heartbeat IPC: 3.5075 cumulative IPC: 3.50444 (Simulation time: 0 hr 20 min 2 sec) 
Heartbeat CPU 0 instructions: 50000000 cycles: 14272481 heartbeat IPC: 3.49846 cumulative IPC: 3.50325 (Simulation time: 0 hr 24 min 15 sec) 

Warmup complete CPU 0 instructions: 50000004 cycles: 14272482 (Simulation time: 0 hr 24 min 15 sec) 

Heartbeat CPU 0 instructions: 60000002 cycles: 35640367 heartbeat IPC: 0.467992 cumulative IPC: 0.467992 (Simulation time: 0 hr 31 min 43 sec) 
Heartbeat CPU 0 instructions: 70000002 cycles: 56562564 heartbeat IPC: 0.477961 cumulative IPC: 0.472924 (Simulation time: 0 hr 38 min 36 sec) 
Heartbeat CPU 0 instructions: 80000000 cycles: 77650110 heartbeat IPC: 0.474213 cumulative IPC: 0.473353 (Simulation time: 0 hr 45 min 8 sec) 
Heartbeat CPU 0 instructions: 90000001 cycles: 98680161 heartbeat IPC: 0.47551 cumulative IPC: 0.47389 (Simulation time: 0 hr 51 min 0 sec) 
Heartbeat CPU 0 instructions: 100000002 cycles: 119531359 heartbeat IPC: 0.479589 cumulative IPC: 0.475019 (Simulation time: 0 hr 56 min 38 sec) 
Heartbeat CPU 0 instructions: 110000000 cycles: 140528320 heartbeat IPC: 0.476259 cumulative IPC: 0.475226 (Simulation time: 1 hr 2 min 8 sec) 
Heartbeat CPU 0 instructions: 120000002 cycles: 161149782 heartbeat IPC: 0.484932 cumulative IPC: 0.476588 (Simulation time: 1 hr 7 min 23 sec) 
Heartbeat CPU 0 instructions: 130000002 cycles: 181415102 heartbeat IPC: 0.493454 cumulative IPC: 0.478633 (Simulation time: 1 hr 19 min 54 sec) 
Heartbeat CPU 0 instructions: 140000001 cycles: 202137265 heartbeat IPC: 0.482575 cumulative IPC: 0.479068 (Simulation time: 1 hr 30 min 36 sec) 
Heartbeat CPU 0 instructions: 150000001 cycles: 222831563 heartbeat IPC: 0.483225 cumulative IPC: 0.47948 (Simulation time: 1 hr 39 min 33 sec) 
Finished CPU 0 instructions: 100000001 cycles: 208559082 cumulative IPC: 0.47948 (Simulation time: 1 hr 39 min 33 sec) 

ChampSim completed all CPUs

Region of Interest Statistics

CPU 0 cumulative IPC: 0.47948 instructions: 100000001 cycles: 208559082

CPU 0 Average Load ROB stall cycles: 4.93051e+07
CPU 0 Fraction of times ROB stalled by Loads: 41.6185
CPU 0 Percentage of Load stall cycles in Total stall cycles: 3.10331e+08
Issued all: 166063722
Issued LT all: 156133258
rob_not_full_when_issued_lt_all: 36128430
Issued LT one: 143060989
rob_not_full_when_issued_lt_one: 31744469
 Total stall cycles: 184221583
 Total load stall cycles: 571697017132636
Unique Load IPs: 56
CPU 0 NUM of IPS identified critical: 7
CPU 0 Num of Load IPs stalling ROB: 0
Threshold modification factor: 0
Trouble in retire width: -nan
MaC = Marked as critical.
lt_50_percent_before_Mac: 6
gt_90_percent_before_Mac: 0
gt_75_percent_before_Mac: 1
gt_50_percent_before_Mac: 0
stall_proportion_bin_same_before_after: 0
stall_proportion_bin_lower_before_after: 0
stall_proportion_bin_upper_before_after: 0
average_stall_proportion_before: 0.0123836
average_stall_proportion_after: 0.0136229
Critical_IP_Detector_Accuracy_70: 0
Critical_IP_Detector_Accuracy_80: 0
Critical_IP_Detector_Accuracy_90: 0
Critical_IP_Detector_Coverage_70: 0
Critical_IP_Detector_Coverage_80: 0
Critical_IP_Detector_Coverage_90: 0
stat_90_percent_critical_ip_stalls_freq: 441800
stat_90_percent_non_critical_ip_stalls_freq: 18446744073709109816
AVERAGE_ROB_Occupancy_90_Percent_Critical_IP_Stalls: 349.94
AVERAGE_ROB_Occupancy_90_Percent_Non_Critical_IP_Stalls: 7.71684e-11
Critical_IP_ROB_Stalls_Bucket_0: 22
Non-critical_IP_ROB_Stalls_Bucket_0: 8820
Critical_IP_ROB_Stalls_Bucket_1: 184
Non-critical_IP_ROB_Stalls_Bucket_1: 10521
Critical_IP_ROB_Stalls_Bucket_2: 101
Non-critical_IP_ROB_Stalls_Bucket_2: 6292
Critical_IP_ROB_Stalls_Bucket_3: 512
Non-critical_IP_ROB_Stalls_Bucket_3: 7470
Critical_IP_ROB_Stalls_Bucket_4: 293
Non-critical_IP_ROB_Stalls_Bucket_4: 11823
Critical_IP_ROB_Stalls_Bucket_5: 411
Non-critical_IP_ROB_Stalls_Bucket_5: 678913
Critical_IP_ROB_Stalls_Bucket_6: 188828
Non-critical_IP_ROB_Stalls_Bucket_6: 3911513
0 => IPs accounting for >50 percent of stalls, 1 => 55, 2 => 60, 3 => 65 and so on till 90.
percent50: inf num IPs:  1
percent55: inf num IPs: 1
percent60: inf num IPs: 1
percent65: inf num IPs: 1
percent70: inf num IPs: 1
percent75: inf num IPs: 1
percent80: inf num IPs: 1
percent85: inf num IPs: 1
percent90: inf num IPs: 1
Critical_ROB_Stalls_Percent_0_Bucket_0: 0
Non-critical_ROB_Stalls_Percent_0_Bucket_0: 8842
Critical_ROB_Stalls_Percent_0_Bucket_1: 462
Non-critical_ROB_Stalls_Percent_0_Bucket_1: 10243
Critical_ROB_Stalls_Percent_0_Bucket_2: 965
Non-critical_ROB_Stalls_Percent_0_Bucket_2: 5428
Critical_ROB_Stalls_Percent_0_Bucket_3: 881
Non-critical_ROB_Stalls_Percent_0_Bucket_3: 7101
Critical_ROB_Stalls_Percent_0_Bucket_4: 852
Non-critical_ROB_Stalls_Percent_0_Bucket_4: 11264
Critical_ROB_Stalls_Percent_0_Bucket_5: 791
Non-critical_ROB_Stalls_Percent_0_Bucket_5: 678533
Critical_ROB_Stalls_Percent_0_Bucket_6: 437849
Non-critical_ROB_Stalls_Percent_0_Bucket_6: 3662492
Critical_ROB_Stalls_Percent_1_Bucket_0: 0
Non-critical_ROB_Stalls_Percent_1_Bucket_0: 8842
Critical_ROB_Stalls_Percent_1_Bucket_1: 462
Non-critical_ROB_Stalls_Percent_1_Bucket_1: 10243
Critical_ROB_Stalls_Percent_1_Bucket_2: 965
Non-critical_ROB_Stalls_Percent_1_Bucket_2: 5428
Critical_ROB_Stalls_Percent_1_Bucket_3: 881
Non-critical_ROB_Stalls_Percent_1_Bucket_3: 7101
Critical_ROB_Stalls_Percent_1_Bucket_4: 852
Non-critical_ROB_Stalls_Percent_1_Bucket_4: 11264
Critical_ROB_Stalls_Percent_1_Bucket_5: 791
Non-critical_ROB_Stalls_Percent_1_Bucket_5: 678533
Critical_ROB_Stalls_Percent_1_Bucket_6: 437849
Non-critical_ROB_Stalls_Percent_1_Bucket_6: 3662492
Critical_ROB_Stalls_Percent_2_Bucket_0: 0
Non-critical_ROB_Stalls_Percent_2_Bucket_0: 8842
Critical_ROB_Stalls_Percent_2_Bucket_1: 462
Non-critical_ROB_Stalls_Percent_2_Bucket_1: 10243
Critical_ROB_Stalls_Percent_2_Bucket_2: 965
Non-critical_ROB_Stalls_Percent_2_Bucket_2: 5428
Critical_ROB_Stalls_Percent_2_Bucket_3: 881
Non-critical_ROB_Stalls_Percent_2_Bucket_3: 7101
Critical_ROB_Stalls_Percent_2_Bucket_4: 852
Non-critical_ROB_Stalls_Percent_2_Bucket_4: 11264
Critical_ROB_Stalls_Percent_2_Bucket_5: 791
Non-critical_ROB_Stalls_Percent_2_Bucket_5: 678533
Critical_ROB_Stalls_Percent_2_Bucket_6: 437849
Non-critical_ROB_Stalls_Percent_2_Bucket_6: 3662492
Critical_ROB_Stalls_Percent_3_Bucket_0: 0
Non-critical_ROB_Stalls_Percent_3_Bucket_0: 8842
Critical_ROB_Stalls_Percent_3_Bucket_1: 462
Non-critical_ROB_Stalls_Percent_3_Bucket_1: 10243
Critical_ROB_Stalls_Percent_3_Bucket_2: 965
Non-critical_ROB_Stalls_Percent_3_Bucket_2: 5428
Critical_ROB_Stalls_Percent_3_Bucket_3: 881
Non-critical_ROB_Stalls_Percent_3_Bucket_3: 7101
Critical_ROB_Stalls_Percent_3_Bucket_4: 852
Non-critical_ROB_Stalls_Percent_3_Bucket_4: 11264
Critical_ROB_Stalls_Percent_3_Bucket_5: 791
Non-critical_ROB_Stalls_Percent_3_Bucket_5: 678533
Critical_ROB_Stalls_Percent_3_Bucket_6: 437849
Non-critical_ROB_Stalls_Percent_3_Bucket_6: 3662492
Critical_ROB_Stalls_Percent_4_Bucket_0: 0
Non-critical_ROB_Stalls_Percent_4_Bucket_0: 8842
Critical_ROB_Stalls_Percent_4_Bucket_1: 462
Non-critical_ROB_Stalls_Percent_4_Bucket_1: 10243
Critical_ROB_Stalls_Percent_4_Bucket_2: 965
Non-critical_ROB_Stalls_Percent_4_Bucket_2: 5428
Critical_ROB_Stalls_Percent_4_Bucket_3: 881
Non-critical_ROB_Stalls_Percent_4_Bucket_3: 7101
Critical_ROB_Stalls_Percent_4_Bucket_4: 852
Non-critical_ROB_Stalls_Percent_4_Bucket_4: 11264
Critical_ROB_Stalls_Percent_4_Bucket_5: 791
Non-critical_ROB_Stalls_Percent_4_Bucket_5: 678533
Critical_ROB_Stalls_Percent_4_Bucket_6: 437849
Non-critical_ROB_Stalls_Percent_4_Bucket_6: 3662492
Critical_ROB_Stalls_Percent_5_Bucket_0: 0
Non-critical_ROB_Stalls_Percent_5_Bucket_0: 8842
Critical_ROB_Stalls_Percent_5_Bucket_1: 462
Non-critical_ROB_Stalls_Percent_5_Bucket_1: 10243
Critical_ROB_Stalls_Percent_5_Bucket_2: 965
Non-critical_ROB_Stalls_Percent_5_Bucket_2: 5428
Critical_ROB_Stalls_Percent_5_Bucket_3: 881
Non-critical_ROB_Stalls_Percent_5_Bucket_3: 7101
Critical_ROB_Stalls_Percent_5_Bucket_4: 852
Non-critical_ROB_Stalls_Percent_5_Bucket_4: 11264
Critical_ROB_Stalls_Percent_5_Bucket_5: 791
Non-critical_ROB_Stalls_Percent_5_Bucket_5: 678533
Critical_ROB_Stalls_Percent_5_Bucket_6: 437849
Non-critical_ROB_Stalls_Percent_5_Bucket_6: 3662492
Critical_ROB_Stalls_Percent_6_Bucket_0: 0
Non-critical_ROB_Stalls_Percent_6_Bucket_0: 8842
Critical_ROB_Stalls_Percent_6_Bucket_1: 462
Non-critical_ROB_Stalls_Percent_6_Bucket_1: 10243
Critical_ROB_Stalls_Percent_6_Bucket_2: 965
Non-critical_ROB_Stalls_Percent_6_Bucket_2: 5428
Critical_ROB_Stalls_Percent_6_Bucket_3: 881
Non-critical_ROB_Stalls_Percent_6_Bucket_3: 7101
Critical_ROB_Stalls_Percent_6_Bucket_4: 852
Non-critical_ROB_Stalls_Percent_6_Bucket_4: 11264
Critical_ROB_Stalls_Percent_6_Bucket_5: 791
Non-critical_ROB_Stalls_Percent_6_Bucket_5: 678533
Critical_ROB_Stalls_Percent_6_Bucket_6: 437849
Non-critical_ROB_Stalls_Percent_6_Bucket_6: 3662492
Critical_ROB_Stalls_Percent_7_Bucket_0: 0
Non-critical_ROB_Stalls_Percent_7_Bucket_0: 8842
Critical_ROB_Stalls_Percent_7_Bucket_1: 462
Non-critical_ROB_Stalls_Percent_7_Bucket_1: 10243
Critical_ROB_Stalls_Percent_7_Bucket_2: 965
Non-critical_ROB_Stalls_Percent_7_Bucket_2: 5428
Critical_ROB_Stalls_Percent_7_Bucket_3: 881
Non-critical_ROB_Stalls_Percent_7_Bucket_3: 7101
Critical_ROB_Stalls_Percent_7_Bucket_4: 852
Non-critical_ROB_Stalls_Percent_7_Bucket_4: 11264
Critical_ROB_Stalls_Percent_7_Bucket_5: 791
Non-critical_ROB_Stalls_Percent_7_Bucket_5: 678533
Critical_ROB_Stalls_Percent_7_Bucket_6: 437849
Non-critical_ROB_Stalls_Percent_7_Bucket_6: 3662492
Critical_ROB_Stalls_Percent_8_Bucket_0: 0
Non-critical_ROB_Stalls_Percent_8_Bucket_0: 8842
Critical_ROB_Stalls_Percent_8_Bucket_1: 462
Non-critical_ROB_Stalls_Percent_8_Bucket_1: 10243
Critical_ROB_Stalls_Percent_8_Bucket_2: 965
Non-critical_ROB_Stalls_Percent_8_Bucket_2: 5428
Critical_ROB_Stalls_Percent_8_Bucket_3: 881
Non-critical_ROB_Stalls_Percent_8_Bucket_3: 7101
Critical_ROB_Stalls_Percent_8_Bucket_4: 852
Non-critical_ROB_Stalls_Percent_8_Bucket_4: 11264
Critical_ROB_Stalls_Percent_8_Bucket_5: 791
Non-critical_ROB_Stalls_Percent_8_Bucket_5: 678533
Critical_ROB_Stalls_Percent_8_Bucket_6: 437849
Non-critical_ROB_Stalls_Percent_8_Bucket_6: 3662492
Average ROB occupancy Load Stall Begin: 316.665
Average ROB occupancy Load Stall End: 327.022
Min ROB occupancy Load Stall Begin: 1
Max ROB occupancy Load Stall Begin: 352
Min ROB occupancy Load Stall End: 1
Max ROB occupancy Load Stall End: 352
Average ROB occupancy Critical Load Stall Begin: 349.888
Average ROB occupancy Critical Load Stall End: 350.643
Min ROB occupancy Critical Load Stall Begin: 37
Max ROB occupancy Critical Load Stall Begin: 352
Min ROB occupancy Critical Load Stall End: 37
Max ROB occupancy Critical Load Stall End: 352
 ROB Load Stall Begin Bucket Count 0: 11187
 ROB Load Stall End Bucket Count 0: 8842
 ROB Critical Load Stall Begin Bucket Count 0: 15
 ROB Critical Load Stall End Bucket Count 0: 15
 ROB Load Stall Begin Bucket Count 1: 10595
 ROB Load Stall End Bucket Count 1: 10705
 ROB Critical Load Stall Begin Bucket Count 1: 173
 ROB Critical Load Stall End Bucket Count 1: 154
 ROB Load Stall Begin Bucket Count 2: 6382
 ROB Load Stall End Bucket Count 2: 6393
 ROB Critical Load Stall Begin Bucket Count 2: 84
 ROB Critical Load Stall End Bucket Count 2: 89
 ROB Load Stall Begin Bucket Count 3: 8304
 ROB Load Stall End Bucket Count 3: 7982
 ROB Critical Load Stall Begin Bucket Count 3: 504
 ROB Critical Load Stall End Bucket Count 3: 407
 ROB Load Stall Begin Bucket Count 4: 21235
 ROB Load Stall End Bucket Count 4: 12116
 ROB Critical Load Stall Begin Bucket Count 4: 232
 ROB Critical Load Stall End Bucket Count 4: 252
 ROB Load Stall Begin Bucket Count 5: 1193619
 ROB Load Stall End Bucket Count 5: 679324
 ROB Critical Load Stall Begin Bucket Count 5: 385
 ROB Critical Load Stall End Bucket Count 5: 347
 ROB Load Stall Begin Bucket Count 6: 3574381
 ROB Load Stall End Bucket Count 6: 4100341
 ROB Critical Load Stall Begin Bucket Count 6: 155667
 ROB Critical Load Stall End Bucket Count 6: 155796
PIST Tag Read Accesses: 0
PIST Read Accesses: 0
PIST Tag Write Accesses: 0
PIST Write Accesses: 0
Criticality detector called times: 0
Max global_stall_cycles_count: 0
Threshold Modified: 0 times, factor: 0
Sturdy critical IP cache stats: 
 Unused entries: 0
CIC Tag Read Accesses: 0
CIC Read Accesses: 0
CIC Tag Write Accesses: 0
CIC Write Accesses: 0
Wobbly critical IP cache stats: 
 Unused entries: 19
CIC Tag Read Accesses: 261843177
CIC Read Accesses: 0
CIC Tag Write Accesses: 8332859
CIC Write Accesses: 0
ITLB TOTAL     ACCESS:   15960175  HIT:   15960175  MISS:          0  HIT %:        100  MISS %:          0   MPKI: 0
ITLB LOAD TRANSLATION ACCESS:   15960175  HIT:   15960175  MISS:          0  HIT %:        100  MISS %:          0   MPKI: 0
ITLB PREFETCH  REQUESTED:          0  ISSUED:          0  USEFUL:          0  USELESS:          0
ITLB USEFUL LOAD PREFETCHES:          0 PREFETCH ISSUED TO LOWER LEVEL:          0  ACCURACY: -nan
ITLB TIMELY PREFETCHES:          0 LATE PREFETCHES: 0 DROPPED PREFETCHES: 0
ITLB PREFETCHES SAME FILL-ORIGIN LEVEL: 0 DIFFERENT FILL-ORIGIN LEVEL: 0
ITLB AVERAGE MISS LATENCY: -nan cycles
ITLB RQ	ACCESS:   19597558	FORWARD:          0	MERGED:    3637383	TO_CACHE:   15960175

DTLB TOTAL     ACCESS:   13350090  HIT:   13306168  MISS:      43922  HIT %:     99.671  MISS %:   0.329002   MPKI: 0.43922
DTLB LOAD TRANSLATION ACCESS:   13350090  HIT:   13306168  MISS:      43922  HIT %:     99.671  MISS %:   0.329002   MPKI: 0.43922
DTLB PREFETCH  REQUESTED:          0  ISSUED:          0  USEFUL:          0  USELESS:          0
DTLB USEFUL LOAD PREFETCHES:          0 PREFETCH ISSUED TO LOWER LEVEL:          0  ACCURACY: -nan
DTLB TIMELY PREFETCHES:          0 LATE PREFETCHES: 0 DROPPED PREFETCHES: 0
DTLB PREFETCHES SAME FILL-ORIGIN LEVEL: 0 DIFFERENT FILL-ORIGIN LEVEL: 0
DTLB AVERAGE MISS LATENCY: 9.51824 cycles
DTLB RQ	ACCESS:   15757019	FORWARD:          0	MERGED:    2406767	TO_CACHE:   13350252

STLB TOTAL     ACCESS:      43922  HIT:      43833  MISS:         89  HIT %:    99.7974  MISS %:   0.202632   MPKI: 0.00089
STLB LOAD TRANSLATION ACCESS:      43922  HIT:      43833  MISS:         89  HIT %:    99.7974  MISS %:   0.202632   MPKI: 0.00089
STLB PREFETCH  REQUESTED:          0  ISSUED:          0  USEFUL:          0  USELESS:          0
STLB USEFUL LOAD PREFETCHES:          0 PREFETCH ISSUED TO LOWER LEVEL:          0  ACCURACY: -nan
STLB TIMELY PREFETCHES:          0 LATE PREFETCHES: 0 DROPPED PREFETCHES: 0
STLB PREFETCHES SAME FILL-ORIGIN LEVEL: 0 DIFFERENT FILL-ORIGIN LEVEL: 0
STLB AVERAGE MISS LATENCY: 252.438 cycles
STLB RQ	ACCESS:      43922	FORWARD:          0	MERGED:          0	TO_CACHE:      43922

STLB Hit, L1D data hit: 0
STLB Hit, L2C data hit: 0
STLB Hit, LLC data hit: 0
STLB Hit, LLC data miss: 0
STLB STLB hints to L2: 0
L1D TOTAL     ACCESS:   15548574  HIT:   13038475  MISS:    2510099  HIT %:    83.8564  MISS %:    16.1436   MPKI: 25.101
L1D LOAD      ACCESS:   13780550  HIT:   11270451  MISS:    2510099  HIT %:    81.7852  MISS %:    18.2148   MPKI: 25.101
L1D RFO       ACCESS:    1768024  HIT:    1768024  MISS:          0  HIT %:        100  MISS %:          0   MPKI: 0
L1D PREFETCH  REQUESTED:          0  ISSUED:          0  USEFUL:          0  USELESS:          0
L1D USEFUL LOAD PREFETCHES:          0 PREFETCH ISSUED TO LOWER LEVEL:          0  ACCURACY: -nan
L1D TIMELY PREFETCHES:          0 LATE PREFETCHES: 0 DROPPED PREFETCHES: 0
L1D PREFETCHES SAME FILL-ORIGIN LEVEL: 0 DIFFERENT FILL-ORIGIN LEVEL: 0
L1D AVERAGE MISS LATENCY: 81.6737 cycles
L1D RQ	ACCESS:   29890579	FORWARD:          0	MERGED:   15527473	TO_CACHE:   13988994
L1D WQ	ACCESS:    1768025	FORWARD:     374112	MERGED:          0	TO_CACHE:    1768025

L1D UNIQUE REGIONS ACCESSED: 0
L1D REGIONS CONFLICTS: 0
L1D Cross Page Prefetch Requests: 0
L1D Same Page Prefetch Requests: 0
L1D ROI Sum of L1D PQ occupancy: 0
L1D PREFETCHES PUSHED FROM L2C: 0
L1I TOTAL     ACCESS:   19597556  HIT:   19597556  MISS:          0  HIT %:        100  MISS %:          0   MPKI: 0
L1I LOAD      ACCESS:   19597556  HIT:   19597556  MISS:          0  HIT %:        100  MISS %:          0   MPKI: 0
L1I PREFETCH  REQUESTED:          0  ISSUED:          0  USEFUL:          0  USELESS:          0
L1I USEFUL LOAD PREFETCHES:          0 PREFETCH ISSUED TO LOWER LEVEL:          0  ACCURACY: -nan
L1I TIMELY PREFETCHES:          0 LATE PREFETCHES: 0 DROPPED PREFETCHES: 0
L1I PREFETCHES SAME FILL-ORIGIN LEVEL: 0 DIFFERENT FILL-ORIGIN LEVEL: 0
L1I AVERAGE MISS LATENCY: -nan cycles
L1I RQ	ACCESS:   34948857	FORWARD:          0	MERGED:   15351299	TO_CACHE:   19597558

BTB TOTAL     ACCESS:   17463813  HIT:   17463796  MISS:         17  HIT %:    99.9999  MISS %: 9.73441e-05   MPKI: 0.00017
BTB BRANCH_DIRECT_JUMP	ACCESS:         65  HIT:         64  MISS:          1
BTB BRANCH_INDIRECT	ACCESS:          0  HIT:          0  MISS:          0
BTB BRANCH_CONDITIONAL	ACCESS:   15696178  HIT:   15696169  MISS:          9
BTB BRANCH_DIRECT_CALL	ACCESS:     441925  HIT:     441923  MISS:          2
BTB BRANCH_INDIRECT_CALL	ACCESS:     441860  HIT:     441859  MISS:          1
BTB BRANCH_RETURN	ACCESS:     883785  HIT:     883781  MISS:          4
BTB BRANCH_OTHER ACCESS:          0  HIT:          0  MISS:          0

L2C TOTAL     ACCESS:    2731058  HIT:     259659  MISS:    2471399  HIT %:    9.50763  MISS %:    90.4924   MPKI: 24.714
L2C LOAD      ACCESS:    2510098  HIT:     225925  MISS:    2284173  HIT %:    9.00064  MISS %:    90.9994   MPKI: 22.8417
L2C DATA LOAD MPKI: 22.8417
L2C INSTRUCTION LOAD MPKI: 0
L2C PREFETCH  ACCESS:     220807  HIT:      33640  MISS:     187167  HIT %:     15.235  MISS %:     84.765   MPKI: 1.87167
L2C DATA PREFETCH MPKI: 1.87167
L2C INSTRUCTION PREFETCH MPKI: 0
L2C WRITEBACK ACCESS:         64  HIT:         64  MISS:          0  HIT %:        100  MISS %:          0   MPKI: 0
L2C LOAD TRANSLATION ACCESS:         89  HIT:         30  MISS:         59  HIT %:    33.7079  MISS %:    66.2921   MPKI: 0.00059
L2C PREFETCH  REQUESTED:    1767618  ISSUED:    1767618  USEFUL:     187065  USELESS:        102
L2C USEFUL LOAD PREFETCHES:     187065 PREFETCH ISSUED TO LOWER LEVEL:    1733801  ACCURACY: 10.7893
L2C TIMELY PREFETCHES:     187065 LATE PREFETCHES: 146 DROPPED PREFETCHES: 0
L2C PREFETCHES SAME FILL-ORIGIN LEVEL: 187313 DIFFERENT FILL-ORIGIN LEVEL: 1546488
L2C AVERAGE MISS LATENCY: 69.9744 cycles
L2C RQ	ACCESS:    2510187	FORWARD:          0	MERGED:          0	TO_CACHE:    2510187
L2C WQ	ACCESS:         64	FORWARD:          0	MERGED:          0	TO_CACHE:         64
L2C PQ	ACCESS:    1767618	FORWARD:          0	MERGED:         36	TO_CACHE:    1767582

L2C Instructions Evicting Data 0
L2C Translations Evicting Data 59
L2C Data Evicting Data 2471280
L2C Instructions Evicting Instructions 0
L2C Translations Evicting Instructions 0
L2C Data Evicting Instructions 0
L2C Instructions Evicting Translations 0
L2C Translations Evicting Translations 0
L2C Data Evicting Translations 60
L2C Dense regions hint from L2: 0
PSCL5 TOTAL     ACCESS:         89  HIT:         89  MISS:          0  HIT %:        100  MISS %:          0   MPKI: 0
PSCL5 LOAD TRANSLATION ACCESS:         89  HIT:         89  MISS:          0  HIT %:        100  MISS %:          0   MPKI: 0
PSCL5 PREFETCH  REQUESTED:          0  ISSUED:          0  USEFUL:          0  USELESS:          0
PSCL5 USEFUL LOAD PREFETCHES:          0 PREFETCH ISSUED TO LOWER LEVEL:          0  ACCURACY: -nan
PSCL5 TIMELY PREFETCHES:          0 LATE PREFETCHES: 0 DROPPED PREFETCHES: 0
PSCL5 PREFETCHES SAME FILL-ORIGIN LEVEL: 0 DIFFERENT FILL-ORIGIN LEVEL: 0

PSCL4 TOTAL     ACCESS:         89  HIT:         89  MISS:          0  HIT %:        100  MISS %:          0   MPKI: 0
PSCL4 LOAD TRANSLATION ACCESS:         89  HIT:         89  MISS:          0  HIT %:        100  MISS %:          0   MPKI: 0
PSCL4 PREFETCH  REQUESTED:          0  ISSUED:          0  USEFUL:          0  USELESS:          0
PSCL4 USEFUL LOAD PREFETCHES:          0 PREFETCH ISSUED TO LOWER LEVEL:          0  ACCURACY: -nan
PSCL4 TIMELY PREFETCHES:          0 LATE PREFETCHES: 0 DROPPED PREFETCHES: 0
PSCL4 PREFETCHES SAME FILL-ORIGIN LEVEL: 0 DIFFERENT FILL-ORIGIN LEVEL: 0

PSCL3 TOTAL     ACCESS:         89  HIT:         89  MISS:          0  HIT %:        100  MISS %:          0   MPKI: 0
PSCL3 LOAD TRANSLATION ACCESS:         89  HIT:         89  MISS:          0  HIT %:        100  MISS %:          0   MPKI: 0
PSCL3 PREFETCH  REQUESTED:          0  ISSUED:          0  USEFUL:          0  USELESS:          0
PSCL3 USEFUL LOAD PREFETCHES:          0 PREFETCH ISSUED TO LOWER LEVEL:          0  ACCURACY: -nan
PSCL3 TIMELY PREFETCHES:          0 LATE PREFETCHES: 0 DROPPED PREFETCHES: 0
PSCL3 PREFETCHES SAME FILL-ORIGIN LEVEL: 0 DIFFERENT FILL-ORIGIN LEVEL: 0

PSCL2 TOTAL     ACCESS:         89  HIT:         89  MISS:          0  HIT %:        100  MISS %:          0   MPKI: 0
PSCL2 LOAD TRANSLATION ACCESS:         89  HIT:         89  MISS:          0  HIT %:        100  MISS %:          0   MPKI: 0
PSCL2 PREFETCH  REQUESTED:          0  ISSUED:          0  USEFUL:          0  USELESS:          0
PSCL2 USEFUL LOAD PREFETCHES:          0 PREFETCH ISSUED TO LOWER LEVEL:          0  ACCURACY: -nan
PSCL2 TIMELY PREFETCHES:          0 LATE PREFETCHES: 0 DROPPED PREFETCHES: 0
PSCL2 PREFETCHES SAME FILL-ORIGIN LEVEL: 0 DIFFERENT FILL-ORIGIN LEVEL: 0

LLC TOTAL     ACCESS:    4015942  HIT:    2685334  MISS:    1330608  HIT %:    66.8669  MISS %:    33.1331   MPKI: 13.3061
LLC LOAD      ACCESS:    2284027  HIT:    1001092  MISS:    1282935  HIT %:    43.8301  MISS %:    56.1699   MPKI: 12.8293
LLC PREFETCH  ACCESS:    1731804  HIT:    1684192  MISS:      47612  HIT %:    97.2507  MISS %:    2.74927   MPKI: 0.47612
LLC WRITEBACK ACCESS:         52  HIT:         49  MISS:          3  HIT %:    94.2308  MISS %:    5.76923   MPKI: 3e-05
LLC LOAD TRANSLATION ACCESS:         59  HIT:          1  MISS:         58  HIT %:    1.69492  MISS %:    98.3051   MPKI: 0.00058
LLC PREFETCH  REQUESTED:          0  ISSUED:          0  USEFUL:      23548  USELESS:      25442
LLC USEFUL LOAD PREFETCHES:      23548 PREFETCH ISSUED TO LOWER LEVEL:      47701  ACCURACY: 49.3658
LLC TIMELY PREFETCHES:      23548 LATE PREFETCHES: 89 DROPPED PREFETCHES: 0
LLC PREFETCHES SAME FILL-ORIGIN LEVEL: 42790 DIFFERENT FILL-ORIGIN LEVEL: 0
LLC AVERAGE MISS LATENCY: 77.7474 cycles
LLC RQ	ACCESS:    2284086	FORWARD:          0	MERGED:          0	TO_CACHE:    2284086
LLC WQ	ACCESS:         52	FORWARD:          0	MERGED:          0	TO_CACHE:         52
LLC PQ	ACCESS:    1733801	FORWARD:          0	MERGED:          0	TO_CACHE:    1733801

LLC Dense regions hint to LLC: 0

RAW hits: 1979
Loads Generated: 29892558
Loads sent to L1D: 29890579
Stores Generated: 1768024
Stores sent to L1D: 1768025
Major fault: 0 Minor fault: 1392
Allocated PAGES: 1392
 All Calls: 3768102
 Critical Calls: 1360955
------------------
Depth Distribution
------------------
depth 0: 0
depth 1: 1557536
depth 2: 1337136
depth 3: 1011555
depth 4: 661039
depth 5: 353715
depth 6: 197327
depth 7: 140771
depth 8: 113564
depth 9: 87999
depth 10: 63287
depth 11: 37128
depth 12: 18657
depth 13: 8730
depth 14: 1123
depth 15: 300
depth 16: 0
depth 17: 0
depth 18: 0
depth 19: 0
depth 20: 0
depth 21: 0
depth 22: 0
depth 23: 0
depth 24: 0
depth 25: 0
depth 26: 0
depth 27: 0
depth 28: 0
depth 29: 0
Total: 5589867
-----------------------------
-----------------------------
	Captured at Filter
-----------------------------
depth 0: 0
depth 1: 7606
depth 2: 4712
depth 3: 3644
depth 4: 2387
depth 5: 1218
depth 6: 668
depth 7: 480
depth 8: 379
depth 9: 307
depth 10: 214
depth 11: 146
depth 12: 67
depth 13: 34
depth 14: 6
depth 15: 1
depth 16: 0
depth 17: 0
depth 18: 0
depth 19: 0
depth 20: 0
depth 21: 0
depth 22: 0
depth 23: 0
depth 24: 0
depth 25: 0
depth 26: 0
depth 27: 0
depth 28: 0
depth 29: 0
-----------------------------
-----------------------------
		Lost at Page
-----------------------------
depth 0: 0
depth 1: 49948
depth 2: 87555
depth 3: 110937
depth 4: 121104
depth 5: 120771
depth 6: 120601
depth 7: 132386
depth 8: 145407
depth 9: 147851
depth 10: 143306
depth 11: 115137
depth 12: 70486
depth 13: 38044
depth 14: 3247
depth 15: 1883
depth 16: 0
depth 17: 0
depth 18: 0
depth 19: 0
depth 20: 0
depth 21: 0
depth 22: 0
depth 23: 0
depth 24: 0
depth 25: 0
depth 26: 0
depth 27: 0
depth 28: 0
depth 29: 0
-----------------------------
-----------------------------
	Lost due to PQ Size
-----------------------------
48
-----------------------------
ST read accesses: 278907
ST write accesses: 18825
PT read accesses: 16700848
PT write accesses: 417764
FILTER read accesses: 4434478
FILTER write accesses: 2743358
GHR read accesses: 8667953
GHR write accesses: 1230445
GHR counter read accesses: 13796884
GHR counter write accesses: 677822
ST tag read accesses: 123976239
ST tag write accesses: 5704532

DRAM Statistics
 CHANNEL 0
 RQ ROW_BUFFER_HIT:    1243145  ROW_BUFFER_MISS:      87460
 DBUS_CONGESTED:          0
 WQ ROW_BUFFER_HIT:          0  ROW_BUFFER_MISS:          2  FULL:          0

 AVG_CONGESTED_CYCLE: -
 All warmup complete: 2
Channel 0 Bank busy for read cycles: 0
Channel 0 Bank busy for write cycles: 0
Channel 0
Rank 0
0banks busy for read cycles: 153063104
0banks busy for write cycles: 2
1banks busy for read cycles: 40459439
1banks busy for write cycles: 300
2banks busy for read cycles: 10794155
2banks busy for write cycles: 0
3banks busy for read cycles: 3784962
3banks busy for write cycles: 0
4banks busy for read cycles: 419553
4banks busy for write cycles: 0
5banks busy for read cycles: 29982
5banks busy for write cycles: 0
6banks busy for read cycles: 7586
6banks busy for write cycles: 0
7banks busy for read cycles: 0
7banks busy for write cycles: 0
8banks busy for read cycles: 0
8banks busy for write cycles: 0

CPU 0 Branch Prediction Accuracy: 99.9949% MPKI: 0.01399 Average ROB Occupancy at Mispredict: 268.34
Branch types
NOT_BRANCH: 72316723 72.3167%
BRANCH_DIRECT_JUMP: 65 6.5e-05%
BRANCH_INDIRECT: 0 0%
BRANCH_CONDITIONAL: 25915620 25.9156%
BRANCH_DIRECT_CALL: 441925 0.441925%
BRANCH_INDIRECT_CALL: 441860 0.44186%
BRANCH_RETURN: 883785 0.883785%
BRANCH_OTHER: 0 0%

DRAM PAGES: 1048576
Allocated PAGES: 1392
