
*** ChampSim Multicore Out-of-Order Simulator ***

Warmup Instructions: 50000000
Simulation Instructions: 100000000
Number of CPUs: 1
LLC sets: 2048
LLC ways: 16
Off-chip DRAM Size: 4096 MB Channels: 1 Width: 64-bit Data Rate: 6400 MT/s
CPU 0 runs ../SPEC2017//623.xalancbmk_s-165B.champsimtrace.xz
.xz
NUM_OF_IPS_IN_CRITICAL_IP_TRAINING: 64
NUM_OF_CRITICAL_IP_TRAINING_TABLE_WAYS: 2
NUM_OF_CRITICAL_IP_TRAINING_TABLE_SETS: 32
WOBBLY_CRITICAL_IP_CACHE_SETS: 32
WOBBLY_CRITICAL_IP_CACHE_WAYS: 4
BTB has LRU replacement policy
ITLB has LRU replacement policy
DTLB has LRU replacement policy
STLB has LRU replacement policy
L1I has LRU replacement policy
IP Table Entries: 256
L1D has LRU replacement policy
Initialize SRRIP state for L2C
Initialize DRRIP state for LLC
Heartbeat CPU 0 instructions: 10000000 cycles: 2886793 heartbeat IPC: 3.46405 cumulative IPC: 3.46405 (Simulation time: 0 hr 5 min 40 sec) 
Heartbeat CPU 0 instructions: 20000001 cycles: 5774159 heartbeat IPC: 3.46336 cumulative IPC: 3.46371 (Simulation time: 0 hr 10 min 50 sec) 
Heartbeat CPU 0 instructions: 30000002 cycles: 8655685 heartbeat IPC: 3.47038 cumulative IPC: 3.46593 (Simulation time: 0 hr 15 min 15 sec) 
Heartbeat CPU 0 instructions: 40000003 cycles: 11535727 heartbeat IPC: 3.47217 cumulative IPC: 3.46749 (Simulation time: 0 hr 19 min 8 sec) 
Heartbeat CPU 0 instructions: 50000001 cycles: 14407245 heartbeat IPC: 3.48248 cumulative IPC: 3.47048 (Simulation time: 0 hr 22 min 41 sec) 

Warmup complete CPU 0 instructions: 50000001 cycles: 14407245 (Simulation time: 0 hr 22 min 41 sec) 

Heartbeat CPU 0 instructions: 60000003 cycles: 25838990 heartbeat IPC: 0.874757 cumulative IPC: 0.874757 (Simulation time: 0 hr 26 min 45 sec) 
Heartbeat CPU 0 instructions: 70000001 cycles: 37266695 heartbeat IPC: 0.875066 cumulative IPC: 0.874912 (Simulation time: 0 hr 30 min 21 sec) 
Heartbeat CPU 0 instructions: 80000001 cycles: 48691647 heartbeat IPC: 0.875277 cumulative IPC: 0.875033 (Simulation time: 0 hr 33 min 58 sec) 
Heartbeat CPU 0 instructions: 90000001 cycles: 60117600 heartbeat IPC: 0.875201 cumulative IPC: 0.875075 (Simulation time: 0 hr 37 min 28 sec) 
Heartbeat CPU 0 instructions: 100000001 cycles: 71542146 heartbeat IPC: 0.875308 cumulative IPC: 0.875122 (Simulation time: 0 hr 40 min 34 sec) 
Heartbeat CPU 0 instructions: 110000000 cycles: 82974242 heartbeat IPC: 0.87473 cumulative IPC: 0.875057 (Simulation time: 0 hr 43 min 32 sec) 
Heartbeat CPU 0 instructions: 120000000 cycles: 94395201 heartbeat IPC: 0.875583 cumulative IPC: 0.875132 (Simulation time: 0 hr 46 min 16 sec) 
Heartbeat CPU 0 instructions: 130000002 cycles: 105819445 heartbeat IPC: 0.875332 cumulative IPC: 0.875157 (Simulation time: 0 hr 48 min 53 sec) 
Heartbeat CPU 0 instructions: 140000002 cycles: 117242330 heartbeat IPC: 0.875436 cumulative IPC: 0.875188 (Simulation time: 0 hr 52 min 0 sec) 
Heartbeat CPU 0 instructions: 150000002 cycles: 128666535 heartbeat IPC: 0.875334 cumulative IPC: 0.875202 (Simulation time: 0 hr 58 min 31 sec) 
Finished CPU 0 instructions: 100000001 cycles: 114259290 cumulative IPC: 0.875202 (Simulation time: 0 hr 58 min 31 sec) 

ChampSim completed all CPUs

Region of Interest Statistics

CPU 0 cumulative IPC: 0.875202 instructions: 100000001 cycles: 114259290

CPU 0 Average Load ROB stall cycles: 3.17398e+07
CPU 0 Fraction of times ROB stalled by Loads: 44.2872
CPU 0 Percentage of Load stall cycles in Total stall cycles: 6.32571e+08
Issued all: 64667742
Issued LT all: 51021026
rob_not_full_when_issued_lt_all: 50943684
Issued LT one: 44853693
rob_not_full_when_issued_lt_one: 44780162
 Total stall cycles: 90206117
 Total load stall cycles: 570617892550259
CPU 0 NUM of IPS identified critical: 0
CPU 0 Num of Load IPs stalling ROB: 150
Threshold modification factor: 0
Max PIST entries: 42
Min PIST entries: 0
Avg PIST entries: 14.5133
Trouble in retire width: 0.982416
MaC = Marked as critical.
lt_50_percent_before_Mac: 0
gt_90_percent_before_Mac: 0
gt_75_percent_before_Mac: 0
gt_50_percent_before_Mac: 0
stall_proportion_bin_same_before_after: 0
stall_proportion_bin_lower_before_after: 0
stall_proportion_bin_upper_before_after: 0
average_stall_proportion_before: -nan
average_stall_proportion_after: -nan
Critical IP stalls, total frequency: 0
Non-critical IP stalls, total frequency: 7961945
Total Freq all stalling IPs: 7961945
stat_90_percent_critical_ip_stalls_freq: 7209275
stat_90_percent_non_critical_ip_stalls_freq: 752670
Critical_IP_ROB_Stalls_Bucket_0: 0
Non-critical_IP_ROB_Stalls_Bucket_0: 5687130
Critical_IP_ROB_Stalls_Bucket_1: 0
Non-critical_IP_ROB_Stalls_Bucket_1: 2067074
Critical_IP_ROB_Stalls_Bucket_2: 0
Non-critical_IP_ROB_Stalls_Bucket_2: 164462
Critical_IP_ROB_Stalls_Bucket_3: 0
Non-critical_IP_ROB_Stalls_Bucket_3: 27514
Critical_IP_ROB_Stalls_Bucket_4: 0
Non-critical_IP_ROB_Stalls_Bucket_4: 7828
Critical_IP_ROB_Stalls_Bucket_5: 0
Non-critical_IP_ROB_Stalls_Bucket_5: 5560
Critical_IP_ROB_Stalls_Bucket_6: 0
Non-critical_IP_ROB_Stalls_Bucket_6: 2377
0 => IPs accounting for >50 percent of stalls, 1 => 55, 2 => 60, 3 => 65 and so on till 90.
percent50: 54.5503 num IPs:  3
percent55: 58.6114 num IPs: 4
percent60: 62.6726 num IPs: 5
percent65: 66.733 num IPs: 6
percent70: 70.7935 num IPs: 7
percent75: 78.9083 num IPs: 9
percent80: 82.9445 num IPs: 10
percent85: 86.9059 num IPs: 11
percent90: 90.5467 num IPs: 12
Critical_ROB_Stalls_Percent_0_Bucket_0: 4329034
Non-critical_ROB_Stalls_Percent_0_Bucket_0: 1358096
Critical_ROB_Stalls_Percent_0_Bucket_1: 9510
Non-critical_ROB_Stalls_Percent_0_Bucket_1: 2057564
Critical_ROB_Stalls_Percent_0_Bucket_2: 2699
Non-critical_ROB_Stalls_Percent_0_Bucket_2: 161763
Critical_ROB_Stalls_Percent_0_Bucket_3: 1171
Non-critical_ROB_Stalls_Percent_0_Bucket_3: 26343
Critical_ROB_Stalls_Percent_0_Bucket_4: 529
Non-critical_ROB_Stalls_Percent_0_Bucket_4: 7299
Critical_ROB_Stalls_Percent_0_Bucket_5: 247
Non-critical_ROB_Stalls_Percent_0_Bucket_5: 5313
Critical_ROB_Stalls_Percent_0_Bucket_6: 75
Non-critical_ROB_Stalls_Percent_0_Bucket_6: 2302
Critical_ROB_Stalls_Percent_1_Bucket_0: 4329363
Non-critical_ROB_Stalls_Percent_1_Bucket_0: 1357767
Critical_ROB_Stalls_Percent_1_Bucket_1: 328815
Non-critical_ROB_Stalls_Percent_1_Bucket_1: 1738259
Critical_ROB_Stalls_Percent_1_Bucket_2: 5092
Non-critical_ROB_Stalls_Percent_1_Bucket_2: 159370
Critical_ROB_Stalls_Percent_1_Bucket_3: 2038
Non-critical_ROB_Stalls_Percent_1_Bucket_3: 25476
Critical_ROB_Stalls_Percent_1_Bucket_4: 793
Non-critical_ROB_Stalls_Percent_1_Bucket_4: 7035
Critical_ROB_Stalls_Percent_1_Bucket_5: 433
Non-critical_ROB_Stalls_Percent_1_Bucket_5: 5127
Critical_ROB_Stalls_Percent_1_Bucket_6: 76
Non-critical_ROB_Stalls_Percent_1_Bucket_6: 2301
Critical_ROB_Stalls_Percent_2_Bucket_0: 4329424
Non-critical_ROB_Stalls_Percent_2_Bucket_0: 1357706
Critical_ROB_Stalls_Percent_2_Bucket_1: 647670
Non-critical_ROB_Stalls_Percent_2_Bucket_1: 1419404
Critical_ROB_Stalls_Percent_2_Bucket_2: 8005
Non-critical_ROB_Stalls_Percent_2_Bucket_2: 156457
Critical_ROB_Stalls_Percent_2_Bucket_3: 3029
Non-critical_ROB_Stalls_Percent_2_Bucket_3: 24485
Critical_ROB_Stalls_Percent_2_Bucket_4: 1059
Non-critical_ROB_Stalls_Percent_2_Bucket_4: 6769
Critical_ROB_Stalls_Percent_2_Bucket_5: 681
Non-critical_ROB_Stalls_Percent_2_Bucket_5: 4879
Critical_ROB_Stalls_Percent_2_Bucket_6: 87
Non-critical_ROB_Stalls_Percent_2_Bucket_6: 2290
Critical_ROB_Stalls_Percent_3_Bucket_0: 4329424
Non-critical_ROB_Stalls_Percent_3_Bucket_0: 1357706
Critical_ROB_Stalls_Percent_3_Bucket_1: 943827
Non-critical_ROB_Stalls_Percent_3_Bucket_1: 1123247
Critical_ROB_Stalls_Percent_3_Bucket_2: 32148
Non-critical_ROB_Stalls_Percent_3_Bucket_2: 132314
Critical_ROB_Stalls_Percent_3_Bucket_3: 4895
Non-critical_ROB_Stalls_Percent_3_Bucket_3: 22619
Critical_ROB_Stalls_Percent_3_Bucket_4: 1637
Non-critical_ROB_Stalls_Percent_3_Bucket_4: 6191
Critical_ROB_Stalls_Percent_3_Bucket_5: 1020
Non-critical_ROB_Stalls_Percent_3_Bucket_5: 4540
Critical_ROB_Stalls_Percent_3_Bucket_6: 297
Non-critical_ROB_Stalls_Percent_3_Bucket_6: 2080
Critical_ROB_Stalls_Percent_4_Bucket_0: 4329424
Non-critical_ROB_Stalls_Percent_4_Bucket_0: 1357706
Critical_ROB_Stalls_Percent_4_Bucket_1: 1252413
Non-critical_ROB_Stalls_Percent_4_Bucket_1: 814661
Critical_ROB_Stalls_Percent_4_Bucket_2: 44901
Non-critical_ROB_Stalls_Percent_4_Bucket_2: 119561
Critical_ROB_Stalls_Percent_4_Bucket_3: 6110
Non-critical_ROB_Stalls_Percent_4_Bucket_3: 21404
Critical_ROB_Stalls_Percent_4_Bucket_4: 1993
Non-critical_ROB_Stalls_Percent_4_Bucket_4: 5835
Critical_ROB_Stalls_Percent_4_Bucket_5: 1338
Non-critical_ROB_Stalls_Percent_4_Bucket_5: 4222
Critical_ROB_Stalls_Percent_4_Bucket_6: 361
Non-critical_ROB_Stalls_Percent_4_Bucket_6: 2016
Critical_ROB_Stalls_Percent_5_Bucket_0: 4633790
Non-critical_ROB_Stalls_Percent_5_Bucket_0: 1053340
Critical_ROB_Stalls_Percent_5_Bucket_1: 1583013
Non-critical_ROB_Stalls_Percent_5_Bucket_1: 484061
Critical_ROB_Stalls_Percent_5_Bucket_2: 50520
Non-critical_ROB_Stalls_Percent_5_Bucket_2: 113942
Critical_ROB_Stalls_Percent_5_Bucket_3: 9326
Non-critical_ROB_Stalls_Percent_5_Bucket_3: 18188
Critical_ROB_Stalls_Percent_5_Bucket_4: 3639
Non-critical_ROB_Stalls_Percent_5_Bucket_4: 4189
Critical_ROB_Stalls_Percent_5_Bucket_5: 1798
Non-critical_ROB_Stalls_Percent_5_Bucket_5: 3762
Critical_ROB_Stalls_Percent_5_Bucket_6: 548
Non-critical_ROB_Stalls_Percent_5_Bucket_6: 1829
Critical_ROB_Stalls_Percent_6_Bucket_0: 4633790
Non-critical_ROB_Stalls_Percent_6_Bucket_0: 1053340
Critical_ROB_Stalls_Percent_6_Bucket_1: 1859899
Non-critical_ROB_Stalls_Percent_6_Bucket_1: 207175
Critical_ROB_Stalls_Percent_6_Bucket_2: 89555
Non-critical_ROB_Stalls_Percent_6_Bucket_2: 74907
Critical_ROB_Stalls_Percent_6_Bucket_3: 13110
Non-critical_ROB_Stalls_Percent_6_Bucket_3: 14404
Critical_ROB_Stalls_Percent_6_Bucket_4: 4413
Non-critical_ROB_Stalls_Percent_6_Bucket_4: 3415
Critical_ROB_Stalls_Percent_6_Bucket_5: 2423
Non-critical_ROB_Stalls_Percent_6_Bucket_5: 3137
Critical_ROB_Stalls_Percent_6_Bucket_6: 803
Non-critical_ROB_Stalls_Percent_6_Bucket_6: 1574
Critical_ROB_Stalls_Percent_7_Bucket_0: 4940564
Non-critical_ROB_Stalls_Percent_7_Bucket_0: 746566
Critical_ROB_Stalls_Percent_7_Bucket_1: 1868158
Non-critical_ROB_Stalls_Percent_7_Bucket_1: 198916
Critical_ROB_Stalls_Percent_7_Bucket_2: 89799
Non-critical_ROB_Stalls_Percent_7_Bucket_2: 74663
Critical_ROB_Stalls_Percent_7_Bucket_3: 13185
Non-critical_ROB_Stalls_Percent_7_Bucket_3: 14329
Critical_ROB_Stalls_Percent_7_Bucket_4: 4461
Non-critical_ROB_Stalls_Percent_7_Bucket_4: 3367
Critical_ROB_Stalls_Percent_7_Bucket_5: 2431
Non-critical_ROB_Stalls_Percent_7_Bucket_5: 3129
Critical_ROB_Stalls_Percent_7_Bucket_6: 803
Non-critical_ROB_Stalls_Percent_7_Bucket_6: 1574
Critical_ROB_Stalls_Percent_8_Bucket_0: 5229995
Non-critical_ROB_Stalls_Percent_8_Bucket_0: 457135
Critical_ROB_Stalls_Percent_8_Bucket_1: 1868416
Non-critical_ROB_Stalls_Percent_8_Bucket_1: 198658
Critical_ROB_Stalls_Percent_8_Bucket_2: 89884
Non-critical_ROB_Stalls_Percent_8_Bucket_2: 74578
Critical_ROB_Stalls_Percent_8_Bucket_3: 13241
Non-critical_ROB_Stalls_Percent_8_Bucket_3: 14273
Critical_ROB_Stalls_Percent_8_Bucket_4: 4485
Non-critical_ROB_Stalls_Percent_8_Bucket_4: 3343
Critical_ROB_Stalls_Percent_8_Bucket_5: 2449
Non-critical_ROB_Stalls_Percent_8_Bucket_5: 3111
Critical_ROB_Stalls_Percent_8_Bucket_6: 805
Non-critical_ROB_Stalls_Percent_8_Bucket_6: 1572
Average ROB occupancy Load Stall Begin: 32.8842
Average ROB occupancy Load Stall End: 39.6567
Min ROB occupancy Load Stall Begin: 1
Max ROB occupancy Load Stall Begin: 352
Min ROB occupancy Load Stall End: 1
Max ROB occupancy Load Stall End: 352
Average ROB occupancy Critical Load Stall Begin: -nan
Average ROB occupancy Critical Load Stall End: -nan
Min ROB occupancy Critical Load Stall Begin: 400
Max ROB occupancy Critical Load Stall Begin: 0
Min ROB occupancy Critical Load Stall End: 400
Max ROB occupancy Critical Load Stall End: 0
 ROB Load Stall Begin Bucket Count 0: 6335909
 ROB Load Stall End Bucket Count 0: 5687130
 ROB Critical Load Stall Begin Bucket Count 0: 0
 ROB Critical Load Stall End Bucket Count 0: 0
 ROB Load Stall Begin Bucket Count 1: 1506648
 ROB Load Stall End Bucket Count 1: 2067074
 ROB Critical Load Stall Begin Bucket Count 1: 0
 ROB Critical Load Stall End Bucket Count 1: 0
 ROB Load Stall Begin Bucket Count 2: 88784
 ROB Load Stall End Bucket Count 2: 164462
 ROB Critical Load Stall Begin Bucket Count 2: 0
 ROB Critical Load Stall End Bucket Count 2: 0
 ROB Load Stall Begin Bucket Count 3: 19278
 ROB Load Stall End Bucket Count 3: 27514
 ROB Critical Load Stall Begin Bucket Count 3: 0
 ROB Critical Load Stall End Bucket Count 3: 0
 ROB Load Stall Begin Bucket Count 4: 6097
 ROB Load Stall End Bucket Count 4: 7828
 ROB Critical Load Stall Begin Bucket Count 4: 0
 ROB Critical Load Stall End Bucket Count 4: 0
 ROB Load Stall Begin Bucket Count 5: 3796
 ROB Load Stall End Bucket Count 5: 5560
 ROB Critical Load Stall Begin Bucket Count 5: 0
 ROB Critical Load Stall End Bucket Count 5: 0
 ROB Load Stall Begin Bucket Count 6: 1433
 ROB Load Stall End Bucket Count 6: 2377
 ROB Critical Load Stall Begin Bucket Count 6: 0
 ROB Critical Load Stall End Bucket Count 6: 0
PIST Tag Read Accesses: 88156
PIST Read Accesses: 44078
PIST Tag Write Accesses: 88156
PIST Write Accesses: 44078
Criticality detector called times: 5040592
Max global_stall_cycles_count: 598645
Threshold Modified: 0 times, factor: 0
Sturdy critical IP cache stats: 
 Unused entries: 0
CIC Tag Read Accesses: 0
CIC Read Accesses: 0
CIC Tag Write Accesses: 0
CIC Write Accesses: 0
Wobbly critical IP cache stats: 
 Unused entries: 98
CIC Tag Read Accesses: 240053695
CIC Read Accesses: 0
CIC Tag Write Accesses: 4349252
CIC Write Accesses: 0
ITLB TOTAL     ACCESS:   14251065  HIT:   14251065  MISS:          0  HIT %:        100  MISS %:          0   MPKI: 0
ITLB LOAD TRANSLATION ACCESS:   14251065  HIT:   14251065  MISS:          0  HIT %:        100  MISS %:          0   MPKI: 0
ITLB PREFETCH  REQUESTED:          0  ISSUED:          0  USEFUL:          0  USELESS:          0
ITLB USEFUL LOAD PREFETCHES:          0 PREFETCH ISSUED TO LOWER LEVEL:          0  ACCURACY: -nan
ITLB TIMELY PREFETCHES:          0 LATE PREFETCHES: 0 DROPPED PREFETCHES: 0
ITLB PREFETCHES SAME FILL-ORIGIN LEVEL: 0 DIFFERENT FILL-ORIGIN LEVEL: 0
ITLB AVERAGE MISS LATENCY: -nan cycles
ITLB RQ	ACCESS:   18791457	FORWARD:          0	MERGED:    4540393	TO_CACHE:   14251064

DTLB TOTAL     ACCESS:   15146863  HIT:   15110905  MISS:      35958  HIT %:    99.7626  MISS %:   0.237396   MPKI: 0.35958
DTLB LOAD TRANSLATION ACCESS:   15146863  HIT:   15110905  MISS:      35958  HIT %:    99.7626  MISS %:   0.237396   MPKI: 0.35958
DTLB PREFETCH  REQUESTED:          0  ISSUED:          0  USEFUL:          0  USELESS:          0
DTLB USEFUL LOAD PREFETCHES:          0 PREFETCH ISSUED TO LOWER LEVEL:          0  ACCURACY: -nan
DTLB TIMELY PREFETCHES:          0 LATE PREFETCHES: 0 DROPPED PREFETCHES: 0
DTLB PREFETCHES SAME FILL-ORIGIN LEVEL: 0 DIFFERENT FILL-ORIGIN LEVEL: 0
DTLB AVERAGE MISS LATENCY: 10.0589 cycles
DTLB RQ	ACCESS:   16367816	FORWARD:          0	MERGED:    1220870	TO_CACHE:   15146946

STLB TOTAL     ACCESS:    1027238  HIT:    1027120  MISS:        118  HIT %:    99.9885  MISS %:  0.0114871   MPKI: 0.00118
STLB LOAD TRANSLATION ACCESS:      35958  HIT:      35840  MISS:        118  HIT %:    99.6718  MISS %:   0.328161   MPKI: 0.00118
STLB TRANSLATION FROM L1D PREFETCHER ACCESS:     991280  HIT:     991280  MISS:          0  HIT %:        100  MISS %:          0   MPKI: 0
STLB PREFETCH  REQUESTED:          0  ISSUED:          0  USEFUL:          0  USELESS:          0
STLB USEFUL LOAD PREFETCHES:          0 PREFETCH ISSUED TO LOWER LEVEL:          0  ACCURACY: -nan
STLB TIMELY PREFETCHES:          0 LATE PREFETCHES: 0 DROPPED PREFETCHES: 0
STLB PREFETCHES SAME FILL-ORIGIN LEVEL: 0 DIFFERENT FILL-ORIGIN LEVEL: 0
STLB AVERAGE MISS LATENCY: 322.525 cycles
STLB RQ	ACCESS:    2571127	FORWARD:          0	MERGED:    1543889	TO_CACHE:    1027238

STLB Hit, L1D data hit: 0
STLB Hit, L2C data hit: 0
STLB Hit, LLC data hit: 0
STLB Hit, LLC data miss: 0
STLB STLB hints to L2: 0
L1D TOTAL     ACCESS:   18851921  HIT:   16769998  MISS:    2081923  HIT %:    88.9564  MISS %:    11.0436   MPKI: 20.8192
L1D LOAD      ACCESS:   15048029  HIT:   14963614  MISS:      84415  HIT %:     99.439  MISS %:    0.56097   MPKI: 0.84415
L1D RFO       ACCESS:    1311244  HIT:    1311002  MISS:        242  HIT %:    99.9815  MISS %:  0.0184558   MPKI: 0.00242
L1D PREFETCH  ACCESS:    2492648  HIT:     495382  MISS:    1997266  HIT %:    19.8737  MISS %:    80.1263   MPKI: 19.9727
L1D PREFETCH  REQUESTED:    5071539  ISSUED:    5070338  USEFUL:    1817519  USELESS:     179665
L1D USEFUL LOAD PREFETCHES:    1817519 PREFETCH ISSUED TO LOWER LEVEL:    2015630  ACCURACY: 90.1713
L1D TIMELY PREFETCHES:    1817519 LATE PREFETCHES: 15292 DROPPED PREFETCHES: 0
L1D PREFETCHES SAME FILL-ORIGIN LEVEL: 2015630 DIFFERENT FILL-ORIGIN LEVEL: 0
L1D AVERAGE MISS LATENCY: 509510 cycles
L1D RQ	ACCESS:   29503412	FORWARD:          0	MERGED:   14441101	TO_CACHE:   15055813
L1D WQ	ACCESS:    1312392	FORWARD:       6498	MERGED:        389	TO_CACHE:    1312003
L1D PQ	ACCESS:    2535169	FORWARD:          0	MERGED:          0	TO_CACHE:    2535169

L1D UNIQUE REGIONS ACCESSED: 0
L1D REGIONS CONFLICTS: 0
L1D Cross Page Prefetch Requests: 0
L1D Same Page Prefetch Requests: 2535169
L1D ROI Sum of L1D PQ occupancy: 33922813
L1D PREFETCHES PUSHED FROM L2C: 0
L1I TOTAL     ACCESS:   18791457  HIT:   18791457  MISS:          0  HIT %:        100  MISS %:          0   MPKI: 0
L1I LOAD      ACCESS:   18791457  HIT:   18791457  MISS:          0  HIT %:        100  MISS %:          0   MPKI: 0
L1I PREFETCH  REQUESTED:          0  ISSUED:          0  USEFUL:          0  USELESS:          0
L1I USEFUL LOAD PREFETCHES:          0 PREFETCH ISSUED TO LOWER LEVEL:          0  ACCURACY: -nan
L1I TIMELY PREFETCHES:          0 LATE PREFETCHES: 0 DROPPED PREFETCHES: 0
L1I PREFETCHES SAME FILL-ORIGIN LEVEL: 0 DIFFERENT FILL-ORIGIN LEVEL: 0
L1I AVERAGE MISS LATENCY: -nan cycles
L1I RQ	ACCESS:   37612233	FORWARD:          0	MERGED:   18820776	TO_CACHE:   18791457

BTB TOTAL     ACCESS:   16819614  HIT:   16818850  MISS:        764  HIT %:    99.9955  MISS %: 0.00454232   MPKI: 0.00764
BTB BRANCH_DIRECT_JUMP	ACCESS:        864  HIT:        862  MISS:          2
BTB BRANCH_INDIRECT	ACCESS:          0  HIT:          0  MISS:          0
BTB BRANCH_CONDITIONAL	ACCESS:   15520942  HIT:   15520909  MISS:         33
BTB BRANCH_DIRECT_CALL	ACCESS:     325127  HIT:     325114  MISS:         13
BTB BRANCH_INDIRECT_CALL	ACCESS:     323777  HIT:     323771  MISS:          6
BTB BRANCH_RETURN	ACCESS:     648904  HIT:     648194  MISS:        710
BTB BRANCH_OTHER ACCESS:          0  HIT:          0  MISS:          0

L2C TOTAL     ACCESS:    5156759  HIT:    3079705  MISS:    2077054  HIT %:    59.7217  MISS %:    40.2783   MPKI: 20.7705
L2C LOAD      ACCESS:      69123  HIT:       3364  MISS:      65759  HIT %:    4.86669  MISS %:    95.1333   MPKI: 0.65759
L2C DATA LOAD MPKI: 0.65759
L2C INSTRUCTION LOAD MPKI: 0
L2C RFO       ACCESS:        242  HIT:          3  MISS:        239  HIT %:    1.23967  MISS %:    98.7603   MPKI: 0.00239
L2C PREFETCH  ACCESS:    5086453  HIT:    3075492  MISS:    2010961  HIT %:    60.4644  MISS %:    39.5356   MPKI: 20.1096
L2C DATA PREFETCH MPKI: 20.1096
L2C INSTRUCTION PREFETCH MPKI: 0
L2C WRITEBACK ACCESS:        823  HIT:        817  MISS:          6  HIT %:     99.271  MISS %:    0.72904   MPKI: 6e-05
L2C LOAD TRANSLATION ACCESS:        118  HIT:         29  MISS:         89  HIT %:    24.5763  MISS %:    75.4237   MPKI: 0.00089
L2C PREFETCH  REQUESTED:    4547843  ISSUED:    4524960  USEFUL:       3365  USELESS:    1999707
L2C USEFUL LOAD PREFETCHES:       3365 PREFETCH ISSUED TO LOWER LEVEL:    2011052  ACCURACY: 0.167325
L2C TIMELY PREFETCHES:       3365 LATE PREFETCHES: 91 DROPPED PREFETCHES: 0
L2C PREFETCHES SAME FILL-ORIGIN LEVEL: 1190473 DIFFERENT FILL-ORIGIN LEVEL: 0
L2C AVERAGE MISS LATENCY: 48.51 cycles
L2C RQ	ACCESS:      69483	FORWARD:          0	MERGED:          0	TO_CACHE:      69483
L2C WQ	ACCESS:        823	FORWARD:          0	MERGED:          0	TO_CACHE:        823
L2C PQ	ACCESS:    6537518	FORWARD:          0	MERGED:    1324915	TO_CACHE:    5212603

L2C Instructions Evicting Data 0
L2C Translations Evicting Data 89
L2C Data Evicting Data 2076869
L2C Instructions Evicting Instructions 0
L2C Translations Evicting Instructions 0
L2C Data Evicting Instructions 0
L2C Instructions Evicting Translations 0
L2C Translations Evicting Translations 0
L2C Data Evicting Translations 90
L2C Dense regions hint from L2: 0
PSCL5 TOTAL     ACCESS:        118  HIT:        118  MISS:          0  HIT %:        100  MISS %:          0   MPKI: 0
PSCL5 LOAD TRANSLATION ACCESS:        118  HIT:        118  MISS:          0  HIT %:        100  MISS %:          0   MPKI: 0
PSCL5 PREFETCH  REQUESTED:          0  ISSUED:          0  USEFUL:          0  USELESS:          0
PSCL5 USEFUL LOAD PREFETCHES:          0 PREFETCH ISSUED TO LOWER LEVEL:          0  ACCURACY: -nan
PSCL5 TIMELY PREFETCHES:          0 LATE PREFETCHES: 0 DROPPED PREFETCHES: 0
PSCL5 PREFETCHES SAME FILL-ORIGIN LEVEL: 0 DIFFERENT FILL-ORIGIN LEVEL: 0

PSCL4 TOTAL     ACCESS:        118  HIT:        118  MISS:          0  HIT %:        100  MISS %:          0   MPKI: 0
PSCL4 LOAD TRANSLATION ACCESS:        118  HIT:        118  MISS:          0  HIT %:        100  MISS %:          0   MPKI: 0
PSCL4 PREFETCH  REQUESTED:          0  ISSUED:          0  USEFUL:          0  USELESS:          0
PSCL4 USEFUL LOAD PREFETCHES:          0 PREFETCH ISSUED TO LOWER LEVEL:          0  ACCURACY: -nan
PSCL4 TIMELY PREFETCHES:          0 LATE PREFETCHES: 0 DROPPED PREFETCHES: 0
PSCL4 PREFETCHES SAME FILL-ORIGIN LEVEL: 0 DIFFERENT FILL-ORIGIN LEVEL: 0

PSCL3 TOTAL     ACCESS:        118  HIT:        118  MISS:          0  HIT %:        100  MISS %:          0   MPKI: 0
PSCL3 LOAD TRANSLATION ACCESS:        118  HIT:        118  MISS:          0  HIT %:        100  MISS %:          0   MPKI: 0
PSCL3 PREFETCH  REQUESTED:          0  ISSUED:          0  USEFUL:          0  USELESS:          0
PSCL3 USEFUL LOAD PREFETCHES:          0 PREFETCH ISSUED TO LOWER LEVEL:          0  ACCURACY: -nan
PSCL3 TIMELY PREFETCHES:          0 LATE PREFETCHES: 0 DROPPED PREFETCHES: 0
PSCL3 PREFETCHES SAME FILL-ORIGIN LEVEL: 0 DIFFERENT FILL-ORIGIN LEVEL: 0

PSCL2 TOTAL     ACCESS:        118  HIT:        118  MISS:          0  HIT %:        100  MISS %:          0   MPKI: 0
PSCL2 LOAD TRANSLATION ACCESS:        118  HIT:        118  MISS:          0  HIT %:        100  MISS %:          0   MPKI: 0
PSCL2 PREFETCH  REQUESTED:          0  ISSUED:          0  USEFUL:          0  USELESS:          0
PSCL2 USEFUL LOAD PREFETCHES:          0 PREFETCH ISSUED TO LOWER LEVEL:          0  ACCURACY: -nan
PSCL2 TIMELY PREFETCHES:          0 LATE PREFETCHES: 0 DROPPED PREFETCHES: 0
PSCL2 PREFETCHES SAME FILL-ORIGIN LEVEL: 0 DIFFERENT FILL-ORIGIN LEVEL: 0

LLC TOTAL     ACCESS:    2077887  HIT:    1654834  MISS:     423053  HIT %:    79.6402  MISS %:    20.3598   MPKI: 4.23053
LLC LOAD      ACCESS:      65668  HIT:      57063  MISS:       8605  HIT %:    86.8962  MISS %:    13.1038   MPKI: 0.08605
LLC RFO       ACCESS:        239  HIT:        142  MISS:         97  HIT %:    59.4142  MISS %:    40.5858   MPKI: 0.00097
LLC PREFETCH  ACCESS:    2011052  HIT:    1597007  MISS:     414045  HIT %:    79.4115  MISS %:    20.5885   MPKI: 4.14045
LLC WRITEBACK ACCESS:        839  HIT:        622  MISS:        217  HIT %:    74.1359  MISS %:    25.8641   MPKI: 0.00217
LLC LOAD TRANSLATION ACCESS:         89  HIT:          0  MISS:         89  HIT %:          0  MISS %:        100   MPKI: 0.00089
LLC PREFETCH  REQUESTED:          0  ISSUED:          0  USEFUL:          6  USELESS:     411365
LLC USEFUL LOAD PREFETCHES:          6 PREFETCH ISSUED TO LOWER LEVEL:     414045  ACCURACY: 0.00144912
LLC TIMELY PREFETCHES:          6 LATE PREFETCHES: 0 DROPPED PREFETCHES: 0
LLC PREFETCHES SAME FILL-ORIGIN LEVEL: 0 DIFFERENT FILL-ORIGIN LEVEL: 0
LLC AVERAGE MISS LATENCY: 90.8172 cycles
LLC RQ	ACCESS:      65996	FORWARD:          0	MERGED:          0	TO_CACHE:      65996
LLC WQ	ACCESS:        839	FORWARD:          0	MERGED:          0	TO_CACHE:        839
LLC PQ	ACCESS:    2011052	FORWARD:          0	MERGED:          0	TO_CACHE:    2011052

LLC Dense regions hint to LLC: 0

RAW hits: 999
Loads Generated: 29504412
Loads sent to L1D: 29503412
Stores Generated: 1312389
Stores sent to L1D: 1312392
Major fault: 0 Minor fault: 823
Allocated PAGES: 823

stream: 
stream:times selected: 2864240
stream:pref_filled: 392167
stream:pref_useful: 357856
stream:pref_late: 5682
stream:misses: 59444
stream:misses_by_poll: 0

CS: 
CS:times selected: 2490648
CS:pref_filled: 1244556
CS:pref_useful: 1105482
CS:pref_late: 86
CS:misses: 17660
CS:misses_by_poll: 9712

CPLX: 
CPLX:times selected: 373421
CPLX:pref_filled: 360525
CPLX:pref_useful: 354167
CPLX:pref_late: 23
CPLX:misses: 6960
CPLX:misses_by_poll: 2204

NL_L1: 
NL:times selected: 41
NL:pref_filled: 11
NL:pref_useful: 8
NL:pref_late: 13
NL:misses: 1
NL:misses_by_poll: 0

total selections: 5728350
total_filled: 1997266
total_useful: 1817519
total_late: 15292
total_polluted: 11916
total_misses_after_warmup: 84073
conflicts: 31
Degree Incremented Times: 85546
Degree Decremented Times: 0

L1 IP Table Write Accesses: 7230426
L1 IP Table Read Accesses: 7230395
L1 RST Write Accesses: 2864241
L1 RST Read Accesses: 5728474
L1 CSPT Write Accesses: 2864241
L1 CSPT Read Accesses: 3914995
L1 RR Filter Tag Write Accesses: 2536370
L1 RR Filter Tag Read Accesses: 472949864
L1 IP Table Tag Write Accesses: 7230426
L1 IP Table Tag Read Accesses: 7230426
L1 RST Tag Write Accesses: 56
L1 RST Tag Read Accesses: 25777623
L1 RR Filter Write Accesses: 0
L1 RR Filter Read Accesses: 22941125
test: 329926
L2 IP Table Read Accesses: 3739484
L2 IP Table Write Accesses: 3677255
L2 IP Table Tag Read Accesses: 1869753
L2 IP Table Tag Write Accesses: 1869753

DRAM Statistics
 CHANNEL 0
 RQ ROW_BUFFER_HIT:     385874  ROW_BUFFER_MISS:      36962
 DBUS_CONGESTED:          9
 WQ ROW_BUFFER_HIT:         90  ROW_BUFFER_MISS:        412  FULL:          0

 AVG_CONGESTED_CYCLE: 3
 All warmup complete: 2
Channel 0 Bank busy for read cycles: 0
Channel 0 Bank busy for write cycles: 0
Channel 0
Rank 0
0banks busy for read cycles: 102429380
0banks busy for write cycles: 394
1banks busy for read cycles: 6094376
1banks busy for write cycles: 71118
2banks busy for read cycles: 2621071
2banks busy for write cycles: 8773
3banks busy for read cycles: 1260780
3banks busy for write cycles: 3143
4banks busy for read cycles: 598730
4banks busy for write cycles: 1439
5banks busy for read cycles: 381985
5banks busy for write cycles: 460
6banks busy for read cycles: 322767
6banks busy for write cycles: 237
7banks busy for read cycles: 239042
7banks busy for write cycles: 0
8banks busy for read cycles: 225596
8banks busy for write cycles: 0

CPU 0 Branch Prediction Accuracy: 99.9967% MPKI: 0.00917 Average ROB Occupancy at Mispredict: 50.6848
Branch types
NOT_BRANCH: 72112493 72.1125%
BRANCH_DIRECT_JUMP: 864 0.000864%
BRANCH_INDIRECT: 0 0%
BRANCH_CONDITIONAL: 26588528 26.5885%
BRANCH_DIRECT_CALL: 325127 0.325127%
BRANCH_INDIRECT_CALL: 323777 0.323777%
BRANCH_RETURN: 648904 0.648904%
BRANCH_OTHER: 0 0%

DRAM PAGES: 1048576
Allocated PAGES: 823
