
*** ChampSim Multicore Out-of-Order Simulator ***

Warmup Instructions: 50000000
Simulation Instructions: 100000000
Number of CPUs: 1
LLC sets: 2048
LLC ways: 16
Off-chip DRAM Size: 4096 MB Channels: 1 Width: 64-bit Data Rate: 6400 MT/s
CPU 0 runs ../SPEC_2006_2017//623.xalancbmk_s-10B.champsimtrace.xz
.xz
NUM_OF_IPS_IN_CRITICAL_IP_TRAINING: 64
NUM_OF_CRITICAL_IP_TRAINING_TABLE_WAYS: 2
NUM_OF_CRITICAL_IP_TRAINING_TABLE_SETS: 32
WOBBLY_CRITICAL_IP_CACHE_SETS: 32
WOBBLY_CRITICAL_IP_CACHE_WAYS: 4
BTB has LRU replacement policy
ITLB has LRU replacement policy
DTLB has LRU replacement policy
STLB has LRU replacement policy
L1I has LRU replacement policy
IP Table Entries: 64
L1D has LRU replacement policy
Initialize SRRIP state for L2C
Initialize DRRIP state for LLC
Heartbeat CPU 0 instructions: 10000003 cycles: 3120034 heartbeat IPC: 3.20509 cumulative IPC: 3.20509 (Simulation time: 0 hr 5 min 54 sec) 
Heartbeat CPU 0 instructions: 20000000 cycles: 6241788 heartbeat IPC: 3.20333 cumulative IPC: 3.20421 (Simulation time: 0 hr 11 min 36 sec) 
Heartbeat CPU 0 instructions: 30000001 cycles: 9371308 heartbeat IPC: 3.19538 cumulative IPC: 3.20126 (Simulation time: 0 hr 17 min 8 sec) 
Heartbeat CPU 0 instructions: 40000003 cycles: 12497622 heartbeat IPC: 3.19866 cumulative IPC: 3.20061 (Simulation time: 0 hr 22 min 16 sec) 
Heartbeat CPU 0 instructions: 50000003 cycles: 15662882 heartbeat IPC: 3.1593 cumulative IPC: 3.19226 (Simulation time: 0 hr 27 min 8 sec) 

Warmup complete CPU 0 instructions: 50000003 cycles: 15662882 (Simulation time: 0 hr 27 min 8 sec) 

% increase in all ip prefetch 778.882
% increase in all ip prefetch 1.67103
Heartbeat CPU 0 instructions: 60000002 cycles: 44109713 heartbeat IPC: 0.351533 cumulative IPC: 0.351533 (Simulation time: 0 hr 33 min 25 sec) 
Heartbeat CPU 0 instructions: 70000000 cycles: 72772218 heartbeat IPC: 0.348888 cumulative IPC: 0.350205 (Simulation time: 0 hr 39 min 13 sec) 
Heartbeat CPU 0 instructions: 80000003 cycles: 101543956 heartbeat IPC: 0.347563 cumulative IPC: 0.34932 (Simulation time: 0 hr 45 min 3 sec) 
Heartbeat CPU 0 instructions: 90000002 cycles: 129075811 heartbeat IPC: 0.363216 cumulative IPC: 0.352693 (Simulation time: 0 hr 50 min 13 sec) 
Heartbeat CPU 0 instructions: 100000003 cycles: 158060999 heartbeat IPC: 0.345004 cumulative IPC: 0.351128 (Simulation time: 0 hr 55 min 7 sec) 
Heartbeat CPU 0 instructions: 110000000 cycles: 185107169 heartbeat IPC: 0.369738 cumulative IPC: 0.354099 (Simulation time: 0 hr 59 min 4 sec) 
Heartbeat CPU 0 instructions: 120000001 cycles: 211764395 heartbeat IPC: 0.375133 cumulative IPC: 0.356958 (Simulation time: 1 hr 2 min 0 sec) 
Heartbeat CPU 0 instructions: 130000000 cycles: 241846192 heartbeat IPC: 0.332427 cumulative IPC: 0.353695 (Simulation time: 1 hr 4 min 24 sec) 
Heartbeat CPU 0 instructions: 140000001 cycles: 271187372 heartbeat IPC: 0.340818 cumulative IPC: 0.352217 (Simulation time: 1 hr 6 min 31 sec) 
Heartbeat CPU 0 instructions: 150000003 cycles: 297362578 heartbeat IPC: 0.382041 cumulative IPC: 0.354988 (Simulation time: 1 hr 10 min 30 sec) 
Finished CPU 0 instructions: 100000000 cycles: 281699696 cumulative IPC: 0.354988 (Simulation time: 1 hr 10 min 30 sec) 

ChampSim completed all CPUs

Region of Interest Statistics

CPU 0 cumulative IPC: 0.354988 instructions: 100000000 cycles: 281699696

CPU 0 Average Load ROB stall cycles: 6.56816e+07
CPU 0 Fraction of times ROB stalled by Loads: 41.5279
CPU 0 Percentage of Load stall cycles in Total stall cycles: 4.52476e+08
Issued all: 185695325
Issued LT all: 174897781
rob_not_full_when_issued_lt_all: 35924812
Issued LT one: 162669757
rob_not_full_when_issued_lt_one: 31321911
 Total stall cycles: 252828345
 Total load stall cycles: 1143987890554128
CPU 0 NUM of IPS identified critical: 0
CPU 0 Num of Load IPs stalling ROB: 3549
Threshold modification factor: -1
Max PIST entries: 64
Min PIST entries: 0
Avg PIST entries: 36.5333
Trouble in retire width: 0.972845
MaC = Marked as critical.
lt_50_percent_before_Mac: 0
gt_90_percent_before_Mac: 0
gt_75_percent_before_Mac: 0
gt_50_percent_before_Mac: 0
stall_proportion_bin_same_before_after: 0
stall_proportion_bin_lower_before_after: 0
stall_proportion_bin_upper_before_after: 0
average_stall_proportion_before: -nan
average_stall_proportion_after: -nan
Critical IP stalls, total frequency: 0
Non-critical IP stalls, total frequency: 7232984
Total Freq all stalling IPs: 7232984
stat_90_percent_critical_ip_stalls_freq: 6510179
stat_90_percent_non_critical_ip_stalls_freq: 722805
Critical_IP_ROB_Stalls_Bucket_0: 0
Non-critical_IP_ROB_Stalls_Bucket_0: 2234002
Critical_IP_ROB_Stalls_Bucket_1: 0
Non-critical_IP_ROB_Stalls_Bucket_1: 687577
Critical_IP_ROB_Stalls_Bucket_2: 0
Non-critical_IP_ROB_Stalls_Bucket_2: 269489
Critical_IP_ROB_Stalls_Bucket_3: 0
Non-critical_IP_ROB_Stalls_Bucket_3: 138216
Critical_IP_ROB_Stalls_Bucket_4: 0
Non-critical_IP_ROB_Stalls_Bucket_4: 136514
Critical_IP_ROB_Stalls_Bucket_5: 0
Non-critical_IP_ROB_Stalls_Bucket_5: 404617
Critical_IP_ROB_Stalls_Bucket_6: 0
Non-critical_IP_ROB_Stalls_Bucket_6: 3362569
0 => IPs accounting for >50 percent of stalls, 1 => 55, 2 => 60, 3 => 65 and so on till 90.
percent50: 50.054 num IPs:  13
percent55: 55.0027 num IPs: 17
percent60: 60.2554 num IPs: 30
percent65: 65.2601 num IPs: 48
percent70: 70.1495 num IPs: 67
percent75: 75.1374 num IPs: 98
percent80: 80.0597 num IPs: 149
percent85: 85.0278 num IPs: 266
percent90: 90.0071 num IPs: 513
Critical_ROB_Stalls_Percent_0_Bucket_0: 407450
Non-critical_ROB_Stalls_Percent_0_Bucket_0: 1826552
Critical_ROB_Stalls_Percent_0_Bucket_1: 276194
Non-critical_ROB_Stalls_Percent_0_Bucket_1: 411383
Critical_ROB_Stalls_Percent_0_Bucket_2: 110461
Non-critical_ROB_Stalls_Percent_0_Bucket_2: 159028
Critical_ROB_Stalls_Percent_0_Bucket_3: 53986
Non-critical_ROB_Stalls_Percent_0_Bucket_3: 84230
Critical_ROB_Stalls_Percent_0_Bucket_4: 77348
Non-critical_ROB_Stalls_Percent_0_Bucket_4: 59166
Critical_ROB_Stalls_Percent_0_Bucket_5: 338346
Non-critical_ROB_Stalls_Percent_0_Bucket_5: 66271
Critical_ROB_Stalls_Percent_0_Bucket_6: 2356612
Non-critical_ROB_Stalls_Percent_0_Bucket_6: 1005957
Critical_ROB_Stalls_Percent_1_Bucket_0: 476294
Non-critical_ROB_Stalls_Percent_1_Bucket_0: 1757708
Critical_ROB_Stalls_Percent_1_Bucket_1: 289285
Non-critical_ROB_Stalls_Percent_1_Bucket_1: 398292
Critical_ROB_Stalls_Percent_1_Bucket_2: 119855
Non-critical_ROB_Stalls_Percent_1_Bucket_2: 149634
Critical_ROB_Stalls_Percent_1_Bucket_3: 59069
Non-critical_ROB_Stalls_Percent_1_Bucket_3: 79147
Critical_ROB_Stalls_Percent_1_Bucket_4: 86962
Non-critical_ROB_Stalls_Percent_1_Bucket_4: 49552
Critical_ROB_Stalls_Percent_1_Bucket_5: 343642
Non-critical_ROB_Stalls_Percent_1_Bucket_5: 60975
Critical_ROB_Stalls_Percent_1_Bucket_6: 2603227
Non-critical_ROB_Stalls_Percent_1_Bucket_6: 759342
Critical_ROB_Stalls_Percent_2_Bucket_0: 742091
Non-critical_ROB_Stalls_Percent_2_Bucket_0: 1491911
Critical_ROB_Stalls_Percent_2_Bucket_1: 299064
Non-critical_ROB_Stalls_Percent_2_Bucket_1: 388513
Critical_ROB_Stalls_Percent_2_Bucket_2: 129015
Non-critical_ROB_Stalls_Percent_2_Bucket_2: 140474
Critical_ROB_Stalls_Percent_2_Bucket_3: 67689
Non-critical_ROB_Stalls_Percent_2_Bucket_3: 70527
Critical_ROB_Stalls_Percent_2_Bucket_4: 90797
Non-critical_ROB_Stalls_Percent_2_Bucket_4: 45717
Critical_ROB_Stalls_Percent_2_Bucket_5: 352101
Non-critical_ROB_Stalls_Percent_2_Bucket_5: 52516
Critical_ROB_Stalls_Percent_2_Bucket_6: 2677509
Non-critical_ROB_Stalls_Percent_2_Bucket_6: 685060
Critical_ROB_Stalls_Percent_3_Bucket_0: 814776
Non-critical_ROB_Stalls_Percent_3_Bucket_0: 1419226
Critical_ROB_Stalls_Percent_3_Bucket_1: 309605
Non-critical_ROB_Stalls_Percent_3_Bucket_1: 377972
Critical_ROB_Stalls_Percent_3_Bucket_2: 140657
Non-critical_ROB_Stalls_Percent_3_Bucket_2: 128832
Critical_ROB_Stalls_Percent_3_Bucket_3: 78463
Non-critical_ROB_Stalls_Percent_3_Bucket_3: 59753
Critical_ROB_Stalls_Percent_3_Bucket_4: 95035
Non-critical_ROB_Stalls_Percent_3_Bucket_4: 41479
Critical_ROB_Stalls_Percent_3_Bucket_5: 364669
Non-critical_ROB_Stalls_Percent_3_Bucket_5: 39948
Critical_ROB_Stalls_Percent_3_Bucket_6: 2917044
Non-critical_ROB_Stalls_Percent_3_Bucket_6: 445525
Critical_ROB_Stalls_Percent_4_Bucket_0: 852870
Non-critical_ROB_Stalls_Percent_4_Bucket_0: 1381132
Critical_ROB_Stalls_Percent_4_Bucket_1: 320278
Non-critical_ROB_Stalls_Percent_4_Bucket_1: 367299
Critical_ROB_Stalls_Percent_4_Bucket_2: 158464
Non-critical_ROB_Stalls_Percent_4_Bucket_2: 111025
Critical_ROB_Stalls_Percent_4_Bucket_3: 91815
Non-critical_ROB_Stalls_Percent_4_Bucket_3: 46401
Critical_ROB_Stalls_Percent_4_Bucket_4: 103315
Non-critical_ROB_Stalls_Percent_4_Bucket_4: 33199
Critical_ROB_Stalls_Percent_4_Bucket_5: 382315
Non-critical_ROB_Stalls_Percent_4_Bucket_5: 22302
Critical_ROB_Stalls_Percent_4_Bucket_6: 3164842
Non-critical_ROB_Stalls_Percent_4_Bucket_6: 197727
Critical_ROB_Stalls_Percent_5_Bucket_0: 1047297
Non-critical_ROB_Stalls_Percent_5_Bucket_0: 1186705
Critical_ROB_Stalls_Percent_5_Bucket_1: 353949
Non-critical_ROB_Stalls_Percent_5_Bucket_1: 333628
Critical_ROB_Stalls_Percent_5_Bucket_2: 179940
Non-critical_ROB_Stalls_Percent_5_Bucket_2: 89549
Critical_ROB_Stalls_Percent_5_Bucket_3: 100826
Non-critical_ROB_Stalls_Percent_5_Bucket_3: 37390
Critical_ROB_Stalls_Percent_5_Bucket_4: 110866
Non-critical_ROB_Stalls_Percent_5_Bucket_4: 25648
Critical_ROB_Stalls_Percent_5_Bucket_5: 388274
Non-critical_ROB_Stalls_Percent_5_Bucket_5: 16343
Critical_ROB_Stalls_Percent_5_Bucket_6: 3253529
Non-critical_ROB_Stalls_Percent_5_Bucket_6: 109040
Critical_ROB_Stalls_Percent_6_Bucket_0: 1321905
Non-critical_ROB_Stalls_Percent_6_Bucket_0: 912097
Critical_ROB_Stalls_Percent_6_Bucket_1: 368719
Non-critical_ROB_Stalls_Percent_6_Bucket_1: 318858
Critical_ROB_Stalls_Percent_6_Bucket_2: 189685
Non-critical_ROB_Stalls_Percent_6_Bucket_2: 79804
Critical_ROB_Stalls_Percent_6_Bucket_3: 108330
Non-critical_ROB_Stalls_Percent_6_Bucket_3: 29886
Critical_ROB_Stalls_Percent_6_Bucket_4: 114710
Non-critical_ROB_Stalls_Percent_6_Bucket_4: 21804
Critical_ROB_Stalls_Percent_6_Bucket_5: 390972
Non-critical_ROB_Stalls_Percent_6_Bucket_5: 13645
Critical_ROB_Stalls_Percent_6_Bucket_6: 3296384
Non-critical_ROB_Stalls_Percent_6_Bucket_6: 66185
Critical_ROB_Stalls_Percent_7_Bucket_0: 1545552
Non-critical_ROB_Stalls_Percent_7_Bucket_0: 688450
Critical_ROB_Stalls_Percent_7_Bucket_1: 437455
Non-critical_ROB_Stalls_Percent_7_Bucket_1: 250122
Critical_ROB_Stalls_Percent_7_Bucket_2: 199655
Non-critical_ROB_Stalls_Percent_7_Bucket_2: 69834
Critical_ROB_Stalls_Percent_7_Bucket_3: 113633
Non-critical_ROB_Stalls_Percent_7_Bucket_3: 24583
Critical_ROB_Stalls_Percent_7_Bucket_4: 119396
Non-critical_ROB_Stalls_Percent_7_Bucket_4: 17118
Critical_ROB_Stalls_Percent_7_Bucket_5: 394655
Non-critical_ROB_Stalls_Percent_7_Bucket_5: 9962
Critical_ROB_Stalls_Percent_7_Bucket_6: 3339693
Non-critical_ROB_Stalls_Percent_7_Bucket_6: 22876
Critical_ROB_Stalls_Percent_8_Bucket_0: 1787274
Non-critical_ROB_Stalls_Percent_8_Bucket_0: 446728
Critical_ROB_Stalls_Percent_8_Bucket_1: 514064
Non-critical_ROB_Stalls_Percent_8_Bucket_1: 173513
Critical_ROB_Stalls_Percent_8_Bucket_2: 219453
Non-critical_ROB_Stalls_Percent_8_Bucket_2: 50036
Critical_ROB_Stalls_Percent_8_Bucket_3: 122989
Non-critical_ROB_Stalls_Percent_8_Bucket_3: 15227
Critical_ROB_Stalls_Percent_8_Bucket_4: 122224
Non-critical_ROB_Stalls_Percent_8_Bucket_4: 14290
Critical_ROB_Stalls_Percent_8_Bucket_5: 396502
Non-critical_ROB_Stalls_Percent_8_Bucket_5: 8115
Critical_ROB_Stalls_Percent_8_Bucket_6: 3347673
Non-critical_ROB_Stalls_Percent_8_Bucket_6: 14896
Average ROB occupancy Load Stall Begin: 191.818
Average ROB occupancy Load Stall End: 198.851
Min ROB occupancy Load Stall Begin: 1
Max ROB occupancy Load Stall Begin: 352
Min ROB occupancy Load Stall End: 1
Max ROB occupancy Load Stall End: 352
Average ROB occupancy Critical Load Stall Begin: -nan
Average ROB occupancy Critical Load Stall End: -nan
Min ROB occupancy Critical Load Stall Begin: 400
Max ROB occupancy Critical Load Stall Begin: 0
Min ROB occupancy Critical Load Stall End: 400
Max ROB occupancy Critical Load Stall End: 0
 ROB Load Stall Begin Bucket Count 0: 2387934
 ROB Load Stall End Bucket Count 0: 2234002
 ROB Critical Load Stall Begin Bucket Count 0: 0
 ROB Critical Load Stall End Bucket Count 0: 0
 ROB Load Stall Begin Bucket Count 1: 613069
 ROB Load Stall End Bucket Count 1: 687577
 ROB Critical Load Stall Begin Bucket Count 1: 0
 ROB Critical Load Stall End Bucket Count 1: 0
 ROB Load Stall Begin Bucket Count 2: 234100
 ROB Load Stall End Bucket Count 2: 269489
 ROB Critical Load Stall Begin Bucket Count 2: 0
 ROB Critical Load Stall End Bucket Count 2: 0
 ROB Load Stall Begin Bucket Count 3: 129483
 ROB Load Stall End Bucket Count 3: 138216
 ROB Critical Load Stall Begin Bucket Count 3: 0
 ROB Critical Load Stall End Bucket Count 3: 0
 ROB Load Stall Begin Bucket Count 4: 133136
 ROB Load Stall End Bucket Count 4: 136514
 ROB Critical Load Stall Begin Bucket Count 4: 0
 ROB Critical Load Stall End Bucket Count 4: 0
 ROB Load Stall Begin Bucket Count 5: 681603
 ROB Load Stall End Bucket Count 5: 404617
 ROB Critical Load Stall Begin Bucket Count 5: 0
 ROB Critical Load Stall End Bucket Count 5: 0
 ROB Load Stall Begin Bucket Count 6: 3053659
 ROB Load Stall End Bucket Count 6: 3362569
 ROB Critical Load Stall Begin Bucket Count 6: 0
 ROB Critical Load Stall End Bucket Count 6: 0
PIST Tag Read Accesses: 2780778
PIST Read Accesses: 1390389
PIST Tag Write Accesses: 2780778
PIST Write Accesses: 1390389
Criticality detector called times: 2922093
Max global_stall_cycles_count: 9574272
Threshold Modified: 1 times, factor: -1
Sturdy critical IP cache stats: 
 Unused entries: 0
CIC Tag Read Accesses: 0
CIC Read Accesses: 0
CIC Tag Write Accesses: 0
CIC Write Accesses: 0
Wobbly critical IP cache stats: 
 Unused entries: 79
CIC Tag Read Accesses: 203510476
CIC Read Accesses: 0
CIC Tag Write Accesses: 9757732
CIC Write Accesses: 0
ITLB TOTAL     ACCESS:   16441434  HIT:   16375489  MISS:      65945  HIT %:    99.5989  MISS %:    0.40109   MPKI: 0.65945
ITLB LOAD TRANSLATION ACCESS:   16441434  HIT:   16375489  MISS:      65945  HIT %:    99.5989  MISS %:    0.40109   MPKI: 0.65945
ITLB PREFETCH  REQUESTED:          0  ISSUED:          0  USEFUL:          0  USELESS:          0
ITLB USEFUL LOAD PREFETCHES:          0 PREFETCH ISSUED TO LOWER LEVEL:          0  ACCURACY: -nan
ITLB TIMELY PREFETCHES:          0 LATE PREFETCHES: 0 DROPPED PREFETCHES: 0
ITLB PREFETCHES SAME FILL-ORIGIN LEVEL: 0 DIFFERENT FILL-ORIGIN LEVEL: 0
ITLB AVERAGE MISS LATENCY: 16.6146 cycles
ITLB RQ	ACCESS:   19337393	FORWARD:          0	MERGED:    2879250	TO_CACHE:   16458143

DTLB TOTAL     ACCESS:   18401519  HIT:   17743842  MISS:     657677  HIT %:     96.426  MISS %:    3.57404   MPKI: 6.57677
DTLB LOAD TRANSLATION ACCESS:   18401519  HIT:   17743842  MISS:     657677  HIT %:     96.426  MISS %:    3.57404   MPKI: 6.57677
DTLB PREFETCH  REQUESTED:          0  ISSUED:          0  USEFUL:          0  USELESS:          0
DTLB USEFUL LOAD PREFETCHES:          0 PREFETCH ISSUED TO LOWER LEVEL:          0  ACCURACY: -nan
DTLB TIMELY PREFETCHES:          0 LATE PREFETCHES: 0 DROPPED PREFETCHES: 0
DTLB PREFETCHES SAME FILL-ORIGIN LEVEL: 0 DIFFERENT FILL-ORIGIN LEVEL: 0
DTLB AVERAGE MISS LATENCY: 53.289 cycles
DTLB RQ	ACCESS:   20855581	FORWARD:          0	MERGED:    2353402	TO_CACHE:   18502179

STLB TOTAL     ACCESS:    2606122  HIT:    2124993  MISS:     481129  HIT %:    81.5385  MISS %:    18.4615   MPKI: 4.81129
STLB LOAD TRANSLATION ACCESS:     723622  HIT:     242505  MISS:     481117  HIT %:    33.5127  MISS %:    66.4873   MPKI: 4.81117
STLB TRANSLATION FROM L1D PREFETCHER ACCESS:    1882500  HIT:    1882488  MISS:         12  HIT %:    99.9994  MISS %: 0.00063745   MPKI: 0.00012
STLB PREFETCH  REQUESTED:          0  ISSUED:          0  USEFUL:         12  USELESS:          0
STLB USEFUL LOAD PREFETCHES:         12 PREFETCH ISSUED TO LOWER LEVEL:          0  ACCURACY: inf
STLB TIMELY PREFETCHES:         12 LATE PREFETCHES: 0 DROPPED PREFETCHES: 0
STLB PREFETCHES SAME FILL-ORIGIN LEVEL: 0 DIFFERENT FILL-ORIGIN LEVEL: 0
STLB AVERAGE MISS LATENCY: 61.5405 cycles
STLB RQ	ACCESS:    3417331	FORWARD:          0	MERGED:     811209	TO_CACHE:    2606122

STLB Hit, L1D data hit: 0
STLB Hit, L2C data hit: 0
STLB Hit, LLC data hit: 0
STLB Hit, LLC data miss: 0
STLB STLB hints to L2: 0
L1D TOTAL     ACCESS:   22623646  HIT:   18689596  MISS:    3934050  HIT %:    82.6109  MISS %:    17.3891   MPKI: 39.3405
L1D LOAD      ACCESS:   15711486  HIT:   13483998  MISS:    2227488  HIT %:    85.8226  MISS %:    14.1774   MPKI: 22.2749
L1D RFO       ACCESS:    4782320  HIT:    4740730  MISS:      41590  HIT %:    99.1303  MISS %:   0.869662   MPKI: 0.4159
L1D PREFETCH  ACCESS:    2129840  HIT:     464868  MISS:    1664972  HIT %:    21.8264  MISS %:    78.1736   MPKI: 16.6497
L1D PREFETCH  REQUESTED:    5387437  ISSUED:    5387418  USEFUL:     386937  USELESS:    1277978
L1D USEFUL LOAD PREFETCHES:     386937 PREFETCH ISSUED TO LOWER LEVEL:    1770954  ACCURACY: 21.8491
L1D TIMELY PREFETCHES:     386937 LATE PREFETCHES: 105954 DROPPED PREFETCHES: 0
L1D PREFETCHES SAME FILL-ORIGIN LEVEL: 1770954 DIFFERENT FILL-ORIGIN LEVEL: 0
L1D AVERAGE MISS LATENCY: 4.18577e+06 cycles
L1D RQ	ACCESS:   29317609	FORWARD:          0	MERGED:   12928024	TO_CACHE:   15958788
L1D WQ	ACCESS:    4982653	FORWARD:     430797	MERGED:      85860	TO_CACHE:    4896793
L1D PQ	ACCESS:    2693709	FORWARD:          0	MERGED:          0	TO_CACHE:    2693709

L1D UNIQUE REGIONS ACCESSED: 0
L1D REGIONS CONFLICTS: 0
L1D Cross Page Prefetch Requests: 0
L1D Same Page Prefetch Requests: 4304996
L1D ROI Sum of L1D PQ occupancy: 34867051
L1D PREFETCHES PUSHED FROM L2C: 0
L1I TOTAL     ACCESS:   19226333  HIT:   18869331  MISS:     357002  HIT %:    98.1432  MISS %:    1.85684   MPKI: 3.57002
L1I LOAD      ACCESS:   19226333  HIT:   18869331  MISS:     357002  HIT %:    98.1432  MISS %:    1.85684   MPKI: 3.57002
L1I PREFETCH  REQUESTED:          0  ISSUED:          0  USEFUL:          0  USELESS:          0
L1I USEFUL LOAD PREFETCHES:          0 PREFETCH ISSUED TO LOWER LEVEL:          0  ACCURACY: -nan
L1I TIMELY PREFETCHES:          0 LATE PREFETCHES: 0 DROPPED PREFETCHES: 0
L1I PREFETCHES SAME FILL-ORIGIN LEVEL: 0 DIFFERENT FILL-ORIGIN LEVEL: 0
L1I AVERAGE MISS LATENCY: 27.8257 cycles
L1I RQ	ACCESS:   33040586	FORWARD:          0	MERGED:   13703193	TO_CACHE:   19337393

BTB TOTAL     ACCESS:   16568656  HIT:   16408085  MISS:     160571  HIT %:    99.0309  MISS %:   0.969125   MPKI: 1.60571
BTB BRANCH_DIRECT_JUMP	ACCESS:     263115  HIT:     262050  MISS:       1065
BTB BRANCH_INDIRECT	ACCESS:      46555  HIT:      18645  MISS:      27910
BTB BRANCH_CONDITIONAL	ACCESS:   13898878  HIT:   13893773  MISS:       5105
BTB BRANCH_DIRECT_CALL	ACCESS:     652097  HIT:     650141  MISS:       1956
BTB BRANCH_INDIRECT_CALL	ACCESS:     527959  HIT:     521714  MISS:       6245
BTB BRANCH_RETURN	ACCESS:    1180052  HIT:    1061762  MISS:     118290
BTB BRANCH_OTHER ACCESS:          0  HIT:          0  MISS:          0

L2C TOTAL     ACCESS:    4852739  HIT:    1057401  MISS:    3795338  HIT %:    21.7898  MISS %:    78.2102   MPKI: 37.9534
L2C LOAD      ACCESS:    2478535  HIT:     490203  MISS:    1988332  HIT %:    19.7779  MISS %:    80.2221   MPKI: 19.8833
L2C DATA LOAD MPKI: 19.246
L2C INSTRUCTION LOAD MPKI: 0.63729
L2C RFO       ACCESS:      41556  HIT:      14855  MISS:      26701  HIT %:    35.7469  MISS %:    64.2531   MPKI: 0.26701
L2C PREFETCH  ACCESS:    1770954  HIT:     105273  MISS:    1665681  HIT %:    5.94442  MISS %:    94.0556   MPKI: 16.6568
L2C DATA PREFETCH MPKI: 16.6568
L2C INSTRUCTION PREFETCH MPKI: 0
L2C WRITEBACK ACCESS:      78381  HIT:      77797  MISS:        584  HIT %:    99.2549  MISS %:   0.745079   MPKI: 0.00584
L2C LOAD TRANSLATION ACCESS:     483300  HIT:     369263  MISS:     114037  HIT %:    76.4045  MISS %:    23.5955   MPKI: 1.14037
L2C TRANSLATION FROM L1D PREFETCHER ACCESS:         13  HIT:         10  MISS:          3  HIT %:    76.9231  MISS %:    23.0769   MPKI: 3e-05
L2C PREFETCH  REQUESTED:          0  ISSUED:          0  USEFUL:       9944  USELESS:    1655863
L2C USEFUL LOAD PREFETCHES:       9944 PREFETCH ISSUED TO LOWER LEVEL:    1665681  ACCURACY: 0.596993
L2C TIMELY PREFETCHES:       9944 LATE PREFETCHES: 0 DROPPED PREFETCHES: 0
L2C PREFETCHES SAME FILL-ORIGIN LEVEL: 0 DIFFERENT FILL-ORIGIN LEVEL: 0
L2C AVERAGE MISS LATENCY: 100.154 cycles
L2C RQ	ACCESS:    3003411	FORWARD:          0	MERGED:          0	TO_CACHE:    3003404
L2C WQ	ACCESS:      78381	FORWARD:          7	MERGED:          0	TO_CACHE:      78381
L2C PQ	ACCESS:    1770954	FORWARD:          0	MERGED:          0	TO_CACHE:    1770954

L2C Instructions Evicting Data 61138
L2C Translations Evicting Data 109047
L2C Data Evicting Data 3446472
L2C Instructions Evicting Instructions 1109
L2C Translations Evicting Instructions 1436
L2C Data Evicting Instructions 60883
L2C Instructions Evicting Translations 1482
L2C Translations Evicting Translations 3557
L2C Data Evicting Translations 109630
L2C Dense regions hint from L2: 0
PSCL5 TOTAL     ACCESS:     481129  HIT:     481129  MISS:          0  HIT %:        100  MISS %:          0   MPKI: 0
PSCL5 LOAD TRANSLATION ACCESS:     481117  HIT:     481117  MISS:          0  HIT %:        100  MISS %:          0   MPKI: 0
PSCL5 TRANSLATION FROM L1D PREFETCHER ACCESS:         12  HIT:         12  MISS:          0  HIT %:        100  MISS %:          0   MPKI: 0
PSCL5 PREFETCH  REQUESTED:          0  ISSUED:          0  USEFUL:          0  USELESS:          0
PSCL5 USEFUL LOAD PREFETCHES:          0 PREFETCH ISSUED TO LOWER LEVEL:          0  ACCURACY: -nan
PSCL5 TIMELY PREFETCHES:          0 LATE PREFETCHES: 0 DROPPED PREFETCHES: 0
PSCL5 PREFETCHES SAME FILL-ORIGIN LEVEL: 0 DIFFERENT FILL-ORIGIN LEVEL: 0

PSCL4 TOTAL     ACCESS:     481129  HIT:     481129  MISS:          0  HIT %:        100  MISS %:          0   MPKI: 0
PSCL4 LOAD TRANSLATION ACCESS:     481117  HIT:     481117  MISS:          0  HIT %:        100  MISS %:          0   MPKI: 0
PSCL4 TRANSLATION FROM L1D PREFETCHER ACCESS:         12  HIT:         12  MISS:          0  HIT %:        100  MISS %:          0   MPKI: 0
PSCL4 PREFETCH  REQUESTED:          0  ISSUED:          0  USEFUL:          0  USELESS:          0
PSCL4 USEFUL LOAD PREFETCHES:          0 PREFETCH ISSUED TO LOWER LEVEL:          0  ACCURACY: -nan
PSCL4 TIMELY PREFETCHES:          0 LATE PREFETCHES: 0 DROPPED PREFETCHES: 0
PSCL4 PREFETCHES SAME FILL-ORIGIN LEVEL: 0 DIFFERENT FILL-ORIGIN LEVEL: 0

PSCL3 TOTAL     ACCESS:     481129  HIT:     481129  MISS:          0  HIT %:        100  MISS %:          0   MPKI: 0
PSCL3 LOAD TRANSLATION ACCESS:     481117  HIT:     481117  MISS:          0  HIT %:        100  MISS %:          0   MPKI: 0
PSCL3 TRANSLATION FROM L1D PREFETCHER ACCESS:         12  HIT:         12  MISS:          0  HIT %:        100  MISS %:          0   MPKI: 0
PSCL3 PREFETCH  REQUESTED:          0  ISSUED:          0  USEFUL:          0  USELESS:          0
PSCL3 USEFUL LOAD PREFETCHES:          0 PREFETCH ISSUED TO LOWER LEVEL:          0  ACCURACY: -nan
PSCL3 TIMELY PREFETCHES:          0 LATE PREFETCHES: 0 DROPPED PREFETCHES: 0
PSCL3 PREFETCHES SAME FILL-ORIGIN LEVEL: 0 DIFFERENT FILL-ORIGIN LEVEL: 0

PSCL2 TOTAL     ACCESS:     481129  HIT:     478945  MISS:       2184  HIT %:    99.5461  MISS %:   0.453932   MPKI: 0.02184
PSCL2 LOAD TRANSLATION ACCESS:     481118  HIT:     478934  MISS:       2184  HIT %:    99.5461  MISS %:   0.453943   MPKI: 0.02184
PSCL2 TRANSLATION FROM L1D PREFETCHER ACCESS:         11  HIT:         11  MISS:          0  HIT %:        100  MISS %:          0   MPKI: 0
PSCL2 PREFETCH  REQUESTED:          0  ISSUED:          0  USEFUL:          0  USELESS:          0
PSCL2 USEFUL LOAD PREFETCHES:          0 PREFETCH ISSUED TO LOWER LEVEL:          0  ACCURACY: -nan
PSCL2 TIMELY PREFETCHES:          0 LATE PREFETCHES: 0 DROPPED PREFETCHES: 0
PSCL2 PREFETCHES SAME FILL-ORIGIN LEVEL: 0 DIFFERENT FILL-ORIGIN LEVEL: 0

LLC TOTAL     ACCESS:    3833768  HIT:    1450575  MISS:    2383193  HIT %:    37.8368  MISS %:    62.1632   MPKI: 23.8319
LLC LOAD      ACCESS:    1988332  HIT:     828193  MISS:    1160139  HIT %:    41.6527  MISS %:    58.3473   MPKI: 11.6014
LLC RFO       ACCESS:      26701  HIT:       6801  MISS:      19900  HIT %:     25.471  MISS %:     74.529   MPKI: 0.199
LLC PREFETCH  ACCESS:    1665681  HIT:     554424  MISS:    1111257  HIT %:    33.2851  MISS %:    66.7149   MPKI: 11.1126
LLC WRITEBACK ACCESS:      39014  HIT:      16090  MISS:      22924  HIT %:    41.2416  MISS %:    58.7584   MPKI: 0.22924
LLC LOAD TRANSLATION ACCESS:     114037  HIT:      45066  MISS:      68971  HIT %:    39.5188  MISS %:    60.4812   MPKI: 0.68971
LLC TRANSLATION FROM L1D PREFETCHER ACCESS:          3  HIT:          1  MISS:          2  HIT %:    33.3333  MISS %:    66.6667   MPKI: 2e-05
LLC PREFETCH  REQUESTED:          0  ISSUED:          0  USEFUL:       1493  USELESS:    1110764
LLC USEFUL LOAD PREFETCHES:       1493 PREFETCH ISSUED TO LOWER LEVEL:    1111257  ACCURACY: 0.134352
LLC TIMELY PREFETCHES:       1493 LATE PREFETCHES: 0 DROPPED PREFETCHES: 0
LLC PREFETCHES SAME FILL-ORIGIN LEVEL: 0 DIFFERENT FILL-ORIGIN LEVEL: 0
LLC AVERAGE MISS LATENCY: 111.727 cycles
LLC RQ	ACCESS:    2129073	FORWARD:          0	MERGED:          0	TO_CACHE:    2129073
LLC WQ	ACCESS:      39014	FORWARD:          0	MERGED:          0	TO_CACHE:      39014
LLC PQ	ACCESS:    1665681	FORWARD:          0	MERGED:          0	TO_CACHE:    1665681

LLC Dense regions hint to LLC: 0

RAW hits: 151893
Loads Generated: 29469504
Loads sent to L1D: 29317609
Stores Generated: 4982648
Stores sent to L1D: 4982653
Major fault: 0 Minor fault: 11236
Allocated PAGES: 11236

stream: 
stream:times selected: 5369333
stream:pref_filled: 2147268
stream:pref_useful: 434668
stream:pref_late: 148272
stream:misses: 884723
stream:misses_by_poll: 0

CS: 
CS:times selected: 160470
CS:pref_filled: 171746
CS:pref_useful: 112111
CS:pref_late: 1082
CS:misses: 26005
CS:misses_by_poll: 195

CPLX: 
CPLX:times selected: 5157801
CPLX:pref_filled: 260103
CPLX:pref_useful: 37364
CPLX:pref_late: 1845
CPLX:misses: 2458881
CPLX:misses_by_poll: 354

NL_L1: 
NL:times selected: 43885
NL:pref_filled: 21743
NL:pref_useful: 4746
NL:pref_late: 2515
NL:misses: 30861
NL:misses_by_poll: 0

total selections: 10731489
total_filled: 1664972
total_useful: 386937
total_late: 157424
total_polluted: 549
total_misses_after_warmup: 2303890
conflicts: 522512
Degree Incremented Times: 1939
Degree Decremented Times: 221796

L1 IP Table Write Accesses: 9205227
L1 IP Table Read Accesses: 8682715
L1 RST Write Accesses: 3130337
L1 RST Read Accesses: 6260674
L1 CSPT Write Accesses: 3130337
L1 CSPT Read Accesses: 6122248
L1 RR Filter Tag Write Accesses: 2693728
L1 RR Filter Tag Read Accesses: 111451933
L1 IP Table Tag Write Accesses: 11244411
L1 IP Table Tag Read Accesses: 11244411
L1 RST Tag Write Accesses: 0
L1 RST Tag Read Accesses: 28247790
L1 RR Filter Write Accesses: 0
L1 RR Filter Read Accesses: 3624246
test: 3445798

DRAM Statistics
 CHANNEL 0
 RQ ROW_BUFFER_HIT:    1521806  ROW_BUFFER_MISS:     838463
 DBUS_CONGESTED:        619
 WQ ROW_BUFFER_HIT:       3644  ROW_BUFFER_MISS:      20668  FULL:          0

 AVG_CONGESTED_CYCLE: 4
 All warmup complete: 2
Channel 0 Bank busy for read cycles: 0
Channel 0 Bank busy for write cycles: 0
Channel 0
Rank 0
0banks busy for read cycles: 166739422
0banks busy for write cycles: 19941
1banks busy for read cycles: 58464498
1banks busy for write cycles: 4001935
2banks busy for read cycles: 28502501
2banks busy for write cycles: 498243
3banks busy for read cycles: 12584078
3banks busy for write cycles: 111799
4banks busy for read cycles: 6594319
4banks busy for write cycles: 27838
5banks busy for read cycles: 3018943
5banks busy for write cycles: 6622
6banks busy for read cycles: 823700
6banks busy for write cycles: 2400
7banks busy for read cycles: 195928
7banks busy for write cycles: 438
8banks busy for read cycles: 107056
8banks busy for write cycles: 36

CPU 0 Branch Prediction Accuracy: 99.7242% MPKI: 0.71311 Average ROB Occupancy at Mispredict: 119.061
Branch types
NOT_BRANCH: 74147137 74.1471%
BRANCH_DIRECT_JUMP: 263115 0.263115%
BRANCH_INDIRECT: 46555 0.046555%
BRANCH_CONDITIONAL: 23183100 23.1831%
BRANCH_DIRECT_CALL: 652097 0.652097%
BRANCH_INDIRECT_CALL: 527959 0.527959%
BRANCH_RETURN: 1180052 1.18005%
BRANCH_OTHER: 0 0%

DRAM PAGES: 1048576
Allocated PAGES: 11236
