Initialize SIGNATURE TABLE
ST_SET: 1
ST_WAY: 16
ST_TAG_BIT: 16
ST_TAG_MASK: ffff

Initialize PATTERN TABLE
PT_SET: 16
PT_WAY: 4
SIG_DELTA_BIT: 7
C_SIG_BIT: 4
C_DELTA_BIT: 4

Initialize PREFETCH FILTER
FILTER_SET: 1024

Initialize PERCEPTRON
PERC_ENTRIES: 4096
PERC_FEATURES: 9

*** ChampSim Multicore Out-of-Order Simulator ***

Warmup Instructions: 50000000
Simulation Instructions: 100000000
Number of CPUs: 1
LLC sets: 2048
LLC ways: 16
Off-chip DRAM Size: 4096 MB Channels: 1 Width: 64-bit Data Rate: 6400 MT/s
CPU 0 runs ../SPEC2017//623.xalancbmk_s-165B.champsimtrace.xz
.xz
BTB has LRU replacement policy
ITLB has LRU replacement policy
DTLB has LRU replacement policy
STLB has LRU replacement policy
L1I has LRU replacement policy
L1D has LRU replacement policy
Initialize SRRIP state for L2C
Initialize DRRIP state for LLC
Heartbeat CPU 0 instructions: 10000000 cycles: 2860539 heartbeat IPC: 3.49584 cumulative IPC: 3.49584 (Simulation time: 0 hr 6 min 35 sec) 
Heartbeat CPU 0 instructions: 20000001 cycles: 5722472 heartbeat IPC: 3.49414 cumulative IPC: 3.49499 (Simulation time: 0 hr 12 min 27 sec) 
Heartbeat CPU 0 instructions: 30000002 cycles: 8574551 heartbeat IPC: 3.50621 cumulative IPC: 3.49873 (Simulation time: 0 hr 18 min 6 sec) 
Heartbeat CPU 0 instructions: 40000003 cycles: 11432756 heartbeat IPC: 3.4987 cumulative IPC: 3.49872 (Simulation time: 0 hr 23 min 14 sec) 
Heartbeat CPU 0 instructions: 50000001 cycles: 14289537 heartbeat IPC: 3.50044 cumulative IPC: 3.49906 (Simulation time: 0 hr 27 min 52 sec) 

Warmup complete CPU 0 instructions: 50000001 cycles: 14289537 (Simulation time: 0 hr 27 min 52 sec) 

Heartbeat CPU 0 instructions: 60000000 cycles: 28430116 heartbeat IPC: 0.707185 cumulative IPC: 0.707185 (Simulation time: 0 hr 34 min 48 sec) 
Heartbeat CPU 0 instructions: 70000001 cycles: 42778617 heartbeat IPC: 0.696937 cumulative IPC: 0.702023 (Simulation time: 0 hr 41 min 24 sec) 
Heartbeat CPU 0 instructions: 80000001 cycles: 56792535 heartbeat IPC: 0.713576 cumulative IPC: 0.705833 (Simulation time: 0 hr 47 min 44 sec) 
Heartbeat CPU 0 instructions: 90000002 cycles: 70405537 heartbeat IPC: 0.734592 cumulative IPC: 0.712809 (Simulation time: 0 hr 53 min 11 sec) 
Heartbeat CPU 0 instructions: 100000001 cycles: 83883816 heartbeat IPC: 0.741934 cumulative IPC: 0.71845 (Simulation time: 0 hr 58 min 35 sec) 
Heartbeat CPU 0 instructions: 110000000 cycles: 97385914 heartbeat IPC: 0.740626 cumulative IPC: 0.722053 (Simulation time: 1 hr 3 min 30 sec) 
Heartbeat CPU 0 instructions: 120000000 cycles: 110786207 heartbeat IPC: 0.746252 cumulative IPC: 0.725414 (Simulation time: 1 hr 8 min 23 sec) 
Heartbeat CPU 0 instructions: 130000002 cycles: 124167931 heartbeat IPC: 0.747288 cumulative IPC: 0.728078 (Simulation time: 1 hr 20 min 13 sec) 
Heartbeat CPU 0 instructions: 140000000 cycles: 137500549 heartbeat IPC: 0.75004 cumulative IPC: 0.730454 (Simulation time: 1 hr 32 min 6 sec) 
Heartbeat CPU 0 instructions: 150000003 cycles: 150760816 heartbeat IPC: 0.754133 cumulative IPC: 0.732755 (Simulation time: 1 hr 41 min 51 sec) 
Finished CPU 0 instructions: 100000002 cycles: 136471279 cumulative IPC: 0.732755 (Simulation time: 1 hr 41 min 51 sec) 

ChampSim completed all CPUs

Region of Interest Statistics

CPU 0 cumulative IPC: 0.732755 instructions: 100000002 cycles: 136471279

CPU 0 Average Load ROB stall cycles: 2.84504e+07
CPU 0 Fraction of times ROB stalled by Loads: 34.2353
CPU 0 Percentage of Load stall cycles in Total stall cycles: 2.60083e+08
Issued all: 93953877
Issued LT all: 82032752
rob_not_full_when_issued_lt_all: 46763276
Issued LT one: 72481392
rob_not_full_when_issued_lt_one: 40533732
 Total stall cycles: 111104758
 Total load stall cycles: 288964204930692
Unique Load IPs: 168
CPU 0 NUM of IPS identified critical: 6
CPU 0 Num of Load IPs stalling ROB: 0
Threshold modification factor: 0
Trouble in retire width: -nan
MaC = Marked as critical.
lt_50_percent_before_Mac: 6
gt_90_percent_before_Mac: 0
gt_75_percent_before_Mac: 0
gt_50_percent_before_Mac: 0
stall_proportion_bin_same_before_after: 0
stall_proportion_bin_lower_before_after: 0
stall_proportion_bin_upper_before_after: 0
average_stall_proportion_before: 0.0149273
average_stall_proportion_after: 0.0223661
Critical_IP_Detector_Accuracy_70: 0
Critical_IP_Detector_Accuracy_80: 0
Critical_IP_Detector_Accuracy_90: 0
Critical_IP_Detector_Coverage_70: 0
Critical_IP_Detector_Coverage_80: 0
Critical_IP_Detector_Coverage_90: 0
stat_90_percent_critical_ip_stalls_freq: 323345
stat_90_percent_non_critical_ip_stalls_freq: 18446744073709228271
AVERAGE_ROB_Occupancy_90_Percent_Critical_IP_Stalls: 236.592
AVERAGE_ROB_Occupancy_90_Percent_Non_Critical_IP_Stalls: 5.03218e-11
Critical_IP_ROB_Stalls_Bucket_0: 0
Non-critical_IP_ROB_Stalls_Bucket_0: 14347
Critical_IP_ROB_Stalls_Bucket_1: 41
Non-critical_IP_ROB_Stalls_Bucket_1: 7284
Critical_IP_ROB_Stalls_Bucket_2: 120
Non-critical_IP_ROB_Stalls_Bucket_2: 12760
Critical_IP_ROB_Stalls_Bucket_3: 135
Non-critical_IP_ROB_Stalls_Bucket_3: 133355
Critical_IP_ROB_Stalls_Bucket_4: 1710
Non-critical_IP_ROB_Stalls_Bucket_4: 712243
Critical_IP_ROB_Stalls_Bucket_5: 6803
Non-critical_IP_ROB_Stalls_Bucket_5: 939736
Critical_IP_ROB_Stalls_Bucket_6: 127770
Non-critical_IP_ROB_Stalls_Bucket_6: 1520898
0 => IPs accounting for >50 percent of stalls, 1 => 55, 2 => 60, 3 => 65 and so on till 90.
percent50: inf num IPs:  1
percent55: inf num IPs: 1
percent60: inf num IPs: 1
percent65: inf num IPs: 1
percent70: inf num IPs: 1
percent75: inf num IPs: 1
percent80: inf num IPs: 1
percent85: inf num IPs: 1
percent90: inf num IPs: 1
Critical_ROB_Stalls_Percent_0_Bucket_0: 66
Non-critical_ROB_Stalls_Percent_0_Bucket_0: 14281
Critical_ROB_Stalls_Percent_0_Bucket_1: 1336
Non-critical_ROB_Stalls_Percent_0_Bucket_1: 5989
Critical_ROB_Stalls_Percent_0_Bucket_2: 1330
Non-critical_ROB_Stalls_Percent_0_Bucket_2: 11550
Critical_ROB_Stalls_Percent_0_Bucket_3: 26457
Non-critical_ROB_Stalls_Percent_0_Bucket_3: 107033
Critical_ROB_Stalls_Percent_0_Bucket_4: 147343
Non-critical_ROB_Stalls_Percent_0_Bucket_4: 566610
Critical_ROB_Stalls_Percent_0_Bucket_5: 146463
Non-critical_ROB_Stalls_Percent_0_Bucket_5: 800076
Critical_ROB_Stalls_Percent_0_Bucket_6: 350
Non-critical_ROB_Stalls_Percent_0_Bucket_6: 1648318
Critical_ROB_Stalls_Percent_1_Bucket_0: 66
Non-critical_ROB_Stalls_Percent_1_Bucket_0: 14281
Critical_ROB_Stalls_Percent_1_Bucket_1: 1336
Non-critical_ROB_Stalls_Percent_1_Bucket_1: 5989
Critical_ROB_Stalls_Percent_1_Bucket_2: 1330
Non-critical_ROB_Stalls_Percent_1_Bucket_2: 11550
Critical_ROB_Stalls_Percent_1_Bucket_3: 26457
Non-critical_ROB_Stalls_Percent_1_Bucket_3: 107033
Critical_ROB_Stalls_Percent_1_Bucket_4: 147343
Non-critical_ROB_Stalls_Percent_1_Bucket_4: 566610
Critical_ROB_Stalls_Percent_1_Bucket_5: 146463
Non-critical_ROB_Stalls_Percent_1_Bucket_5: 800076
Critical_ROB_Stalls_Percent_1_Bucket_6: 350
Non-critical_ROB_Stalls_Percent_1_Bucket_6: 1648318
Critical_ROB_Stalls_Percent_2_Bucket_0: 66
Non-critical_ROB_Stalls_Percent_2_Bucket_0: 14281
Critical_ROB_Stalls_Percent_2_Bucket_1: 1336
Non-critical_ROB_Stalls_Percent_2_Bucket_1: 5989
Critical_ROB_Stalls_Percent_2_Bucket_2: 1330
Non-critical_ROB_Stalls_Percent_2_Bucket_2: 11550
Critical_ROB_Stalls_Percent_2_Bucket_3: 26457
Non-critical_ROB_Stalls_Percent_2_Bucket_3: 107033
Critical_ROB_Stalls_Percent_2_Bucket_4: 147343
Non-critical_ROB_Stalls_Percent_2_Bucket_4: 566610
Critical_ROB_Stalls_Percent_2_Bucket_5: 146463
Non-critical_ROB_Stalls_Percent_2_Bucket_5: 800076
Critical_ROB_Stalls_Percent_2_Bucket_6: 350
Non-critical_ROB_Stalls_Percent_2_Bucket_6: 1648318
Critical_ROB_Stalls_Percent_3_Bucket_0: 66
Non-critical_ROB_Stalls_Percent_3_Bucket_0: 14281
Critical_ROB_Stalls_Percent_3_Bucket_1: 1336
Non-critical_ROB_Stalls_Percent_3_Bucket_1: 5989
Critical_ROB_Stalls_Percent_3_Bucket_2: 1330
Non-critical_ROB_Stalls_Percent_3_Bucket_2: 11550
Critical_ROB_Stalls_Percent_3_Bucket_3: 26457
Non-critical_ROB_Stalls_Percent_3_Bucket_3: 107033
Critical_ROB_Stalls_Percent_3_Bucket_4: 147343
Non-critical_ROB_Stalls_Percent_3_Bucket_4: 566610
Critical_ROB_Stalls_Percent_3_Bucket_5: 146463
Non-critical_ROB_Stalls_Percent_3_Bucket_5: 800076
Critical_ROB_Stalls_Percent_3_Bucket_6: 350
Non-critical_ROB_Stalls_Percent_3_Bucket_6: 1648318
Critical_ROB_Stalls_Percent_4_Bucket_0: 66
Non-critical_ROB_Stalls_Percent_4_Bucket_0: 14281
Critical_ROB_Stalls_Percent_4_Bucket_1: 1336
Non-critical_ROB_Stalls_Percent_4_Bucket_1: 5989
Critical_ROB_Stalls_Percent_4_Bucket_2: 1330
Non-critical_ROB_Stalls_Percent_4_Bucket_2: 11550
Critical_ROB_Stalls_Percent_4_Bucket_3: 26457
Non-critical_ROB_Stalls_Percent_4_Bucket_3: 107033
Critical_ROB_Stalls_Percent_4_Bucket_4: 147343
Non-critical_ROB_Stalls_Percent_4_Bucket_4: 566610
Critical_ROB_Stalls_Percent_4_Bucket_5: 146463
Non-critical_ROB_Stalls_Percent_4_Bucket_5: 800076
Critical_ROB_Stalls_Percent_4_Bucket_6: 350
Non-critical_ROB_Stalls_Percent_4_Bucket_6: 1648318
Critical_ROB_Stalls_Percent_5_Bucket_0: 66
Non-critical_ROB_Stalls_Percent_5_Bucket_0: 14281
Critical_ROB_Stalls_Percent_5_Bucket_1: 1336
Non-critical_ROB_Stalls_Percent_5_Bucket_1: 5989
Critical_ROB_Stalls_Percent_5_Bucket_2: 1330
Non-critical_ROB_Stalls_Percent_5_Bucket_2: 11550
Critical_ROB_Stalls_Percent_5_Bucket_3: 26457
Non-critical_ROB_Stalls_Percent_5_Bucket_3: 107033
Critical_ROB_Stalls_Percent_5_Bucket_4: 147343
Non-critical_ROB_Stalls_Percent_5_Bucket_4: 566610
Critical_ROB_Stalls_Percent_5_Bucket_5: 146463
Non-critical_ROB_Stalls_Percent_5_Bucket_5: 800076
Critical_ROB_Stalls_Percent_5_Bucket_6: 350
Non-critical_ROB_Stalls_Percent_5_Bucket_6: 1648318
Critical_ROB_Stalls_Percent_6_Bucket_0: 66
Non-critical_ROB_Stalls_Percent_6_Bucket_0: 14281
Critical_ROB_Stalls_Percent_6_Bucket_1: 1336
Non-critical_ROB_Stalls_Percent_6_Bucket_1: 5989
Critical_ROB_Stalls_Percent_6_Bucket_2: 1330
Non-critical_ROB_Stalls_Percent_6_Bucket_2: 11550
Critical_ROB_Stalls_Percent_6_Bucket_3: 26457
Non-critical_ROB_Stalls_Percent_6_Bucket_3: 107033
Critical_ROB_Stalls_Percent_6_Bucket_4: 147343
Non-critical_ROB_Stalls_Percent_6_Bucket_4: 566610
Critical_ROB_Stalls_Percent_6_Bucket_5: 146463
Non-critical_ROB_Stalls_Percent_6_Bucket_5: 800076
Critical_ROB_Stalls_Percent_6_Bucket_6: 350
Non-critical_ROB_Stalls_Percent_6_Bucket_6: 1648318
Critical_ROB_Stalls_Percent_7_Bucket_0: 66
Non-critical_ROB_Stalls_Percent_7_Bucket_0: 14281
Critical_ROB_Stalls_Percent_7_Bucket_1: 1336
Non-critical_ROB_Stalls_Percent_7_Bucket_1: 5989
Critical_ROB_Stalls_Percent_7_Bucket_2: 1330
Non-critical_ROB_Stalls_Percent_7_Bucket_2: 11550
Critical_ROB_Stalls_Percent_7_Bucket_3: 26457
Non-critical_ROB_Stalls_Percent_7_Bucket_3: 107033
Critical_ROB_Stalls_Percent_7_Bucket_4: 147343
Non-critical_ROB_Stalls_Percent_7_Bucket_4: 566610
Critical_ROB_Stalls_Percent_7_Bucket_5: 146463
Non-critical_ROB_Stalls_Percent_7_Bucket_5: 800076
Critical_ROB_Stalls_Percent_7_Bucket_6: 350
Non-critical_ROB_Stalls_Percent_7_Bucket_6: 1648318
Critical_ROB_Stalls_Percent_8_Bucket_0: 66
Non-critical_ROB_Stalls_Percent_8_Bucket_0: 14281
Critical_ROB_Stalls_Percent_8_Bucket_1: 1336
Non-critical_ROB_Stalls_Percent_8_Bucket_1: 5989
Critical_ROB_Stalls_Percent_8_Bucket_2: 1330
Non-critical_ROB_Stalls_Percent_8_Bucket_2: 11550
Critical_ROB_Stalls_Percent_8_Bucket_3: 26457
Non-critical_ROB_Stalls_Percent_8_Bucket_3: 107033
Critical_ROB_Stalls_Percent_8_Bucket_4: 147343
Non-critical_ROB_Stalls_Percent_8_Bucket_4: 566610
Critical_ROB_Stalls_Percent_8_Bucket_5: 146463
Non-critical_ROB_Stalls_Percent_8_Bucket_5: 800076
Critical_ROB_Stalls_Percent_8_Bucket_6: 350
Non-critical_ROB_Stalls_Percent_8_Bucket_6: 1648318
Average ROB occupancy Load Stall Begin: 271.815
Average ROB occupancy Load Stall End: 288.96
Min ROB occupancy Load Stall Begin: 1
Max ROB occupancy Load Stall Begin: 352
Min ROB occupancy Load Stall End: 1
Max ROB occupancy Load Stall End: 352
Average ROB occupancy Critical Load Stall Begin: 333.029
Average ROB occupancy Critical Load Stall End: 338.211
Min ROB occupancy Critical Load Stall Begin: 55
Max ROB occupancy Critical Load Stall Begin: 352
Min ROB occupancy Critical Load Stall End: 55
Max ROB occupancy Critical Load Stall End: 352
 ROB Load Stall Begin Bucket Count 0: 16399
 ROB Load Stall End Bucket Count 0: 14347
 ROB Critical Load Stall Begin Bucket Count 0: 0
 ROB Critical Load Stall End Bucket Count 0: 0
 ROB Load Stall Begin Bucket Count 1: 7519
 ROB Load Stall End Bucket Count 1: 7325
 ROB Critical Load Stall Begin Bucket Count 1: 28
 ROB Critical Load Stall End Bucket Count 1: 28
 ROB Load Stall Begin Bucket Count 2: 20769
 ROB Load Stall End Bucket Count 2: 12880
 ROB Critical Load Stall Begin Bucket Count 2: 111
 ROB Critical Load Stall End Bucket Count 2: 97
 ROB Load Stall Begin Bucket Count 3: 227895
 ROB Load Stall End Bucket Count 3: 133490
 ROB Critical Load Stall Begin Bucket Count 3: 152
 ROB Critical Load Stall End Bucket Count 3: 102
 ROB Load Stall Begin Bucket Count 4: 1002317
 ROB Load Stall End Bucket Count 4: 713953
 ROB Critical Load Stall Begin Bucket Count 4: 2313
 ROB Critical Load Stall End Bucket Count 4: 1642
 ROB Load Stall Begin Bucket Count 5: 970660
 ROB Load Stall End Bucket Count 5: 946539
 ROB Critical Load Stall Begin Bucket Count 5: 10096
 ROB Critical Load Stall End Bucket Count 5: 6396
 ROB Load Stall Begin Bucket Count 6: 1231643
 ROB Load Stall End Bucket Count 6: 1648668
 ROB Critical Load Stall Begin Bucket Count 6: 80277
 ROB Critical Load Stall End Bucket Count 6: 84712
PIST Tag Read Accesses: 0
PIST Read Accesses: 0
PIST Tag Write Accesses: 0
PIST Write Accesses: 0
Criticality detector called times: 0
Max global_stall_cycles_count: 0
Threshold Modified: 0 times, factor: 0
Sturdy critical IP cache stats: 
 Unused entries: 0
CIC Tag Read Accesses: 0
CIC Read Accesses: 0
CIC Tag Write Accesses: 0
CIC Write Accesses: 0
Wobbly critical IP cache stats: 
 Unused entries: 21
CIC Tag Read Accesses: 252504984
CIC Read Accesses: 0
CIC Tag Write Accesses: 6856383
CIC Write Accesses: 0
ITLB TOTAL     ACCESS:   14672995  HIT:   14672995  MISS:          0  HIT %:        100  MISS %:          0   MPKI: 0
ITLB LOAD TRANSLATION ACCESS:   14672995  HIT:   14672995  MISS:          0  HIT %:        100  MISS %:          0   MPKI: 0
ITLB PREFETCH  REQUESTED:          0  ISSUED:          0  USEFUL:          0  USELESS:          0
ITLB USEFUL LOAD PREFETCHES:          0 PREFETCH ISSUED TO LOWER LEVEL:          0  ACCURACY: -nan
ITLB TIMELY PREFETCHES:          0 LATE PREFETCHES: 0 DROPPED PREFETCHES: 0
ITLB PREFETCHES SAME FILL-ORIGIN LEVEL: 0 DIFFERENT FILL-ORIGIN LEVEL: 0
ITLB AVERAGE MISS LATENCY: -nan cycles
ITLB RQ	ACCESS:   19176895	FORWARD:          0	MERGED:    4503900	TO_CACHE:   14672995

DTLB TOTAL     ACCESS:   12581035  HIT:   12545027  MISS:      36008  HIT %:    99.7138  MISS %:   0.286209   MPKI: 0.36008
DTLB LOAD TRANSLATION ACCESS:   12581035  HIT:   12545027  MISS:      36008  HIT %:    99.7138  MISS %:   0.286209   MPKI: 0.36008
DTLB PREFETCH  REQUESTED:          0  ISSUED:          0  USEFUL:          0  USELESS:          0
DTLB USEFUL LOAD PREFETCHES:          0 PREFETCH ISSUED TO LOWER LEVEL:          0  ACCURACY: -nan
DTLB TIMELY PREFETCHES:          0 LATE PREFETCHES: 0 DROPPED PREFETCHES: 0
DTLB PREFETCHES SAME FILL-ORIGIN LEVEL: 0 DIFFERENT FILL-ORIGIN LEVEL: 0
DTLB AVERAGE MISS LATENCY: 10.0026 cycles
DTLB RQ	ACCESS:   14182356	FORWARD:          0	MERGED:    1601263	TO_CACHE:   12581093

STLB TOTAL     ACCESS:      36008  HIT:      35890  MISS:        118  HIT %:    99.6723  MISS %:   0.327705   MPKI: 0.00118
STLB LOAD TRANSLATION ACCESS:      36008  HIT:      35890  MISS:        118  HIT %:    99.6723  MISS %:   0.327705   MPKI: 0.00118
STLB PREFETCH  REQUESTED:          0  ISSUED:          0  USEFUL:          0  USELESS:          0
STLB USEFUL LOAD PREFETCHES:          0 PREFETCH ISSUED TO LOWER LEVEL:          0  ACCURACY: -nan
STLB TIMELY PREFETCHES:          0 LATE PREFETCHES: 0 DROPPED PREFETCHES: 0
STLB PREFETCHES SAME FILL-ORIGIN LEVEL: 0 DIFFERENT FILL-ORIGIN LEVEL: 0
STLB AVERAGE MISS LATENCY: 305.78 cycles
STLB RQ	ACCESS:      36008	FORWARD:          0	MERGED:          0	TO_CACHE:      36008

STLB Hit, L1D data hit: 0
STLB Hit, L2C data hit: 0
STLB Hit, LLC data hit: 0
STLB Hit, LLC data miss: 0
STLB STLB hints to L2: 0
L1D TOTAL     ACCESS:   13831706  HIT:   11929496  MISS:    1902210  HIT %:    86.2475  MISS %:    13.7525   MPKI: 19.0221
L1D LOAD      ACCESS:   12520495  HIT:   10618844  MISS:    1901651  HIT %:    84.8117  MISS %:    15.1883   MPKI: 19.0165
L1D RFO       ACCESS:    1311211  HIT:    1310652  MISS:        559  HIT %:    99.9574  MISS %:  0.0426323   MPKI: 0.00559
L1D PREFETCH  REQUESTED:          0  ISSUED:          0  USEFUL:          0  USELESS:          0
L1D USEFUL LOAD PREFETCHES:          0 PREFETCH ISSUED TO LOWER LEVEL:          0  ACCURACY: -nan
L1D TIMELY PREFETCHES:          0 LATE PREFETCHES: 0 DROPPED PREFETCHES: 0
L1D PREFETCHES SAME FILL-ORIGIN LEVEL: 0 DIFFERENT FILL-ORIGIN LEVEL: 0
L1D AVERAGE MISS LATENCY: 56.4071 cycles
L1D RQ	ACCESS:   29502427	FORWARD:          0	MERGED:   16401503	TO_CACHE:   12870353
L1D WQ	ACCESS:    1312392	FORWARD:     230571	MERGED:        389	TO_CACHE:    1312003

L1D UNIQUE REGIONS ACCESSED: 0
L1D REGIONS CONFLICTS: 0
L1D Cross Page Prefetch Requests: 0
L1D Same Page Prefetch Requests: 0
L1D ROI Sum of L1D PQ occupancy: 0
L1D PREFETCHES PUSHED FROM L2C: 0
L1I TOTAL     ACCESS:   19176894  HIT:   19176894  MISS:          0  HIT %:        100  MISS %:          0   MPKI: 0
L1I LOAD      ACCESS:   19176894  HIT:   19176894  MISS:          0  HIT %:        100  MISS %:          0   MPKI: 0
L1I PREFETCH  REQUESTED:          0  ISSUED:          0  USEFUL:          0  USELESS:          0
L1I USEFUL LOAD PREFETCHES:          0 PREFETCH ISSUED TO LOWER LEVEL:          0  ACCURACY: -nan
L1I TIMELY PREFETCHES:          0 LATE PREFETCHES: 0 DROPPED PREFETCHES: 0
L1I PREFETCHES SAME FILL-ORIGIN LEVEL: 0 DIFFERENT FILL-ORIGIN LEVEL: 0
L1I AVERAGE MISS LATENCY: -nan cycles
L1I RQ	ACCESS:   37540012	FORWARD:          0	MERGED:   18363117	TO_CACHE:   19176895

BTB TOTAL     ACCESS:   16819652  HIT:   16818888  MISS:        764  HIT %:    99.9955  MISS %: 0.00454231   MPKI: 0.00764
BTB BRANCH_DIRECT_JUMP	ACCESS:        864  HIT:        862  MISS:          2
BTB BRANCH_INDIRECT	ACCESS:          0  HIT:          0  MISS:          0
BTB BRANCH_CONDITIONAL	ACCESS:   15520978  HIT:   15520945  MISS:         33
BTB BRANCH_DIRECT_CALL	ACCESS:     325128  HIT:     325115  MISS:         13
BTB BRANCH_INDIRECT_CALL	ACCESS:     323778  HIT:     323772  MISS:          6
BTB BRANCH_RETURN	ACCESS:     648904  HIT:     648194  MISS:        710
BTB BRANCH_OTHER ACCESS:          0  HIT:          0  MISS:          0

L2C TOTAL     ACCESS:    2005725  HIT:     103207  MISS:    1902518  HIT %:    5.14562  MISS %:    94.8544   MPKI: 19.0252
L2C LOAD      ACCESS:    1901651  HIT:      98689  MISS:    1802962  HIT %:    5.18965  MISS %:    94.8104   MPKI: 18.0296
L2C DATA LOAD MPKI: 18.0296
L2C INSTRUCTION LOAD MPKI: 0
L2C RFO       ACCESS:        559  HIT:         16  MISS:        543  HIT %:    2.86225  MISS %:    97.1377   MPKI: 0.00543
L2C PREFETCH  ACCESS:     102574  HIT:       3650  MISS:      98924  HIT %:    3.55841  MISS %:    96.4416   MPKI: 0.98924
L2C DATA PREFETCH MPKI: 0.98924
L2C INSTRUCTION PREFETCH MPKI: 0
L2C WRITEBACK ACCESS:        823  HIT:        823  MISS:          0  HIT %:        100  MISS %:          0   MPKI: 0
L2C LOAD TRANSLATION ACCESS:        118  HIT:         29  MISS:         89  HIT %:    24.5763  MISS %:    75.4237   MPKI: 0.00089
L2C PREFETCH  REQUESTED:     104189  ISSUED:     104189  USEFUL:      98254  USELESS:        990
L2C USEFUL LOAD PREFETCHES:      98254 PREFETCH ISSUED TO LOWER LEVEL:     100498  ACCURACY: 97.7671
L2C TIMELY PREFETCHES:      98254 LATE PREFETCHES: 63 DROPPED PREFETCHES: 0
L2C PREFETCHES SAME FILL-ORIGIN LEVEL: 98987 DIFFERENT FILL-ORIGIN LEVEL: 1511
L2C AVERAGE MISS LATENCY: 43.5579 cycles
L2C RQ	ACCESS:    1902328	FORWARD:          0	MERGED:          0	TO_CACHE:    1902328
L2C WQ	ACCESS:        823	FORWARD:          0	MERGED:          0	TO_CACHE:        823
L2C PQ	ACCESS:     104189	FORWARD:          0	MERGED:         29	TO_CACHE:     104160

L2C Instructions Evicting Data 0
L2C Translations Evicting Data 89
L2C Data Evicting Data 1902340
L2C Instructions Evicting Instructions 0
L2C Translations Evicting Instructions 0
L2C Data Evicting Instructions 0
L2C Instructions Evicting Translations 0
L2C Translations Evicting Translations 0
L2C Data Evicting Translations 89
L2C Dense regions hint from L2: 0
PSCL5 TOTAL     ACCESS:        118  HIT:        118  MISS:          0  HIT %:        100  MISS %:          0   MPKI: 0
PSCL5 LOAD TRANSLATION ACCESS:        118  HIT:        118  MISS:          0  HIT %:        100  MISS %:          0   MPKI: 0
PSCL5 PREFETCH  REQUESTED:          0  ISSUED:          0  USEFUL:          0  USELESS:          0
PSCL5 USEFUL LOAD PREFETCHES:          0 PREFETCH ISSUED TO LOWER LEVEL:          0  ACCURACY: -nan
PSCL5 TIMELY PREFETCHES:          0 LATE PREFETCHES: 0 DROPPED PREFETCHES: 0
PSCL5 PREFETCHES SAME FILL-ORIGIN LEVEL: 0 DIFFERENT FILL-ORIGIN LEVEL: 0

PSCL4 TOTAL     ACCESS:        118  HIT:        118  MISS:          0  HIT %:        100  MISS %:          0   MPKI: 0
PSCL4 LOAD TRANSLATION ACCESS:        118  HIT:        118  MISS:          0  HIT %:        100  MISS %:          0   MPKI: 0
PSCL4 PREFETCH  REQUESTED:          0  ISSUED:          0  USEFUL:          0  USELESS:          0
PSCL4 USEFUL LOAD PREFETCHES:          0 PREFETCH ISSUED TO LOWER LEVEL:          0  ACCURACY: -nan
PSCL4 TIMELY PREFETCHES:          0 LATE PREFETCHES: 0 DROPPED PREFETCHES: 0
PSCL4 PREFETCHES SAME FILL-ORIGIN LEVEL: 0 DIFFERENT FILL-ORIGIN LEVEL: 0

PSCL3 TOTAL     ACCESS:        118  HIT:        118  MISS:          0  HIT %:        100  MISS %:          0   MPKI: 0
PSCL3 LOAD TRANSLATION ACCESS:        118  HIT:        118  MISS:          0  HIT %:        100  MISS %:          0   MPKI: 0
PSCL3 PREFETCH  REQUESTED:          0  ISSUED:          0  USEFUL:          0  USELESS:          0
PSCL3 USEFUL LOAD PREFETCHES:          0 PREFETCH ISSUED TO LOWER LEVEL:          0  ACCURACY: -nan
PSCL3 TIMELY PREFETCHES:          0 LATE PREFETCHES: 0 DROPPED PREFETCHES: 0
PSCL3 PREFETCHES SAME FILL-ORIGIN LEVEL: 0 DIFFERENT FILL-ORIGIN LEVEL: 0

PSCL2 TOTAL     ACCESS:        118  HIT:        118  MISS:          0  HIT %:        100  MISS %:          0   MPKI: 0
PSCL2 LOAD TRANSLATION ACCESS:        118  HIT:        118  MISS:          0  HIT %:        100  MISS %:          0   MPKI: 0
PSCL2 PREFETCH  REQUESTED:          0  ISSUED:          0  USEFUL:          0  USELESS:          0
PSCL2 USEFUL LOAD PREFETCHES:          0 PREFETCH ISSUED TO LOWER LEVEL:          0  ACCURACY: -nan
PSCL2 TIMELY PREFETCHES:          0 LATE PREFETCHES: 0 DROPPED PREFETCHES: 0
PSCL2 PREFETCHES SAME FILL-ORIGIN LEVEL: 0 DIFFERENT FILL-ORIGIN LEVEL: 0

LLC TOTAL     ACCESS:    1904850  HIT:    1584819  MISS:     320031  HIT %:    83.1991  MISS %:    16.8009   MPKI: 3.20031
LLC LOAD      ACCESS:    1802899  HIT:    1499581  MISS:     303318  HIT %:    83.1761  MISS %:    16.8239   MPKI: 3.03318
LLC RFO       ACCESS:        543  HIT:        216  MISS:        327  HIT %:     39.779  MISS %:     60.221   MPKI: 0.00327
LLC PREFETCH  ACCESS:     100495  HIT:      84307  MISS:      16188  HIT %:    83.8917  MISS %:    16.1083   MPKI: 0.16188
LLC WRITEBACK ACCESS:        824  HIT:        712  MISS:        112  HIT %:    86.4078  MISS %:    13.5922   MPKI: 0.00112
LLC LOAD TRANSLATION ACCESS:         89  HIT:          3  MISS:         86  HIT %:    3.37079  MISS %:    96.6292   MPKI: 0.00086
LLC PREFETCH  REQUESTED:          0  ISSUED:          0  USEFUL:      23866  USELESS:      19918
LLC USEFUL LOAD PREFETCHES:      23866 PREFETCH ISSUED TO LOWER LEVEL:      16191  ACCURACY: 147.403
LLC TIMELY PREFETCHES:      23866 LATE PREFETCHES: 3 DROPPED PREFETCHES: 0
LLC PREFETCHES SAME FILL-ORIGIN LEVEL: 124 DIFFERENT FILL-ORIGIN LEVEL: 0
LLC AVERAGE MISS LATENCY: 80.6199 cycles
LLC RQ	ACCESS:    1803531	FORWARD:          0	MERGED:          0	TO_CACHE:    1803531
LLC WQ	ACCESS:        824	FORWARD:          0	MERGED:          0	TO_CACHE:        824
LLC PQ	ACCESS:     100498	FORWARD:          0	MERGED:          0	TO_CACHE:     100498

LLC Dense regions hint to LLC: 0

RAW hits: 1987
Loads Generated: 29504419
Loads sent to L1D: 29502427
Stores Generated: 1312389
Stores sent to L1D: 1312392
Major fault: 0 Minor fault: 823
Allocated PAGES: 823
------------------
Depth Distribution
------------------
depth 0: 84
depth 1: 209
depth 2: 555
depth 3: 2585
depth 4: 64986
depth 5: 351937
depth 6: 217875
depth 7: 196637
depth 8: 40765
depth 9: 28107
depth 10: 13799
depth 11: 17436
depth 12: 11448
depth 13: 4922
depth 14: 12070
depth 15: 7424
depth 16: 6078
depth 17: 2711
depth 18: 378
depth 19: 2
depth 20: 0
depth 21: 0
depth 22: 0
depth 23: 0
depth 24: 0
depth 25: 0
depth 26: 0
depth 27: 0
depth 28: 0
depth 29: 0
Total: 980008
------------------
ST read accesses: 92164
ST write accesses: 23060
PT read accesses: 7074169
PT write accesses: 136871
FILTER read accesses: 2275609
FILTER write accesses: 3952935
GHR read accesses: 8195906
GHR write accesses: 1032104
PERC read accesses: 49994910
PERC write accesses: 1087042
GHR counter read accesses: 230448
GHR counter write accesses: 318944
GHR ip read accesses: 669189
GHR ip write accesses: 460896
ST tag read accesses: 3561997
ST tag write accesses: 462281

DRAM Statistics
 CHANNEL 0
 RQ ROW_BUFFER_HIT:     287406  ROW_BUFFER_MISS:      32513
 DBUS_CONGESTED:          0
 WQ ROW_BUFFER_HIT:          9  ROW_BUFFER_MISS:        312  FULL:          0

 AVG_CONGESTED_CYCLE: -
 All warmup complete: 2
Channel 0 Bank busy for read cycles: 0
Channel 0 Bank busy for write cycles: 0
Channel 0
Rank 0
0banks busy for read cycles: 123090144
0banks busy for write cycles: 202
1banks busy for read cycles: 9609043
1banks busy for write cycles: 31138
2banks busy for read cycles: 2060407
2banks busy for write cycles: 7358
3banks busy for read cycles: 1237601
3banks busy for write cycles: 3567
4banks busy for read cycles: 350217
4banks busy for write cycles: 1345
5banks busy for read cycles: 75340
5banks busy for write cycles: 524
6banks busy for read cycles: 3869
6banks busy for write cycles: 0
7banks busy for read cycles: 387
7banks busy for write cycles: 0
8banks busy for read cycles: 138
8banks busy for write cycles: 0

CPU 0 Branch Prediction Accuracy: 99.9967% MPKI: 0.00917 Average ROB Occupancy at Mispredict: 262.068
Branch types
NOT_BRANCH: 72112626 72.1126%
BRANCH_DIRECT_JUMP: 864 0.000864%
BRANCH_INDIRECT: 0 0%
BRANCH_CONDITIONAL: 26588583 26.5886%
BRANCH_DIRECT_CALL: 325128 0.325128%
BRANCH_INDIRECT_CALL: 323778 0.323778%
BRANCH_RETURN: 648904 0.648904%
BRANCH_OTHER: 0 0%

DRAM PAGES: 1048576
Allocated PAGES: 823
