
*** ChampSim Multicore Out-of-Order Simulator ***

Warmup Instructions: 50000000
Simulation Instructions: 100000000
Number of CPUs: 1
LLC sets: 2048
LLC ways: 16
Off-chip DRAM Size: 4096 MB Channels: 1 Width: 64-bit Data Rate: 6400 MT/s
CPU 0 runs ../SPEC2017//623.xalancbmk_s-202B.champsimtrace.xz
.xz
BTB has LRU replacement policy
ITLB has LRU replacement policy
DTLB has LRU replacement policy
STLB has LRU replacement policy
L1I has LRU replacement policy
L1D has LRU replacement policy
Bingo PHT WAYS: 16 and PHT_SIZE: 16384
Initialize SRRIP state for L2C
Initialize DRRIP state for LLC
Heartbeat CPU 0 instructions: 10000001 cycles: 2843986 heartbeat IPC: 3.51619 cumulative IPC: 3.51619 (Simulation time: 0 hr 6 min 44 sec) 
Heartbeat CPU 0 instructions: 20000002 cycles: 5686423 heartbeat IPC: 3.51811 cumulative IPC: 3.51715 (Simulation time: 0 hr 13 min 54 sec) 
Heartbeat CPU 0 instructions: 30000001 cycles: 8531255 heartbeat IPC: 3.51515 cumulative IPC: 3.51648 (Simulation time: 0 hr 21 min 8 sec) 
Heartbeat CPU 0 instructions: 40000001 cycles: 11368938 heartbeat IPC: 3.524 cumulative IPC: 3.51836 (Simulation time: 0 hr 27 min 42 sec) 
Heartbeat CPU 0 instructions: 50000000 cycles: 14214942 heartbeat IPC: 3.5137 cumulative IPC: 3.51743 (Simulation time: 0 hr 33 min 22 sec) 

Warmup complete CPU 0 instructions: 50000004 cycles: 14214943 (Simulation time: 0 hr 33 min 22 sec) 

Heartbeat CPU 0 instructions: 60000000 cycles: 34234148 heartbeat IPC: 0.49952 cumulative IPC: 0.49952 (Simulation time: 0 hr 43 min 10 sec) 
Heartbeat CPU 0 instructions: 70000002 cycles: 53619044 heartbeat IPC: 0.515866 cumulative IPC: 0.507561 (Simulation time: 0 hr 51 min 15 sec) 
Heartbeat CPU 0 instructions: 80000000 cycles: 73346610 heartbeat IPC: 0.506905 cumulative IPC: 0.507342 (Simulation time: 0 hr 58 min 46 sec) 
Heartbeat CPU 0 instructions: 90000001 cycles: 92536023 heartbeat IPC: 0.521121 cumulative IPC: 0.510718 (Simulation time: 1 hr 5 min 45 sec) 
Heartbeat CPU 0 instructions: 100000000 cycles: 112154642 heartbeat IPC: 0.50972 cumulative IPC: 0.510518 (Simulation time: 1 hr 11 min 44 sec) 
Heartbeat CPU 0 instructions: 110000000 cycles: 131473941 heartbeat IPC: 0.517617 cumulative IPC: 0.511688 (Simulation time: 1 hr 16 min 55 sec) 
Heartbeat CPU 0 instructions: 120000002 cycles: 150669366 heartbeat IPC: 0.520958 cumulative IPC: 0.512992 (Simulation time: 1 hr 22 min 3 sec) 
Heartbeat CPU 0 instructions: 130000002 cycles: 169804279 heartbeat IPC: 0.522605 cumulative IPC: 0.514174 (Simulation time: 1 hr 26 min 34 sec) 
Heartbeat CPU 0 instructions: 140000001 cycles: 189570969 heartbeat IPC: 0.505902 cumulative IPC: 0.513242 (Simulation time: 1 hr 29 min 50 sec) 
Heartbeat CPU 0 instructions: 150000001 cycles: 208942995 heartbeat IPC: 0.516208 cumulative IPC: 0.513537 (Simulation time: 1 hr 35 min 19 sec) 
Finished CPU 0 instructions: 100000001 cycles: 194728053 cumulative IPC: 0.513537 (Simulation time: 1 hr 35 min 19 sec) 

ChampSim completed all CPUs

Region of Interest Statistics

CPU 0 cumulative IPC: 0.513537 instructions: 100000001 cycles: 194728053

CPU 0 Average Load ROB stall cycles: 4.6576e+07
CPU 0 Fraction of times ROB stalled by Loads: 41.6729
CPU 0 Percentage of Load stall cycles in Total stall cycles: 3.16397e+08
Issued all: 151948932
Issued LT all: 141881481
rob_not_full_when_issued_lt_all: 36782326
Issued LT one: 129153460
rob_not_full_when_issued_lt_one: 32285275
 Total stall cycles: 170385293
 Total load stall cycles: 539094287420914
Unique Load IPs: 56
CPU 0 NUM of IPS identified critical: 8
CPU 0 Num of Load IPs stalling ROB: 0
Threshold modification factor: 0
Trouble in retire width: -nan
MaC = Marked as critical.
lt_50_percent_before_Mac: 6
gt_90_percent_before_Mac: 0
gt_75_percent_before_Mac: 0
gt_50_percent_before_Mac: 2
stall_proportion_bin_same_before_after: 0
stall_proportion_bin_lower_before_after: 0
stall_proportion_bin_upper_before_after: 0
average_stall_proportion_before: 0.0125414
average_stall_proportion_after: 0.0136732
Critical_IP_Detector_Accuracy_70: 0
Critical_IP_Detector_Accuracy_80: 0
Critical_IP_Detector_Accuracy_90: 0
Critical_IP_Detector_Coverage_70: 0
Critical_IP_Detector_Coverage_80: 0
Critical_IP_Detector_Coverage_90: 0
stat_90_percent_critical_ip_stalls_freq: 441800
stat_90_percent_non_critical_ip_stalls_freq: 18446744073709109816
AVERAGE_ROB_Occupancy_90_Percent_Critical_IP_Stalls: 349.471
AVERAGE_ROB_Occupancy_90_Percent_Non_Critical_IP_Stalls: 7.6882e-11
Critical_IP_ROB_Stalls_Bucket_0: 27
Non-critical_IP_ROB_Stalls_Bucket_0: 8814
Critical_IP_ROB_Stalls_Bucket_1: 125
Non-critical_IP_ROB_Stalls_Bucket_1: 11038
Critical_IP_ROB_Stalls_Bucket_2: 126
Non-critical_IP_ROB_Stalls_Bucket_2: 7298
Critical_IP_ROB_Stalls_Bucket_3: 406
Non-critical_IP_ROB_Stalls_Bucket_3: 7313
Critical_IP_ROB_Stalls_Bucket_4: 197
Non-critical_IP_ROB_Stalls_Bucket_4: 11947
Critical_IP_ROB_Stalls_Bucket_5: 323
Non-critical_IP_ROB_Stalls_Bucket_5: 739897
Critical_IP_ROB_Stalls_Bucket_6: 171889
Non-critical_IP_ROB_Stalls_Bucket_6: 3864028
0 => IPs accounting for >50 percent of stalls, 1 => 55, 2 => 60, 3 => 65 and so on till 90.
percent50: inf num IPs:  1
percent55: inf num IPs: 1
percent60: inf num IPs: 1
percent65: inf num IPs: 1
percent70: inf num IPs: 1
percent75: inf num IPs: 1
percent80: inf num IPs: 1
percent85: inf num IPs: 1
percent90: inf num IPs: 1
Critical_ROB_Stalls_Percent_0_Bucket_0: 1
Non-critical_ROB_Stalls_Percent_0_Bucket_0: 8840
Critical_ROB_Stalls_Percent_0_Bucket_1: 478
Non-critical_ROB_Stalls_Percent_0_Bucket_1: 10685
Critical_ROB_Stalls_Percent_0_Bucket_2: 1030
Non-critical_ROB_Stalls_Percent_0_Bucket_2: 6394
Critical_ROB_Stalls_Percent_0_Bucket_3: 955
Non-critical_ROB_Stalls_Percent_0_Bucket_3: 6764
Critical_ROB_Stalls_Percent_0_Bucket_4: 854
Non-critical_ROB_Stalls_Percent_0_Bucket_4: 11290
Critical_ROB_Stalls_Percent_0_Bucket_5: 768
Non-critical_ROB_Stalls_Percent_0_Bucket_5: 739452
Critical_ROB_Stalls_Percent_0_Bucket_6: 437714
Non-critical_ROB_Stalls_Percent_0_Bucket_6: 3598203
Critical_ROB_Stalls_Percent_1_Bucket_0: 1
Non-critical_ROB_Stalls_Percent_1_Bucket_0: 8840
Critical_ROB_Stalls_Percent_1_Bucket_1: 478
Non-critical_ROB_Stalls_Percent_1_Bucket_1: 10685
Critical_ROB_Stalls_Percent_1_Bucket_2: 1030
Non-critical_ROB_Stalls_Percent_1_Bucket_2: 6394
Critical_ROB_Stalls_Percent_1_Bucket_3: 955
Non-critical_ROB_Stalls_Percent_1_Bucket_3: 6764
Critical_ROB_Stalls_Percent_1_Bucket_4: 854
Non-critical_ROB_Stalls_Percent_1_Bucket_4: 11290
Critical_ROB_Stalls_Percent_1_Bucket_5: 768
Non-critical_ROB_Stalls_Percent_1_Bucket_5: 739452
Critical_ROB_Stalls_Percent_1_Bucket_6: 437714
Non-critical_ROB_Stalls_Percent_1_Bucket_6: 3598203
Critical_ROB_Stalls_Percent_2_Bucket_0: 1
Non-critical_ROB_Stalls_Percent_2_Bucket_0: 8840
Critical_ROB_Stalls_Percent_2_Bucket_1: 478
Non-critical_ROB_Stalls_Percent_2_Bucket_1: 10685
Critical_ROB_Stalls_Percent_2_Bucket_2: 1030
Non-critical_ROB_Stalls_Percent_2_Bucket_2: 6394
Critical_ROB_Stalls_Percent_2_Bucket_3: 955
Non-critical_ROB_Stalls_Percent_2_Bucket_3: 6764
Critical_ROB_Stalls_Percent_2_Bucket_4: 854
Non-critical_ROB_Stalls_Percent_2_Bucket_4: 11290
Critical_ROB_Stalls_Percent_2_Bucket_5: 768
Non-critical_ROB_Stalls_Percent_2_Bucket_5: 739452
Critical_ROB_Stalls_Percent_2_Bucket_6: 437714
Non-critical_ROB_Stalls_Percent_2_Bucket_6: 3598203
Critical_ROB_Stalls_Percent_3_Bucket_0: 1
Non-critical_ROB_Stalls_Percent_3_Bucket_0: 8840
Critical_ROB_Stalls_Percent_3_Bucket_1: 478
Non-critical_ROB_Stalls_Percent_3_Bucket_1: 10685
Critical_ROB_Stalls_Percent_3_Bucket_2: 1030
Non-critical_ROB_Stalls_Percent_3_Bucket_2: 6394
Critical_ROB_Stalls_Percent_3_Bucket_3: 955
Non-critical_ROB_Stalls_Percent_3_Bucket_3: 6764
Critical_ROB_Stalls_Percent_3_Bucket_4: 854
Non-critical_ROB_Stalls_Percent_3_Bucket_4: 11290
Critical_ROB_Stalls_Percent_3_Bucket_5: 768
Non-critical_ROB_Stalls_Percent_3_Bucket_5: 739452
Critical_ROB_Stalls_Percent_3_Bucket_6: 437714
Non-critical_ROB_Stalls_Percent_3_Bucket_6: 3598203
Critical_ROB_Stalls_Percent_4_Bucket_0: 1
Non-critical_ROB_Stalls_Percent_4_Bucket_0: 8840
Critical_ROB_Stalls_Percent_4_Bucket_1: 478
Non-critical_ROB_Stalls_Percent_4_Bucket_1: 10685
Critical_ROB_Stalls_Percent_4_Bucket_2: 1030
Non-critical_ROB_Stalls_Percent_4_Bucket_2: 6394
Critical_ROB_Stalls_Percent_4_Bucket_3: 955
Non-critical_ROB_Stalls_Percent_4_Bucket_3: 6764
Critical_ROB_Stalls_Percent_4_Bucket_4: 854
Non-critical_ROB_Stalls_Percent_4_Bucket_4: 11290
Critical_ROB_Stalls_Percent_4_Bucket_5: 768
Non-critical_ROB_Stalls_Percent_4_Bucket_5: 739452
Critical_ROB_Stalls_Percent_4_Bucket_6: 437714
Non-critical_ROB_Stalls_Percent_4_Bucket_6: 3598203
Critical_ROB_Stalls_Percent_5_Bucket_0: 1
Non-critical_ROB_Stalls_Percent_5_Bucket_0: 8840
Critical_ROB_Stalls_Percent_5_Bucket_1: 478
Non-critical_ROB_Stalls_Percent_5_Bucket_1: 10685
Critical_ROB_Stalls_Percent_5_Bucket_2: 1030
Non-critical_ROB_Stalls_Percent_5_Bucket_2: 6394
Critical_ROB_Stalls_Percent_5_Bucket_3: 955
Non-critical_ROB_Stalls_Percent_5_Bucket_3: 6764
Critical_ROB_Stalls_Percent_5_Bucket_4: 854
Non-critical_ROB_Stalls_Percent_5_Bucket_4: 11290
Critical_ROB_Stalls_Percent_5_Bucket_5: 768
Non-critical_ROB_Stalls_Percent_5_Bucket_5: 739452
Critical_ROB_Stalls_Percent_5_Bucket_6: 437714
Non-critical_ROB_Stalls_Percent_5_Bucket_6: 3598203
Critical_ROB_Stalls_Percent_6_Bucket_0: 1
Non-critical_ROB_Stalls_Percent_6_Bucket_0: 8840
Critical_ROB_Stalls_Percent_6_Bucket_1: 478
Non-critical_ROB_Stalls_Percent_6_Bucket_1: 10685
Critical_ROB_Stalls_Percent_6_Bucket_2: 1030
Non-critical_ROB_Stalls_Percent_6_Bucket_2: 6394
Critical_ROB_Stalls_Percent_6_Bucket_3: 955
Non-critical_ROB_Stalls_Percent_6_Bucket_3: 6764
Critical_ROB_Stalls_Percent_6_Bucket_4: 854
Non-critical_ROB_Stalls_Percent_6_Bucket_4: 11290
Critical_ROB_Stalls_Percent_6_Bucket_5: 768
Non-critical_ROB_Stalls_Percent_6_Bucket_5: 739452
Critical_ROB_Stalls_Percent_6_Bucket_6: 437714
Non-critical_ROB_Stalls_Percent_6_Bucket_6: 3598203
Critical_ROB_Stalls_Percent_7_Bucket_0: 1
Non-critical_ROB_Stalls_Percent_7_Bucket_0: 8840
Critical_ROB_Stalls_Percent_7_Bucket_1: 478
Non-critical_ROB_Stalls_Percent_7_Bucket_1: 10685
Critical_ROB_Stalls_Percent_7_Bucket_2: 1030
Non-critical_ROB_Stalls_Percent_7_Bucket_2: 6394
Critical_ROB_Stalls_Percent_7_Bucket_3: 955
Non-critical_ROB_Stalls_Percent_7_Bucket_3: 6764
Critical_ROB_Stalls_Percent_7_Bucket_4: 854
Non-critical_ROB_Stalls_Percent_7_Bucket_4: 11290
Critical_ROB_Stalls_Percent_7_Bucket_5: 768
Non-critical_ROB_Stalls_Percent_7_Bucket_5: 739452
Critical_ROB_Stalls_Percent_7_Bucket_6: 437714
Non-critical_ROB_Stalls_Percent_7_Bucket_6: 3598203
Critical_ROB_Stalls_Percent_8_Bucket_0: 1
Non-critical_ROB_Stalls_Percent_8_Bucket_0: 8840
Critical_ROB_Stalls_Percent_8_Bucket_1: 478
Non-critical_ROB_Stalls_Percent_8_Bucket_1: 10685
Critical_ROB_Stalls_Percent_8_Bucket_2: 1030
Non-critical_ROB_Stalls_Percent_8_Bucket_2: 6394
Critical_ROB_Stalls_Percent_8_Bucket_3: 955
Non-critical_ROB_Stalls_Percent_8_Bucket_3: 6764
Critical_ROB_Stalls_Percent_8_Bucket_4: 854
Non-critical_ROB_Stalls_Percent_8_Bucket_4: 11290
Critical_ROB_Stalls_Percent_8_Bucket_5: 768
Non-critical_ROB_Stalls_Percent_8_Bucket_5: 739452
Critical_ROB_Stalls_Percent_8_Bucket_6: 437714
Non-critical_ROB_Stalls_Percent_8_Bucket_6: 3598203
Average ROB occupancy Load Stall Begin: 315.528
Average ROB occupancy Load Stall End: 326.038
Min ROB occupancy Load Stall Begin: 1
Max ROB occupancy Load Stall Begin: 352
Min ROB occupancy Load Stall End: 1
Max ROB occupancy Load Stall End: 352
Average ROB occupancy Critical Load Stall Begin: 349.963
Average ROB occupancy Critical Load Stall End: 350.728
Min ROB occupancy Critical Load Stall Begin: 37
Max ROB occupancy Critical Load Stall Begin: 352
Min ROB occupancy Critical Load Stall End: 37
Max ROB occupancy Critical Load Stall End: 352
 ROB Load Stall Begin Bucket Count 0: 11221
 ROB Load Stall End Bucket Count 0: 8841
 ROB Critical Load Stall Begin Bucket Count 0: 19
 ROB Critical Load Stall End Bucket Count 0: 19
 ROB Load Stall Begin Bucket Count 1: 11311
 ROB Load Stall End Bucket Count 1: 11163
 ROB Critical Load Stall Begin Bucket Count 1: 124
 ROB Critical Load Stall End Bucket Count 1: 101
 ROB Load Stall Begin Bucket Count 2: 7337
 ROB Load Stall End Bucket Count 2: 7424
 ROB Critical Load Stall Begin Bucket Count 2: 115
 ROB Critical Load Stall End Bucket Count 2: 117
 ROB Load Stall Begin Bucket Count 3: 7717
 ROB Load Stall End Bucket Count 3: 7719
 ROB Critical Load Stall Begin Bucket Count 3: 380
 ROB Critical Load Stall End Bucket Count 3: 331
 ROB Load Stall Begin Bucket Count 4: 22154
 ROB Load Stall End Bucket Count 4: 12144
 ROB Critical Load Stall Begin Bucket Count 4: 153
 ROB Critical Load Stall End Bucket Count 4: 175
 ROB Load Stall Begin Bucket Count 5: 1273615
 ROB Load Stall End Bucket Count 5: 740220
 ROB Critical Load Stall Begin Bucket Count 5: 326
 ROB Critical Load Stall End Bucket Count 5: 279
 ROB Load Stall Begin Bucket Count 6: 3490073
 ROB Load Stall End Bucket Count 6: 4035917
 ROB Critical Load Stall Begin Bucket Count 6: 147958
 ROB Critical Load Stall End Bucket Count 6: 148053
PIST Tag Read Accesses: 0
PIST Read Accesses: 0
PIST Tag Write Accesses: 0
PIST Write Accesses: 0
Criticality detector called times: 0
Max global_stall_cycles_count: 0
Threshold Modified: 0 times, factor: 0
Sturdy critical IP cache stats: 
 Unused entries: 0
CIC Tag Read Accesses: 0
CIC Read Accesses: 0
CIC Tag Write Accesses: 0
CIC Write Accesses: 0
Wobbly critical IP cache stats: 
 Unused entries: 20
CIC Tag Read Accesses: 261861962
CIC Read Accesses: 0
CIC Tag Write Accesses: 8716314
CIC Write Accesses: 0
ITLB TOTAL     ACCESS:   15842755  HIT:   15842755  MISS:          0  HIT %:        100  MISS %:          0   MPKI: 0
ITLB LOAD TRANSLATION ACCESS:   15842755  HIT:   15842755  MISS:          0  HIT %:        100  MISS %:          0   MPKI: 0
ITLB PREFETCH  REQUESTED:          0  ISSUED:          0  USEFUL:          0  USELESS:          0
ITLB USEFUL LOAD PREFETCHES:          0 PREFETCH ISSUED TO LOWER LEVEL:          0  ACCURACY: -nan
ITLB TIMELY PREFETCHES:          0 LATE PREFETCHES: 0 DROPPED PREFETCHES: 0
ITLB PREFETCHES SAME FILL-ORIGIN LEVEL: 0 DIFFERENT FILL-ORIGIN LEVEL: 0
ITLB AVERAGE MISS LATENCY: -nan cycles
ITLB RQ	ACCESS:   19522968	FORWARD:          0	MERGED:    3680214	TO_CACHE:   15842754

DTLB TOTAL     ACCESS:   13310754  HIT:   13266833  MISS:      43921  HIT %:      99.67  MISS %:   0.329966   MPKI: 0.43921
DTLB LOAD TRANSLATION ACCESS:   13310754  HIT:   13266833  MISS:      43921  HIT %:      99.67  MISS %:   0.329966   MPKI: 0.43921
DTLB PREFETCH  REQUESTED:          0  ISSUED:          0  USEFUL:          0  USELESS:          0
DTLB USEFUL LOAD PREFETCHES:          0 PREFETCH ISSUED TO LOWER LEVEL:          0  ACCURACY: -nan
DTLB TIMELY PREFETCHES:          0 LATE PREFETCHES: 0 DROPPED PREFETCHES: 0
DTLB PREFETCHES SAME FILL-ORIGIN LEVEL: 0 DIFFERENT FILL-ORIGIN LEVEL: 0
DTLB AVERAGE MISS LATENCY: 9.50543 cycles
DTLB RQ	ACCESS:   15751939	FORWARD:          0	MERGED:    2441024	TO_CACHE:   13310915

STLB TOTAL     ACCESS:      43921  HIT:      43832  MISS:         89  HIT %:    99.7974  MISS %:   0.202637   MPKI: 0.00089
STLB LOAD TRANSLATION ACCESS:      43921  HIT:      43832  MISS:         89  HIT %:    99.7974  MISS %:   0.202637   MPKI: 0.00089
STLB PREFETCH  REQUESTED:          0  ISSUED:          0  USEFUL:          0  USELESS:          0
STLB USEFUL LOAD PREFETCHES:          0 PREFETCH ISSUED TO LOWER LEVEL:          0  ACCURACY: -nan
STLB TIMELY PREFETCHES:          0 LATE PREFETCHES: 0 DROPPED PREFETCHES: 0
STLB PREFETCHES SAME FILL-ORIGIN LEVEL: 0 DIFFERENT FILL-ORIGIN LEVEL: 0
STLB AVERAGE MISS LATENCY: 248.315 cycles
STLB RQ	ACCESS:      43921	FORWARD:          0	MERGED:          0	TO_CACHE:      43921

STLB Hit, L1D data hit: 0
STLB Hit, L2C data hit: 0
STLB Hit, LLC data hit: 0
STLB Hit, LLC data miss: 0
STLB STLB hints to L2: 0
L1D TOTAL     ACCESS:   15550385  HIT:   13040287  MISS:    2510098  HIT %:    83.8583  MISS %:    16.1417   MPKI: 25.101
L1D LOAD      ACCESS:   13782361  HIT:   11272263  MISS:    2510098  HIT %:    81.7876  MISS %:    18.2124   MPKI: 25.101
L1D RFO       ACCESS:    1768024  HIT:    1768024  MISS:          0  HIT %:        100  MISS %:          0   MPKI: 0
L1D PREFETCH  REQUESTED:          0  ISSUED:          0  USEFUL:          0  USELESS:          0
L1D USEFUL LOAD PREFETCHES:          0 PREFETCH ISSUED TO LOWER LEVEL:          0  ACCURACY: -nan
L1D TIMELY PREFETCHES:          0 LATE PREFETCHES: 0 DROPPED PREFETCHES: 0
L1D PREFETCHES SAME FILL-ORIGIN LEVEL: 0 DIFFERENT FILL-ORIGIN LEVEL: 0
L1D AVERAGE MISS LATENCY: 73.7205 cycles
L1D RQ	ACCESS:   29890349	FORWARD:          0	MERGED:   15532543	TO_CACHE:   13983914
L1D WQ	ACCESS:    1768025	FORWARD:     373892	MERGED:          0	TO_CACHE:    1768025

L1D UNIQUE REGIONS ACCESSED: 0
L1D REGIONS CONFLICTS: 0
L1D Cross Page Prefetch Requests: 0
L1D Same Page Prefetch Requests: 0
L1D ROI Sum of L1D PQ occupancy: 0
L1D PREFETCHES PUSHED FROM L2C: 0
L1I TOTAL     ACCESS:   19522967  HIT:   19522967  MISS:          0  HIT %:        100  MISS %:          0   MPKI: 0
L1I LOAD      ACCESS:   19522967  HIT:   19522967  MISS:          0  HIT %:        100  MISS %:          0   MPKI: 0
L1I PREFETCH  REQUESTED:          0  ISSUED:          0  USEFUL:          0  USELESS:          0
L1I USEFUL LOAD PREFETCHES:          0 PREFETCH ISSUED TO LOWER LEVEL:          0  ACCURACY: -nan
L1I TIMELY PREFETCHES:          0 LATE PREFETCHES: 0 DROPPED PREFETCHES: 0
L1I PREFETCHES SAME FILL-ORIGIN LEVEL: 0 DIFFERENT FILL-ORIGIN LEVEL: 0
L1I AVERAGE MISS LATENCY: -nan cycles
L1I RQ	ACCESS:   34883068	FORWARD:          0	MERGED:   15360100	TO_CACHE:   19522968

BTB TOTAL     ACCESS:   17463814  HIT:   17463797  MISS:         17  HIT %:    99.9999  MISS %: 9.73441e-05   MPKI: 0.00017
BTB BRANCH_DIRECT_JUMP	ACCESS:         65  HIT:         64  MISS:          1
BTB BRANCH_INDIRECT	ACCESS:          0  HIT:          0  MISS:          0
BTB BRANCH_CONDITIONAL	ACCESS:   15696179  HIT:   15696170  MISS:          9
BTB BRANCH_DIRECT_CALL	ACCESS:     441925  HIT:     441923  MISS:          2
BTB BRANCH_INDIRECT_CALL	ACCESS:     441860  HIT:     441859  MISS:          1
BTB BRANCH_RETURN	ACCESS:     883785  HIT:     883781  MISS:          4
BTB BRANCH_OTHER ACCESS:          0  HIT:          0  MISS:          0

L2C TOTAL     ACCESS:    2701538  HIT:     230522  MISS:    2471016  HIT %:    8.53299  MISS %:     91.467   MPKI: 24.7102
L2C LOAD      ACCESS:    2510098  HIT:     224730  MISS:    2285368  HIT %:    8.95304  MISS %:     91.047   MPKI: 22.8537
L2C DATA LOAD MPKI: 22.8537
L2C INSTRUCTION LOAD MPKI: 0
L2C PREFETCH  ACCESS:     191287  HIT:       5698  MISS:     185589  HIT %:    2.97877  MISS %:    97.0212   MPKI: 1.85589
L2C DATA PREFETCH MPKI: 1.85589
L2C INSTRUCTION PREFETCH MPKI: 0
L2C WRITEBACK ACCESS:         64  HIT:         64  MISS:          0  HIT %:        100  MISS %:          0   MPKI: 0
L2C LOAD TRANSLATION ACCESS:         89  HIT:         30  MISS:         59  HIT %:    33.7079  MISS %:    66.2921   MPKI: 0.00059
L2C PREFETCH  REQUESTED:     191365  ISSUED:     191365  USEFUL:     185285  USELESS:        485
L2C USEFUL LOAD PREFETCHES:     185285 PREFETCH ISSUED TO LOWER LEVEL:     185667  ACCURACY: 99.7943
L2C TIMELY PREFETCHES:     185285 LATE PREFETCHES: 78 DROPPED PREFETCHES: 0
L2C PREFETCHES SAME FILL-ORIGIN LEVEL: 185667 DIFFERENT FILL-ORIGIN LEVEL: 0
L2C AVERAGE MISS LATENCY: 65.4058 cycles
L2C RQ	ACCESS:    2510187	FORWARD:          0	MERGED:          0	TO_CACHE:    2510187
L2C WQ	ACCESS:         64	FORWARD:          0	MERGED:          0	TO_CACHE:         64
L2C PQ	ACCESS:     191365	FORWARD:          0	MERGED:          0	TO_CACHE:     191365

L2C Instructions Evicting Data 0
L2C Translations Evicting Data 59
L2C Data Evicting Data 2470898
L2C Instructions Evicting Instructions 0
L2C Translations Evicting Instructions 0
L2C Data Evicting Instructions 0
L2C Instructions Evicting Translations 0
L2C Translations Evicting Translations 0
L2C Data Evicting Translations 59
L2C Dense regions hint from L2: 0
PSCL5 TOTAL     ACCESS:         89  HIT:         89  MISS:          0  HIT %:        100  MISS %:          0   MPKI: 0
PSCL5 LOAD TRANSLATION ACCESS:         89  HIT:         89  MISS:          0  HIT %:        100  MISS %:          0   MPKI: 0
PSCL5 PREFETCH  REQUESTED:          0  ISSUED:          0  USEFUL:          0  USELESS:          0
PSCL5 USEFUL LOAD PREFETCHES:          0 PREFETCH ISSUED TO LOWER LEVEL:          0  ACCURACY: -nan
PSCL5 TIMELY PREFETCHES:          0 LATE PREFETCHES: 0 DROPPED PREFETCHES: 0
PSCL5 PREFETCHES SAME FILL-ORIGIN LEVEL: 0 DIFFERENT FILL-ORIGIN LEVEL: 0

PSCL4 TOTAL     ACCESS:         89  HIT:         89  MISS:          0  HIT %:        100  MISS %:          0   MPKI: 0
PSCL4 LOAD TRANSLATION ACCESS:         89  HIT:         89  MISS:          0  HIT %:        100  MISS %:          0   MPKI: 0
PSCL4 PREFETCH  REQUESTED:          0  ISSUED:          0  USEFUL:          0  USELESS:          0
PSCL4 USEFUL LOAD PREFETCHES:          0 PREFETCH ISSUED TO LOWER LEVEL:          0  ACCURACY: -nan
PSCL4 TIMELY PREFETCHES:          0 LATE PREFETCHES: 0 DROPPED PREFETCHES: 0
PSCL4 PREFETCHES SAME FILL-ORIGIN LEVEL: 0 DIFFERENT FILL-ORIGIN LEVEL: 0

PSCL3 TOTAL     ACCESS:         89  HIT:         89  MISS:          0  HIT %:        100  MISS %:          0   MPKI: 0
PSCL3 LOAD TRANSLATION ACCESS:         89  HIT:         89  MISS:          0  HIT %:        100  MISS %:          0   MPKI: 0
PSCL3 PREFETCH  REQUESTED:          0  ISSUED:          0  USEFUL:          0  USELESS:          0
PSCL3 USEFUL LOAD PREFETCHES:          0 PREFETCH ISSUED TO LOWER LEVEL:          0  ACCURACY: -nan
PSCL3 TIMELY PREFETCHES:          0 LATE PREFETCHES: 0 DROPPED PREFETCHES: 0
PSCL3 PREFETCHES SAME FILL-ORIGIN LEVEL: 0 DIFFERENT FILL-ORIGIN LEVEL: 0

PSCL2 TOTAL     ACCESS:         89  HIT:         89  MISS:          0  HIT %:        100  MISS %:          0   MPKI: 0
PSCL2 LOAD TRANSLATION ACCESS:         89  HIT:         89  MISS:          0  HIT %:        100  MISS %:          0   MPKI: 0
PSCL2 PREFETCH  REQUESTED:          0  ISSUED:          0  USEFUL:          0  USELESS:          0
PSCL2 USEFUL LOAD PREFETCHES:          0 PREFETCH ISSUED TO LOWER LEVEL:          0  ACCURACY: -nan
PSCL2 TIMELY PREFETCHES:          0 LATE PREFETCHES: 0 DROPPED PREFETCHES: 0
PSCL2 PREFETCHES SAME FILL-ORIGIN LEVEL: 0 DIFFERENT FILL-ORIGIN LEVEL: 0

LLC TOTAL     ACCESS:    2471067  HIT:    1355405  MISS:    1115662  HIT %:     54.851  MISS %:     45.149   MPKI: 11.1566
LLC LOAD      ACCESS:    2285290  HIT:    1269475  MISS:    1015815  HIT %:    55.5498  MISS %:    44.4502   MPKI: 10.1581
LLC PREFETCH  ACCESS:     185667  HIT:      85885  MISS:      99782  HIT %:    46.2575  MISS %:    53.7425   MPKI: 0.99782
LLC WRITEBACK ACCESS:         51  HIT:         43  MISS:          8  HIT %:    84.3137  MISS %:    15.6863   MPKI: 8e-05
LLC LOAD TRANSLATION ACCESS:         59  HIT:          2  MISS:         57  HIT %:    3.38983  MISS %:    96.6102   MPKI: 0.00057
LLC PREFETCH  REQUESTED:          0  ISSUED:          0  USEFUL:      25486  USELESS:     102130
LLC USEFUL LOAD PREFETCHES:      25486 PREFETCH ISSUED TO LOWER LEVEL:      99782  ACCURACY: 25.5417
LLC TIMELY PREFETCHES:      25486 LATE PREFETCHES: 0 DROPPED PREFETCHES: 0
LLC PREFETCHES SAME FILL-ORIGIN LEVEL: 0 DIFFERENT FILL-ORIGIN LEVEL: 0
LLC AVERAGE MISS LATENCY: 78.4164 cycles
LLC RQ	ACCESS:    2285349	FORWARD:          0	MERGED:          0	TO_CACHE:    2285349
LLC WQ	ACCESS:         51	FORWARD:          0	MERGED:          0	TO_CACHE:         51
LLC PQ	ACCESS:     185667	FORWARD:          0	MERGED:          0	TO_CACHE:     185667

LLC Dense regions hint to LLC: 0

RAW hits: 2207
Loads Generated: 29892557
Loads sent to L1D: 29890349
Stores Generated: 1768024
Stores sent to L1D: 1768025
Major fault: 0 Minor fault: 1392
Allocated PAGES: 1392
[Bingo] PHT Access: 43805
[Bingo] PHT Hit PC+Addr: 3254
[Bingo] PHT Hit PC+Offs: 40299
[Bingo] PHT Miss: 252
[Bingo] Prefetch PC+Addr: 0
[Bingo] Prefetch PC+Offs: 0
[Bingo] Useful PC+Addr: 0
[Bingo] Useful PC+Offs: 0
[Bingo] Useless PC+Addr: 0
[Bingo] Useless PC+Offs: 0
[Bingo] L1 Prefetch per Region: 0
[Bingo] L2 Prefetch per Region: 5.3997
[Bingo] L3 Prefetch per Region: 0
[Bingo] No Prefetch per Region: 26.6003
[Bingo] Number of Voters Mean: 15.9771
[Bingo] Number of Voters SD: 15.9109
PHT read accesses: 667949
PHT write accesses: 43233
AT read accesses: 211008
AT write accesses: 231541
FT read accesses: 130552
FT write accesses: 43805
PS read accesses: 87232
PS write accesses: 43553
PHT tag read accesses: 2003394
PHT tag write accesses: 46487
AT tag read accesses: 43419623
AT tag write accesses: 254366
FT tag read accesses: 40652595
FT tag write accesses: 130983
PS tag read accesses: 5158832
PS tag write accesses: 130734

DRAM Statistics
 CHANNEL 0
 RQ ROW_BUFFER_HIT:    1038972  ROW_BUFFER_MISS:      76682
 DBUS_CONGESTED:          0
 WQ ROW_BUFFER_HIT:          0  ROW_BUFFER_MISS:          8  FULL:          0

 AVG_CONGESTED_CYCLE: -
 All warmup complete: 2
Channel 0 Bank busy for read cycles: 0
Channel 0 Bank busy for write cycles: 0
Channel 0
Rank 0
0banks busy for read cycles: 148679025
0banks busy for write cycles: 8
1banks busy for read cycles: 34580217
1banks busy for write cycles: 1445
2banks busy for read cycles: 6613636
2banks busy for write cycles: 0
3banks busy for read cycles: 3816766
3banks busy for write cycles: 0
4banks busy for read cycles: 1018079
4banks busy for write cycles: 0
5banks busy for read cycles: 7763
5banks busy for write cycles: 0
6banks busy for read cycles: 2686
6banks busy for write cycles: 0
7banks busy for read cycles: 1565
7banks busy for write cycles: 0
8banks busy for read cycles: 6864
8banks busy for write cycles: 0

CPU 0 Branch Prediction Accuracy: 99.9949% MPKI: 0.01399 Average ROB Occupancy at Mispredict: 264.074
Branch types
NOT_BRANCH: 72316725 72.3167%
BRANCH_DIRECT_JUMP: 65 6.5e-05%
BRANCH_INDIRECT: 0 0%
BRANCH_CONDITIONAL: 25915621 25.9156%
BRANCH_DIRECT_CALL: 441925 0.441925%
BRANCH_INDIRECT_CALL: 441860 0.44186%
BRANCH_RETURN: 883785 0.883785%
BRANCH_OTHER: 0 0%

DRAM PAGES: 1048576
Allocated PAGES: 1392
