
*** ChampSim Multicore Out-of-Order Simulator ***

Warmup Instructions: 50000000
Simulation Instructions: 100000000
Number of CPUs: 1
LLC sets: 2048
LLC ways: 16
Off-chip DRAM Size: 4096 MB Channels: 1 Width: 64-bit Data Rate: 6400 MT/s
CPU 0 runs ../SPEC2017//623.xalancbmk_s-202B.champsimtrace.xz
.xz
NUM_OF_IPS_IN_CRITICAL_IP_TRAINING: 64
NUM_OF_CRITICAL_IP_TRAINING_TABLE_WAYS: 2
NUM_OF_CRITICAL_IP_TRAINING_TABLE_SETS: 32
WOBBLY_CRITICAL_IP_CACHE_SETS: 32
WOBBLY_CRITICAL_IP_CACHE_WAYS: 4
BTB has LRU replacement policy
ITLB has LRU replacement policy
DTLB has LRU replacement policy
STLB has LRU replacement policy
L1I has LRU replacement policy
IP Table Entries: 256
L1D has LRU replacement policy
Initialize SRRIP state for L2C
Initialize DRRIP state for LLC
Heartbeat CPU 0 instructions: 10000001 cycles: 2829542 heartbeat IPC: 3.53414 cumulative IPC: 3.53414 (Simulation time: 0 hr 3 min 6 sec) 
Heartbeat CPU 0 instructions: 20000002 cycles: 5662369 heartbeat IPC: 3.53004 cumulative IPC: 3.53209 (Simulation time: 0 hr 6 min 5 sec) 
Heartbeat CPU 0 instructions: 30000001 cycles: 8495557 heartbeat IPC: 3.52959 cumulative IPC: 3.53126 (Simulation time: 0 hr 9 min 5 sec) 
Heartbeat CPU 0 instructions: 40000001 cycles: 11324117 heartbeat IPC: 3.53537 cumulative IPC: 3.53228 (Simulation time: 0 hr 12 min 8 sec) 
Heartbeat CPU 0 instructions: 50000000 cycles: 14158008 heartbeat IPC: 3.52872 cumulative IPC: 3.53157 (Simulation time: 0 hr 15 min 5 sec) 

Warmup complete CPU 0 instructions: 50000004 cycles: 14158009 (Simulation time: 0 hr 15 min 5 sec) 

% increase in all ip prefetch 271.202
% increase in all ip prefetch -0.131562
Heartbeat CPU 0 instructions: 60000002 cycles: 25153666 heartbeat IPC: 0.90945 cumulative IPC: 0.90945 (Simulation time: 0 hr 17 min 45 sec) 
Heartbeat CPU 0 instructions: 70000000 cycles: 36152789 heartbeat IPC: 0.909163 cumulative IPC: 0.909306 (Simulation time: 0 hr 20 min 21 sec) 
Heartbeat CPU 0 instructions: 80000000 cycles: 47160290 heartbeat IPC: 0.908471 cumulative IPC: 0.909028 (Simulation time: 0 hr 22 min 56 sec) 
Heartbeat CPU 0 instructions: 90000001 cycles: 58077888 heartbeat IPC: 0.915953 cumulative IPC: 0.910749 (Simulation time: 0 hr 25 min 34 sec) 
Heartbeat CPU 0 instructions: 100000000 cycles: 69043002 heartbeat IPC: 0.911983 cumulative IPC: 0.910996 (Simulation time: 0 hr 28 min 4 sec) 
Heartbeat CPU 0 instructions: 110000000 cycles: 79938416 heartbeat IPC: 0.917817 cumulative IPC: 0.912126 (Simulation time: 0 hr 30 min 35 sec) 
Heartbeat CPU 0 instructions: 120000002 cycles: 90878622 heartbeat IPC: 0.91406 cumulative IPC: 0.912401 (Simulation time: 0 hr 33 min 2 sec) 
Heartbeat CPU 0 instructions: 130000002 cycles: 101894623 heartbeat IPC: 0.90777 cumulative IPC: 0.91182 (Simulation time: 0 hr 35 min 25 sec) 
Heartbeat CPU 0 instructions: 140000001 cycles: 112926814 heartbeat IPC: 0.906438 cumulative IPC: 0.911219 (Simulation time: 0 hr 39 min 46 sec) 
Heartbeat CPU 0 instructions: 150000001 cycles: 123939321 heartbeat IPC: 0.908058 cumulative IPC: 0.910902 (Simulation time: 0 hr 45 min 14 sec) 
Finished CPU 0 instructions: 100000001 cycles: 109781313 cumulative IPC: 0.910902 (Simulation time: 0 hr 45 min 14 sec) 

ChampSim completed all CPUs

Region of Interest Statistics

CPU 0 cumulative IPC: 0.910902 instructions: 100000001 cycles: 109781313

CPU 0 Average Load ROB stall cycles: 2.79236e+07
CPU 0 Fraction of times ROB stalled by Loads: 40.4602
CPU 0 Percentage of Load stall cycles in Total stall cycles: 4.96085e+08
Issued all: 59870565
Issued LT all: 46355118
rob_not_full_when_issued_lt_all: 46038697
Issued LT one: 40761731
rob_not_full_when_issued_lt_one: 40478740
 Total stall cycles: 85971984
 Total load stall cycles: 426494460386138
CPU 0 NUM of IPS identified critical: 0
CPU 0 Num of Load IPs stalling ROB: 53
Threshold modification factor: -1
Max PIST entries: 37
Min PIST entries: 0
Avg PIST entries: 7.31333
Trouble in retire width: 0.972305
MaC = Marked as critical.
lt_50_percent_before_Mac: 0
gt_90_percent_before_Mac: 0
gt_75_percent_before_Mac: 0
gt_50_percent_before_Mac: 0
stall_proportion_bin_same_before_after: 0
stall_proportion_bin_lower_before_after: 0
stall_proportion_bin_upper_before_after: 0
average_stall_proportion_before: -nan
average_stall_proportion_after: -nan
Critical IP stalls, total frequency: 0
Non-critical IP stalls, total frequency: 6179737
Total Freq all stalling IPs: 6179737
stat_90_percent_critical_ip_stalls_freq: 5592631
stat_90_percent_non_critical_ip_stalls_freq: 587106
Critical_IP_ROB_Stalls_Bucket_0: 0
Non-critical_IP_ROB_Stalls_Bucket_0: 2740202
Critical_IP_ROB_Stalls_Bucket_1: 0
Non-critical_IP_ROB_Stalls_Bucket_1: 2320591
Critical_IP_ROB_Stalls_Bucket_2: 0
Non-critical_IP_ROB_Stalls_Bucket_2: 619183
Critical_IP_ROB_Stalls_Bucket_3: 0
Non-critical_IP_ROB_Stalls_Bucket_3: 254625
Critical_IP_ROB_Stalls_Bucket_4: 0
Non-critical_IP_ROB_Stalls_Bucket_4: 127814
Critical_IP_ROB_Stalls_Bucket_5: 0
Non-critical_IP_ROB_Stalls_Bucket_5: 77794
Critical_IP_ROB_Stalls_Bucket_6: 0
Non-critical_IP_ROB_Stalls_Bucket_6: 39528
0 => IPs accounting for >50 percent of stalls, 1 => 55, 2 => 60, 3 => 65 and so on till 90.
percent50: 55.1278 num IPs:  7
percent55: 55.1278 num IPs: 7
percent60: 62.2488 num IPs: 8
percent65: 69.3493 num IPs: 9
percent70: 76.1362 num IPs: 10
percent75: 76.1362 num IPs: 10
percent80: 82.1124 num IPs: 11
percent85: 86.6826 num IPs: 12
percent90: 90.4995 num IPs: 13
Critical_ROB_Stalls_Percent_0_Bucket_0: 1180689
Non-critical_ROB_Stalls_Percent_0_Bucket_0: 1559513
Critical_ROB_Stalls_Percent_0_Bucket_1: 1700753
Non-critical_ROB_Stalls_Percent_0_Bucket_1: 619838
Critical_ROB_Stalls_Percent_0_Bucket_2: 318354
Non-critical_ROB_Stalls_Percent_0_Bucket_2: 300829
Critical_ROB_Stalls_Percent_0_Bucket_3: 101665
Non-critical_ROB_Stalls_Percent_0_Bucket_3: 152960
Critical_ROB_Stalls_Percent_0_Bucket_4: 52181
Non-critical_ROB_Stalls_Percent_0_Bucket_4: 75633
Critical_ROB_Stalls_Percent_0_Bucket_5: 34428
Non-critical_ROB_Stalls_Percent_0_Bucket_5: 43366
Critical_ROB_Stalls_Percent_0_Bucket_6: 18681
Non-critical_ROB_Stalls_Percent_0_Bucket_6: 20847
Critical_ROB_Stalls_Percent_1_Bucket_0: 1180689
Non-critical_ROB_Stalls_Percent_1_Bucket_0: 1559513
Critical_ROB_Stalls_Percent_1_Bucket_1: 1700753
Non-critical_ROB_Stalls_Percent_1_Bucket_1: 619838
Critical_ROB_Stalls_Percent_1_Bucket_2: 318354
Non-critical_ROB_Stalls_Percent_1_Bucket_2: 300829
Critical_ROB_Stalls_Percent_1_Bucket_3: 101665
Non-critical_ROB_Stalls_Percent_1_Bucket_3: 152960
Critical_ROB_Stalls_Percent_1_Bucket_4: 52181
Non-critical_ROB_Stalls_Percent_1_Bucket_4: 75633
Critical_ROB_Stalls_Percent_1_Bucket_5: 34428
Non-critical_ROB_Stalls_Percent_1_Bucket_5: 43366
Critical_ROB_Stalls_Percent_1_Bucket_6: 18681
Non-critical_ROB_Stalls_Percent_1_Bucket_6: 20847
Critical_ROB_Stalls_Percent_2_Bucket_0: 1458974
Non-critical_ROB_Stalls_Percent_2_Bucket_0: 1281228
Critical_ROB_Stalls_Percent_2_Bucket_1: 1763146
Non-critical_ROB_Stalls_Percent_2_Bucket_1: 557445
Critical_ROB_Stalls_Percent_2_Bucket_2: 374153
Non-critical_ROB_Stalls_Percent_2_Bucket_2: 245030
Critical_ROB_Stalls_Percent_2_Bucket_3: 126308
Non-critical_ROB_Stalls_Percent_2_Bucket_3: 128317
Critical_ROB_Stalls_Percent_2_Bucket_4: 63795
Non-critical_ROB_Stalls_Percent_2_Bucket_4: 64019
Critical_ROB_Stalls_Percent_2_Bucket_5: 38784
Non-critical_ROB_Stalls_Percent_2_Bucket_5: 39010
Critical_ROB_Stalls_Percent_2_Bucket_6: 21655
Non-critical_ROB_Stalls_Percent_2_Bucket_6: 17873
Critical_ROB_Stalls_Percent_3_Bucket_0: 1458975
Non-critical_ROB_Stalls_Percent_3_Bucket_0: 1281227
Critical_ROB_Stalls_Percent_3_Bucket_1: 2046150
Non-critical_ROB_Stalls_Percent_3_Bucket_1: 274441
Critical_ROB_Stalls_Percent_3_Bucket_2: 457218
Non-critical_ROB_Stalls_Percent_3_Bucket_2: 161965
Critical_ROB_Stalls_Percent_3_Bucket_3: 160177
Non-critical_ROB_Stalls_Percent_3_Bucket_3: 94448
Critical_ROB_Stalls_Percent_3_Bucket_4: 84668
Non-critical_ROB_Stalls_Percent_3_Bucket_4: 43146
Critical_ROB_Stalls_Percent_3_Bucket_5: 50831
Non-critical_ROB_Stalls_Percent_3_Bucket_5: 26963
Critical_ROB_Stalls_Percent_3_Bucket_6: 27588
Non-critical_ROB_Stalls_Percent_3_Bucket_6: 11940
Critical_ROB_Stalls_Percent_4_Bucket_0: 1756758
Non-critical_ROB_Stalls_Percent_4_Bucket_0: 983444
Critical_ROB_Stalls_Percent_4_Bucket_1: 2119947
Non-critical_ROB_Stalls_Percent_4_Bucket_1: 200644
Critical_ROB_Stalls_Percent_4_Bucket_2: 485517
Non-critical_ROB_Stalls_Percent_4_Bucket_2: 133666
Critical_ROB_Stalls_Percent_4_Bucket_3: 170794
Non-critical_ROB_Stalls_Percent_4_Bucket_3: 83831
Critical_ROB_Stalls_Percent_4_Bucket_4: 89461
Non-critical_ROB_Stalls_Percent_4_Bucket_4: 38353
Critical_ROB_Stalls_Percent_4_Bucket_5: 54490
Non-critical_ROB_Stalls_Percent_4_Bucket_5: 23304
Critical_ROB_Stalls_Percent_4_Bucket_6: 28051
Non-critical_ROB_Stalls_Percent_4_Bucket_6: 11477
Critical_ROB_Stalls_Percent_5_Bucket_0: 1756758
Non-critical_ROB_Stalls_Percent_5_Bucket_0: 983444
Critical_ROB_Stalls_Percent_5_Bucket_1: 2119947
Non-critical_ROB_Stalls_Percent_5_Bucket_1: 200644
Critical_ROB_Stalls_Percent_5_Bucket_2: 485517
Non-critical_ROB_Stalls_Percent_5_Bucket_2: 133666
Critical_ROB_Stalls_Percent_5_Bucket_3: 170794
Non-critical_ROB_Stalls_Percent_5_Bucket_3: 83831
Critical_ROB_Stalls_Percent_5_Bucket_4: 89461
Non-critical_ROB_Stalls_Percent_5_Bucket_4: 38353
Critical_ROB_Stalls_Percent_5_Bucket_5: 54490
Non-critical_ROB_Stalls_Percent_5_Bucket_5: 23304
Critical_ROB_Stalls_Percent_5_Bucket_6: 28051
Non-critical_ROB_Stalls_Percent_5_Bucket_6: 11477
Critical_ROB_Stalls_Percent_6_Bucket_0: 2088156
Non-critical_ROB_Stalls_Percent_6_Bucket_0: 652046
Critical_ROB_Stalls_Percent_6_Bucket_1: 2136122
Non-critical_ROB_Stalls_Percent_6_Bucket_1: 184469
Critical_ROB_Stalls_Percent_6_Bucket_2: 492966
Non-critical_ROB_Stalls_Percent_6_Bucket_2: 126217
Critical_ROB_Stalls_Percent_6_Bucket_3: 179562
Non-critical_ROB_Stalls_Percent_6_Bucket_3: 75063
Critical_ROB_Stalls_Percent_6_Bucket_4: 93115
Non-critical_ROB_Stalls_Percent_6_Bucket_4: 34699
Critical_ROB_Stalls_Percent_6_Bucket_5: 55541
Non-critical_ROB_Stalls_Percent_6_Bucket_5: 22253
Critical_ROB_Stalls_Percent_6_Bucket_6: 28868
Non-critical_ROB_Stalls_Percent_6_Bucket_6: 10660
Critical_ROB_Stalls_Percent_7_Bucket_0: 2264176
Non-critical_ROB_Stalls_Percent_7_Bucket_0: 476026
Critical_ROB_Stalls_Percent_7_Bucket_1: 2185110
Non-critical_ROB_Stalls_Percent_7_Bucket_1: 135481
Critical_ROB_Stalls_Percent_7_Bucket_2: 513559
Non-critical_ROB_Stalls_Percent_7_Bucket_2: 105624
Critical_ROB_Stalls_Percent_7_Bucket_3: 198830
Non-critical_ROB_Stalls_Percent_7_Bucket_3: 55795
Critical_ROB_Stalls_Percent_7_Bucket_4: 103298
Non-critical_ROB_Stalls_Percent_7_Bucket_4: 24516
Critical_ROB_Stalls_Percent_7_Bucket_5: 60677
Non-critical_ROB_Stalls_Percent_7_Bucket_5: 17117
Critical_ROB_Stalls_Percent_7_Bucket_6: 31110
Non-critical_ROB_Stalls_Percent_7_Bucket_6: 8418
Critical_ROB_Stalls_Percent_8_Bucket_0: 2494116
Non-critical_ROB_Stalls_Percent_8_Bucket_0: 246086
Critical_ROB_Stalls_Percent_8_Bucket_1: 2186974
Non-critical_ROB_Stalls_Percent_8_Bucket_1: 133617
Critical_ROB_Stalls_Percent_8_Bucket_2: 515946
Non-critical_ROB_Stalls_Percent_8_Bucket_2: 103237
Critical_ROB_Stalls_Percent_8_Bucket_3: 199682
Non-critical_ROB_Stalls_Percent_8_Bucket_3: 54943
Critical_ROB_Stalls_Percent_8_Bucket_4: 103857
Non-critical_ROB_Stalls_Percent_8_Bucket_4: 23957
Critical_ROB_Stalls_Percent_8_Bucket_5: 60871
Non-critical_ROB_Stalls_Percent_8_Bucket_5: 16923
Critical_ROB_Stalls_Percent_8_Bucket_6: 31185
Non-critical_ROB_Stalls_Percent_8_Bucket_6: 8343
Average ROB occupancy Load Stall Begin: 60.5643
Average ROB occupancy Load Stall End: 70.6127
Min ROB occupancy Load Stall Begin: 1
Max ROB occupancy Load Stall Begin: 352
Min ROB occupancy Load Stall End: 1
Max ROB occupancy Load Stall End: 352
Average ROB occupancy Critical Load Stall Begin: -nan
Average ROB occupancy Critical Load Stall End: -nan
Min ROB occupancy Critical Load Stall Begin: 400
Max ROB occupancy Critical Load Stall Begin: 0
Min ROB occupancy Critical Load Stall End: 400
Max ROB occupancy Critical Load Stall End: 0
 ROB Load Stall Begin Bucket Count 0: 3404741
 ROB Load Stall End Bucket Count 0: 2740202
 ROB Critical Load Stall Begin Bucket Count 0: 0
 ROB Critical Load Stall End Bucket Count 0: 0
 ROB Load Stall Begin Bucket Count 1: 1897549
 ROB Load Stall End Bucket Count 1: 2320591
 ROB Critical Load Stall Begin Bucket Count 1: 0
 ROB Critical Load Stall End Bucket Count 1: 0
 ROB Load Stall Begin Bucket Count 2: 477898
 ROB Load Stall End Bucket Count 2: 619183
 ROB Critical Load Stall Begin Bucket Count 2: 0
 ROB Critical Load Stall End Bucket Count 2: 0
 ROB Load Stall Begin Bucket Count 3: 209959
 ROB Load Stall End Bucket Count 3: 254625
 ROB Critical Load Stall Begin Bucket Count 3: 0
 ROB Critical Load Stall End Bucket Count 3: 0
 ROB Load Stall Begin Bucket Count 4: 100883
 ROB Load Stall End Bucket Count 4: 127814
 ROB Critical Load Stall Begin Bucket Count 4: 0
 ROB Critical Load Stall End Bucket Count 4: 0
 ROB Load Stall Begin Bucket Count 5: 62644
 ROB Load Stall End Bucket Count 5: 77794
 ROB Critical Load Stall Begin Bucket Count 5: 0
 ROB Critical Load Stall End Bucket Count 5: 0
 ROB Load Stall Begin Bucket Count 6: 26063
 ROB Load Stall End Bucket Count 6: 39528
 ROB Critical Load Stall Begin Bucket Count 6: 0
 ROB Critical Load Stall End Bucket Count 6: 0
PIST Tag Read Accesses: 46232
PIST Read Accesses: 23116
PIST Tag Write Accesses: 46232
PIST Write Accesses: 23116
Criticality detector called times: 117989
Max global_stall_cycles_count: 629229
Threshold Modified: 1 times, factor: -1
Sturdy critical IP cache stats: 
 Unused entries: 0
CIC Tag Read Accesses: 0
CIC Read Accesses: 0
CIC Tag Write Accesses: 0
CIC Write Accesses: 0
Wobbly critical IP cache stats: 
 Unused entries: 94
CIC Tag Read Accesses: 195277044
CIC Read Accesses: 0
CIC Tag Write Accesses: 7492272
CIC Write Accesses: 0
ITLB TOTAL     ACCESS:   14158942  HIT:   14158942  MISS:          0  HIT %:        100  MISS %:          0   MPKI: 0
ITLB LOAD TRANSLATION ACCESS:   14158942  HIT:   14158942  MISS:          0  HIT %:        100  MISS %:          0   MPKI: 0
ITLB PREFETCH  REQUESTED:          0  ISSUED:          0  USEFUL:          0  USELESS:          0
ITLB USEFUL LOAD PREFETCHES:          0 PREFETCH ISSUED TO LOWER LEVEL:          0  ACCURACY: -nan
ITLB TIMELY PREFETCHES:          0 LATE PREFETCHES: 0 DROPPED PREFETCHES: 0
ITLB PREFETCHES SAME FILL-ORIGIN LEVEL: 0 DIFFERENT FILL-ORIGIN LEVEL: 0
ITLB AVERAGE MISS LATENCY: -nan cycles
ITLB RQ	ACCESS:   17695465	FORWARD:          0	MERGED:    3536524	TO_CACHE:   14158941

DTLB TOTAL     ACCESS:   15980858  HIT:   15937034  MISS:      43824  HIT %:    99.7258  MISS %:   0.274228   MPKI: 0.43824
DTLB LOAD TRANSLATION ACCESS:   15980858  HIT:   15937034  MISS:      43824  HIT %:    99.7258  MISS %:   0.274228   MPKI: 0.43824
DTLB PREFETCH  REQUESTED:          0  ISSUED:          0  USEFUL:          0  USELESS:          0
DTLB USEFUL LOAD PREFETCHES:          0 PREFETCH ISSUED TO LOWER LEVEL:          0  ACCURACY: -nan
DTLB TIMELY PREFETCHES:          0 LATE PREFETCHES: 0 DROPPED PREFETCHES: 0
DTLB PREFETCHES SAME FILL-ORIGIN LEVEL: 0 DIFFERENT FILL-ORIGIN LEVEL: 0
DTLB AVERAGE MISS LATENCY: 9.53811 cycles
DTLB RQ	ACCESS:   18090233	FORWARD:          0	MERGED:    2109154	TO_CACHE:   15981079

STLB TOTAL     ACCESS:    1430303  HIT:    1430214  MISS:         89  HIT %:    99.9938  MISS %: 0.00622246   MPKI: 0.00089
STLB LOAD TRANSLATION ACCESS:      43824  HIT:      43735  MISS:         89  HIT %:    99.7969  MISS %:   0.203085   MPKI: 0.00089
STLB TRANSLATION FROM L1D PREFETCHER ACCESS:    1386479  HIT:    1386479  MISS:          0  HIT %:        100  MISS %:          0   MPKI: 0
STLB PREFETCH  REQUESTED:          0  ISSUED:          0  USEFUL:          0  USELESS:          0
STLB USEFUL LOAD PREFETCHES:          0 PREFETCH ISSUED TO LOWER LEVEL:          0  ACCURACY: -nan
STLB TIMELY PREFETCHES:          0 LATE PREFETCHES: 0 DROPPED PREFETCHES: 0
STLB PREFETCHES SAME FILL-ORIGIN LEVEL: 0 DIFFERENT FILL-ORIGIN LEVEL: 0
STLB AVERAGE MISS LATENCY: 263.854 cycles
STLB RQ	ACCESS:    3832634	FORWARD:          0	MERGED:    2402331	TO_CACHE:    1430303

STLB Hit, L1D data hit: 0
STLB Hit, L2C data hit: 0
STLB Hit, LLC data hit: 0
STLB Hit, LLC data miss: 0
STLB STLB hints to L2: 0
L1D TOTAL     ACCESS:   21804659  HIT:   19082228  MISS:    2722431  HIT %:    87.5145  MISS %:    12.4855   MPKI: 27.2243
L1D LOAD      ACCESS:   16308912  HIT:   16194312  MISS:     114600  HIT %:    99.2973  MISS %:   0.702683   MPKI: 1.146
L1D RFO       ACCESS:    1768024  HIT:    1768024  MISS:          0  HIT %:        100  MISS %:          0   MPKI: 0
L1D PREFETCH  ACCESS:    3727723  HIT:    1119892  MISS:    2607831  HIT %:    30.0423  MISS %:    69.9577   MPKI: 26.0783
L1D PREFETCH  REQUESTED:    7586927  ISSUED:    7577620  USEFUL:    2395576  USELESS:     212374
L1D USEFUL LOAD PREFETCHES:    2395576 PREFETCH ISSUED TO LOWER LEVEL:    2627768  ACCURACY: 91.1639
L1D TIMELY PREFETCHES:    2395576 LATE PREFETCHES: 19938 DROPPED PREFETCHES: 0
L1D PREFETCHES SAME FILL-ORIGIN LEVEL: 2627768 DIFFERENT FILL-ORIGIN LEVEL: 0
L1D AVERAGE MISS LATENCY: 507887 cycles
L1D RQ	ACCESS:   29891864	FORWARD:          0	MERGED:   13434291	TO_CACHE:   16322208
L1D WQ	ACCESS:    1768025	FORWARD:     135365	MERGED:          0	TO_CACHE:    1768025
L1D PQ	ACCESS:    3788810	FORWARD:          0	MERGED:          0	TO_CACHE:    3788810

L1D UNIQUE REGIONS ACCESSED: 0
L1D REGIONS CONFLICTS: 0
L1D Cross Page Prefetch Requests: 0
L1D Same Page Prefetch Requests: 5656667
L1D ROI Sum of L1D PQ occupancy: 51664550
L1D PREFETCHES PUSHED FROM L2C: 0
L1I TOTAL     ACCESS:   17695465  HIT:   17695465  MISS:          0  HIT %:        100  MISS %:          0   MPKI: 0
L1I LOAD      ACCESS:   17695465  HIT:   17695465  MISS:          0  HIT %:        100  MISS %:          0   MPKI: 0
L1I PREFETCH  REQUESTED:          0  ISSUED:          0  USEFUL:          0  USELESS:          0
L1I USEFUL LOAD PREFETCHES:          0 PREFETCH ISSUED TO LOWER LEVEL:          0  ACCURACY: -nan
L1I TIMELY PREFETCHES:          0 LATE PREFETCHES: 0 DROPPED PREFETCHES: 0
L1I PREFETCHES SAME FILL-ORIGIN LEVEL: 0 DIFFERENT FILL-ORIGIN LEVEL: 0
L1I AVERAGE MISS LATENCY: -nan cycles
L1I RQ	ACCESS:   33004330	FORWARD:          0	MERGED:   15308865	TO_CACHE:   17695465

BTB TOTAL     ACCESS:   17463792  HIT:   17463775  MISS:         17  HIT %:    99.9999  MISS %: 9.73443e-05   MPKI: 0.00017
BTB BRANCH_DIRECT_JUMP	ACCESS:         65  HIT:         64  MISS:          1
BTB BRANCH_INDIRECT	ACCESS:          0  HIT:          0  MISS:          0
BTB BRANCH_CONDITIONAL	ACCESS:   15696161  HIT:   15696152  MISS:          9
BTB BRANCH_DIRECT_CALL	ACCESS:     441924  HIT:     441922  MISS:          2
BTB BRANCH_INDIRECT_CALL	ACCESS:     441859  HIT:     441858  MISS:          1
BTB BRANCH_RETURN	ACCESS:     883783  HIT:     883779  MISS:          4
BTB BRANCH_OTHER ACCESS:          0  HIT:          0  MISS:          0

L2C TOTAL     ACCESS:    2722583  HIT:      49389  MISS:    2673194  HIT %:    1.81405  MISS %:     98.186   MPKI: 26.7319
L2C LOAD      ACCESS:      94662  HIT:       1928  MISS:      92734  HIT %:    2.03672  MISS %:    97.9633   MPKI: 0.92734
L2C DATA LOAD MPKI: 0.92734
L2C INSTRUCTION LOAD MPKI: 0
L2C PREFETCH  ACCESS:    2627768  HIT:      47367  MISS:    2580401  HIT %:    1.80256  MISS %:    98.1974   MPKI: 25.804
L2C DATA PREFETCH MPKI: 25.804
L2C INSTRUCTION PREFETCH MPKI: 0
L2C WRITEBACK ACCESS:         64  HIT:         64  MISS:          0  HIT %:        100  MISS %:          0   MPKI: 0
L2C LOAD TRANSLATION ACCESS:         89  HIT:         30  MISS:         59  HIT %:    33.7079  MISS %:    66.2921   MPKI: 0.00059
L2C PREFETCH  REQUESTED:          0  ISSUED:          0  USEFUL:        526  USELESS:    2579880
L2C USEFUL LOAD PREFETCHES:        526 PREFETCH ISSUED TO LOWER LEVEL:    2580401  ACCURACY: 0.0203844
L2C TIMELY PREFETCHES:        526 LATE PREFETCHES: 0 DROPPED PREFETCHES: 0
L2C PREFETCHES SAME FILL-ORIGIN LEVEL: 0 DIFFERENT FILL-ORIGIN LEVEL: 0
L2C AVERAGE MISS LATENCY: 72.9563 cycles
L2C RQ	ACCESS:      94751	FORWARD:          0	MERGED:          0	TO_CACHE:      94751
L2C WQ	ACCESS:         64	FORWARD:          0	MERGED:          0	TO_CACHE:         64
L2C PQ	ACCESS:    2627768	FORWARD:          0	MERGED:          0	TO_CACHE:    2627768

L2C Instructions Evicting Data 0
L2C Translations Evicting Data 59
L2C Data Evicting Data 2673075
L2C Instructions Evicting Instructions 0
L2C Translations Evicting Instructions 0
L2C Data Evicting Instructions 0
L2C Instructions Evicting Translations 0
L2C Translations Evicting Translations 0
L2C Data Evicting Translations 60
L2C Dense regions hint from L2: 0
PSCL5 TOTAL     ACCESS:         89  HIT:         89  MISS:          0  HIT %:        100  MISS %:          0   MPKI: 0
PSCL5 LOAD TRANSLATION ACCESS:         89  HIT:         89  MISS:          0  HIT %:        100  MISS %:          0   MPKI: 0
PSCL5 PREFETCH  REQUESTED:          0  ISSUED:          0  USEFUL:          0  USELESS:          0
PSCL5 USEFUL LOAD PREFETCHES:          0 PREFETCH ISSUED TO LOWER LEVEL:          0  ACCURACY: -nan
PSCL5 TIMELY PREFETCHES:          0 LATE PREFETCHES: 0 DROPPED PREFETCHES: 0
PSCL5 PREFETCHES SAME FILL-ORIGIN LEVEL: 0 DIFFERENT FILL-ORIGIN LEVEL: 0

PSCL4 TOTAL     ACCESS:         89  HIT:         89  MISS:          0  HIT %:        100  MISS %:          0   MPKI: 0
PSCL4 LOAD TRANSLATION ACCESS:         89  HIT:         89  MISS:          0  HIT %:        100  MISS %:          0   MPKI: 0
PSCL4 PREFETCH  REQUESTED:          0  ISSUED:          0  USEFUL:          0  USELESS:          0
PSCL4 USEFUL LOAD PREFETCHES:          0 PREFETCH ISSUED TO LOWER LEVEL:          0  ACCURACY: -nan
PSCL4 TIMELY PREFETCHES:          0 LATE PREFETCHES: 0 DROPPED PREFETCHES: 0
PSCL4 PREFETCHES SAME FILL-ORIGIN LEVEL: 0 DIFFERENT FILL-ORIGIN LEVEL: 0

PSCL3 TOTAL     ACCESS:         89  HIT:         89  MISS:          0  HIT %:        100  MISS %:          0   MPKI: 0
PSCL3 LOAD TRANSLATION ACCESS:         89  HIT:         89  MISS:          0  HIT %:        100  MISS %:          0   MPKI: 0
PSCL3 PREFETCH  REQUESTED:          0  ISSUED:          0  USEFUL:          0  USELESS:          0
PSCL3 USEFUL LOAD PREFETCHES:          0 PREFETCH ISSUED TO LOWER LEVEL:          0  ACCURACY: -nan
PSCL3 TIMELY PREFETCHES:          0 LATE PREFETCHES: 0 DROPPED PREFETCHES: 0
PSCL3 PREFETCHES SAME FILL-ORIGIN LEVEL: 0 DIFFERENT FILL-ORIGIN LEVEL: 0

PSCL2 TOTAL     ACCESS:         89  HIT:         89  MISS:          0  HIT %:        100  MISS %:          0   MPKI: 0
PSCL2 LOAD TRANSLATION ACCESS:         89  HIT:         89  MISS:          0  HIT %:        100  MISS %:          0   MPKI: 0
PSCL2 PREFETCH  REQUESTED:          0  ISSUED:          0  USEFUL:          0  USELESS:          0
PSCL2 USEFUL LOAD PREFETCHES:          0 PREFETCH ISSUED TO LOWER LEVEL:          0  ACCURACY: -nan
PSCL2 TIMELY PREFETCHES:          0 LATE PREFETCHES: 0 DROPPED PREFETCHES: 0
PSCL2 PREFETCHES SAME FILL-ORIGIN LEVEL: 0 DIFFERENT FILL-ORIGIN LEVEL: 0

LLC TOTAL     ACCESS:    2673245  HIT:    1267228  MISS:    1406017  HIT %:    47.4041  MISS %:    52.5959   MPKI: 14.0602
LLC LOAD      ACCESS:      92734  HIT:      46010  MISS:      46724  HIT %:     49.615  MISS %:     50.385   MPKI: 0.46724
LLC PREFETCH  ACCESS:    2580401  HIT:    1221170  MISS:    1359231  HIT %:    47.3248  MISS %:    52.6752   MPKI: 13.5923
LLC WRITEBACK ACCESS:         51  HIT:         47  MISS:          4  HIT %:    92.1569  MISS %:    7.84314   MPKI: 4e-05
LLC LOAD TRANSLATION ACCESS:         59  HIT:          1  MISS:         58  HIT %:    1.69492  MISS %:    98.3051   MPKI: 0.00058
LLC PREFETCH  REQUESTED:          0  ISSUED:          0  USEFUL:       1844  USELESS:    1358856
LLC USEFUL LOAD PREFETCHES:       1844 PREFETCH ISSUED TO LOWER LEVEL:    1359231  ACCURACY: 0.135665
LLC TIMELY PREFETCHES:       1844 LATE PREFETCHES: 0 DROPPED PREFETCHES: 0
LLC PREFETCHES SAME FILL-ORIGIN LEVEL: 0 DIFFERENT FILL-ORIGIN LEVEL: 0
LLC AVERAGE MISS LATENCY: 81.6568 cycles
LLC RQ	ACCESS:      92793	FORWARD:          0	MERGED:          0	TO_CACHE:      92793
LLC WQ	ACCESS:         51	FORWARD:          0	MERGED:          0	TO_CACHE:         51
LLC PQ	ACCESS:    2580401	FORWARD:          0	MERGED:          0	TO_CACHE:    2580401

LLC Dense regions hint to LLC: 0

RAW hits: 690
Loads Generated: 29892555
Loads sent to L1D: 29891864
Stores Generated: 1768024
Stores sent to L1D: 1768025
Major fault: 0 Minor fault: 1392
Allocated PAGES: 1392

stream: 
stream:times selected: 7311035
stream:pref_filled: 866962
stream:pref_useful: 565240
stream:pref_late: 22696
stream:misses: 156641
stream:misses_by_poll: 0

CS: 
CS:times selected: 6201967
CS:pref_filled: 2910302
CS:pref_useful: 2894144
CS:pref_late: 844
CS:misses: 25852
CS:misses_by_poll: 12200

CPLX: 
CPLX:times selected: 1108886
CPLX:pref_filled: 138859
CPLX:pref_useful: 135795
CPLX:pref_late: 191
CPLX:misses: 7718
CPLX:misses_by_poll: 331

NL_L1: 
NL:times selected: 194
NL:pref_filled: 65
NL:pref_useful: 49
NL:pref_late: 0
NL:misses: 19
NL:misses_by_poll: 0

total selections: 14622082
total_filled: 2607831
total_useful: 2395576
total_late: 27614
total_polluted: 12531
total_misses_after_warmup: 127895
conflicts: 27603
Degree Incremented Times: 187766
Degree Decremented Times: 0

L1 IP Table Write Accesses: 15820796
L1 IP Table Read Accesses: 15793193
L1 RST Write Accesses: 4792922
L1 RST Read Accesses: 9585844
L1 CSPT Write Accesses: 4792922
L1 CSPT Read Accesses: 6488237
L1 RR Filter Tag Write Accesses: 3798117
L1 RR Filter Tag Read Accesses: 784321929
L1 IP Table Tag Write Accesses: 16322207
L1 IP Table Tag Read Accesses: 16322207
L1 RST Tag Write Accesses: 0
L1 RST Tag Read Accesses: 42260999
L1 RR Filter Write Accesses: 0
L1 RR Filter Read Accesses: 37967835
test: 718184

DRAM Statistics
 CHANNEL 0
 RQ ROW_BUFFER_HIT:    1325735  ROW_BUFFER_MISS:      80278
 DBUS_CONGESTED:          0
 WQ ROW_BUFFER_HIT:          0  ROW_BUFFER_MISS:          4  FULL:          0

 AVG_CONGESTED_CYCLE: -
 All warmup complete: 2
Channel 0 Bank busy for read cycles: 0
Channel 0 Bank busy for write cycles: 0
Channel 0
Rank 0
0banks busy for read cycles: 76539806
0banks busy for write cycles: 4
1banks busy for read cycles: 14793136
1banks busy for write cycles: 600
2banks busy for read cycles: 6339455
2banks busy for write cycles: 0
3banks busy for read cycles: 4615945
3banks busy for write cycles: 0
4banks busy for read cycles: 3406056
4banks busy for write cycles: 0
5banks busy for read cycles: 2169308
5banks busy for write cycles: 0
6banks busy for read cycles: 1160542
6banks busy for write cycles: 0
7banks busy for read cycles: 476677
7banks busy for write cycles: 0
8banks busy for read cycles: 279785
8banks busy for write cycles: 0

CPU 0 Branch Prediction Accuracy: 99.9949% MPKI: 0.01399 Average ROB Occupancy at Mispredict: 67.5711
Branch types
NOT_BRANCH: 72316613 72.3166%
BRANCH_DIRECT_JUMP: 65 6.5e-05%
BRANCH_INDIRECT: 0 0%
BRANCH_CONDITIONAL: 25915586 25.9156%
BRANCH_DIRECT_CALL: 441924 0.441924%
BRANCH_INDIRECT_CALL: 441859 0.441859%
BRANCH_RETURN: 883783 0.883783%
BRANCH_OTHER: 0 0%

DRAM PAGES: 1048576
Allocated PAGES: 1392
