
*** ChampSim Multicore Out-of-Order Simulator ***

Warmup Instructions: 50000000
Simulation Instructions: 100000000
Number of CPUs: 1
LLC sets: 2048
LLC ways: 16
Off-chip DRAM Size: 4096 MB Channels: 1 Width: 64-bit Data Rate: 6400 MT/s
CPU 0 runs ../SPEC_2006_2017//623.xalancbmk_s-10B.champsimtrace.xz
.xz
NUM_OF_IPS_IN_CRITICAL_IP_TRAINING: 64
NUM_OF_CRITICAL_IP_TRAINING_TABLE_WAYS: 2
NUM_OF_CRITICAL_IP_TRAINING_TABLE_SETS: 32
WOBBLY_CRITICAL_IP_CACHE_SETS: 32
WOBBLY_CRITICAL_IP_CACHE_WAYS: 4
BTB has LRU replacement policy
ITLB has LRU replacement policy
DTLB has LRU replacement policy
STLB has LRU replacement policy
L1I has LRU replacement policy
IP Table Entries: 64
L1D has LRU replacement policy
Initialize SRRIP state for L2C
Initialize DRRIP state for LLC
Heartbeat CPU 0 instructions: 10000003 cycles: 3119782 heartbeat IPC: 3.20535 cumulative IPC: 3.20535 (Simulation time: 0 hr 4 min 43 sec) 
Heartbeat CPU 0 instructions: 20000000 cycles: 6241300 heartbeat IPC: 3.20357 cumulative IPC: 3.20446 (Simulation time: 0 hr 9 min 18 sec) 
Heartbeat CPU 0 instructions: 30000001 cycles: 9371168 heartbeat IPC: 3.19502 cumulative IPC: 3.20131 (Simulation time: 0 hr 13 min 41 sec) 
Heartbeat CPU 0 instructions: 40000003 cycles: 12497635 heartbeat IPC: 3.1985 cumulative IPC: 3.20061 (Simulation time: 0 hr 17 min 50 sec) 
Heartbeat CPU 0 instructions: 50000003 cycles: 15663004 heartbeat IPC: 3.15919 cumulative IPC: 3.19224 (Simulation time: 0 hr 21 min 55 sec) 

Warmup complete CPU 0 instructions: 50000003 cycles: 15663004 (Simulation time: 0 hr 21 min 55 sec) 

% increase in all ip prefetch 787.204
% increase in all ip prefetch 7.33956
% increase in all ip prefetch -1.38851
Heartbeat CPU 0 instructions: 60000002 cycles: 44083123 heartbeat IPC: 0.351863 cumulative IPC: 0.351863 (Simulation time: 0 hr 27 min 24 sec) 
Heartbeat CPU 0 instructions: 70000000 cycles: 72764145 heartbeat IPC: 0.348663 cumulative IPC: 0.350256 (Simulation time: 0 hr 32 min 31 sec) 
Heartbeat CPU 0 instructions: 80000003 cycles: 101537299 heartbeat IPC: 0.347546 cumulative IPC: 0.349348 (Simulation time: 0 hr 37 min 49 sec) 
Heartbeat CPU 0 instructions: 90000002 cycles: 129029458 heartbeat IPC: 0.36374 cumulative IPC: 0.352838 (Simulation time: 0 hr 42 min 43 sec) 
Heartbeat CPU 0 instructions: 100000003 cycles: 158018680 heartbeat IPC: 0.344956 cumulative IPC: 0.351233 (Simulation time: 0 hr 47 min 23 sec) 
Heartbeat CPU 0 instructions: 110000000 cycles: 184996863 heartbeat IPC: 0.37067 cumulative IPC: 0.35433 (Simulation time: 0 hr 51 min 8 sec) 
Heartbeat CPU 0 instructions: 120000001 cycles: 211684576 heartbeat IPC: 0.374704 cumulative IPC: 0.357104 (Simulation time: 0 hr 53 min 24 sec) 
Heartbeat CPU 0 instructions: 130000000 cycles: 241756796 heartbeat IPC: 0.332533 cumulative IPC: 0.353835 (Simulation time: 0 hr 55 min 24 sec) 
Heartbeat CPU 0 instructions: 140000001 cycles: 271058464 heartbeat IPC: 0.341278 cumulative IPC: 0.352395 (Simulation time: 0 hr 57 min 3 sec) 
Heartbeat CPU 0 instructions: 150000000 cycles: 297199262 heartbeat IPC: 0.382544 cumulative IPC: 0.355194 (Simulation time: 1 hr 2 min 24 sec) 
Finished CPU 0 instructions: 100000000 cycles: 281536259 cumulative IPC: 0.355194 (Simulation time: 1 hr 2 min 24 sec) 

ChampSim completed all CPUs

Region of Interest Statistics

CPU 0 cumulative IPC: 0.355194 instructions: 100000000 cycles: 281536259

CPU 0 Average Load ROB stall cycles: 6.56788e+07
CPU 0 Fraction of times ROB stalled by Loads: 41.5403
CPU 0 Percentage of Load stall cycles in Total stall cycles: 4.5224e+08
Issued all: 186233817
Issued LT all: 175447353
rob_not_full_when_issued_lt_all: 35900249
Issued LT one: 163194738
rob_not_full_when_issued_lt_one: 31299868
 Total stall cycles: 252966882
 Total load stall cycles: 1144016619504786
CPU 0 NUM of IPS identified critical: 0
CPU 0 Num of Load IPs stalling ROB: 3546
Threshold modification factor: -2
Max PIST entries: 64
Min PIST entries: 0
Avg PIST entries: 36.4733
Trouble in retire width: 0.972392
MaC = Marked as critical.
lt_50_percent_before_Mac: 0
gt_90_percent_before_Mac: 0
gt_75_percent_before_Mac: 0
gt_50_percent_before_Mac: 0
stall_proportion_bin_same_before_after: 0
stall_proportion_bin_lower_before_after: 0
stall_proportion_bin_upper_before_after: 0
average_stall_proportion_before: -nan
average_stall_proportion_after: -nan
Critical IP stalls, total frequency: 0
Non-critical IP stalls, total frequency: 7235639
Total Freq all stalling IPs: 7235639
stat_90_percent_critical_ip_stalls_freq: 6513249
stat_90_percent_non_critical_ip_stalls_freq: 722390
Critical_IP_ROB_Stalls_Bucket_0: 0
Non-critical_IP_ROB_Stalls_Bucket_0: 2233118
Critical_IP_ROB_Stalls_Bucket_1: 0
Non-critical_IP_ROB_Stalls_Bucket_1: 690161
Critical_IP_ROB_Stalls_Bucket_2: 0
Non-critical_IP_ROB_Stalls_Bucket_2: 272361
Critical_IP_ROB_Stalls_Bucket_3: 0
Non-critical_IP_ROB_Stalls_Bucket_3: 139762
Critical_IP_ROB_Stalls_Bucket_4: 0
Non-critical_IP_ROB_Stalls_Bucket_4: 135447
Critical_IP_ROB_Stalls_Bucket_5: 0
Non-critical_IP_ROB_Stalls_Bucket_5: 396827
Critical_IP_ROB_Stalls_Bucket_6: 0
Non-critical_IP_ROB_Stalls_Bucket_6: 3367963
0 => IPs accounting for >50 percent of stalls, 1 => 55, 2 => 60, 3 => 65 and so on till 90.
percent50: 50.0711 num IPs:  13
percent55: 55.0211 num IPs: 17
percent60: 60.2736 num IPs: 30
percent65: 65.0115 num IPs: 47
percent70: 70.1655 num IPs: 67
percent75: 75.0157 num IPs: 97
percent80: 80.011 num IPs: 148
percent85: 85.0217 num IPs: 265
percent90: 90.0163 num IPs: 512
Critical_ROB_Stalls_Percent_0_Bucket_0: 407960
Non-critical_ROB_Stalls_Percent_0_Bucket_0: 1825158
Critical_ROB_Stalls_Percent_0_Bucket_1: 278983
Non-critical_ROB_Stalls_Percent_0_Bucket_1: 411178
Critical_ROB_Stalls_Percent_0_Bucket_2: 112568
Non-critical_ROB_Stalls_Percent_0_Bucket_2: 159793
Critical_ROB_Stalls_Percent_0_Bucket_3: 55012
Non-critical_ROB_Stalls_Percent_0_Bucket_3: 84750
Critical_ROB_Stalls_Percent_0_Bucket_4: 76219
Non-critical_ROB_Stalls_Percent_0_Bucket_4: 59228
Critical_ROB_Stalls_Percent_0_Bucket_5: 330675
Non-critical_ROB_Stalls_Percent_0_Bucket_5: 66152
Critical_ROB_Stalls_Percent_0_Bucket_6: 2361548
Non-critical_ROB_Stalls_Percent_0_Bucket_6: 1006415
Critical_ROB_Stalls_Percent_1_Bucket_0: 476927
Non-critical_ROB_Stalls_Percent_1_Bucket_0: 1756191
Critical_ROB_Stalls_Percent_1_Bucket_1: 291638
Non-critical_ROB_Stalls_Percent_1_Bucket_1: 398523
Critical_ROB_Stalls_Percent_1_Bucket_2: 122273
Non-critical_ROB_Stalls_Percent_1_Bucket_2: 150088
Critical_ROB_Stalls_Percent_1_Bucket_3: 60244
Non-critical_ROB_Stalls_Percent_1_Bucket_3: 79518
Critical_ROB_Stalls_Percent_1_Bucket_4: 85427
Non-critical_ROB_Stalls_Percent_1_Bucket_4: 50020
Critical_ROB_Stalls_Percent_1_Bucket_5: 335806
Non-critical_ROB_Stalls_Percent_1_Bucket_5: 61021
Critical_ROB_Stalls_Percent_1_Bucket_6: 2608814
Non-critical_ROB_Stalls_Percent_1_Bucket_6: 759149
Critical_ROB_Stalls_Percent_2_Bucket_0: 741444
Non-critical_ROB_Stalls_Percent_2_Bucket_0: 1491674
Critical_ROB_Stalls_Percent_2_Bucket_1: 302710
Non-critical_ROB_Stalls_Percent_2_Bucket_1: 387451
Critical_ROB_Stalls_Percent_2_Bucket_2: 131559
Non-critical_ROB_Stalls_Percent_2_Bucket_2: 140802
Critical_ROB_Stalls_Percent_2_Bucket_3: 68864
Non-critical_ROB_Stalls_Percent_2_Bucket_3: 70898
Critical_ROB_Stalls_Percent_2_Bucket_4: 89203
Non-critical_ROB_Stalls_Percent_2_Bucket_4: 46244
Critical_ROB_Stalls_Percent_2_Bucket_5: 344109
Non-critical_ROB_Stalls_Percent_2_Bucket_5: 52718
Critical_ROB_Stalls_Percent_2_Bucket_6: 2683294
Non-critical_ROB_Stalls_Percent_2_Bucket_6: 684669
Critical_ROB_Stalls_Percent_3_Bucket_0: 814463
Non-critical_ROB_Stalls_Percent_3_Bucket_0: 1418655
Critical_ROB_Stalls_Percent_3_Bucket_1: 311629
Non-critical_ROB_Stalls_Percent_3_Bucket_1: 378532
Critical_ROB_Stalls_Percent_3_Bucket_2: 141853
Non-critical_ROB_Stalls_Percent_3_Bucket_2: 130508
Critical_ROB_Stalls_Percent_3_Bucket_3: 77833
Non-critical_ROB_Stalls_Percent_3_Bucket_3: 61929
Critical_ROB_Stalls_Percent_3_Bucket_4: 93236
Non-critical_ROB_Stalls_Percent_3_Bucket_4: 42211
Critical_ROB_Stalls_Percent_3_Bucket_5: 355654
Non-critical_ROB_Stalls_Percent_3_Bucket_5: 41173
Critical_ROB_Stalls_Percent_3_Bucket_6: 2909332
Non-critical_ROB_Stalls_Percent_3_Bucket_6: 458631
Critical_ROB_Stalls_Percent_4_Bucket_0: 853787
Non-critical_ROB_Stalls_Percent_4_Bucket_0: 1379331
Critical_ROB_Stalls_Percent_4_Bucket_1: 322823
Non-critical_ROB_Stalls_Percent_4_Bucket_1: 367338
Critical_ROB_Stalls_Percent_4_Bucket_2: 160662
Non-critical_ROB_Stalls_Percent_4_Bucket_2: 111699
Critical_ROB_Stalls_Percent_4_Bucket_3: 92984
Non-critical_ROB_Stalls_Percent_4_Bucket_3: 46778
Critical_ROB_Stalls_Percent_4_Bucket_4: 101716
Non-critical_ROB_Stalls_Percent_4_Bucket_4: 33731
Critical_ROB_Stalls_Percent_4_Bucket_5: 374563
Non-critical_ROB_Stalls_Percent_4_Bucket_5: 22264
Critical_ROB_Stalls_Percent_4_Bucket_6: 3170385
Non-critical_ROB_Stalls_Percent_4_Bucket_6: 197578
Critical_ROB_Stalls_Percent_5_Bucket_0: 1046711
Non-critical_ROB_Stalls_Percent_5_Bucket_0: 1186407
Critical_ROB_Stalls_Percent_5_Bucket_1: 351787
Non-critical_ROB_Stalls_Percent_5_Bucket_1: 338374
Critical_ROB_Stalls_Percent_5_Bucket_2: 178781
Non-critical_ROB_Stalls_Percent_5_Bucket_2: 93580
Critical_ROB_Stalls_Percent_5_Bucket_3: 101808
Non-critical_ROB_Stalls_Percent_5_Bucket_3: 37954
Critical_ROB_Stalls_Percent_5_Bucket_4: 109198
Non-critical_ROB_Stalls_Percent_5_Bucket_4: 26249
Critical_ROB_Stalls_Percent_5_Bucket_5: 380579
Non-critical_ROB_Stalls_Percent_5_Bucket_5: 16248
Critical_ROB_Stalls_Percent_5_Bucket_6: 3259005
Non-critical_ROB_Stalls_Percent_5_Bucket_6: 108958
Critical_ROB_Stalls_Percent_6_Bucket_0: 1317820
Non-critical_ROB_Stalls_Percent_6_Bucket_0: 915298
Critical_ROB_Stalls_Percent_6_Bucket_1: 371136
Non-critical_ROB_Stalls_Percent_6_Bucket_1: 319025
Critical_ROB_Stalls_Percent_6_Bucket_2: 192301
Non-critical_ROB_Stalls_Percent_6_Bucket_2: 80060
Critical_ROB_Stalls_Percent_6_Bucket_3: 109542
Non-critical_ROB_Stalls_Percent_6_Bucket_3: 30220
Critical_ROB_Stalls_Percent_6_Bucket_4: 113096
Non-critical_ROB_Stalls_Percent_6_Bucket_4: 22351
Critical_ROB_Stalls_Percent_6_Bucket_5: 383280
Non-critical_ROB_Stalls_Percent_6_Bucket_5: 13547
Critical_ROB_Stalls_Percent_6_Bucket_6: 3302134
Non-critical_ROB_Stalls_Percent_6_Bucket_6: 65829
Critical_ROB_Stalls_Percent_7_Bucket_0: 1544177
Non-critical_ROB_Stalls_Percent_7_Bucket_0: 688941
Critical_ROB_Stalls_Percent_7_Bucket_1: 440073
Non-critical_ROB_Stalls_Percent_7_Bucket_1: 250088
Critical_ROB_Stalls_Percent_7_Bucket_2: 202713
Non-critical_ROB_Stalls_Percent_7_Bucket_2: 69648
Critical_ROB_Stalls_Percent_7_Bucket_3: 114937
Non-critical_ROB_Stalls_Percent_7_Bucket_3: 24825
Critical_ROB_Stalls_Percent_7_Bucket_4: 117547
Non-critical_ROB_Stalls_Percent_7_Bucket_4: 17900
Critical_ROB_Stalls_Percent_7_Bucket_5: 386907
Non-critical_ROB_Stalls_Percent_7_Bucket_5: 9920
Critical_ROB_Stalls_Percent_7_Bucket_6: 3345513
Non-critical_ROB_Stalls_Percent_7_Bucket_6: 22450
Critical_ROB_Stalls_Percent_8_Bucket_0: 1787852
Non-critical_ROB_Stalls_Percent_8_Bucket_0: 445266
Critical_ROB_Stalls_Percent_8_Bucket_1: 516555
Non-critical_ROB_Stalls_Percent_8_Bucket_1: 173606
Critical_ROB_Stalls_Percent_8_Bucket_2: 222032
Non-critical_ROB_Stalls_Percent_8_Bucket_2: 50329
Critical_ROB_Stalls_Percent_8_Bucket_3: 124270
Non-critical_ROB_Stalls_Percent_8_Bucket_3: 15492
Critical_ROB_Stalls_Percent_8_Bucket_4: 120539
Non-critical_ROB_Stalls_Percent_8_Bucket_4: 14908
Critical_ROB_Stalls_Percent_8_Bucket_5: 388484
Non-critical_ROB_Stalls_Percent_8_Bucket_5: 8343
Critical_ROB_Stalls_Percent_8_Bucket_6: 3353517
Non-critical_ROB_Stalls_Percent_8_Bucket_6: 14446
Average ROB occupancy Load Stall Begin: 191.804
Average ROB occupancy Load Stall End: 198.828
Min ROB occupancy Load Stall Begin: 1
Max ROB occupancy Load Stall Begin: 352
Min ROB occupancy Load Stall End: 1
Max ROB occupancy Load Stall End: 352
Average ROB occupancy Critical Load Stall Begin: -nan
Average ROB occupancy Critical Load Stall End: -nan
Min ROB occupancy Critical Load Stall Begin: 400
Max ROB occupancy Critical Load Stall Begin: 0
Min ROB occupancy Critical Load Stall End: 400
Max ROB occupancy Critical Load Stall End: 0
 ROB Load Stall Begin Bucket Count 0: 2387784
 ROB Load Stall End Bucket Count 0: 2233118
 ROB Critical Load Stall Begin Bucket Count 0: 0
 ROB Critical Load Stall End Bucket Count 0: 0
 ROB Load Stall Begin Bucket Count 1: 615902
 ROB Load Stall End Bucket Count 1: 690161
 ROB Critical Load Stall Begin Bucket Count 1: 0
 ROB Critical Load Stall End Bucket Count 1: 0
 ROB Load Stall Begin Bucket Count 2: 236465
 ROB Load Stall End Bucket Count 2: 272361
 ROB Critical Load Stall Begin Bucket Count 2: 0
 ROB Critical Load Stall End Bucket Count 2: 0
 ROB Load Stall Begin Bucket Count 3: 129871
 ROB Load Stall End Bucket Count 3: 139762
 ROB Critical Load Stall Begin Bucket Count 3: 0
 ROB Critical Load Stall End Bucket Count 3: 0
 ROB Load Stall Begin Bucket Count 4: 132469
 ROB Load Stall End Bucket Count 4: 135447
 ROB Critical Load Stall Begin Bucket Count 4: 0
 ROB Critical Load Stall End Bucket Count 4: 0
 ROB Load Stall Begin Bucket Count 5: 670585
 ROB Load Stall End Bucket Count 5: 396827
 ROB Critical Load Stall Begin Bucket Count 5: 0
 ROB Critical Load Stall End Bucket Count 5: 0
 ROB Load Stall Begin Bucket Count 6: 3062563
 ROB Load Stall End Bucket Count 6: 3367963
 ROB Critical Load Stall Begin Bucket Count 6: 0
 ROB Critical Load Stall End Bucket Count 6: 0
PIST Tag Read Accesses: 3226126
PIST Read Accesses: 1613063
PIST Tag Write Accesses: 3226126
PIST Write Accesses: 1613063
Criticality detector called times: 2932773
Max global_stall_cycles_count: 9779721
Threshold Modified: 2 times, factor: -2
Sturdy critical IP cache stats: 
 Unused entries: 0
CIC Tag Read Accesses: 0
CIC Read Accesses: 0
CIC Tag Write Accesses: 0
CIC Write Accesses: 0
Wobbly critical IP cache stats: 
 Unused entries: 79
CIC Tag Read Accesses: 201880891
CIC Read Accesses: 0
CIC Tag Write Accesses: 10082972
CIC Write Accesses: 0
ITLB TOTAL     ACCESS:   16441387  HIT:   16375442  MISS:      65945  HIT %:    99.5989  MISS %:   0.401091   MPKI: 0.65945
ITLB LOAD TRANSLATION ACCESS:   16441387  HIT:   16375442  MISS:      65945  HIT %:    99.5989  MISS %:   0.401091   MPKI: 0.65945
ITLB PREFETCH  REQUESTED:          0  ISSUED:          0  USEFUL:          0  USELESS:          0
ITLB USEFUL LOAD PREFETCHES:          0 PREFETCH ISSUED TO LOWER LEVEL:          0  ACCURACY: -nan
ITLB TIMELY PREFETCHES:          0 LATE PREFETCHES: 0 DROPPED PREFETCHES: 0
ITLB PREFETCHES SAME FILL-ORIGIN LEVEL: 0 DIFFERENT FILL-ORIGIN LEVEL: 0
ITLB AVERAGE MISS LATENCY: 16.4489 cycles
ITLB RQ	ACCESS:   19336932	FORWARD:          0	MERGED:    2878809	TO_CACHE:   16458123

DTLB TOTAL     ACCESS:   18399958  HIT:   17742295  MISS:     657663  HIT %:    96.4257  MISS %:    3.57426   MPKI: 6.57663
DTLB LOAD TRANSLATION ACCESS:   18399958  HIT:   17742295  MISS:     657663  HIT %:    96.4257  MISS %:    3.57426   MPKI: 6.57663
DTLB PREFETCH  REQUESTED:          0  ISSUED:          0  USEFUL:          0  USELESS:          0
DTLB USEFUL LOAD PREFETCHES:          0 PREFETCH ISSUED TO LOWER LEVEL:          0  ACCURACY: -nan
DTLB TIMELY PREFETCHES:          0 LATE PREFETCHES: 0 DROPPED PREFETCHES: 0
DTLB PREFETCHES SAME FILL-ORIGIN LEVEL: 0 DIFFERENT FILL-ORIGIN LEVEL: 0
DTLB AVERAGE MISS LATENCY: 53.1579 cycles
DTLB RQ	ACCESS:   20855869	FORWARD:          0	MERGED:    2354339	TO_CACHE:   18501530

STLB TOTAL     ACCESS:    2607192  HIT:    2126063  MISS:     481129  HIT %:    81.5461  MISS %:    18.4539   MPKI: 4.81129
STLB LOAD TRANSLATION ACCESS:     723608  HIT:     242492  MISS:     481116  HIT %:    33.5115  MISS %:    66.4885   MPKI: 4.81116
STLB TRANSLATION FROM L1D PREFETCHER ACCESS:    1883584  HIT:    1883571  MISS:         13  HIT %:    99.9993  MISS %: 0.000690174   MPKI: 0.00013
STLB PREFETCH  REQUESTED:          0  ISSUED:          0  USEFUL:         13  USELESS:          0
STLB USEFUL LOAD PREFETCHES:         13 PREFETCH ISSUED TO LOWER LEVEL:          0  ACCURACY: inf
STLB TIMELY PREFETCHES:         13 LATE PREFETCHES: 0 DROPPED PREFETCHES: 0
STLB PREFETCHES SAME FILL-ORIGIN LEVEL: 0 DIFFERENT FILL-ORIGIN LEVEL: 0
STLB AVERAGE MISS LATENCY: 61.3372 cycles
STLB RQ	ACCESS:    3418714	FORWARD:          0	MERGED:     811522	TO_CACHE:    2607192

STLB Hit, L1D data hit: 0
STLB Hit, L2C data hit: 0
STLB Hit, LLC data hit: 0
STLB Hit, LLC data miss: 0
STLB STLB hints to L2: 0
L1D TOTAL     ACCESS:   22624080  HIT:   18689031  MISS:    3935049  HIT %:    82.6068  MISS %:    17.3932   MPKI: 39.3505
L1D LOAD      ACCESS:   15711123  HIT:   13483069  MISS:    2228054  HIT %:    85.8186  MISS %:    14.1814   MPKI: 22.2805
L1D RFO       ACCESS:    4781814  HIT:    4740271  MISS:      41543  HIT %:    99.1312  MISS %:   0.868771   MPKI: 0.41543
L1D PREFETCH  ACCESS:    2131143  HIT:     465691  MISS:    1665452  HIT %:    21.8517  MISS %:    78.1483   MPKI: 16.6545
L1D PREFETCH  REQUESTED:    5390229  ISSUED:    5390212  USEFUL:     386481  USELESS:    1278919
L1D USEFUL LOAD PREFETCHES:     386481 PREFETCH ISSUED TO LOWER LEVEL:    1771422  ACCURACY: 21.8176
L1D TIMELY PREFETCHES:     386481 LATE PREFETCHES: 105925 DROPPED PREFETCHES: 0
L1D PREFETCHES SAME FILL-ORIGIN LEVEL: 1771422 DIFFERENT FILL-ORIGIN LEVEL: 0
L1D AVERAGE MISS LATENCY: 4.17219e+06 cycles
L1D RQ	ACCESS:   29318422	FORWARD:          0	MERGED:   12928383	TO_CACHE:   15959047
L1D WQ	ACCESS:    4982653	FORWARD:     430992	MERGED:      85831	TO_CACHE:    4896822
L1D PQ	ACCESS:    2695106	FORWARD:          0	MERGED:          0	TO_CACHE:    2695106

L1D UNIQUE REGIONS ACCESSED: 0
L1D REGIONS CONFLICTS: 0
L1D Cross Page Prefetch Requests: 0
L1D Same Page Prefetch Requests: 4306315
L1D ROI Sum of L1D PQ occupancy: 34889739
L1D PREFETCHES PUSHED FROM L2C: 0
L1I TOTAL     ACCESS:   19225547  HIT:   18868545  MISS:     357002  HIT %:    98.1431  MISS %:    1.85691   MPKI: 3.57002
L1I LOAD      ACCESS:   19225547  HIT:   18868545  MISS:     357002  HIT %:    98.1431  MISS %:    1.85691   MPKI: 3.57002
L1I PREFETCH  REQUESTED:          0  ISSUED:          0  USEFUL:          0  USELESS:          0
L1I USEFUL LOAD PREFETCHES:          0 PREFETCH ISSUED TO LOWER LEVEL:          0  ACCURACY: -nan
L1I TIMELY PREFETCHES:          0 LATE PREFETCHES: 0 DROPPED PREFETCHES: 0
L1I PREFETCHES SAME FILL-ORIGIN LEVEL: 0 DIFFERENT FILL-ORIGIN LEVEL: 0
L1I AVERAGE MISS LATENCY: 26.4851 cycles
L1I RQ	ACCESS:   33041276	FORWARD:          0	MERGED:   13704344	TO_CACHE:   19336932

BTB TOTAL     ACCESS:   16568657  HIT:   16408086  MISS:     160571  HIT %:    99.0309  MISS %:   0.969125   MPKI: 1.60571
BTB BRANCH_DIRECT_JUMP	ACCESS:     263115  HIT:     262050  MISS:       1065
BTB BRANCH_INDIRECT	ACCESS:      46555  HIT:      18645  MISS:      27910
BTB BRANCH_CONDITIONAL	ACCESS:   13898878  HIT:   13893773  MISS:       5105
BTB BRANCH_DIRECT_CALL	ACCESS:     652098  HIT:     650142  MISS:       1956
BTB BRANCH_INDIRECT_CALL	ACCESS:     527959  HIT:     521714  MISS:       6245
BTB BRANCH_RETURN	ACCESS:    1180052  HIT:    1061762  MISS:     118290
BTB BRANCH_OTHER ACCESS:          0  HIT:          0  MISS:          0

L2C TOTAL     ACCESS:    4858601  HIT:    1061113  MISS:    3797488  HIT %:    21.8399  MISS %:    78.1601   MPKI: 37.9749
L2C LOAD      ACCESS:    2479130  HIT:     490421  MISS:    1988709  HIT %:     19.782  MISS %:     80.218   MPKI: 19.8871
L2C DATA LOAD MPKI: 19.2476
L2C INSTRUCTION LOAD MPKI: 0.63945
L2C RFO       ACCESS:      41492  HIT:      14885  MISS:      26607  HIT %:    35.8744  MISS %:    64.1256   MPKI: 0.26607
L2C PREFETCH  ACCESS:    1776257  HIT:     108733  MISS:    1667524  HIT %:    6.12147  MISS %:    93.8785   MPKI: 16.6752
L2C DATA PREFETCH MPKI: 16.6752
L2C INSTRUCTION PREFETCH MPKI: 0
L2C WRITEBACK ACCESS:      78409  HIT:      77806  MISS:        603  HIT %:     99.231  MISS %:   0.769044   MPKI: 0.00603
L2C LOAD TRANSLATION ACCESS:     483299  HIT:     369257  MISS:     114042  HIT %:    76.4034  MISS %:    23.5966   MPKI: 1.14042
L2C TRANSLATION FROM L1D PREFETCHER ACCESS:         14  HIT:         11  MISS:          3  HIT %:    78.5714  MISS %:    21.4286   MPKI: 3e-05
L2C PREFETCH  REQUESTED:       5154  ISSUED:       5154  USEFUL:      10264  USELESS:    1657465
L2C USEFUL LOAD PREFETCHES:      10264 PREFETCH ISSUED TO LOWER LEVEL:    1667583  ACCURACY: 0.615502
L2C TIMELY PREFETCHES:      10264 LATE PREFETCHES: 59 DROPPED PREFETCHES: 0
L2C PREFETCHES SAME FILL-ORIGIN LEVEL: 1503 DIFFERENT FILL-ORIGIN LEVEL: 0
L2C AVERAGE MISS LATENCY: 99.9825 cycles
L2C RQ	ACCESS:    3003942	FORWARD:          0	MERGED:          0	TO_CACHE:    3003935
L2C WQ	ACCESS:      78409	FORWARD:          7	MERGED:          0	TO_CACHE:      78409
L2C PQ	ACCESS:    1776576	FORWARD:          0	MERGED:        129	TO_CACHE:    1776447

L2C Instructions Evicting Data 61426
L2C Translations Evicting Data 109004
L2C Data Evicting Data 3448140
L2C Instructions Evicting Instructions 1094
L2C Translations Evicting Instructions 1527
L2C Data Evicting Instructions 61025
L2C Instructions Evicting Translations 1425
L2C Translations Evicting Translations 3514
L2C Data Evicting Translations 109730
L2C Dense regions hint from L2: 0
PSCL5 TOTAL     ACCESS:     481129  HIT:     481129  MISS:          0  HIT %:        100  MISS %:          0   MPKI: 0
PSCL5 LOAD TRANSLATION ACCESS:     481116  HIT:     481116  MISS:          0  HIT %:        100  MISS %:          0   MPKI: 0
PSCL5 TRANSLATION FROM L1D PREFETCHER ACCESS:         13  HIT:         13  MISS:          0  HIT %:        100  MISS %:          0   MPKI: 0
PSCL5 PREFETCH  REQUESTED:          0  ISSUED:          0  USEFUL:          0  USELESS:          0
PSCL5 USEFUL LOAD PREFETCHES:          0 PREFETCH ISSUED TO LOWER LEVEL:          0  ACCURACY: -nan
PSCL5 TIMELY PREFETCHES:          0 LATE PREFETCHES: 0 DROPPED PREFETCHES: 0
PSCL5 PREFETCHES SAME FILL-ORIGIN LEVEL: 0 DIFFERENT FILL-ORIGIN LEVEL: 0

PSCL4 TOTAL     ACCESS:     481129  HIT:     481129  MISS:          0  HIT %:        100  MISS %:          0   MPKI: 0
PSCL4 LOAD TRANSLATION ACCESS:     481116  HIT:     481116  MISS:          0  HIT %:        100  MISS %:          0   MPKI: 0
PSCL4 TRANSLATION FROM L1D PREFETCHER ACCESS:         13  HIT:         13  MISS:          0  HIT %:        100  MISS %:          0   MPKI: 0
PSCL4 PREFETCH  REQUESTED:          0  ISSUED:          0  USEFUL:          0  USELESS:          0
PSCL4 USEFUL LOAD PREFETCHES:          0 PREFETCH ISSUED TO LOWER LEVEL:          0  ACCURACY: -nan
PSCL4 TIMELY PREFETCHES:          0 LATE PREFETCHES: 0 DROPPED PREFETCHES: 0
PSCL4 PREFETCHES SAME FILL-ORIGIN LEVEL: 0 DIFFERENT FILL-ORIGIN LEVEL: 0

PSCL3 TOTAL     ACCESS:     481129  HIT:     481129  MISS:          0  HIT %:        100  MISS %:          0   MPKI: 0
PSCL3 LOAD TRANSLATION ACCESS:     481116  HIT:     481116  MISS:          0  HIT %:        100  MISS %:          0   MPKI: 0
PSCL3 TRANSLATION FROM L1D PREFETCHER ACCESS:         13  HIT:         13  MISS:          0  HIT %:        100  MISS %:          0   MPKI: 0
PSCL3 PREFETCH  REQUESTED:          0  ISSUED:          0  USEFUL:          0  USELESS:          0
PSCL3 USEFUL LOAD PREFETCHES:          0 PREFETCH ISSUED TO LOWER LEVEL:          0  ACCURACY: -nan
PSCL3 TIMELY PREFETCHES:          0 LATE PREFETCHES: 0 DROPPED PREFETCHES: 0
PSCL3 PREFETCHES SAME FILL-ORIGIN LEVEL: 0 DIFFERENT FILL-ORIGIN LEVEL: 0

PSCL2 TOTAL     ACCESS:     481129  HIT:     478945  MISS:       2184  HIT %:    99.5461  MISS %:   0.453932   MPKI: 0.02184
PSCL2 LOAD TRANSLATION ACCESS:     481117  HIT:     478933  MISS:       2184  HIT %:    99.5461  MISS %:   0.453944   MPKI: 0.02184
PSCL2 TRANSLATION FROM L1D PREFETCHER ACCESS:         12  HIT:         12  MISS:          0  HIT %:        100  MISS %:          0   MPKI: 0
PSCL2 PREFETCH  REQUESTED:          0  ISSUED:          0  USEFUL:          0  USELESS:          0
PSCL2 USEFUL LOAD PREFETCHES:          0 PREFETCH ISSUED TO LOWER LEVEL:          0  ACCURACY: -nan
PSCL2 TIMELY PREFETCHES:          0 LATE PREFETCHES: 0 DROPPED PREFETCHES: 0
PSCL2 PREFETCHES SAME FILL-ORIGIN LEVEL: 0 DIFFERENT FILL-ORIGIN LEVEL: 0

LLC TOTAL     ACCESS:    3835893  HIT:    1454703  MISS:    2381190  HIT %:    37.9235  MISS %:    62.0765   MPKI: 23.8119
LLC LOAD      ACCESS:    1988655  HIT:     829940  MISS:    1158715  HIT %:    41.7337  MISS %:    58.2663   MPKI: 11.5871
LLC RFO       ACCESS:      26602  HIT:       6646  MISS:      19956  HIT %:    24.9831  MISS %:    75.0169   MPKI: 0.19956
LLC PREFETCH  ACCESS:    1667583  HIT:     557018  MISS:    1110565  HIT %:    33.4027  MISS %:    66.5973   MPKI: 11.1057
LLC WRITEBACK ACCESS:      39008  HIT:      16197  MISS:      22811  HIT %:    41.5223  MISS %:    58.4777   MPKI: 0.22811
LLC LOAD TRANSLATION ACCESS:     114042  HIT:      44901  MISS:      69141  HIT %:    39.3723  MISS %:    60.6277   MPKI: 0.69141
LLC TRANSLATION FROM L1D PREFETCHER ACCESS:          3  HIT:          1  MISS:          2  HIT %:    33.3333  MISS %:    66.6667   MPKI: 2e-05
LLC PREFETCH  REQUESTED:          0  ISSUED:          0  USEFUL:       1432  USELESS:    1110265
LLC USEFUL LOAD PREFETCHES:       1432 PREFETCH ISSUED TO LOWER LEVEL:    1110565  ACCURACY: 0.128943
LLC TIMELY PREFETCHES:       1432 LATE PREFETCHES: 0 DROPPED PREFETCHES: 0
LLC PREFETCHES SAME FILL-ORIGIN LEVEL: 0 DIFFERENT FILL-ORIGIN LEVEL: 0
LLC AVERAGE MISS LATENCY: 111.611 cycles
LLC RQ	ACCESS:    2129302	FORWARD:          0	MERGED:          0	TO_CACHE:    2129302
LLC WQ	ACCESS:      39008	FORWARD:          0	MERGED:          0	TO_CACHE:      39008
LLC PQ	ACCESS:    1667583	FORWARD:          0	MERGED:          0	TO_CACHE:    1667583

LLC Dense regions hint to LLC: 0

RAW hits: 151087
Loads Generated: 29469509
Loads sent to L1D: 29318422
Stores Generated: 4982647
Stores sent to L1D: 4982653
Major fault: 0 Minor fault: 11236
Allocated PAGES: 11236

stream: 
stream:times selected: 5360278
stream:pref_filled: 2146248
stream:pref_useful: 434105
stream:pref_late: 148229
stream:misses: 886701
stream:misses_by_poll: 0

CS: 
CS:times selected: 159429
CS:pref_filled: 171605
CS:pref_useful: 112004
CS:pref_late: 1078
CS:misses: 25907
CS:misses_by_poll: 191

CPLX: 
CPLX:times selected: 5149615
CPLX:pref_filled: 260248
CPLX:pref_useful: 37121
CPLX:pref_late: 2157
CPLX:misses: 2458273
CPLX:misses_by_poll: 300

NL_L1: 
NL:times selected: 43972
NL:pref_filled: 21902
NL:pref_useful: 4935
NL:pref_late: 2352
NL:misses: 31236
NL:misses_by_poll: 0

total selections: 10713294
total_filled: 1665452
total_useful: 386481
total_late: 157479
total_polluted: 491
total_misses_after_warmup: 2306062
conflicts: 526483
Degree Incremented Times: 2503
Degree Decremented Times: 251519

L1 IP Table Write Accesses: 9257399
L1 IP Table Read Accesses: 8730916
L1 RST Write Accesses: 3120836
L1 RST Read Accesses: 6241672
L1 CSPT Write Accesses: 3120836
L1 CSPT Read Accesses: 6104100
L1 RR Filter Tag Write Accesses: 2695123
L1 RR Filter Tag Read Accesses: 110869277
L1 IP Table Tag Write Accesses: 11308253
L1 IP Table Tag Read Accesses: 11308253
L1 RST Tag Write Accesses: 0
L1 RST Tag Read Accesses: 28130094
L1 RR Filter Write Accesses: 0
L1 RR Filter Read Accesses: 3600471
test: 3449830
L2 IP Table Read Accesses: 5933608
L2 IP Table Write Accesses: 3958777
L2 IP Table Tag Read Accesses: 2969441
L2 IP Table Tag Write Accesses: 2969441

DRAM Statistics
 CHANNEL 0
 RQ ROW_BUFFER_HIT:    1522925  ROW_BUFFER_MISS:     835454
 DBUS_CONGESTED:        516
 WQ ROW_BUFFER_HIT:       3551  ROW_BUFFER_MISS:      20935  FULL:          0

 AVG_CONGESTED_CYCLE: 4
 All warmup complete: 2
Channel 0 Bank busy for read cycles: 0
Channel 0 Bank busy for write cycles: 0
Channel 0
Rank 0
0banks busy for read cycles: 166867641
0banks busy for write cycles: 20237
1banks busy for read cycles: 57963052
1banks busy for write cycles: 4026594
2banks busy for read cycles: 28750721
2banks busy for write cycles: 468795
3banks busy for read cycles: 12780294
3banks busy for write cycles: 101108
4banks busy for read cycles: 6458286
4banks busy for write cycles: 23328
5banks busy for read cycles: 2965212
5banks busy for write cycles: 7166
6banks busy for read cycles: 798086
6banks busy for write cycles: 2611
7banks busy for read cycles: 205396
7banks busy for write cycles: 576
8banks busy for read cycles: 97157
8banks busy for write cycles: 0

CPU 0 Branch Prediction Accuracy: 99.7242% MPKI: 0.71311 Average ROB Occupancy at Mispredict: 117.759
Branch types
NOT_BRANCH: 74147149 74.1471%
BRANCH_DIRECT_JUMP: 263115 0.263115%
BRANCH_INDIRECT: 46555 0.046555%
BRANCH_CONDITIONAL: 23183103 23.1831%
BRANCH_DIRECT_CALL: 652098 0.652098%
BRANCH_INDIRECT_CALL: 527959 0.527959%
BRANCH_RETURN: 1180052 1.18005%
BRANCH_OTHER: 0 0%

DRAM PAGES: 1048576
Allocated PAGES: 11236
