Initialize SIGNATURE TABLE
ST_SET: 1
ST_WAY: 256
ST_TAG_BIT: 16
ST_TAG_MASK: ffff

Initialize PATTERN TABLE
PT_SET: 512
PT_WAY: 4
SIG_DELTA_BIT: 7
C_SIG_BIT: 4
C_DELTA_BIT: 4

Initialize PREFETCH FILTER
FILTER_SET: 1024

Initialize PERCEPTRON
PERC_ENTRIES: 4096
PERC_FEATURES: 9

*** ChampSim Multicore Out-of-Order Simulator ***

Warmup Instructions: 50000000
Simulation Instructions: 100000000
Number of CPUs: 1
LLC sets: 2048
LLC ways: 16
Off-chip DRAM Size: 4096 MB Channels: 1 Width: 64-bit Data Rate: 6400 MT/s
CPU 0 runs ../SPEC2017//623.xalancbmk_s-165B.champsimtrace.xz
.xz
NUM_OF_IPS_IN_CRITICAL_IP_TRAINING: 128
NUM_OF_CRITICAL_IP_TRAINING_TABLE_WAYS: 8
NUM_OF_CRITICAL_IP_TRAINING_TABLE_SETS: 16
BTB has LRU replacement policy
ITLB has LRU replacement policy
DTLB has LRU replacement policy
STLB has LRU replacement policy
L1I has LRU replacement policy
L1D has LRU replacement policy
Initialize SRRIP state for L2C
Initialize DRRIP state for LLC
Heartbeat CPU 0 instructions: 10000000 cycles: 2860502 heartbeat IPC: 3.49589 cumulative IPC: 3.49589 (Simulation time: 0 hr 6 min 0 sec) 
Heartbeat CPU 0 instructions: 20000001 cycles: 5721454 heartbeat IPC: 3.49534 cumulative IPC: 3.49562 (Simulation time: 0 hr 11 min 30 sec) 
Heartbeat CPU 0 instructions: 30000002 cycles: 8573474 heartbeat IPC: 3.50629 cumulative IPC: 3.49917 (Simulation time: 0 hr 16 min 13 sec) 
Heartbeat CPU 0 instructions: 40000003 cycles: 11431634 heartbeat IPC: 3.49875 cumulative IPC: 3.49906 (Simulation time: 0 hr 20 min 35 sec) 
Heartbeat CPU 0 instructions: 50000001 cycles: 14288321 heartbeat IPC: 3.50056 cumulative IPC: 3.49936 (Simulation time: 0 hr 24 min 55 sec) 

Warmup complete CPU 0 instructions: 50000001 cycles: 14288321 (Simulation time: 0 hr 24 min 55 sec) 

% increase in all ip prefetch 278.404
% increase in all ip prefetch 0.153555
Heartbeat CPU 0 instructions: 60000003 cycles: 25725303 heartbeat IPC: 0.874357 cumulative IPC: 0.874357 (Simulation time: 0 hr 29 min 21 sec) 
Heartbeat CPU 0 instructions: 70000001 cycles: 37164433 heartbeat IPC: 0.874192 cumulative IPC: 0.874274 (Simulation time: 0 hr 33 min 33 sec) 
Heartbeat CPU 0 instructions: 80000001 cycles: 48599158 heartbeat IPC: 0.874529 cumulative IPC: 0.874359 (Simulation time: 0 hr 37 min 29 sec) 
Heartbeat CPU 0 instructions: 90000002 cycles: 60037095 heartbeat IPC: 0.874284 cumulative IPC: 0.87434 (Simulation time: 0 hr 40 min 58 sec) 
Heartbeat CPU 0 instructions: 100000001 cycles: 71472962 heartbeat IPC: 0.874442 cumulative IPC: 0.874361 (Simulation time: 0 hr 44 min 3 sec) 
Heartbeat CPU 0 instructions: 110000000 cycles: 82915481 heartbeat IPC: 0.873933 cumulative IPC: 0.874289 (Simulation time: 0 hr 46 min 57 sec) 
Heartbeat CPU 0 instructions: 120000000 cycles: 94346502 heartbeat IPC: 0.874812 cumulative IPC: 0.874364 (Simulation time: 0 hr 49 min 43 sec) 
Heartbeat CPU 0 instructions: 130000002 cycles: 105781041 heartbeat IPC: 0.874544 cumulative IPC: 0.874387 (Simulation time: 0 hr 55 min 21 sec) 
Heartbeat CPU 0 instructions: 140000002 cycles: 117215472 heartbeat IPC: 0.874552 cumulative IPC: 0.874405 (Simulation time: 1 hr 2 min 3 sec) 
Heartbeat CPU 0 instructions: 150000002 cycles: 128649736 heartbeat IPC: 0.874564 cumulative IPC: 0.874421 (Simulation time: 1 hr 8 min 3 sec) 
Finished CPU 0 instructions: 100000001 cycles: 114361415 cumulative IPC: 0.874421 (Simulation time: 1 hr 8 min 3 sec) 

ChampSim completed all CPUs

Region of Interest Statistics

CPU 0 cumulative IPC: 0.874421 instructions: 100000001 cycles: 114361415

CPU 0 Average Load ROB stall cycles: 1.56646e+07
CPU 0 Fraction of times ROB stalled by Loads: 21.7943
CPU 0 Percentage of Load stall cycles in Total stall cycles: 2.7828e+08
 Total stall cycles: 62451374
 Total load stall cycles: 173789375027268
CPU 0 NUM of IPS identified critical: 24

Threshold modification factor: -1
Max PIST entries: 29
Min PIST entries: 0
Avg PIST entries: 8.12
Average ROB occupancy Load Stall Begin: 32.2003
Average ROB occupancy Load Stall End: 35.149
Min ROB occupancy Load Stall Begin: 2
Max ROB occupancy Load Stall Begin: 351
Min ROB occupancy Load Stall End: 2
Max ROB occupancy Load Stall End: 352
Average ROB occupancy Critical Load Stall Begin: 33.4958
Average ROB occupancy Critical Load Stall End: 35.8581
Min ROB occupancy Critical Load Stall Begin: 3
Max ROB occupancy Critical Load Stall Begin: 351
Min ROB occupancy Critical Load Stall End: 3
Max ROB occupancy Critical Load Stall End: 352
 ROB Load Stall Begin Bucket Count 0: 2067891
 ROB Load Stall End Bucket Count 0: 2028839
 ROB Critical Load Stall Begin Bucket Count 0: 1624301
 ROB Critical Load Stall End Bucket Count 0: 1587137
 ROB Load Stall Begin Bucket Count 1: 240323
 ROB Load Stall End Bucket Count 1: 249208
 ROB Critical Load Stall Begin Bucket Count 1: 229846
 ROB Critical Load Stall End Bucket Count 1: 238876
 ROB Load Stall Begin Bucket Count 2: 92692
 ROB Load Stall End Bucket Count 2: 114931
 ROB Critical Load Stall Begin Bucket Count 2: 82161
 ROB Critical Load Stall End Bucket Count 2: 102967
 ROB Load Stall Begin Bucket Count 3: 11382
 ROB Load Stall End Bucket Count 3: 16980
 ROB Critical Load Stall Begin Bucket Count 3: 10420
 ROB Critical Load Stall End Bucket Count 3: 15613
 ROB Load Stall Begin Bucket Count 4: 3210
 ROB Load Stall End Bucket Count 4: 4579
 ROB Critical Load Stall Begin Bucket Count 4: 2784
 ROB Critical Load Stall End Bucket Count 4: 4052
 ROB Load Stall Begin Bucket Count 5: 1576
 ROB Load Stall End Bucket Count 5: 2206
 ROB Critical Load Stall Begin Bucket Count 5: 1486
 ROB Critical Load Stall End Bucket Count 5: 2046
 ROB Load Stall Begin Bucket Count 6: 878
 ROB Load Stall End Bucket Count 6: 1209
 ROB Critical Load Stall Begin Bucket Count 6: 816
 ROB Critical Load Stall End Bucket Count 6: 1123
Threshold Modified: 1 times, factor: -1
ITLB TOTAL     ACCESS:   14251513  HIT:   14251513  MISS:          0  HIT %:        100  MISS %:          0   MPKI: 0
ITLB LOAD TRANSLATION ACCESS:   14251513  HIT:   14251513  MISS:          0  HIT %:        100  MISS %:          0   MPKI: 0
ITLB AVERAGE MISS LATENCY: -nan cycles
ITLB RQ	ACCESS:   18791965	FORWARD:          0	MERGED:    4540452	TO_CACHE:   14251513

DTLB TOTAL     ACCESS:   14594359  HIT:   14558392  MISS:      35967  HIT %:    99.7536  MISS %:   0.246445   MPKI: 0.35967
DTLB LOAD TRANSLATION ACCESS:   14594359  HIT:   14558392  MISS:      35967  HIT %:    99.7536  MISS %:   0.246445   MPKI: 0.35967
DTLB AVERAGE MISS LATENCY: 10.0326 cycles
DTLB RQ	ACCESS:   16081360	FORWARD:          0	MERGED:    1486943	TO_CACHE:   14594417

STLB TOTAL     ACCESS:      35967  HIT:      35849  MISS:        118  HIT %:    99.6719  MISS %:   0.328079   MPKI: 0.00118
STLB LOAD TRANSLATION ACCESS:      35967  HIT:      35849  MISS:        118  HIT %:    99.6719  MISS %:   0.328079   MPKI: 0.00118
STLB AVERAGE MISS LATENCY: 314.593 cycles
STLB RQ	ACCESS:      35967	FORWARD:          0	MERGED:          0	TO_CACHE:      35967

STLB Hit, L1D data hit: 0
STLB Hit, L2C data hit: 0
STLB Hit, LLC data hit: 0
STLB Hit, LLC data miss: 0
STLB STLB hints to L2: 0
L1D TOTAL     ACCESS:   15840973  HIT:   13938763  MISS:    1902210  HIT %:    87.9918  MISS %:    12.0082   MPKI: 19.0221
L1D LOAD      ACCESS:   14529727  HIT:   12628076  MISS:    1901651  HIT %:     86.912  MISS %:     13.088   MPKI: 19.0165
L1D RFO       ACCESS:    1311246  HIT:    1310687  MISS:        559  HIT %:    99.9574  MISS %:  0.0426312   MPKI: 0.00559
L1D AVERAGE MISS LATENCY: 17.6351 cycles
L1D RQ	ACCESS:   29503405	FORWARD:          0	MERGED:   14713311	TO_CACHE:   14769357
L1D WQ	ACCESS:    1312392	FORWARD:      20737	MERGED:        389	TO_CACHE:    1312003

L1D UNIQUE REGIONS ACCESSED: 0
L1D REGIONS CONFLICTS: 0
L1D Cross Page Prefetch Requests: 0
L1D Same Page Prefetch Requests: 0
L1D ROI Sum of L1D PQ occupancy: 0
L1D PREFETCHES PUSHED FROM L2C: 0
L1I TOTAL     ACCESS:   18791964  HIT:   18791964  MISS:          0  HIT %:        100  MISS %:          0   MPKI: 0
L1I LOAD      ACCESS:   18791964  HIT:   18791964  MISS:          0  HIT %:        100  MISS %:          0   MPKI: 0
L1I AVERAGE MISS LATENCY: -nan cycles
L1I RQ	ACCESS:   37612398	FORWARD:          0	MERGED:   18820433	TO_CACHE:   18791965

BTB TOTAL     ACCESS:   16819614  HIT:   16818850  MISS:        764  HIT %:    99.9955  MISS %: 0.00454232   MPKI: 0.00764
BTB BRANCH_DIRECT_JUMP	ACCESS:        864  HIT:        862  MISS:          2
BTB BRANCH_INDIRECT	ACCESS:          0  HIT:          0  MISS:          0
BTB BRANCH_CONDITIONAL	ACCESS:   15520942  HIT:   15520909  MISS:         33
BTB BRANCH_DIRECT_CALL	ACCESS:     325127  HIT:     325114  MISS:         13
BTB BRANCH_INDIRECT_CALL	ACCESS:     323777  HIT:     323771  MISS:          6
BTB BRANCH_RETURN	ACCESS:     648904  HIT:     648194  MISS:        710
BTB BRANCH_OTHER ACCESS:          0  HIT:          0  MISS:          0

L2C TOTAL     ACCESS:    3952825  HIT:    1908975  MISS:    2043850  HIT %:    48.2939  MISS %:    51.7061   MPKI: 20.4385
L2C LOAD      ACCESS:    1901651  HIT:    1788463  MISS:     113188  HIT %:    94.0479  MISS %:    5.95209   MPKI: 1.13188
L2C DATA LOAD MPKI: 1.13188
L2C INSTRUCTION LOAD MPKI: 0
L2C RFO       ACCESS:        559  HIT:        362  MISS:        197  HIT %:    64.7585  MISS %:    35.2415   MPKI: 0.00197
L2C PREFETCH  ACCESS:    2049674  HIT:     119301  MISS:    1930373  HIT %:    5.82049  MISS %:    94.1795   MPKI: 19.3037
L2C DATA PREFETCH MPKI: 19.3037
L2C INSTRUCTION PREFETCH MPKI: 0
L2C WRITEBACK ACCESS:        823  HIT:        820  MISS:          3  HIT %:    99.6355  MISS %:    0.36452   MPKI: 3e-05
L2C LOAD TRANSLATION ACCESS:        118  HIT:         29  MISS:         89  HIT %:    24.5763  MISS %:    75.4237   MPKI: 0.00089
L2C PREFETCH  REQUESTED:    2166363  ISSUED:    2166359  USEFUL:    1788387  USELESS:     142022
L2C USEFUL LOAD PREFETCHES:    1788387 PREFETCH ISSUED TO LOWER LEVEL:    1968581  ACCURACY: 90.8465
L2C TIMELY PREFETCHES:    1788387 LATE PREFETCHES: 37782 DROPPED PREFETCHES: 0
L2C PREFETCHES SAME FILL-ORIGIN LEVEL: 1968155 DIFFERENT FILL-ORIGIN LEVEL: 426
L2C AVERAGE MISS LATENCY: 46.2308 cycles
L2C RQ	ACCESS:    1902328	FORWARD:          0	MERGED:          0	TO_CACHE:    1902328
L2C WQ	ACCESS:        823	FORWARD:          0	MERGED:          0	TO_CACHE:        823
L2C PQ	ACCESS:    2166359	FORWARD:          0	MERGED:      43139	TO_CACHE:    2123220

L2C Instructions Evicting Data0
L2C Translations Evicting Data89
L2C Data Evicting Data2043669
L2C Instructions Evicting Instructions0
L2C Translations Evicting Instructions0
L2C Data Evicting Instructions0
L2C Instructions Evicting Translations0
L2C Translations Evicting Translations0
L2C Data Evicting Translations89
L2C Dense regions hint from L2: 0
PSCL5 TOTAL     ACCESS:        118  HIT:        118  MISS:          0  HIT %:        100  MISS %:          0   MPKI: 0
PSCL5 LOAD TRANSLATION ACCESS:        118  HIT:        118  MISS:          0  HIT %:        100  MISS %:          0   MPKI: 0

PSCL4 TOTAL     ACCESS:        118  HIT:        118  MISS:          0  HIT %:        100  MISS %:          0   MPKI: 0
PSCL4 LOAD TRANSLATION ACCESS:        118  HIT:        118  MISS:          0  HIT %:        100  MISS %:          0   MPKI: 0

PSCL3 TOTAL     ACCESS:        118  HIT:        118  MISS:          0  HIT %:        100  MISS %:          0   MPKI: 0
PSCL3 LOAD TRANSLATION ACCESS:        118  HIT:        118  MISS:          0  HIT %:        100  MISS %:          0   MPKI: 0

PSCL2 TOTAL     ACCESS:        118  HIT:        118  MISS:          0  HIT %:        100  MISS %:          0   MPKI: 0
PSCL2 LOAD TRANSLATION ACCESS:        118  HIT:        118  MISS:          0  HIT %:        100  MISS %:          0   MPKI: 0

LLC TOTAL     ACCESS:    2045092  HIT:    1635094  MISS:     409998  HIT %:    79.9521  MISS %:    20.0479   MPKI: 4.09998
LLC LOAD      ACCESS:      75406  HIT:      62502  MISS:      12904  HIT %:    82.8873  MISS %:    17.1127   MPKI: 0.12904
LLC RFO       ACCESS:        197  HIT:        168  MISS:         29  HIT %:    85.2792  MISS %:    14.7208   MPKI: 0.00029
LLC PREFETCH  ACCESS:    1968576  HIT:    1571655  MISS:     396921  HIT %:    79.8372  MISS %:    20.1628   MPKI: 3.96921
LLC WRITEBACK ACCESS:        824  HIT:        769  MISS:         55  HIT %:    93.3252  MISS %:    6.67476   MPKI: 0.00055
LLC LOAD TRANSLATION ACCESS:         89  HIT:          0  MISS:         89  HIT %:          0  MISS %:        100   MPKI: 0.00089
LLC AVERAGE MISS LATENCY: 82.3311 cycles
LLC RQ	ACCESS:      75692	FORWARD:          0	MERGED:          0	TO_CACHE:      75692
LLC WQ	ACCESS:        824	FORWARD:          0	MERGED:          0	TO_CACHE:        824
LLC PQ	ACCESS:    1968581	FORWARD:          0	MERGED:          0	TO_CACHE:    1968581

LLC Dense regions hint to LLC: 0

RAW hits: 1004
Loads Generated: 29504410
Loads sent to L1D: 29503405
Stores Generated: 1312389
Stores sent to L1D: 1312392
Major fault: 0 Minor fault: 823
Allocated PAGES: 823
------------------
Depth Distribution
------------------
depth 0: 2902
depth 1: 1281
depth 2: 1281
depth 3: 1423
depth 4: 7963
depth 5: 151911
depth 6: 237240
depth 7: 526770
depth 8: 642720
depth 9: 680827
depth 10: 378754
depth 11: 165970
depth 12: 45560
depth 13: 6688
depth 14: 1070
depth 15: 58
depth 16: 10
depth 17: 1
depth 18: 0
depth 19: 0
depth 20: 0
depth 21: 0
depth 22: 0
depth 23: 0
depth 24: 0
depth 25: 0
depth 26: 0
depth 27: 0
depth 28: 0
depth 29: 0
Total: 2852429
------------------
ST read accesses: 1868129
ST write accesses: 33522
PT read accesses: 95115158
PT write accesses: 2795773
FILTER read accesses: 23081804
FILTER write accesses: 8084511
GHR read accesses: 10492098
GHR write accesses: 1772376
PERC read accesses: 680578488
PERC write accesses: 19478841
GHR counter read accesses: 3803302
GHR counter write accesses: 6014207
GHR ip read accesses: 12205695
GHR ip write accesses: 7606604
ST tag read accesses: 748398338
ST tag write accesses: 10632633

DRAM Statistics
 CHANNEL 0
 RQ ROW_BUFFER_HIT:     373574  ROW_BUFFER_MISS:      36369
 DBUS_CONGESTED:          3
 WQ ROW_BUFFER_HIT:         54  ROW_BUFFER_MISS:        359  FULL:          0

 AVG_CONGESTED_CYCLE: 5
 All warmup complete: 2
Channel 0 Bank busy for read cycles: 0
Channel 0 Bank busy for write cycles: 0
Channel 0
Rank 0
0banks busy for read cycles: 103099429
0banks busy for write cycles: 167
1banks busy for read cycles: 6091999
1banks busy for write cycles: 20054
2banks busy for read cycles: 1995873
2banks busy for write cycles: 3840
3banks busy for read cycles: 1161122
3banks busy for write cycles: 3855
4banks busy for read cycles: 711959
4banks busy for write cycles: 3453
5banks busy for read cycles: 474411
5banks busy for write cycles: 2648
6banks busy for read cycles: 354836
6banks busy for write cycles: 1174
7banks busy for read cycles: 262724
7banks busy for write cycles: 1104
8banks busy for read cycles: 172381
8banks busy for write cycles: 387

CPU 0 Branch Prediction Accuracy: 99.9967% MPKI: 0.00917 Average ROB Occupancy at Mispredict: 92.7699
Branch types
NOT_BRANCH: 72112488 72.1125%
BRANCH_DIRECT_JUMP: 864 0.000864%
BRANCH_INDIRECT: 0 0%
BRANCH_CONDITIONAL: 26588527 26.5885%
BRANCH_DIRECT_CALL: 325127 0.325127%
BRANCH_INDIRECT_CALL: 323777 0.323777%
BRANCH_RETURN: 648904 0.648904%
BRANCH_OTHER: 0 0%

DRAM PAGES: 1048576
Allocated PAGES: 823
