
*** ChampSim Multicore Out-of-Order Simulator ***

Warmup Instructions: 50000000
Simulation Instructions: 100000000
Number of CPUs: 1
LLC sets: 2048
LLC ways: 16
Off-chip DRAM Size: 4096 MB Channels: 1 Width: 64-bit Data Rate: 6400 MT/s
CPU 0 runs ../SPEC2017//623.xalancbmk_s-202B.champsimtrace.xz
.xz
NUM_OF_IPS_IN_CRITICAL_IP_TRAINING: 64
NUM_OF_CRITICAL_IP_TRAINING_TABLE_WAYS: 2
NUM_OF_CRITICAL_IP_TRAINING_TABLE_SETS: 32
WOBBLY_CRITICAL_IP_CACHE_SETS: 32
WOBBLY_CRITICAL_IP_CACHE_WAYS: 4
BTB has LRU replacement policy
ITLB has LRU replacement policy
DTLB has LRU replacement policy
STLB has LRU replacement policy
L1I has LRU replacement policy
IP Table Entries: 256
L1D has LRU replacement policy
Initialize SRRIP state for L2C
Initialize DRRIP state for LLC
Heartbeat CPU 0 instructions: 10000001 cycles: 2871139 heartbeat IPC: 3.48294 cumulative IPC: 3.48294 (Simulation time: 0 hr 3 min 31 sec) 
Heartbeat CPU 0 instructions: 20000002 cycles: 5733769 heartbeat IPC: 3.49329 cumulative IPC: 3.48811 (Simulation time: 0 hr 6 min 32 sec) 
Heartbeat CPU 0 instructions: 30000001 cycles: 8603735 heartbeat IPC: 3.48436 cumulative IPC: 3.48686 (Simulation time: 0 hr 9 min 24 sec) 
Heartbeat CPU 0 instructions: 40000002 cycles: 11469354 heartbeat IPC: 3.48965 cumulative IPC: 3.48756 (Simulation time: 0 hr 11 min 49 sec) 
Heartbeat CPU 0 instructions: 50000000 cycles: 14340229 heartbeat IPC: 3.48326 cumulative IPC: 3.48669 (Simulation time: 0 hr 14 min 12 sec) 

Warmup complete CPU 0 instructions: 50000004 cycles: 14340230 (Simulation time: 0 hr 14 min 12 sec) 

Heartbeat CPU 0 instructions: 60000002 cycles: 25328705 heartbeat IPC: 0.910044 cumulative IPC: 0.910044 (Simulation time: 0 hr 16 min 58 sec) 
Heartbeat CPU 0 instructions: 70000000 cycles: 36320242 heartbeat IPC: 0.909791 cumulative IPC: 0.909917 (Simulation time: 0 hr 19 min 33 sec) 
Heartbeat CPU 0 instructions: 80000000 cycles: 47319420 heartbeat IPC: 0.909159 cumulative IPC: 0.909664 (Simulation time: 0 hr 22 min 14 sec) 
Heartbeat CPU 0 instructions: 90000001 cycles: 58229981 heartbeat IPC: 0.916543 cumulative IPC: 0.911374 (Simulation time: 0 hr 24 min 48 sec) 
Heartbeat CPU 0 instructions: 100000000 cycles: 69187653 heartbeat IPC: 0.912602 cumulative IPC: 0.91162 (Simulation time: 0 hr 27 min 24 sec) 
Heartbeat CPU 0 instructions: 110000000 cycles: 80071064 heartbeat IPC: 0.91883 cumulative IPC: 0.912814 (Simulation time: 0 hr 29 min 58 sec) 
Heartbeat CPU 0 instructions: 120000002 cycles: 91003246 heartbeat IPC: 0.914731 cumulative IPC: 0.913087 (Simulation time: 0 hr 32 min 17 sec) 
Heartbeat CPU 0 instructions: 130000002 cycles: 102014663 heartbeat IPC: 0.908148 cumulative IPC: 0.912467 (Simulation time: 0 hr 35 min 22 sec) 
Heartbeat CPU 0 instructions: 140000001 cycles: 113044911 heartbeat IPC: 0.906598 cumulative IPC: 0.911811 (Simulation time: 0 hr 42 min 24 sec) 
Heartbeat CPU 0 instructions: 150000001 cycles: 124054247 heartbeat IPC: 0.90832 cumulative IPC: 0.911461 (Simulation time: 0 hr 48 min 28 sec) 
Finished CPU 0 instructions: 100000001 cycles: 109714018 cumulative IPC: 0.911461 (Simulation time: 0 hr 48 min 28 sec) 

ChampSim completed all CPUs

Region of Interest Statistics

CPU 0 cumulative IPC: 0.911461 instructions: 100000001 cycles: 109714018

CPU 0 Average Load ROB stall cycles: 2.80686e+07
CPU 0 Fraction of times ROB stalled by Loads: 40.6261
CPU 0 Percentage of Load stall cycles in Total stall cycles: 5.07594e+08
Issued all: 59816986
Issued LT all: 46300249
rob_not_full_when_issued_lt_all: 46041450
Issued LT one: 40709307
rob_not_full_when_issued_lt_one: 40481292
 Total stall cycles: 85938767
 Total load stall cycles: 436219785264870
CPU 0 NUM of IPS identified critical: 0
CPU 0 Num of Load IPs stalling ROB: 53
Threshold modification factor: 0
Max PIST entries: 37
Min PIST entries: 0
Avg PIST entries: 8.24667
Trouble in retire width: 0.971688
MaC = Marked as critical.
lt_50_percent_before_Mac: 0
gt_90_percent_before_Mac: 0
gt_75_percent_before_Mac: 0
gt_50_percent_before_Mac: 0
stall_proportion_bin_same_before_after: 0
stall_proportion_bin_lower_before_after: 0
stall_proportion_bin_upper_before_after: 0
average_stall_proportion_before: -nan
average_stall_proportion_after: -nan
Critical IP stalls, total frequency: 0
Non-critical IP stalls, total frequency: 6313788
Total Freq all stalling IPs: 6313788
stat_90_percent_critical_ip_stalls_freq: 5709790
stat_90_percent_non_critical_ip_stalls_freq: 603998
Critical_IP_ROB_Stalls_Bucket_0: 0
Non-critical_IP_ROB_Stalls_Bucket_0: 2941924
Critical_IP_ROB_Stalls_Bucket_1: 0
Non-critical_IP_ROB_Stalls_Bucket_1: 2462916
Critical_IP_ROB_Stalls_Bucket_2: 0
Non-critical_IP_ROB_Stalls_Bucket_2: 548837
Critical_IP_ROB_Stalls_Bucket_3: 0
Non-critical_IP_ROB_Stalls_Bucket_3: 185461
Critical_IP_ROB_Stalls_Bucket_4: 0
Non-critical_IP_ROB_Stalls_Bucket_4: 88835
Critical_IP_ROB_Stalls_Bucket_5: 0
Non-critical_IP_ROB_Stalls_Bucket_5: 53113
Critical_IP_ROB_Stalls_Bucket_6: 0
Non-critical_IP_ROB_Stalls_Bucket_6: 32702
0 => IPs accounting for >50 percent of stalls, 1 => 55, 2 => 60, 3 => 65 and so on till 90.
percent50: 55.1832 num IPs:  7
percent55: 55.1832 num IPs: 7
percent60: 62.1564 num IPs: 8
percent65: 69.1211 num IPs: 9
percent70: 75.7657 num IPs: 10
percent75: 75.7657 num IPs: 10
percent80: 81.908 num IPs: 11
percent85: 86.4269 num IPs: 12
percent90: 90.4337 num IPs: 13
Critical_ROB_Stalls_Percent_0_Bucket_0: 1265898
Non-critical_ROB_Stalls_Percent_0_Bucket_0: 1676026
Critical_ROB_Stalls_Percent_0_Bucket_1: 1811386
Non-critical_ROB_Stalls_Percent_0_Bucket_1: 651530
Critical_ROB_Stalls_Percent_0_Bucket_2: 259513
Non-critical_ROB_Stalls_Percent_0_Bucket_2: 289324
Critical_ROB_Stalls_Percent_0_Bucket_3: 72155
Non-critical_ROB_Stalls_Percent_0_Bucket_3: 113306
Critical_ROB_Stalls_Percent_0_Bucket_4: 35709
Non-critical_ROB_Stalls_Percent_0_Bucket_4: 53126
Critical_ROB_Stalls_Percent_0_Bucket_5: 23487
Non-critical_ROB_Stalls_Percent_0_Bucket_5: 29626
Critical_ROB_Stalls_Percent_0_Bucket_6: 16003
Non-critical_ROB_Stalls_Percent_0_Bucket_6: 16699
Critical_ROB_Stalls_Percent_1_Bucket_0: 1265898
Non-critical_ROB_Stalls_Percent_1_Bucket_0: 1676026
Critical_ROB_Stalls_Percent_1_Bucket_1: 1811386
Non-critical_ROB_Stalls_Percent_1_Bucket_1: 651530
Critical_ROB_Stalls_Percent_1_Bucket_2: 259513
Non-critical_ROB_Stalls_Percent_1_Bucket_2: 289324
Critical_ROB_Stalls_Percent_1_Bucket_3: 72155
Non-critical_ROB_Stalls_Percent_1_Bucket_3: 113306
Critical_ROB_Stalls_Percent_1_Bucket_4: 35709
Non-critical_ROB_Stalls_Percent_1_Bucket_4: 53126
Critical_ROB_Stalls_Percent_1_Bucket_5: 23487
Non-critical_ROB_Stalls_Percent_1_Bucket_5: 29626
Critical_ROB_Stalls_Percent_1_Bucket_6: 16003
Non-critical_ROB_Stalls_Percent_1_Bucket_6: 16699
Critical_ROB_Stalls_Percent_2_Bucket_0: 1565308
Non-critical_ROB_Stalls_Percent_2_Bucket_0: 1376616
Critical_ROB_Stalls_Percent_2_Bucket_1: 1877945
Non-critical_ROB_Stalls_Percent_2_Bucket_1: 584971
Critical_ROB_Stalls_Percent_2_Bucket_2: 302607
Non-critical_ROB_Stalls_Percent_2_Bucket_2: 246230
Critical_ROB_Stalls_Percent_2_Bucket_3: 89642
Non-critical_ROB_Stalls_Percent_2_Bucket_3: 95819
Critical_ROB_Stalls_Percent_2_Bucket_4: 43687
Non-critical_ROB_Stalls_Percent_2_Bucket_4: 45148
Critical_ROB_Stalls_Percent_2_Bucket_5: 26621
Non-critical_ROB_Stalls_Percent_2_Bucket_5: 26492
Critical_ROB_Stalls_Percent_2_Bucket_6: 18616
Non-critical_ROB_Stalls_Percent_2_Bucket_6: 14086
Critical_ROB_Stalls_Percent_3_Bucket_0: 1565308
Non-critical_ROB_Stalls_Percent_3_Bucket_0: 1376616
Critical_ROB_Stalls_Percent_3_Bucket_1: 2182646
Non-critical_ROB_Stalls_Percent_3_Bucket_1: 280270
Critical_ROB_Stalls_Percent_3_Bucket_2: 385399
Non-critical_ROB_Stalls_Percent_3_Bucket_2: 163438
Critical_ROB_Stalls_Percent_3_Bucket_3: 113917
Non-critical_ROB_Stalls_Percent_3_Bucket_3: 71544
Critical_ROB_Stalls_Percent_3_Bucket_4: 59529
Non-critical_ROB_Stalls_Percent_3_Bucket_4: 29306
Critical_ROB_Stalls_Percent_3_Bucket_5: 34366
Non-critical_ROB_Stalls_Percent_3_Bucket_5: 18747
Critical_ROB_Stalls_Percent_3_Bucket_6: 22997
Non-critical_ROB_Stalls_Percent_3_Bucket_6: 9705
Critical_ROB_Stalls_Percent_4_Bucket_0: 1885472
Non-critical_ROB_Stalls_Percent_4_Bucket_0: 1056452
Critical_ROB_Stalls_Percent_4_Bucket_1: 2248074
Non-critical_ROB_Stalls_Percent_4_Bucket_1: 214842
Critical_ROB_Stalls_Percent_4_Bucket_2: 405551
Non-critical_ROB_Stalls_Percent_4_Bucket_2: 143286
Critical_ROB_Stalls_Percent_4_Bucket_3: 120997
Non-critical_ROB_Stalls_Percent_4_Bucket_3: 64464
Critical_ROB_Stalls_Percent_4_Bucket_4: 62799
Non-critical_ROB_Stalls_Percent_4_Bucket_4: 26036
Critical_ROB_Stalls_Percent_4_Bucket_5: 37395
Non-critical_ROB_Stalls_Percent_4_Bucket_5: 15718
Critical_ROB_Stalls_Percent_4_Bucket_6: 23399
Non-critical_ROB_Stalls_Percent_4_Bucket_6: 9303
Critical_ROB_Stalls_Percent_5_Bucket_0: 1885472
Non-critical_ROB_Stalls_Percent_5_Bucket_0: 1056452
Critical_ROB_Stalls_Percent_5_Bucket_1: 2248074
Non-critical_ROB_Stalls_Percent_5_Bucket_1: 214842
Critical_ROB_Stalls_Percent_5_Bucket_2: 405551
Non-critical_ROB_Stalls_Percent_5_Bucket_2: 143286
Critical_ROB_Stalls_Percent_5_Bucket_3: 120997
Non-critical_ROB_Stalls_Percent_5_Bucket_3: 64464
Critical_ROB_Stalls_Percent_5_Bucket_4: 62799
Non-critical_ROB_Stalls_Percent_5_Bucket_4: 26036
Critical_ROB_Stalls_Percent_5_Bucket_5: 37395
Non-critical_ROB_Stalls_Percent_5_Bucket_5: 15718
Critical_ROB_Stalls_Percent_5_Bucket_6: 23399
Non-critical_ROB_Stalls_Percent_5_Bucket_6: 9303
Critical_ROB_Stalls_Percent_6_Bucket_0: 2240098
Non-critical_ROB_Stalls_Percent_6_Bucket_0: 701826
Critical_ROB_Stalls_Percent_6_Bucket_1: 2265225
Non-critical_ROB_Stalls_Percent_6_Bucket_1: 197691
Critical_ROB_Stalls_Percent_6_Bucket_2: 411493
Non-critical_ROB_Stalls_Percent_6_Bucket_2: 137344
Critical_ROB_Stalls_Percent_6_Bucket_3: 127195
Non-critical_ROB_Stalls_Percent_6_Bucket_3: 58266
Critical_ROB_Stalls_Percent_6_Bucket_4: 65296
Non-critical_ROB_Stalls_Percent_6_Bucket_4: 23539
Critical_ROB_Stalls_Percent_6_Bucket_5: 38113
Non-critical_ROB_Stalls_Percent_6_Bucket_5: 15000
Critical_ROB_Stalls_Percent_6_Bucket_6: 24080
Non-critical_ROB_Stalls_Percent_6_Bucket_6: 8622
Critical_ROB_Stalls_Percent_7_Bucket_0: 2429078
Non-critical_ROB_Stalls_Percent_7_Bucket_0: 512846
Critical_ROB_Stalls_Percent_7_Bucket_1: 2317421
Non-critical_ROB_Stalls_Percent_7_Bucket_1: 145495
Critical_ROB_Stalls_Percent_7_Bucket_2: 429898
Non-critical_ROB_Stalls_Percent_7_Bucket_2: 118939
Critical_ROB_Stalls_Percent_7_Bucket_3: 141010
Non-critical_ROB_Stalls_Percent_7_Bucket_3: 44451
Critical_ROB_Stalls_Percent_7_Bucket_4: 72095
Non-critical_ROB_Stalls_Percent_7_Bucket_4: 16740
Critical_ROB_Stalls_Percent_7_Bucket_5: 41506
Non-critical_ROB_Stalls_Percent_7_Bucket_5: 11607
Critical_ROB_Stalls_Percent_7_Bucket_6: 25803
Non-critical_ROB_Stalls_Percent_7_Bucket_6: 6899
Critical_ROB_Stalls_Percent_8_Bucket_0: 2677003
Non-critical_ROB_Stalls_Percent_8_Bucket_0: 264921
Critical_ROB_Stalls_Percent_8_Bucket_1: 2319507
Non-critical_ROB_Stalls_Percent_8_Bucket_1: 143409
Critical_ROB_Stalls_Percent_8_Bucket_2: 431640
Non-critical_ROB_Stalls_Percent_8_Bucket_2: 117197
Critical_ROB_Stalls_Percent_8_Bucket_3: 141629
Non-critical_ROB_Stalls_Percent_8_Bucket_3: 43832
Critical_ROB_Stalls_Percent_8_Bucket_4: 72504
Non-critical_ROB_Stalls_Percent_8_Bucket_4: 16331
Critical_ROB_Stalls_Percent_8_Bucket_5: 41641
Non-critical_ROB_Stalls_Percent_8_Bucket_5: 11472
Critical_ROB_Stalls_Percent_8_Bucket_6: 25866
Non-critical_ROB_Stalls_Percent_8_Bucket_6: 6836
Average ROB occupancy Load Stall Begin: 55.7745
Average ROB occupancy Load Stall End: 65.5931
Min ROB occupancy Load Stall Begin: 1
Max ROB occupancy Load Stall Begin: 352
Min ROB occupancy Load Stall End: 1
Max ROB occupancy Load Stall End: 352
Average ROB occupancy Critical Load Stall Begin: -nan
Average ROB occupancy Critical Load Stall End: -nan
Min ROB occupancy Critical Load Stall Begin: 400
Max ROB occupancy Critical Load Stall Begin: 0
Min ROB occupancy Critical Load Stall End: 400
Max ROB occupancy Critical Load Stall End: 0
 ROB Load Stall Begin Bucket Count 0: 3655066
 ROB Load Stall End Bucket Count 0: 2941924
 ROB Critical Load Stall Begin Bucket Count 0: 0
 ROB Critical Load Stall End Bucket Count 0: 0
 ROB Load Stall Begin Bucket Count 1: 1983389
 ROB Load Stall End Bucket Count 1: 2462916
 ROB Critical Load Stall Begin Bucket Count 1: 0
 ROB Critical Load Stall End Bucket Count 1: 0
 ROB Load Stall Begin Bucket Count 2: 388508
 ROB Load Stall End Bucket Count 2: 548837
 ROB Critical Load Stall Begin Bucket Count 2: 0
 ROB Critical Load Stall End Bucket Count 2: 0
 ROB Load Stall Begin Bucket Count 3: 151446
 ROB Load Stall End Bucket Count 3: 185461
 ROB Critical Load Stall Begin Bucket Count 3: 0
 ROB Critical Load Stall End Bucket Count 3: 0
 ROB Load Stall Begin Bucket Count 4: 69244
 ROB Load Stall End Bucket Count 4: 88835
 ROB Critical Load Stall Begin Bucket Count 4: 0
 ROB Critical Load Stall End Bucket Count 4: 0
 ROB Load Stall Begin Bucket Count 5: 43701
 ROB Load Stall End Bucket Count 5: 53113
 ROB Critical Load Stall Begin Bucket Count 5: 0
 ROB Critical Load Stall End Bucket Count 5: 0
 ROB Load Stall Begin Bucket Count 6: 22434
 ROB Load Stall End Bucket Count 6: 32702
 ROB Critical Load Stall Begin Bucket Count 6: 0
 ROB Critical Load Stall End Bucket Count 6: 0
PIST Tag Read Accesses: 57392
PIST Read Accesses: 28696
PIST Tag Write Accesses: 57392
PIST Write Accesses: 28696
Criticality detector called times: 366438
Max global_stall_cycles_count: 471974
Threshold Modified: 0 times, factor: 0
Sturdy critical IP cache stats: 
 Unused entries: 0
CIC Tag Read Accesses: 0
CIC Read Accesses: 0
CIC Tag Write Accesses: 0
CIC Write Accesses: 0
Wobbly critical IP cache stats: 
 Unused entries: 95
CIC Tag Read Accesses: 260071877
CIC Read Accesses: 0
CIC Tag Write Accesses: 6760388
CIC Write Accesses: 0
ITLB TOTAL     ACCESS:   14158511  HIT:   14158511  MISS:          0  HIT %:        100  MISS %:          0   MPKI: 0
ITLB LOAD TRANSLATION ACCESS:   14158511  HIT:   14158511  MISS:          0  HIT %:        100  MISS %:          0   MPKI: 0
ITLB PREFETCH  REQUESTED:          0  ISSUED:          0  USEFUL:          0  USELESS:          0
ITLB USEFUL LOAD PREFETCHES:          0 PREFETCH ISSUED TO LOWER LEVEL:          0  ACCURACY: -nan
ITLB TIMELY PREFETCHES:          0 LATE PREFETCHES: 0 DROPPED PREFETCHES: 0
ITLB PREFETCHES SAME FILL-ORIGIN LEVEL: 0 DIFFERENT FILL-ORIGIN LEVEL: 0
ITLB AVERAGE MISS LATENCY: -nan cycles
ITLB RQ	ACCESS:   17694748	FORWARD:          0	MERGED:    3536237	TO_CACHE:   14158511

DTLB TOTAL     ACCESS:   16142506  HIT:   16098661  MISS:      43845  HIT %:    99.7284  MISS %:   0.271612   MPKI: 0.43845
DTLB LOAD TRANSLATION ACCESS:   16142506  HIT:   16098661  MISS:      43845  HIT %:    99.7284  MISS %:   0.271612   MPKI: 0.43845
DTLB PREFETCH  REQUESTED:          0  ISSUED:          0  USEFUL:          0  USELESS:          0
DTLB USEFUL LOAD PREFETCHES:          0 PREFETCH ISSUED TO LOWER LEVEL:          0  ACCURACY: -nan
DTLB TIMELY PREFETCHES:          0 LATE PREFETCHES: 0 DROPPED PREFETCHES: 0
DTLB PREFETCHES SAME FILL-ORIGIN LEVEL: 0 DIFFERENT FILL-ORIGIN LEVEL: 0
DTLB AVERAGE MISS LATENCY: 9.48678 cycles
DTLB RQ	ACCESS:   18245904	FORWARD:          0	MERGED:    2103180	TO_CACHE:   16142724

STLB TOTAL     ACCESS:    1423202  HIT:    1423113  MISS:         89  HIT %:    99.9937  MISS %:  0.0062535   MPKI: 0.00089
STLB LOAD TRANSLATION ACCESS:      43845  HIT:      43756  MISS:         89  HIT %:     99.797  MISS %:   0.202988   MPKI: 0.00089
STLB TRANSLATION FROM L1D PREFETCHER ACCESS:    1379357  HIT:    1379357  MISS:          0  HIT %:        100  MISS %:          0   MPKI: 0
STLB PREFETCH  REQUESTED:          0  ISSUED:          0  USEFUL:          0  USELESS:          0
STLB USEFUL LOAD PREFETCHES:          0 PREFETCH ISSUED TO LOWER LEVEL:          0  ACCURACY: -nan
STLB TIMELY PREFETCHES:          0 LATE PREFETCHES: 0 DROPPED PREFETCHES: 0
STLB PREFETCHES SAME FILL-ORIGIN LEVEL: 0 DIFFERENT FILL-ORIGIN LEVEL: 0
STLB AVERAGE MISS LATENCY: 238.697 cycles
STLB RQ	ACCESS:    3807749	FORWARD:          0	MERGED:    2384547	TO_CACHE:    1423202

STLB Hit, L1D data hit: 0
STLB Hit, L2C data hit: 0
STLB Hit, LLC data hit: 0
STLB Hit, LLC data miss: 0
STLB STLB hints to L2: 0
L1D TOTAL     ACCESS:   21945537  HIT:   19223328  MISS:    2722209  HIT %:    87.5956  MISS %:    12.4044   MPKI: 27.2221
L1D LOAD      ACCESS:   16469169  HIT:   16360064  MISS:     109105  HIT %:    99.3375  MISS %:    0.66248   MPKI: 1.09105
L1D RFO       ACCESS:    1768024  HIT:    1768024  MISS:          0  HIT %:        100  MISS %:          0   MPKI: 0
L1D PREFETCH  ACCESS:    3708344  HIT:    1095240  MISS:    2613104  HIT %:    29.5345  MISS %:    70.4655   MPKI: 26.131
L1D PREFETCH  REQUESTED:    7536553  ISSUED:    7527808  USEFUL:    2401074  USELESS:     212002
L1D USEFUL LOAD PREFETCHES:    2401074 PREFETCH ISSUED TO LOWER LEVEL:    2628368  ACCURACY: 91.3523
L1D TIMELY PREFETCHES:    2401074 LATE PREFETCHES: 15262 DROPPED PREFETCHES: 0
L1D PREFETCHES SAME FILL-ORIGIN LEVEL: 2628368 DIFFERENT FILL-ORIGIN LEVEL: 0
L1D AVERAGE MISS LATENCY: 392777 cycles
L1D RQ	ACCESS:   29892130	FORWARD:          0	MERGED:   13296842	TO_CACHE:   16477879
L1D WQ	ACCESS:    1768025	FORWARD:     117409	MERGED:          0	TO_CACHE:    1768025
L1D PQ	ACCESS:    3763904	FORWARD:          0	MERGED:          0	TO_CACHE:    3763904

L1D UNIQUE REGIONS ACCESSED: 0
L1D REGIONS CONFLICTS: 0
L1D Cross Page Prefetch Requests: 0
L1D Same Page Prefetch Requests: 3763904
L1D ROI Sum of L1D PQ occupancy: 51425061
L1D PREFETCHES PUSHED FROM L2C: 0
L1I TOTAL     ACCESS:   17694746  HIT:   17694746  MISS:          0  HIT %:        100  MISS %:          0   MPKI: 0
L1I LOAD      ACCESS:   17694746  HIT:   17694746  MISS:          0  HIT %:        100  MISS %:          0   MPKI: 0
L1I PREFETCH  REQUESTED:          0  ISSUED:          0  USEFUL:          0  USELESS:          0
L1I USEFUL LOAD PREFETCHES:          0 PREFETCH ISSUED TO LOWER LEVEL:          0  ACCURACY: -nan
L1I TIMELY PREFETCHES:          0 LATE PREFETCHES: 0 DROPPED PREFETCHES: 0
L1I PREFETCHES SAME FILL-ORIGIN LEVEL: 0 DIFFERENT FILL-ORIGIN LEVEL: 0
L1I AVERAGE MISS LATENCY: -nan cycles
L1I RQ	ACCESS:   33003508	FORWARD:          0	MERGED:   15308760	TO_CACHE:   17694748

BTB TOTAL     ACCESS:   17463774  HIT:   17463757  MISS:         17  HIT %:    99.9999  MISS %: 9.73444e-05   MPKI: 0.00017
BTB BRANCH_DIRECT_JUMP	ACCESS:         65  HIT:         64  MISS:          1
BTB BRANCH_INDIRECT	ACCESS:          0  HIT:          0  MISS:          0
BTB BRANCH_CONDITIONAL	ACCESS:   15696143  HIT:   15696134  MISS:          9
BTB BRANCH_DIRECT_CALL	ACCESS:     441924  HIT:     441922  MISS:          2
BTB BRANCH_INDIRECT_CALL	ACCESS:     441859  HIT:     441858  MISS:          1
BTB BRANCH_RETURN	ACCESS:     883783  HIT:     883779  MISS:          4
BTB BRANCH_OTHER ACCESS:          0  HIT:          0  MISS:          0

L2C TOTAL     ACCESS:    2722362  HIT:      49498  MISS:    2672864  HIT %:     1.8182  MISS %:    98.1818   MPKI: 26.7286
L2C LOAD      ACCESS:      93843  HIT:       1989  MISS:      91854  HIT %:     2.1195  MISS %:    97.8805   MPKI: 0.91854
L2C DATA LOAD MPKI: 0.91854
L2C INSTRUCTION LOAD MPKI: 0
L2C PREFETCH  ACCESS:    2628366  HIT:      47415  MISS:    2580951  HIT %:    1.80397  MISS %:     98.196   MPKI: 25.8095
L2C DATA PREFETCH MPKI: 25.8095
L2C INSTRUCTION PREFETCH MPKI: 0
L2C WRITEBACK ACCESS:         64  HIT:         64  MISS:          0  HIT %:        100  MISS %:          0   MPKI: 0
L2C LOAD TRANSLATION ACCESS:         89  HIT:         30  MISS:         59  HIT %:    33.7079  MISS %:    66.2921   MPKI: 0.00059
L2C PREFETCH  REQUESTED:          0  ISSUED:          0  USEFUL:        548  USELESS:    2572539
L2C USEFUL LOAD PREFETCHES:        548 PREFETCH ISSUED TO LOWER LEVEL:    2580953  ACCURACY: 0.0212325
L2C TIMELY PREFETCHES:        548 LATE PREFETCHES: 0 DROPPED PREFETCHES: 0
L2C PREFETCHES SAME FILL-ORIGIN LEVEL: 0 DIFFERENT FILL-ORIGIN LEVEL: 0
L2C AVERAGE MISS LATENCY: 64.8918 cycles
L2C RQ	ACCESS:      93932	FORWARD:          0	MERGED:          0	TO_CACHE:      93932
L2C WQ	ACCESS:         64	FORWARD:          0	MERGED:          0	TO_CACHE:         64
L2C PQ	ACCESS:    2628368	FORWARD:          0	MERGED:          0	TO_CACHE:    2628368

L2C Instructions Evicting Data 0
L2C Translations Evicting Data 59
L2C Data Evicting Data 2672745
L2C Instructions Evicting Instructions 0
L2C Translations Evicting Instructions 0
L2C Data Evicting Instructions 0
L2C Instructions Evicting Translations 0
L2C Translations Evicting Translations 0
L2C Data Evicting Translations 60
L2C Dense regions hint from L2: 0
PSCL5 TOTAL     ACCESS:         89  HIT:         89  MISS:          0  HIT %:        100  MISS %:          0   MPKI: 0
PSCL5 LOAD TRANSLATION ACCESS:         89  HIT:         89  MISS:          0  HIT %:        100  MISS %:          0   MPKI: 0
PSCL5 PREFETCH  REQUESTED:          0  ISSUED:          0  USEFUL:          0  USELESS:          0
PSCL5 USEFUL LOAD PREFETCHES:          0 PREFETCH ISSUED TO LOWER LEVEL:          0  ACCURACY: -nan
PSCL5 TIMELY PREFETCHES:          0 LATE PREFETCHES: 0 DROPPED PREFETCHES: 0
PSCL5 PREFETCHES SAME FILL-ORIGIN LEVEL: 0 DIFFERENT FILL-ORIGIN LEVEL: 0

PSCL4 TOTAL     ACCESS:         89  HIT:         89  MISS:          0  HIT %:        100  MISS %:          0   MPKI: 0
PSCL4 LOAD TRANSLATION ACCESS:         89  HIT:         89  MISS:          0  HIT %:        100  MISS %:          0   MPKI: 0
PSCL4 PREFETCH  REQUESTED:          0  ISSUED:          0  USEFUL:          0  USELESS:          0
PSCL4 USEFUL LOAD PREFETCHES:          0 PREFETCH ISSUED TO LOWER LEVEL:          0  ACCURACY: -nan
PSCL4 TIMELY PREFETCHES:          0 LATE PREFETCHES: 0 DROPPED PREFETCHES: 0
PSCL4 PREFETCHES SAME FILL-ORIGIN LEVEL: 0 DIFFERENT FILL-ORIGIN LEVEL: 0

PSCL3 TOTAL     ACCESS:         89  HIT:         89  MISS:          0  HIT %:        100  MISS %:          0   MPKI: 0
PSCL3 LOAD TRANSLATION ACCESS:         89  HIT:         89  MISS:          0  HIT %:        100  MISS %:          0   MPKI: 0
PSCL3 PREFETCH  REQUESTED:          0  ISSUED:          0  USEFUL:          0  USELESS:          0
PSCL3 USEFUL LOAD PREFETCHES:          0 PREFETCH ISSUED TO LOWER LEVEL:          0  ACCURACY: -nan
PSCL3 TIMELY PREFETCHES:          0 LATE PREFETCHES: 0 DROPPED PREFETCHES: 0
PSCL3 PREFETCHES SAME FILL-ORIGIN LEVEL: 0 DIFFERENT FILL-ORIGIN LEVEL: 0

PSCL2 TOTAL     ACCESS:         89  HIT:         89  MISS:          0  HIT %:        100  MISS %:          0   MPKI: 0
PSCL2 LOAD TRANSLATION ACCESS:         89  HIT:         89  MISS:          0  HIT %:        100  MISS %:          0   MPKI: 0
PSCL2 PREFETCH  REQUESTED:          0  ISSUED:          0  USEFUL:          0  USELESS:          0
PSCL2 USEFUL LOAD PREFETCHES:          0 PREFETCH ISSUED TO LOWER LEVEL:          0  ACCURACY: -nan
PSCL2 TIMELY PREFETCHES:          0 LATE PREFETCHES: 0 DROPPED PREFETCHES: 0
PSCL2 PREFETCHES SAME FILL-ORIGIN LEVEL: 0 DIFFERENT FILL-ORIGIN LEVEL: 0

LLC TOTAL     ACCESS:    2672916  HIT:    1543057  MISS:    1129859  HIT %:    57.7293  MISS %:    42.2707   MPKI: 11.2986
LLC LOAD      ACCESS:      91854  HIT:      53185  MISS:      38669  HIT %:    57.9017  MISS %:    42.0983   MPKI: 0.38669
LLC PREFETCH  ACCESS:    2580951  HIT:    1489814  MISS:    1091137  HIT %:    57.7235  MISS %:    42.2765   MPKI: 10.9114
LLC WRITEBACK ACCESS:         52  HIT:         52  MISS:          0  HIT %:        100  MISS %:          0   MPKI: 0
LLC LOAD TRANSLATION ACCESS:         59  HIT:          6  MISS:         53  HIT %:    10.1695  MISS %:    89.8305   MPKI: 0.00053
LLC PREFETCH  REQUESTED:          0  ISSUED:          0  USEFUL:        286  USELESS:    1082715
LLC USEFUL LOAD PREFETCHES:        286 PREFETCH ISSUED TO LOWER LEVEL:    1091139  ACCURACY: 0.0262111
LLC TIMELY PREFETCHES:        286 LATE PREFETCHES: 0 DROPPED PREFETCHES: 0
LLC PREFETCHES SAME FILL-ORIGIN LEVEL: 0 DIFFERENT FILL-ORIGIN LEVEL: 0
LLC AVERAGE MISS LATENCY: 82.5336 cycles
LLC RQ	ACCESS:      91913	FORWARD:          0	MERGED:          0	TO_CACHE:      91913
LLC WQ	ACCESS:         52	FORWARD:          0	MERGED:          0	TO_CACHE:         52
LLC PQ	ACCESS:    2580953	FORWARD:          0	MERGED:          0	TO_CACHE:    2580953

LLC Dense regions hint to LLC: 0

RAW hits: 422
Loads Generated: 29892553
Loads sent to L1D: 29892130
Stores Generated: 1768024
Stores sent to L1D: 1768025
Major fault: 0 Minor fault: 1392
Allocated PAGES: 1392

stream: 
stream:times selected: 4391605
stream:pref_filled: 589673
stream:pref_useful: 389557
stream:pref_late: 8563
stream:misses: 96662
stream:misses_by_poll: 0

CS: 
CS:times selected: 3842218
CS:pref_filled: 1971993
CS:pref_useful: 1961291
CS:pref_late: 518
CS:misses: 14437
CS:misses_by_poll: 11383

CPLX: 
CPLX:times selected: 549259
CPLX:pref_filled: 51433
CPLX:pref_useful: 50222
CPLX:pref_late: 44
CPLX:misses: 3164
CPLX:misses_by_poll: 236

NL_L1: 
NL:times selected: 38
NL:pref_filled: 5
NL:pref_useful: 4
NL:pref_late: 1
NL:misses: 12
NL:misses_by_poll: 0

total selections: 8783120
total_filled: 2613104
total_useful: 2401074
total_late: 15262
total_polluted: 11619
total_misses_after_warmup: 114365
conflicts: 20746
Degree Incremented Times: 101935
Degree Decremented Times: 0

L1 IP Table Write Accesses: 13170926
L1 IP Table Read Accesses: 13150180
L1 RST Write Accesses: 4391607
L1 RST Read Accesses: 8783206
L1 CSPT Write Accesses: 4391607
L1 CSPT Read Accesses: 5972123
L1 RR Filter Tag Write Accesses: 3772649
L1 RR Filter Tag Read Accesses: 734019131
L1 IP Table Tag Write Accesses: 13639367
L1 IP Table Tag Read Accesses: 13639367
L1 RST Tag Write Accesses: 56
L1 RST Tag Read Accesses: 39302841
L1 RR Filter Write Accesses: 0
L1 RR Filter Read Accesses: 35418145
test: 402940

DRAM Statistics
 CHANNEL 0
 RQ ROW_BUFFER_HIT:    1065122  ROW_BUFFER_MISS:      64737
 DBUS_CONGESTED:          0
 WQ ROW_BUFFER_HIT:         14  ROW_BUFFER_MISS:         18  FULL:          0

 AVG_CONGESTED_CYCLE: -
 All warmup complete: 2
Channel 0 Bank busy for read cycles: 0
Channel 0 Bank busy for write cycles: 0
Channel 0
Rank 0
0banks busy for read cycles: 84374121
0banks busy for write cycles: 32
1banks busy for read cycles: 12275808
1banks busy for write cycles: 8021
2banks busy for read cycles: 3537696
2banks busy for write cycles: 0
3banks busy for read cycles: 2635387
3banks busy for write cycles: 0
4banks busy for read cycles: 2486908
4banks busy for write cycles: 0
5banks busy for read cycles: 2037893
5banks busy for write cycles: 0
6banks busy for read cycles: 1382719
6banks busy for write cycles: 0
7banks busy for read cycles: 526999
7banks busy for write cycles: 0
8banks busy for read cycles: 448435
8banks busy for write cycles: 0

CPU 0 Branch Prediction Accuracy: 99.9949% MPKI: 0.01399 Average ROB Occupancy at Mispredict: 61.2974
Branch types
NOT_BRANCH: 72316561 72.3166%
BRANCH_DIRECT_JUMP: 65 6.5e-05%
BRANCH_INDIRECT: 0 0%
BRANCH_CONDITIONAL: 25915562 25.9156%
BRANCH_DIRECT_CALL: 441924 0.441924%
BRANCH_INDIRECT_CALL: 441859 0.441859%
BRANCH_RETURN: 883783 0.883783%
BRANCH_OTHER: 0 0%

DRAM PAGES: 1048576
Allocated PAGES: 1392
