
*** ChampSim Multicore Out-of-Order Simulator ***

Warmup Instructions: 50000000
Simulation Instructions: 100000000
Number of CPUs: 1
LLC sets: 2048
LLC ways: 16
Off-chip DRAM Size: 4096 MB Channels: 1 Width: 64-bit Data Rate: 6400 MT/s
CPU 0 runs ../SPEC2017//623.xalancbmk_s-165B.champsimtrace.xz
.xz
NUM_OF_IPS_IN_CRITICAL_IP_TRAINING: 64
NUM_OF_CRITICAL_IP_TRAINING_TABLE_WAYS: 2
NUM_OF_CRITICAL_IP_TRAINING_TABLE_SETS: 32
WOBBLY_CRITICAL_IP_CACHE_SETS: 32
WOBBLY_CRITICAL_IP_CACHE_WAYS: 4
BTB has LRU replacement policy
ITLB has LRU replacement policy
DTLB has LRU replacement policy
STLB has LRU replacement policy
L1I has LRU replacement policy
L1D has LRU replacement policy
Bingo PHT WAYS: 16 and PHT_SIZE: 16384
Initialize SRRIP state for L2C
Initialize DRRIP state for LLC
Heartbeat CPU 0 instructions: 10000000 cycles: 2861677 heartbeat IPC: 3.49445 cumulative IPC: 3.49445 (Simulation time: 0 hr 6 min 4 sec) 
Heartbeat CPU 0 instructions: 20000001 cycles: 5723155 heartbeat IPC: 3.4947 cumulative IPC: 3.49458 (Simulation time: 0 hr 11 min 18 sec) 
Heartbeat CPU 0 instructions: 30000002 cycles: 8575515 heartbeat IPC: 3.50587 cumulative IPC: 3.49833 (Simulation time: 0 hr 15 min 42 sec) 
Heartbeat CPU 0 instructions: 40000003 cycles: 11433918 heartbeat IPC: 3.49846 cumulative IPC: 3.49836 (Simulation time: 0 hr 19 min 57 sec) 
Heartbeat CPU 0 instructions: 50000001 cycles: 14290865 heartbeat IPC: 3.50024 cumulative IPC: 3.49874 (Simulation time: 0 hr 23 min 59 sec) 

Warmup complete CPU 0 instructions: 50000001 cycles: 14290865 (Simulation time: 0 hr 23 min 59 sec) 

% increase in all ip prefetch 279.266
% increase in all ip prefetch -0.0020172
Heartbeat CPU 0 instructions: 60000003 cycles: 25728089 heartbeat IPC: 0.874338 cumulative IPC: 0.874338 (Simulation time: 0 hr 28 min 8 sec) 
Heartbeat CPU 0 instructions: 70000001 cycles: 37162087 heartbeat IPC: 0.874585 cumulative IPC: 0.874461 (Simulation time: 0 hr 32 min 2 sec) 
Heartbeat CPU 0 instructions: 80000001 cycles: 48592888 heartbeat IPC: 0.874829 cumulative IPC: 0.874584 (Simulation time: 0 hr 35 min 40 sec) 
Heartbeat CPU 0 instructions: 90000002 cycles: 60026388 heartbeat IPC: 0.874623 cumulative IPC: 0.874594 (Simulation time: 0 hr 39 min 4 sec) 
Heartbeat CPU 0 instructions: 100000001 cycles: 71457588 heartbeat IPC: 0.874799 cumulative IPC: 0.874635 (Simulation time: 0 hr 42 min 2 sec) 
Heartbeat CPU 0 instructions: 110000000 cycles: 82894784 heartbeat IPC: 0.87434 cumulative IPC: 0.874586 (Simulation time: 0 hr 44 min 43 sec) 
Heartbeat CPU 0 instructions: 120000000 cycles: 94319663 heartbeat IPC: 0.875283 cumulative IPC: 0.874685 (Simulation time: 0 hr 47 min 17 sec) 
Heartbeat CPU 0 instructions: 130000002 cycles: 105749602 heartbeat IPC: 0.874895 cumulative IPC: 0.874711 (Simulation time: 0 hr 49 min 41 sec) 
Heartbeat CPU 0 instructions: 140000002 cycles: 117178996 heartbeat IPC: 0.874937 cumulative IPC: 0.874736 (Simulation time: 0 hr 51 min 42 sec) 
Heartbeat CPU 0 instructions: 150000002 cycles: 128608267 heartbeat IPC: 0.874946 cumulative IPC: 0.874757 (Simulation time: 0 hr 53 min 14 sec) 
Finished CPU 0 instructions: 100000001 cycles: 114317402 cumulative IPC: 0.874757 (Simulation time: 0 hr 53 min 14 sec) 

ChampSim completed all CPUs

Region of Interest Statistics

CPU 0 cumulative IPC: 0.874757 instructions: 100000001 cycles: 114317402

CPU 0 Average Load ROB stall cycles: 1.5461e+07
CPU 0 Fraction of times ROB stalled by Loads: 21.5361
CPU 0 Percentage of Load stall cycles in Total stall cycles: 2.72119e+08
 Total stall cycles: 62923785
 Total load stall cycles: 171227703773136
CPU 0 NUM of IPS identified critical: 0

Threshold modification factor: -1
Max PIST entries: 31
Min PIST entries: 0
Avg PIST entries: 8.6
Average ROB occupancy Load Stall Begin: 33.0039
Average ROB occupancy Load Stall End: 36.0729
Min ROB occupancy Load Stall Begin: 2
Max ROB occupancy Load Stall Begin: 351
Min ROB occupancy Load Stall End: 2
Max ROB occupancy Load Stall End: 352
Average ROB occupancy Critical Load Stall Begin: -nan
Average ROB occupancy Critical Load Stall End: -nan
Min ROB occupancy Critical Load Stall Begin: 400
Max ROB occupancy Critical Load Stall Begin: 0
Min ROB occupancy Critical Load Stall End: 400
Max ROB occupancy Critical Load Stall End: 0
 ROB Load Stall Begin Bucket Count 0: 2006136
 ROB Load Stall End Bucket Count 0: 1968879
 ROB Critical Load Stall Begin Bucket Count 0: 0
 ROB Critical Load Stall End Bucket Count 0: 0
 ROB Load Stall Begin Bucket Count 1: 263622
 ROB Load Stall End Bucket Count 1: 267340
 ROB Critical Load Stall Begin Bucket Count 1: 0
 ROB Critical Load Stall End Bucket Count 1: 0
 ROB Load Stall Begin Bucket Count 2: 99680
 ROB Load Stall End Bucket Count 2: 125020
 ROB Critical Load Stall Begin Bucket Count 2: 0
 ROB Critical Load Stall End Bucket Count 2: 0
 ROB Load Stall Begin Bucket Count 3: 11179
 ROB Load Stall End Bucket Count 3: 17597
 ROB Critical Load Stall Begin Bucket Count 3: 0
 ROB Critical Load Stall End Bucket Count 3: 0
 ROB Load Stall Begin Bucket Count 4: 2292
 ROB Load Stall End Bucket Count 4: 3128
 ROB Critical Load Stall Begin Bucket Count 4: 0
 ROB Critical Load Stall End Bucket Count 4: 0
 ROB Load Stall Begin Bucket Count 5: 1506
 ROB Load Stall End Bucket Count 5: 2221
 ROB Critical Load Stall Begin Bucket Count 5: 0
 ROB Critical Load Stall End Bucket Count 5: 0
 ROB Load Stall Begin Bucket Count 6: 664
 ROB Load Stall End Bucket Count 6: 894
 ROB Critical Load Stall Begin Bucket Count 6: 0
 ROB Critical Load Stall End Bucket Count 6: 0
PIST Tag Read Accesses: 55514
PIST Read Accesses: 27757
PIST Tag Write Accesses: 55514
PIST Write Accesses: 27757
Criticality detector called times: 399439
Max global_stall_cycles_count: 117995
Threshold Modified: 1 times, factor: -1
Sturdy critical IP cache stats: 
 Unused entries: 0
CIC Tag Read Accesses: 0
CIC Read Accesses: 0
CIC Tag Write Accesses: 0
CIC Write Accesses: 0
Wobbly critical IP cache stats: 
 Unused entries: 105
CIC Tag Read Accesses: 150049687
CIC Read Accesses: 0
CIC Tag Write Accesses: 4251155
CIC Write Accesses: 0
ITLB TOTAL     ACCESS:   14251297  HIT:   14251297  MISS:          0  HIT %:        100  MISS %:          0   MPKI: 0
ITLB LOAD TRANSLATION ACCESS:   14251297  HIT:   14251297  MISS:          0  HIT %:        100  MISS %:          0   MPKI: 0
ITLB PREFETCHES SAME FILL-ORIGIN LEVEL: 0 DIFFERENT FILL-ORIGIN LEVEL: 0
ITLB AVERAGE MISS LATENCY: -nan cycles
ITLB RQ	ACCESS:   18791793	FORWARD:          0	MERGED:    4540496	TO_CACHE:   14251297

DTLB TOTAL     ACCESS:   14594317  HIT:   14558353  MISS:      35964  HIT %:    99.7536  MISS %:   0.246425   MPKI: 0.35964
DTLB LOAD TRANSLATION ACCESS:   14594317  HIT:   14558353  MISS:      35964  HIT %:    99.7536  MISS %:   0.246425   MPKI: 0.35964
DTLB PREFETCHES SAME FILL-ORIGIN LEVEL: 0 DIFFERENT FILL-ORIGIN LEVEL: 0
DTLB AVERAGE MISS LATENCY: 9.99305 cycles
DTLB RQ	ACCESS:   16077648	FORWARD:          0	MERGED:    1483273	TO_CACHE:   14594375

STLB TOTAL     ACCESS:      35964  HIT:      35846  MISS:        118  HIT %:    99.6719  MISS %:   0.328106   MPKI: 0.00118
STLB LOAD TRANSLATION ACCESS:      35964  HIT:      35846  MISS:        118  HIT %:    99.6719  MISS %:   0.328106   MPKI: 0.00118
STLB PREFETCHES SAME FILL-ORIGIN LEVEL: 0 DIFFERENT FILL-ORIGIN LEVEL: 0
STLB AVERAGE MISS LATENCY: 302.508 cycles
STLB RQ	ACCESS:      35964	FORWARD:          0	MERGED:          0	TO_CACHE:      35964

STLB Hit, L1D data hit: 0
STLB Hit, L2C data hit: 0
STLB Hit, LLC data hit: 0
STLB Hit, LLC data miss: 0
STLB STLB hints to L2: 0
L1D TOTAL     ACCESS:   15834626  HIT:   13932416  MISS:    1902210  HIT %:     87.987  MISS %:     12.013   MPKI: 19.0221
L1D LOAD      ACCESS:   14523382  HIT:   12621731  MISS:    1901651  HIT %:    86.9063  MISS %:    13.0937   MPKI: 19.0165
L1D RFO       ACCESS:    1311244  HIT:    1310685  MISS:        559  HIT %:    99.9574  MISS %:  0.0426313   MPKI: 0.00559
L1D PREFETCHES SAME FILL-ORIGIN LEVEL: 0 DIFFERENT FILL-ORIGIN LEVEL: 0
L1D AVERAGE MISS LATENCY: 17.9467 cycles
L1D RQ	ACCESS:   29503402	FORWARD:          0	MERGED:   14717078	TO_CACHE:   14765645
L1D WQ	ACCESS:    1312392	FORWARD:      20679	MERGED:        389	TO_CACHE:    1312003

L1D UNIQUE REGIONS ACCESSED: 0
L1D REGIONS CONFLICTS: 0
L1D Cross Page Prefetch Requests: 0
L1D Same Page Prefetch Requests: 0
L1D ROI Sum of L1D PQ occupancy: 0
L1D PREFETCHES PUSHED FROM L2C: 0
L1I TOTAL     ACCESS:   18791792  HIT:   18791792  MISS:          0  HIT %:        100  MISS %:          0   MPKI: 0
L1I LOAD      ACCESS:   18791792  HIT:   18791792  MISS:          0  HIT %:        100  MISS %:          0   MPKI: 0
L1I PREFETCHES SAME FILL-ORIGIN LEVEL: 0 DIFFERENT FILL-ORIGIN LEVEL: 0
L1I AVERAGE MISS LATENCY: -nan cycles
L1I RQ	ACCESS:   37612349	FORWARD:          0	MERGED:   18820556	TO_CACHE:   18791793

BTB TOTAL     ACCESS:   16819614  HIT:   16818850  MISS:        764  HIT %:    99.9955  MISS %: 0.00454232   MPKI: 0.00764
BTB BRANCH_DIRECT_JUMP	ACCESS:        864  HIT:        862  MISS:          2
BTB BRANCH_INDIRECT	ACCESS:          0  HIT:          0  MISS:          0
BTB BRANCH_CONDITIONAL	ACCESS:   15520942  HIT:   15520909  MISS:         33
BTB BRANCH_DIRECT_CALL	ACCESS:     325127  HIT:     325114  MISS:         13
BTB BRANCH_INDIRECT_CALL	ACCESS:     323777  HIT:     323771  MISS:          6
BTB BRANCH_RETURN	ACCESS:     648904  HIT:     648194  MISS:        710
BTB BRANCH_OTHER ACCESS:          0  HIT:          0  MISS:          0

L2C TOTAL     ACCESS:    3811639  HIT:    1790420  MISS:    2021219  HIT %:    46.9724  MISS %:    53.0276   MPKI: 20.2122
L2C LOAD      ACCESS:    1901651  HIT:    1777477  MISS:     124174  HIT %:    93.4702  MISS %:     6.5298   MPKI: 1.24174
L2C DATA LOAD MPKI: 1.24174
L2C INSTRUCTION LOAD MPKI: 0
L2C RFO       ACCESS:        559  HIT:        293  MISS:        266  HIT %:     52.415  MISS %:     47.585   MPKI: 0.00266
L2C PREFETCH  ACCESS:    1908488  HIT:      11802  MISS:    1896686  HIT %:   0.618395  MISS %:    99.3816   MPKI: 18.9669
L2C DATA PREFETCH MPKI: 18.9669
L2C INSTRUCTION PREFETCH MPKI: 0
L2C WRITEBACK ACCESS:        823  HIT:        819  MISS:          4  HIT %:     99.514  MISS %:   0.486027   MPKI: 4e-05
L2C LOAD TRANSLATION ACCESS:        118  HIT:         29  MISS:         89  HIT %:    24.5763  MISS %:    75.4237   MPKI: 0.00089
L2C PREFETCH  REQUESTED:    1960992  ISSUED:    1960992  USEFUL:    1777312  USELESS:     119362
L2C USEFUL LOAD PREFETCHES:    1777312 PREFETCH ISSUED TO LOWER LEVEL:    1909813  ACCURACY: 93.0621
L2C TIMELY PREFETCHES:    1777312 LATE PREFETCHES: 13127 DROPPED PREFETCHES: 0
L2C PREFETCHES SAME FILL-ORIGIN LEVEL: 1909813 DIFFERENT FILL-ORIGIN LEVEL: 0
L2C AVERAGE MISS LATENCY: 48.118 cycles
L2C RQ	ACCESS:    1902328	FORWARD:          0	MERGED:          0	TO_CACHE:    1902328
L2C WQ	ACCESS:        823	FORWARD:          0	MERGED:          0	TO_CACHE:        823
L2C PQ	ACCESS:    1960992	FORWARD:          0	MERGED:          0	TO_CACHE:    1960992

L2C Instructions Evicting Data0
L2C Translations Evicting Data89
L2C Data Evicting Data2021037
L2C Instructions Evicting Instructions0
L2C Translations Evicting Instructions0
L2C Data Evicting Instructions0
L2C Instructions Evicting Translations0
L2C Translations Evicting Translations0
L2C Data Evicting Translations89
L2C Dense regions hint from L2: 0
PSCL5 TOTAL     ACCESS:        118  HIT:        118  MISS:          0  HIT %:        100  MISS %:          0   MPKI: 0
PSCL5 LOAD TRANSLATION ACCESS:        118  HIT:        118  MISS:          0  HIT %:        100  MISS %:          0   MPKI: 0
PSCL5 PREFETCHES SAME FILL-ORIGIN LEVEL: 0 DIFFERENT FILL-ORIGIN LEVEL: 0

PSCL4 TOTAL     ACCESS:        118  HIT:        118  MISS:          0  HIT %:        100  MISS %:          0   MPKI: 0
PSCL4 LOAD TRANSLATION ACCESS:        118  HIT:        118  MISS:          0  HIT %:        100  MISS %:          0   MPKI: 0
PSCL4 PREFETCHES SAME FILL-ORIGIN LEVEL: 0 DIFFERENT FILL-ORIGIN LEVEL: 0

PSCL3 TOTAL     ACCESS:        118  HIT:        118  MISS:          0  HIT %:        100  MISS %:          0   MPKI: 0
PSCL3 LOAD TRANSLATION ACCESS:        118  HIT:        118  MISS:          0  HIT %:        100  MISS %:          0   MPKI: 0
PSCL3 PREFETCHES SAME FILL-ORIGIN LEVEL: 0 DIFFERENT FILL-ORIGIN LEVEL: 0

PSCL2 TOTAL     ACCESS:        118  HIT:        118  MISS:          0  HIT %:        100  MISS %:          0   MPKI: 0
PSCL2 LOAD TRANSLATION ACCESS:        118  HIT:        118  MISS:          0  HIT %:        100  MISS %:          0   MPKI: 0
PSCL2 PREFETCHES SAME FILL-ORIGIN LEVEL: 0 DIFFERENT FILL-ORIGIN LEVEL: 0

LLC TOTAL     ACCESS:    2022039  HIT:    1660187  MISS:     361852  HIT %:    82.1046  MISS %:    17.8954   MPKI: 3.61852
LLC LOAD      ACCESS:     111047  HIT:      94737  MISS:      16310  HIT %:    85.3125  MISS %:    14.6875   MPKI: 0.1631
LLC RFO       ACCESS:        266  HIT:        216  MISS:         50  HIT %:     81.203  MISS %:     18.797   MPKI: 0.0005
LLC PREFETCH  ACCESS:    1909813  HIT:    1564486  MISS:     345327  HIT %:    81.9183  MISS %:    18.0817   MPKI: 3.45327
LLC WRITEBACK ACCESS:        824  HIT:        745  MISS:         79  HIT %:    90.4126  MISS %:    9.58738   MPKI: 0.00079
LLC LOAD TRANSLATION ACCESS:         89  HIT:          3  MISS:         86  HIT %:    3.37079  MISS %:    96.6292   MPKI: 0.00086
LLC PREFETCHES SAME FILL-ORIGIN LEVEL: 0 DIFFERENT FILL-ORIGIN LEVEL: 0
LLC AVERAGE MISS LATENCY: 102.085 cycles
LLC RQ	ACCESS:     111402	FORWARD:          0	MERGED:          0	TO_CACHE:     111402
LLC WQ	ACCESS:        824	FORWARD:          0	MERGED:          0	TO_CACHE:        824
LLC PQ	ACCESS:    1909813	FORWARD:          0	MERGED:          0	TO_CACHE:    1909813

LLC Dense regions hint to LLC: 0

RAW hits: 1007
Loads Generated: 29504410
Loads sent to L1D: 29503402
Stores Generated: 1312389
Stores sent to L1D: 1312392
Major fault: 0 Minor fault: 823
Allocated PAGES: 823
[Bingo] PHT Access: 67222
[Bingo] PHT Hit PC+Addr: 3551
[Bingo] PHT Hit PC+Offs: 62777
[Bingo] PHT Miss: 894
[Bingo] Prefetch PC+Addr: 0
[Bingo] Prefetch PC+Offs: 0
[Bingo] Useful PC+Addr: 0
[Bingo] Useful PC+Offs: 0
[Bingo] Useless PC+Addr: 0
[Bingo] Useless PC+Offs: 0
[Bingo] L1 Prefetch per Region: 0
[Bingo] L2 Prefetch per Region: 30.612
[Bingo] L3 Prefetch per Region: 0
[Bingo] No Prefetch per Region: 1.38798
[Bingo] Number of Voters Mean: 15.9546
[Bingo] Number of Voters SD: 11.3017
PHT read accesses: 1022502
PHT write accesses: 66227
AT read accesses: 1895188
AT write accesses: 1900653
FT read accesses: 199670
FT write accesses: 67222
PS read accesses: 241697
PS write accesses: 66328
PHT tag read accesses: 3095434
PHT tag write accesses: 69778
AT tag read accesses: 65452559
AT tag write accesses: 1961412
FT tag read accesses: 36699921
FT tag write accesses: 200668
PS tag read accesses: 32622665
PS tag write accesses: 307854

DRAM Statistics
 CHANNEL 0
 RQ ROW_BUFFER_HIT:     332229  ROW_BUFFER_MISS:      29544
 DBUS_CONGESTED:          4
 WQ ROW_BUFFER_HIT:          3  ROW_BUFFER_MISS:        394  FULL:          0

 AVG_CONGESTED_CYCLE: 1
 All warmup complete: 2
Channel 0 Bank busy for read cycles: 0
Channel 0 Bank busy for write cycles: 0
Channel 0
Rank 0
0banks busy for read cycles: 107892354
0banks busy for write cycles: 142
1banks busy for read cycles: 2951663
1banks busy for write cycles: 12866
2banks busy for read cycles: 737269
2banks busy for write cycles: 1053
3banks busy for read cycles: 301810
3banks busy for write cycles: 1266
4banks busy for read cycles: 274057
4banks busy for write cycles: 2327
5banks busy for read cycles: 353277
5banks busy for write cycles: 1389
6banks busy for read cycles: 415800
6banks busy for write cycles: 2151
7banks busy for read cycles: 587152
7banks busy for write cycles: 2150
8banks busy for read cycles: 780534
8banks busy for write cycles: 143

CPU 0 Branch Prediction Accuracy: 99.9967% MPKI: 0.00917 Average ROB Occupancy at Mispredict: 72.1679
Branch types
NOT_BRANCH: 72112488 72.1125%
BRANCH_DIRECT_JUMP: 864 0.000864%
BRANCH_INDIRECT: 0 0%
BRANCH_CONDITIONAL: 26588527 26.5885%
BRANCH_DIRECT_CALL: 325127 0.325127%
BRANCH_INDIRECT_CALL: 323777 0.323777%
BRANCH_RETURN: 648904 0.648904%
BRANCH_OTHER: 0 0%

DRAM PAGES: 1048576
Allocated PAGES: 823
