Initialize SIGNATURE TABLE
ST_SET: 1
ST_WAY: 256
ST_TAG_BIT: 16
ST_TAG_MASK: ffff

Initialize PATTERN TABLE
PT_SET: 512
PT_WAY: 4
SIG_DELTA_BIT: 7
C_SIG_BIT: 4
C_DELTA_BIT: 4

Initialize PREFETCH FILTER
FILTER_SET: 1024

*** ChampSim Multicore Out-of-Order Simulator ***

Warmup Instructions: 50000000
Simulation Instructions: 100000000
Number of CPUs: 1
LLC sets: 2048
LLC ways: 16
Off-chip DRAM Size: 4096 MB Channels: 1 Width: 64-bit Data Rate: 6400 MT/s
CPU 0 runs ../SPEC2017//623.xalancbmk_s-202B.champsimtrace.xz
.xz
NUM_OF_IPS_IN_CRITICAL_IP_TRAINING: 128
NUM_OF_CRITICAL_IP_TRAINING_TABLE_WAYS: 8
NUM_OF_CRITICAL_IP_TRAINING_TABLE_SETS: 16
BTB has LRU replacement policy
ITLB has LRU replacement policy
DTLB has LRU replacement policy
STLB has LRU replacement policy
L1I has LRU replacement policy
L1D has LRU replacement policy
Initialize SRRIP state for L2C
Initialize DRRIP state for LLC
Heartbeat CPU 0 instructions: 10000001 cycles: 2848214 heartbeat IPC: 3.51097 cumulative IPC: 3.51097 (Simulation time: 0 hr 6 min 50 sec) 
Heartbeat CPU 0 instructions: 20000002 cycles: 5695164 heartbeat IPC: 3.51253 cumulative IPC: 3.51175 (Simulation time: 0 hr 13 min 7 sec) 
Heartbeat CPU 0 instructions: 30000001 cycles: 8545484 heartbeat IPC: 3.50838 cumulative IPC: 3.51063 (Simulation time: 0 hr 18 min 56 sec) 
Heartbeat CPU 0 instructions: 40000002 cycles: 11389563 heartbeat IPC: 3.51608 cumulative IPC: 3.51199 (Simulation time: 0 hr 23 min 59 sec) 
Heartbeat CPU 0 instructions: 50000000 cycles: 14241570 heartbeat IPC: 3.5063 cumulative IPC: 3.51085 (Simulation time: 0 hr 28 min 26 sec) 

Warmup complete CPU 0 instructions: 50000004 cycles: 14241571 (Simulation time: 0 hr 28 min 26 sec) 

% increase in all ip prefetch 366.959
% increase in all ip prefetch -0.885911
Heartbeat CPU 0 instructions: 60000002 cycles: 28594854 heartbeat IPC: 0.696705 cumulative IPC: 0.696705 (Simulation time: 0 hr 34 min 55 sec) 
Heartbeat CPU 0 instructions: 70000000 cycles: 42805192 heartbeat IPC: 0.703713 cumulative IPC: 0.700191 (Simulation time: 0 hr 40 min 48 sec) 
Heartbeat CPU 0 instructions: 80000000 cycles: 57297395 heartbeat IPC: 0.690026 cumulative IPC: 0.69677 (Simulation time: 0 hr 46 min 14 sec) 
Heartbeat CPU 0 instructions: 90000001 cycles: 71608424 heartbeat IPC: 0.698762 cumulative IPC: 0.697267 (Simulation time: 0 hr 50 min 50 sec) 
Heartbeat CPU 0 instructions: 100000001 cycles: 86105075 heartbeat IPC: 0.689815 cumulative IPC: 0.695763 (Simulation time: 0 hr 54 min 47 sec) 
Heartbeat CPU 0 instructions: 110000000 cycles: 100468744 heartbeat IPC: 0.696201 cumulative IPC: 0.695836 (Simulation time: 0 hr 57 min 57 sec) 
Heartbeat CPU 0 instructions: 120000002 cycles: 114697247 heartbeat IPC: 0.702815 cumulative IPC: 0.696825 (Simulation time: 1 hr 0 min 1 sec) 
Heartbeat CPU 0 instructions: 130000002 cycles: 128956440 heartbeat IPC: 0.701302 cumulative IPC: 0.697381 (Simulation time: 1 hr 1 min 34 sec) 
Heartbeat CPU 0 instructions: 140000001 cycles: 143363745 heartbeat IPC: 0.694092 cumulative IPC: 0.697014 (Simulation time: 1 hr 2 min 52 sec) 
Heartbeat CPU 0 instructions: 150000001 cycles: 157664530 heartbeat IPC: 0.699262 cumulative IPC: 0.697238 (Simulation time: 1 hr 3 min 57 sec) 
Finished CPU 0 instructions: 100000001 cycles: 143422960 cumulative IPC: 0.697238 (Simulation time: 1 hr 3 min 57 sec) 

ChampSim completed all CPUs

Region of Interest Statistics

CPU 0 cumulative IPC: 0.697238 instructions: 100000001 cycles: 143422960

CPU 0 Average Load ROB stall cycles: 6.22926e+06
CPU 0 Fraction of times ROB stalled by Loads: 7.22151
CPU 0 Percentage of Load stall cycles in Total stall cycles: 7.17067e+07
 Total stall cycles: 87181382
 Total load stall cycles: 62514887785788
CPU 0 NUM of IPS identified critical: 29

Threshold modification factor: -1
Max PIST entries: 21
Min PIST entries: 0
Avg PIST entries: 4.83333
Average ROB occupancy Load Stall Begin: 331.005
Average ROB occupancy Load Stall End: 335.536
Min ROB occupancy Load Stall Begin: 2
Max ROB occupancy Load Stall Begin: 351
Min ROB occupancy Load Stall End: 2
Max ROB occupancy Load Stall End: 352
Average ROB occupancy Critical Load Stall Begin: 331.44
Average ROB occupancy Critical Load Stall End: 336.008
Min ROB occupancy Critical Load Stall Begin: 3
Max ROB occupancy Critical Load Stall Begin: 351
Min ROB occupancy Critical Load Stall End: 3
Max ROB occupancy Critical Load Stall End: 352
 ROB Load Stall Begin Bucket Count 0: 5392
 ROB Load Stall End Bucket Count 0: 5367
 ROB Critical Load Stall Begin Bucket Count 0: 4846
 ROB Critical Load Stall End Bucket Count 0: 4822
 ROB Load Stall Begin Bucket Count 1: 1076
 ROB Load Stall End Bucket Count 1: 942
 ROB Critical Load Stall Begin Bucket Count 1: 980
 ROB Critical Load Stall End Bucket Count 1: 862
 ROB Load Stall Begin Bucket Count 2: 2013
 ROB Load Stall End Bucket Count 2: 1794
 ROB Critical Load Stall Begin Bucket Count 2: 1936
 ROB Critical Load Stall End Bucket Count 2: 1708
 ROB Load Stall Begin Bucket Count 3: 1802
 ROB Load Stall End Bucket Count 3: 1856
 ROB Critical Load Stall Begin Bucket Count 3: 1697
 ROB Critical Load Stall End Bucket Count 3: 1758
 ROB Load Stall Begin Bucket Count 4: 1729
 ROB Load Stall End Bucket Count 4: 1642
 ROB Critical Load Stall Begin Bucket Count 4: 1667
 ROB Critical Load Stall End Bucket Count 4: 1578
 ROB Load Stall Begin Bucket Count 5: 59905
 ROB Load Stall End Bucket Count 5: 39517
 ROB Critical Load Stall Begin Bucket Count 5: 57852
 ROB Critical Load Stall End Bucket Count 5: 38059
 ROB Load Stall Begin Bucket Count 6: 652811
 ROB Load Stall End Bucket Count 6: 673610
 ROB Critical Load Stall Begin Bucket Count 6: 637101
 ROB Critical Load Stall End Bucket Count 6: 657292
Threshold Modified: 1 times, factor: -1
ITLB TOTAL     ACCESS:   15443235  HIT:   15443235  MISS:          0  HIT %:        100  MISS %:          0   MPKI: 0
ITLB LOAD TRANSLATION ACCESS:   15443235  HIT:   15443235  MISS:          0  HIT %:        100  MISS %:          0   MPKI: 0
ITLB AVERAGE MISS LATENCY: -nan cycles
ITLB RQ	ACCESS:   19069396	FORWARD:          0	MERGED:    3626162	TO_CACHE:   15443234

DTLB TOTAL     ACCESS:   13359388  HIT:   13315464  MISS:      43924  HIT %:    99.6712  MISS %:   0.328788   MPKI: 0.43924
DTLB LOAD TRANSLATION ACCESS:   13359388  HIT:   13315464  MISS:      43924  HIT %:    99.6712  MISS %:   0.328788   MPKI: 0.43924
DTLB AVERAGE MISS LATENCY: 9.47218 cycles
DTLB RQ	ACCESS:   15810049	FORWARD:          0	MERGED:    2450497	TO_CACHE:   13359552

STLB TOTAL     ACCESS:      43924  HIT:      43835  MISS:         89  HIT %:    99.7974  MISS %:   0.202623   MPKI: 0.00089
STLB LOAD TRANSLATION ACCESS:      43924  HIT:      43835  MISS:         89  HIT %:    99.7974  MISS %:   0.202623   MPKI: 0.00089
STLB AVERAGE MISS LATENCY: 231.921 cycles
STLB RQ	ACCESS:      43924	FORWARD:          0	MERGED:          0	TO_CACHE:      43924

STLB Hit, L1D data hit: 0
STLB Hit, L2C data hit: 0
STLB Hit, LLC data hit: 0
STLB Hit, LLC data miss: 0
STLB STLB hints to L2: 0
L1D TOTAL     ACCESS:   15601588  HIT:   13091490  MISS:    2510098  HIT %:    83.9113  MISS %:    16.0887   MPKI: 25.101
L1D LOAD      ACCESS:   13833564  HIT:   11323466  MISS:    2510098  HIT %:     81.855  MISS %:     18.145   MPKI: 25.101
L1D RFO       ACCESS:    1768024  HIT:    1768024  MISS:          0  HIT %:        100  MISS %:          0   MPKI: 0
L1D AVERAGE MISS LATENCY: 39.7662 cycles
L1D RQ	ACCESS:   29890859	FORWARD:          0	MERGED:   15474447	TO_CACHE:   14042024
L1D WQ	ACCESS:    1768025	FORWARD:     374388	MERGED:          0	TO_CACHE:    1768025

L1D UNIQUE REGIONS ACCESSED: 0
L1D REGIONS CONFLICTS: 0
L1D Cross Page Prefetch Requests: 0
L1D Same Page Prefetch Requests: 0
L1D ROI Sum of L1D PQ occupancy: 0
L1D PREFETCHES PUSHED FROM L2C: 0
L1I TOTAL     ACCESS:   19069395  HIT:   19069395  MISS:          0  HIT %:        100  MISS %:          0   MPKI: 0
L1I LOAD      ACCESS:   19069395  HIT:   19069395  MISS:          0  HIT %:        100  MISS %:          0   MPKI: 0
L1I AVERAGE MISS LATENCY: -nan cycles
L1I RQ	ACCESS:   34495571	FORWARD:          0	MERGED:   15426175	TO_CACHE:   19069396

BTB TOTAL     ACCESS:   17463814  HIT:   17463797  MISS:         17  HIT %:    99.9999  MISS %: 9.73441e-05   MPKI: 0.00017
BTB BRANCH_DIRECT_JUMP	ACCESS:         65  HIT:         64  MISS:          1
BTB BRANCH_INDIRECT	ACCESS:          0  HIT:          0  MISS:          0
BTB BRANCH_CONDITIONAL	ACCESS:   15696179  HIT:   15696170  MISS:          9
BTB BRANCH_DIRECT_CALL	ACCESS:     441925  HIT:     441923  MISS:          2
BTB BRANCH_INDIRECT_CALL	ACCESS:     441860  HIT:     441859  MISS:          1
BTB BRANCH_RETURN	ACCESS:     883785  HIT:     883781  MISS:          4
BTB BRANCH_OTHER ACCESS:          0  HIT:          0  MISS:          0

L2C TOTAL     ACCESS:    3281432  HIT:     810918  MISS:    2470514  HIT %:    24.7123  MISS %:    75.2877   MPKI: 24.7051
L2C LOAD      ACCESS:    2510098  HIT:     608020  MISS:    1902078  HIT %:     24.223  MISS %:     75.777   MPKI: 19.0208
L2C DATA LOAD MPKI: 19.0208
L2C INSTRUCTION LOAD MPKI: 0
L2C PREFETCH  ACCESS:     771181  HIT:     202805  MISS:     568376  HIT %:     26.298  MISS %:     73.702   MPKI: 5.68376
L2C DATA PREFETCH MPKI: 5.68376
L2C INSTRUCTION PREFETCH MPKI: 0
L2C WRITEBACK ACCESS:         64  HIT:         63  MISS:          1  HIT %:    98.4375  MISS %:     1.5625   MPKI: 1e-05
L2C LOAD TRANSLATION ACCESS:         89  HIT:         30  MISS:         59  HIT %:    33.7079  MISS %:    66.2921   MPKI: 0.00059
L2C PREFETCH  REQUESTED:   18322438  ISSUED:   18321453  USEFUL:     567283  USELESS:       1096
L2C USEFUL LOAD PREFETCHES:     567283 PREFETCH ISSUED TO LOWER LEVEL:   11480905  ACCURACY: 4.9411
L2C TIMELY PREFETCHES:     567283 LATE PREFETCHES: 264741 DROPPED PREFETCHES: 0
L2C PREFETCHES SAME FILL-ORIGIN LEVEL: 833116 DIFFERENT FILL-ORIGIN LEVEL: 10647789
L2C AVERAGE MISS LATENCY: 33.3019 cycles
L2C RQ	ACCESS:    2510187	FORWARD:          0	MERGED:          0	TO_CACHE:    2510187
L2C WQ	ACCESS:         64	FORWARD:          0	MERGED:          0	TO_CACHE:         64
L2C PQ	ACCESS:   18321453	FORWARD:          0	MERGED:    5823961	TO_CACHE:   12497492

L2C Instructions Evicting Data0
L2C Translations Evicting Data59
L2C Data Evicting Data2470395
L2C Instructions Evicting Instructions0
L2C Translations Evicting Instructions0
L2C Data Evicting Instructions0
L2C Instructions Evicting Translations0
L2C Translations Evicting Translations0
L2C Data Evicting Translations59
L2C Dense regions hint from L2: 0
PSCL5 TOTAL     ACCESS:         89  HIT:         89  MISS:          0  HIT %:        100  MISS %:          0   MPKI: 0
PSCL5 LOAD TRANSLATION ACCESS:         89  HIT:         89  MISS:          0  HIT %:        100  MISS %:          0   MPKI: 0

PSCL4 TOTAL     ACCESS:         89  HIT:         89  MISS:          0  HIT %:        100  MISS %:          0   MPKI: 0
PSCL4 LOAD TRANSLATION ACCESS:         89  HIT:         89  MISS:          0  HIT %:        100  MISS %:          0   MPKI: 0

PSCL3 TOTAL     ACCESS:         89  HIT:         89  MISS:          0  HIT %:        100  MISS %:          0   MPKI: 0
PSCL3 LOAD TRANSLATION ACCESS:         89  HIT:         89  MISS:          0  HIT %:        100  MISS %:          0   MPKI: 0

PSCL2 TOTAL     ACCESS:         89  HIT:         89  MISS:          0  HIT %:        100  MISS %:          0   MPKI: 0
PSCL2 LOAD TRANSLATION ACCESS:         89  HIT:         89  MISS:          0  HIT %:        100  MISS %:          0   MPKI: 0

LLC TOTAL     ACCESS:   11690537  HIT:    9656024  MISS:    2034513  HIT %:    82.5969  MISS %:    17.4031   MPKI: 20.3451
LLC LOAD      ACCESS:    1637337  HIT:    1499332  MISS:     138005  HIT %:    91.5714  MISS %:    8.42863   MPKI: 1.38005
LLC PREFETCH  ACCESS:   10053088  HIT:    8156666  MISS:    1896422  HIT %:    81.1359  MISS %:    18.8641   MPKI: 18.9642
LLC WRITEBACK ACCESS:         53  HIT:         22  MISS:         31  HIT %:    41.5094  MISS %:    58.4906   MPKI: 0.00031
LLC LOAD TRANSLATION ACCESS:         59  HIT:          4  MISS:         55  HIT %:    6.77966  MISS %:    93.2203   MPKI: 0.00055
LLC AVERAGE MISS LATENCY: 77.8349 cycles
LLC RQ	ACCESS:    1637396	FORWARD:          0	MERGED:          0	TO_CACHE:    1637396
LLC WQ	ACCESS:         53	FORWARD:          0	MERGED:          0	TO_CACHE:         53
LLC PQ	ACCESS:   11480905	FORWARD:          0	MERGED:     140389	TO_CACHE:   11340516

LLC Dense regions hint to LLC: 0

RAW hits: 1697
Loads Generated: 29892557
Loads sent to L1D: 29890859
Stores Generated: 1768024
Stores sent to L1D: 1768025
Major fault: 0 Minor fault: 1392
Allocated PAGES: 1392
------------------
Depth Distribution
------------------
depth 0: 0
depth 1: 3807688
depth 2: 3637150
depth 3: 3457955
depth 4: 3240591
depth 5: 2963750
depth 6: 2651012
depth 7: 2418445
depth 8: 2183103
depth 9: 1893250
depth 10: 1393866
depth 11: 785322
depth 12: 273738
depth 13: 57103
depth 14: 3614
depth 15: 1744
depth 16: 6
depth 17: 0
depth 18: 0
depth 19: 0
depth 20: 0
depth 21: 0
depth 22: 0
depth 23: 0
depth 24: 0
depth 25: 0
depth 26: 0
depth 27: 0
depth 28: 0
depth 29: 0
Total: 28768337
-----------------------------
-----------------------------
	Captured at Filter
-----------------------------
depth 0: 0
depth 1: 95313
depth 2: 78364
depth 3: 43261
depth 4: 26191
depth 5: 18822
depth 6: 16837
depth 7: 15364
depth 8: 13840
depth 9: 12149
depth 10: 9046
depth 11: 4985
depth 12: 1778
depth 13: 333
depth 14: 21
depth 15: 10
depth 16: 0
depth 17: 0
depth 18: 0
depth 19: 0
depth 20: 0
depth 21: 0
depth 22: 0
depth 23: 0
depth 24: 0
depth 25: 0
depth 26: 0
depth 27: 0
depth 28: 0
depth 29: 0
-----------------------------
-----------------------------
		Lost at Page
-----------------------------
depth 0: 0
depth 1: 98659
depth 2: 139488
depth 3: 192739
depth 4: 240320
depth 5: 284480
depth 6: 314881
depth 7: 343427
depth 8: 363749
depth 9: 373012
depth 10: 331813
depth 11: 226736
depth 12: 94397
depth 13: 22782
depth 14: 1368
depth 15: 542
depth 16: 1
depth 17: 0
depth 18: 0
depth 19: 0
depth 20: 0
depth 21: 0
depth 22: 0
depth 23: 0
depth 24: 0
depth 25: 0
depth 26: 0
depth 27: 0
depth 28: 0
depth 29: 0
-----------------------------
-----------------------------
	Lost due to PQ Size
-----------------------------
214669
-----------------------------
ST read accesses: 2468381
ST write accesses: 41717
PT read accesses: 114354256
PT write accesses: 3698545
FILTER read accesses: 23565578
FILTER write accesses: 5026568
GHR read accesses: 12133496
GHR write accesses: 1934832
GHR counter read accesses: 95308308
GHR counter write accesses: 5060111
ST tag read accesses: 986296601
ST tag write accesses: 13590536

DRAM Statistics
 CHANNEL 0
 RQ ROW_BUFFER_HIT:    1928316  ROW_BUFFER_MISS:     106166
 DBUS_CONGESTED:         17
 WQ ROW_BUFFER_HIT:         23  ROW_BUFFER_MISS:         22  FULL:          0

 AVG_CONGESTED_CYCLE: 3
 All warmup complete: 2
Channel 0 Bank busy for read cycles: 0
Channel 0 Bank busy for write cycles: 0
Channel 0
Rank 0
0banks busy for read cycles: 94129974
0banks busy for write cycles: 45
1banks busy for read cycles: 20765100
1banks busy for write cycles: 11888
2banks busy for read cycles: 12604373
2banks busy for write cycles: 0
3banks busy for read cycles: 6639870
3banks busy for write cycles: 0
4banks busy for read cycles: 4556642
4banks busy for write cycles: 0
5banks busy for read cycles: 2295249
5banks busy for write cycles: 0
6banks busy for read cycles: 865563
6banks busy for write cycles: 0
7banks busy for read cycles: 881419
7banks busy for write cycles: 0
8banks busy for read cycles: 672838
8banks busy for write cycles: 0

CPU 0 Branch Prediction Accuracy: 99.9949% MPKI: 0.01399 Average ROB Occupancy at Mispredict: 249.066
Branch types
NOT_BRANCH: 72316725 72.3167%
BRANCH_DIRECT_JUMP: 65 6.5e-05%
BRANCH_INDIRECT: 0 0%
BRANCH_CONDITIONAL: 25915621 25.9156%
BRANCH_DIRECT_CALL: 441925 0.441925%
BRANCH_INDIRECT_CALL: 441860 0.44186%
BRANCH_RETURN: 883785 0.883785%
BRANCH_OTHER: 0 0%

DRAM PAGES: 1048576
Allocated PAGES: 1392
