
*** ChampSim Multicore Out-of-Order Simulator ***

Warmup Instructions: 50000000
Simulation Instructions: 100000000
Number of CPUs: 1
LLC sets: 2048
LLC ways: 16
Off-chip DRAM Size: 4096 MB Channels: 1 Width: 64-bit Data Rate: 6400 MT/s
CPU 0 runs ../SPEC2017//623.xalancbmk_s-165B.champsimtrace.xz
.xz
BTB has LRU replacement policy
ITLB has LRU replacement policy
DTLB has LRU replacement policy
STLB has LRU replacement policy
L1I has LRU replacement policy
L1D has LRU replacement policy
Bingo PHT WAYS: 16 and PHT_SIZE: 16384
Initialize SRRIP state for L2C
Initialize DRRIP state for LLC
Heartbeat CPU 0 instructions: 10000000 cycles: 2862010 heartbeat IPC: 3.49405 cumulative IPC: 3.49405 (Simulation time: 0 hr 6 min 57 sec) 
Heartbeat CPU 0 instructions: 20000001 cycles: 5724680 heartbeat IPC: 3.49324 cumulative IPC: 3.49365 (Simulation time: 0 hr 14 min 8 sec) 
Heartbeat CPU 0 instructions: 30000002 cycles: 8577417 heartbeat IPC: 3.50541 cumulative IPC: 3.49756 (Simulation time: 0 hr 21 min 24 sec) 
Heartbeat CPU 0 instructions: 40000003 cycles: 11436021 heartbeat IPC: 3.49821 cumulative IPC: 3.49772 (Simulation time: 0 hr 27 min 50 sec) 
Heartbeat CPU 0 instructions: 50000001 cycles: 14293407 heartbeat IPC: 3.4997 cumulative IPC: 3.49812 (Simulation time: 0 hr 33 min 27 sec) 

Warmup complete CPU 0 instructions: 50000001 cycles: 14293407 (Simulation time: 0 hr 33 min 27 sec) 

Heartbeat CPU 0 instructions: 60000000 cycles: 28306294 heartbeat IPC: 0.713629 cumulative IPC: 0.713629 (Simulation time: 0 hr 42 min 13 sec) 
Heartbeat CPU 0 instructions: 70000001 cycles: 42211860 heartbeat IPC: 0.719137 cumulative IPC: 0.716372 (Simulation time: 0 hr 49 min 5 sec) 
Heartbeat CPU 0 instructions: 80000001 cycles: 56024915 heartbeat IPC: 0.723953 cumulative IPC: 0.718881 (Simulation time: 0 hr 55 min 35 sec) 
Heartbeat CPU 0 instructions: 90000002 cycles: 69302882 heartbeat IPC: 0.753127 cumulative IPC: 0.727147 (Simulation time: 1 hr 1 min 51 sec) 
Heartbeat CPU 0 instructions: 100000001 cycles: 82852754 heartbeat IPC: 0.738014 cumulative IPC: 0.729295 (Simulation time: 1 hr 7 min 33 sec) 
Heartbeat CPU 0 instructions: 110000000 cycles: 95949071 heartbeat IPC: 0.763573 cumulative IPC: 0.734793 (Simulation time: 1 hr 12 min 30 sec) 
Heartbeat CPU 0 instructions: 120000000 cycles: 109169037 heartbeat IPC: 0.756432 cumulative IPC: 0.737808 (Simulation time: 1 hr 17 min 17 sec) 
Heartbeat CPU 0 instructions: 130000002 cycles: 122184432 heartbeat IPC: 0.768321 cumulative IPC: 0.741489 (Simulation time: 1 hr 22 min 3 sec) 
Heartbeat CPU 0 instructions: 140000000 cycles: 135247558 heartbeat IPC: 0.765513 cumulative IPC: 0.744084 (Simulation time: 1 hr 26 min 10 sec) 
Heartbeat CPU 0 instructions: 150000003 cycles: 148310193 heartbeat IPC: 0.765543 cumulative IPC: 0.746175 (Simulation time: 1 hr 29 min 2 sec) 
Finished CPU 0 instructions: 100000002 cycles: 134016786 cumulative IPC: 0.746175 (Simulation time: 1 hr 29 min 2 sec) 

ChampSim completed all CPUs

Region of Interest Statistics

CPU 0 cumulative IPC: 0.746175 instructions: 100000002 cycles: 134016786

CPU 0 Average Load ROB stall cycles: 2.80013e+07
CPU 0 Fraction of times ROB stalled by Loads: 34.2387
CPU 0 Percentage of Load stall cycles in Total stall cycles: 2.61437e+08
Issued all: 91495496
Issued LT all: 79486497
rob_not_full_when_issued_lt_all: 46865416
Issued LT one: 70089048
rob_not_full_when_issued_lt_one: 40619509
 Total stall cycles: 108674109
 Total load stall cycles: 284113914833100
Unique Load IPs: 168
CPU 0 NUM of IPS identified critical: 8
CPU 0 Num of Load IPs stalling ROB: 0
Threshold modification factor: 0
Trouble in retire width: -nan
MaC = Marked as critical.
lt_50_percent_before_Mac: 6
gt_90_percent_before_Mac: 1
gt_75_percent_before_Mac: 1
gt_50_percent_before_Mac: 0
stall_proportion_bin_same_before_after: 0
stall_proportion_bin_lower_before_after: 0
stall_proportion_bin_upper_before_after: 0
average_stall_proportion_before: 0.0102746
average_stall_proportion_after: 0.0166549
Critical_IP_Detector_Accuracy_70: 0
Critical_IP_Detector_Accuracy_80: 0
Critical_IP_Detector_Accuracy_90: 0
Critical_IP_Detector_Coverage_70: 0
Critical_IP_Detector_Coverage_80: 0
Critical_IP_Detector_Coverage_90: 0
stat_90_percent_critical_ip_stalls_freq: 323345
stat_90_percent_non_critical_ip_stalls_freq: 18446744073709228271
AVERAGE_ROB_Occupancy_90_Percent_Critical_IP_Stalls: 234.308
AVERAGE_ROB_Occupancy_90_Percent_Non_Critical_IP_Stalls: 4.98808e-11
Critical_IP_ROB_Stalls_Bucket_0: 0
Non-critical_IP_ROB_Stalls_Bucket_0: 15177
Critical_IP_ROB_Stalls_Bucket_1: 171
Non-critical_IP_ROB_Stalls_Bucket_1: 9694
Critical_IP_ROB_Stalls_Bucket_2: 219
Non-critical_IP_ROB_Stalls_Bucket_2: 25912
Critical_IP_ROB_Stalls_Bucket_3: 331
Non-critical_IP_ROB_Stalls_Bucket_3: 159153
Critical_IP_ROB_Stalls_Bucket_4: 2104
Non-critical_IP_ROB_Stalls_Bucket_4: 707730
Critical_IP_ROB_Stalls_Bucket_5: 6962
Non-critical_IP_ROB_Stalls_Bucket_5: 937010
Critical_IP_ROB_Stalls_Bucket_6: 133165
Non-critical_IP_ROB_Stalls_Bucket_6: 1476383
0 => IPs accounting for >50 percent of stalls, 1 => 55, 2 => 60, 3 => 65 and so on till 90.
percent50: inf num IPs:  1
percent55: inf num IPs: 1
percent60: inf num IPs: 1
percent65: inf num IPs: 1
percent70: inf num IPs: 1
percent75: inf num IPs: 1
percent80: inf num IPs: 1
percent85: inf num IPs: 1
percent90: inf num IPs: 1
Critical_ROB_Stalls_Percent_0_Bucket_0: 78
Non-critical_ROB_Stalls_Percent_0_Bucket_0: 15099
Critical_ROB_Stalls_Percent_0_Bucket_1: 1788
Non-critical_ROB_Stalls_Percent_0_Bucket_1: 8077
Critical_ROB_Stalls_Percent_0_Bucket_2: 3822
Non-critical_ROB_Stalls_Percent_0_Bucket_2: 22309
Critical_ROB_Stalls_Percent_0_Bucket_3: 30863
Non-critical_ROB_Stalls_Percent_0_Bucket_3: 128621
Critical_ROB_Stalls_Percent_0_Bucket_4: 146102
Non-critical_ROB_Stalls_Percent_0_Bucket_4: 563732
Critical_ROB_Stalls_Percent_0_Bucket_5: 140225
Non-critical_ROB_Stalls_Percent_0_Bucket_5: 803747
Critical_ROB_Stalls_Percent_0_Bucket_6: 467
Non-critical_ROB_Stalls_Percent_0_Bucket_6: 1609081
Critical_ROB_Stalls_Percent_1_Bucket_0: 78
Non-critical_ROB_Stalls_Percent_1_Bucket_0: 15099
Critical_ROB_Stalls_Percent_1_Bucket_1: 1788
Non-critical_ROB_Stalls_Percent_1_Bucket_1: 8077
Critical_ROB_Stalls_Percent_1_Bucket_2: 3822
Non-critical_ROB_Stalls_Percent_1_Bucket_2: 22309
Critical_ROB_Stalls_Percent_1_Bucket_3: 30863
Non-critical_ROB_Stalls_Percent_1_Bucket_3: 128621
Critical_ROB_Stalls_Percent_1_Bucket_4: 146102
Non-critical_ROB_Stalls_Percent_1_Bucket_4: 563732
Critical_ROB_Stalls_Percent_1_Bucket_5: 140225
Non-critical_ROB_Stalls_Percent_1_Bucket_5: 803747
Critical_ROB_Stalls_Percent_1_Bucket_6: 467
Non-critical_ROB_Stalls_Percent_1_Bucket_6: 1609081
Critical_ROB_Stalls_Percent_2_Bucket_0: 78
Non-critical_ROB_Stalls_Percent_2_Bucket_0: 15099
Critical_ROB_Stalls_Percent_2_Bucket_1: 1788
Non-critical_ROB_Stalls_Percent_2_Bucket_1: 8077
Critical_ROB_Stalls_Percent_2_Bucket_2: 3822
Non-critical_ROB_Stalls_Percent_2_Bucket_2: 22309
Critical_ROB_Stalls_Percent_2_Bucket_3: 30863
Non-critical_ROB_Stalls_Percent_2_Bucket_3: 128621
Critical_ROB_Stalls_Percent_2_Bucket_4: 146102
Non-critical_ROB_Stalls_Percent_2_Bucket_4: 563732
Critical_ROB_Stalls_Percent_2_Bucket_5: 140225
Non-critical_ROB_Stalls_Percent_2_Bucket_5: 803747
Critical_ROB_Stalls_Percent_2_Bucket_6: 467
Non-critical_ROB_Stalls_Percent_2_Bucket_6: 1609081
Critical_ROB_Stalls_Percent_3_Bucket_0: 78
Non-critical_ROB_Stalls_Percent_3_Bucket_0: 15099
Critical_ROB_Stalls_Percent_3_Bucket_1: 1788
Non-critical_ROB_Stalls_Percent_3_Bucket_1: 8077
Critical_ROB_Stalls_Percent_3_Bucket_2: 3822
Non-critical_ROB_Stalls_Percent_3_Bucket_2: 22309
Critical_ROB_Stalls_Percent_3_Bucket_3: 30863
Non-critical_ROB_Stalls_Percent_3_Bucket_3: 128621
Critical_ROB_Stalls_Percent_3_Bucket_4: 146102
Non-critical_ROB_Stalls_Percent_3_Bucket_4: 563732
Critical_ROB_Stalls_Percent_3_Bucket_5: 140225
Non-critical_ROB_Stalls_Percent_3_Bucket_5: 803747
Critical_ROB_Stalls_Percent_3_Bucket_6: 467
Non-critical_ROB_Stalls_Percent_3_Bucket_6: 1609081
Critical_ROB_Stalls_Percent_4_Bucket_0: 78
Non-critical_ROB_Stalls_Percent_4_Bucket_0: 15099
Critical_ROB_Stalls_Percent_4_Bucket_1: 1788
Non-critical_ROB_Stalls_Percent_4_Bucket_1: 8077
Critical_ROB_Stalls_Percent_4_Bucket_2: 3822
Non-critical_ROB_Stalls_Percent_4_Bucket_2: 22309
Critical_ROB_Stalls_Percent_4_Bucket_3: 30863
Non-critical_ROB_Stalls_Percent_4_Bucket_3: 128621
Critical_ROB_Stalls_Percent_4_Bucket_4: 146102
Non-critical_ROB_Stalls_Percent_4_Bucket_4: 563732
Critical_ROB_Stalls_Percent_4_Bucket_5: 140225
Non-critical_ROB_Stalls_Percent_4_Bucket_5: 803747
Critical_ROB_Stalls_Percent_4_Bucket_6: 467
Non-critical_ROB_Stalls_Percent_4_Bucket_6: 1609081
Critical_ROB_Stalls_Percent_5_Bucket_0: 78
Non-critical_ROB_Stalls_Percent_5_Bucket_0: 15099
Critical_ROB_Stalls_Percent_5_Bucket_1: 1788
Non-critical_ROB_Stalls_Percent_5_Bucket_1: 8077
Critical_ROB_Stalls_Percent_5_Bucket_2: 3822
Non-critical_ROB_Stalls_Percent_5_Bucket_2: 22309
Critical_ROB_Stalls_Percent_5_Bucket_3: 30863
Non-critical_ROB_Stalls_Percent_5_Bucket_3: 128621
Critical_ROB_Stalls_Percent_5_Bucket_4: 146102
Non-critical_ROB_Stalls_Percent_5_Bucket_4: 563732
Critical_ROB_Stalls_Percent_5_Bucket_5: 140225
Non-critical_ROB_Stalls_Percent_5_Bucket_5: 803747
Critical_ROB_Stalls_Percent_5_Bucket_6: 467
Non-critical_ROB_Stalls_Percent_5_Bucket_6: 1609081
Critical_ROB_Stalls_Percent_6_Bucket_0: 78
Non-critical_ROB_Stalls_Percent_6_Bucket_0: 15099
Critical_ROB_Stalls_Percent_6_Bucket_1: 1788
Non-critical_ROB_Stalls_Percent_6_Bucket_1: 8077
Critical_ROB_Stalls_Percent_6_Bucket_2: 3822
Non-critical_ROB_Stalls_Percent_6_Bucket_2: 22309
Critical_ROB_Stalls_Percent_6_Bucket_3: 30863
Non-critical_ROB_Stalls_Percent_6_Bucket_3: 128621
Critical_ROB_Stalls_Percent_6_Bucket_4: 146102
Non-critical_ROB_Stalls_Percent_6_Bucket_4: 563732
Critical_ROB_Stalls_Percent_6_Bucket_5: 140225
Non-critical_ROB_Stalls_Percent_6_Bucket_5: 803747
Critical_ROB_Stalls_Percent_6_Bucket_6: 467
Non-critical_ROB_Stalls_Percent_6_Bucket_6: 1609081
Critical_ROB_Stalls_Percent_7_Bucket_0: 78
Non-critical_ROB_Stalls_Percent_7_Bucket_0: 15099
Critical_ROB_Stalls_Percent_7_Bucket_1: 1788
Non-critical_ROB_Stalls_Percent_7_Bucket_1: 8077
Critical_ROB_Stalls_Percent_7_Bucket_2: 3822
Non-critical_ROB_Stalls_Percent_7_Bucket_2: 22309
Critical_ROB_Stalls_Percent_7_Bucket_3: 30863
Non-critical_ROB_Stalls_Percent_7_Bucket_3: 128621
Critical_ROB_Stalls_Percent_7_Bucket_4: 146102
Non-critical_ROB_Stalls_Percent_7_Bucket_4: 563732
Critical_ROB_Stalls_Percent_7_Bucket_5: 140225
Non-critical_ROB_Stalls_Percent_7_Bucket_5: 803747
Critical_ROB_Stalls_Percent_7_Bucket_6: 467
Non-critical_ROB_Stalls_Percent_7_Bucket_6: 1609081
Critical_ROB_Stalls_Percent_8_Bucket_0: 78
Non-critical_ROB_Stalls_Percent_8_Bucket_0: 15099
Critical_ROB_Stalls_Percent_8_Bucket_1: 1788
Non-critical_ROB_Stalls_Percent_8_Bucket_1: 8077
Critical_ROB_Stalls_Percent_8_Bucket_2: 3822
Non-critical_ROB_Stalls_Percent_8_Bucket_2: 22309
Critical_ROB_Stalls_Percent_8_Bucket_3: 30863
Non-critical_ROB_Stalls_Percent_8_Bucket_3: 128621
Critical_ROB_Stalls_Percent_8_Bucket_4: 146102
Non-critical_ROB_Stalls_Percent_8_Bucket_4: 563732
Critical_ROB_Stalls_Percent_8_Bucket_5: 140225
Non-critical_ROB_Stalls_Percent_8_Bucket_5: 803747
Critical_ROB_Stalls_Percent_8_Bucket_6: 467
Non-critical_ROB_Stalls_Percent_8_Bucket_6: 1609081
Average ROB occupancy Load Stall Begin: 269.405
Average ROB occupancy Load Stall End: 286.672
Min ROB occupancy Load Stall Begin: 1
Max ROB occupancy Load Stall Begin: 352
Min ROB occupancy Load Stall End: 1
Max ROB occupancy Load Stall End: 352
Average ROB occupancy Critical Load Stall Begin: 333.093
Average ROB occupancy Critical Load Stall End: 339.007
Min ROB occupancy Critical Load Stall Begin: 55
Max ROB occupancy Critical Load Stall Begin: 352
Min ROB occupancy Critical Load Stall End: 55
Max ROB occupancy Critical Load Stall End: 352
 ROB Load Stall Begin Bucket Count 0: 17842
 ROB Load Stall End Bucket Count 0: 15177
 ROB Critical Load Stall Begin Bucket Count 0: 0
 ROB Critical Load Stall End Bucket Count 0: 0
 ROB Load Stall Begin Bucket Count 1: 10577
 ROB Load Stall End Bucket Count 1: 9865
 ROB Critical Load Stall Begin Bucket Count 1: 137
 ROB Critical Load Stall End Bucket Count 1: 128
 ROB Load Stall Begin Bucket Count 2: 39706
 ROB Load Stall End Bucket Count 2: 26131
 ROB Critical Load Stall Begin Bucket Count 2: 273
 ROB Critical Load Stall End Bucket Count 2: 203
 ROB Load Stall Begin Bucket Count 3: 258155
 ROB Load Stall End Bucket Count 3: 159484
 ROB Critical Load Stall Begin Bucket Count 3: 384
 ROB Critical Load Stall End Bucket Count 3: 292
 ROB Load Stall Begin Bucket Count 4: 983556
 ROB Load Stall End Bucket Count 4: 709834
 ROB Critical Load Stall Begin Bucket Count 4: 3200
 ROB Critical Load Stall End Bucket Count 4: 2012
 ROB Load Stall Begin Bucket Count 5: 962865
 ROB Load Stall End Bucket Count 5: 943972
 ROB Critical Load Stall Begin Bucket Count 5: 9229
 ROB Critical Load Stall End Bucket Count 5: 6410
 ROB Load Stall Begin Bucket Count 6: 1201310
 ROB Load Stall End Bucket Count 6: 1609548
 ROB Critical Load Stall Begin Bucket Count 6: 92301
 ROB Critical Load Stall End Bucket Count 6: 96479
PIST Tag Read Accesses: 0
PIST Read Accesses: 0
PIST Tag Write Accesses: 0
PIST Write Accesses: 0
Criticality detector called times: 0
Max global_stall_cycles_count: 0
Threshold Modified: 0 times, factor: 0
Sturdy critical IP cache stats: 
 Unused entries: 0
CIC Tag Read Accesses: 0
CIC Read Accesses: 0
CIC Tag Write Accesses: 0
CIC Write Accesses: 0
Wobbly critical IP cache stats: 
 Unused entries: 22
CIC Tag Read Accesses: 253812399
CIC Read Accesses: 0
CIC Tag Write Accesses: 8829255
CIC Write Accesses: 0
ITLB TOTAL     ACCESS:   14652005  HIT:   14652005  MISS:          0  HIT %:        100  MISS %:          0   MPKI: 0
ITLB LOAD TRANSLATION ACCESS:   14652005  HIT:   14652005  MISS:          0  HIT %:        100  MISS %:          0   MPKI: 0
ITLB PREFETCH  REQUESTED:          0  ISSUED:          0  USEFUL:          0  USELESS:          0
ITLB USEFUL LOAD PREFETCHES:          0 PREFETCH ISSUED TO LOWER LEVEL:          0  ACCURACY: -nan
ITLB TIMELY PREFETCHES:          0 LATE PREFETCHES: 0 DROPPED PREFETCHES: 0
ITLB PREFETCHES SAME FILL-ORIGIN LEVEL: 0 DIFFERENT FILL-ORIGIN LEVEL: 0
ITLB AVERAGE MISS LATENCY: -nan cycles
ITLB RQ	ACCESS:   19143595	FORWARD:          0	MERGED:    4491589	TO_CACHE:   14652006

DTLB TOTAL     ACCESS:   12588590  HIT:   12552582  MISS:      36008  HIT %:     99.714  MISS %:   0.286037   MPKI: 0.36008
DTLB LOAD TRANSLATION ACCESS:   12588590  HIT:   12552582  MISS:      36008  HIT %:     99.714  MISS %:   0.286037   MPKI: 0.36008
DTLB PREFETCH  REQUESTED:          0  ISSUED:          0  USEFUL:          0  USELESS:          0
DTLB USEFUL LOAD PREFETCHES:          0 PREFETCH ISSUED TO LOWER LEVEL:          0  ACCURACY: -nan
DTLB TIMELY PREFETCHES:          0 LATE PREFETCHES: 0 DROPPED PREFETCHES: 0
DTLB PREFETCHES SAME FILL-ORIGIN LEVEL: 0 DIFFERENT FILL-ORIGIN LEVEL: 0
DTLB AVERAGE MISS LATENCY: 9.99811 cycles
DTLB RQ	ACCESS:   14182498	FORWARD:          0	MERGED:    1593847	TO_CACHE:   12588651

STLB TOTAL     ACCESS:      36008  HIT:      35890  MISS:        118  HIT %:    99.6723  MISS %:   0.327705   MPKI: 0.00118
STLB LOAD TRANSLATION ACCESS:      36008  HIT:      35890  MISS:        118  HIT %:    99.6723  MISS %:   0.327705   MPKI: 0.00118
STLB PREFETCH  REQUESTED:          0  ISSUED:          0  USEFUL:          0  USELESS:          0
STLB USEFUL LOAD PREFETCHES:          0 PREFETCH ISSUED TO LOWER LEVEL:          0  ACCURACY: -nan
STLB TIMELY PREFETCHES:          0 LATE PREFETCHES: 0 DROPPED PREFETCHES: 0
STLB PREFETCHES SAME FILL-ORIGIN LEVEL: 0 DIFFERENT FILL-ORIGIN LEVEL: 0
STLB AVERAGE MISS LATENCY: 304.424 cycles
STLB RQ	ACCESS:      36008	FORWARD:          0	MERGED:          0	TO_CACHE:      36008

STLB Hit, L1D data hit: 0
STLB Hit, L2C data hit: 0
STLB Hit, LLC data hit: 0
STLB Hit, LLC data miss: 0
STLB STLB hints to L2: 0
L1D TOTAL     ACCESS:   13829103  HIT:   11926893  MISS:    1902210  HIT %:    86.2449  MISS %:    13.7551   MPKI: 19.0221
L1D LOAD      ACCESS:   12517861  HIT:   10616210  MISS:    1901651  HIT %:    84.8085  MISS %:    15.1915   MPKI: 19.0165
L1D RFO       ACCESS:    1311242  HIT:    1310683  MISS:        559  HIT %:    99.9574  MISS %:  0.0426313   MPKI: 0.00559
L1D PREFETCH  REQUESTED:          0  ISSUED:          0  USEFUL:          0  USELESS:          0
L1D USEFUL LOAD PREFETCHES:          0 PREFETCH ISSUED TO LOWER LEVEL:          0  ACCURACY: -nan
L1D TIMELY PREFETCHES:          0 LATE PREFETCHES: 0 DROPPED PREFETCHES: 0
L1D PREFETCHES SAME FILL-ORIGIN LEVEL: 0 DIFFERENT FILL-ORIGIN LEVEL: 0
L1D AVERAGE MISS LATENCY: 53.9087 cycles
L1D RQ	ACCESS:   29502429	FORWARD:          0	MERGED:   16401456	TO_CACHE:   12870495
L1D WQ	ACCESS:    1312392	FORWARD:     230478	MERGED:        389	TO_CACHE:    1312003

L1D UNIQUE REGIONS ACCESSED: 0
L1D REGIONS CONFLICTS: 0
L1D Cross Page Prefetch Requests: 0
L1D Same Page Prefetch Requests: 0
L1D ROI Sum of L1D PQ occupancy: 0
L1D PREFETCHES PUSHED FROM L2C: 0
L1I TOTAL     ACCESS:   19143593  HIT:   19143593  MISS:          0  HIT %:        100  MISS %:          0   MPKI: 0
L1I LOAD      ACCESS:   19143593  HIT:   19143593  MISS:          0  HIT %:        100  MISS %:          0   MPKI: 0
L1I PREFETCH  REQUESTED:          0  ISSUED:          0  USEFUL:          0  USELESS:          0
L1I USEFUL LOAD PREFETCHES:          0 PREFETCH ISSUED TO LOWER LEVEL:          0  ACCURACY: -nan
L1I TIMELY PREFETCHES:          0 LATE PREFETCHES: 0 DROPPED PREFETCHES: 0
L1I PREFETCHES SAME FILL-ORIGIN LEVEL: 0 DIFFERENT FILL-ORIGIN LEVEL: 0
L1I AVERAGE MISS LATENCY: -nan cycles
L1I RQ	ACCESS:   37553643	FORWARD:          0	MERGED:   18410048	TO_CACHE:   19143595

BTB TOTAL     ACCESS:   16819652  HIT:   16818888  MISS:        764  HIT %:    99.9955  MISS %: 0.00454231   MPKI: 0.00764
BTB BRANCH_DIRECT_JUMP	ACCESS:        864  HIT:        862  MISS:          2
BTB BRANCH_INDIRECT	ACCESS:          0  HIT:          0  MISS:          0
BTB BRANCH_CONDITIONAL	ACCESS:   15520978  HIT:   15520945  MISS:         33
BTB BRANCH_DIRECT_CALL	ACCESS:     325128  HIT:     325115  MISS:         13
BTB BRANCH_INDIRECT_CALL	ACCESS:     323778  HIT:     323772  MISS:          6
BTB BRANCH_RETURN	ACCESS:     648904  HIT:     648194  MISS:        710
BTB BRANCH_OTHER ACCESS:          0  HIT:          0  MISS:          0

L2C TOTAL     ACCESS:    2036130  HIT:     133739  MISS:    1902391  HIT %:    6.56829  MISS %:    93.4317   MPKI: 19.0239
L2C LOAD      ACCESS:    1901651  HIT:     132692  MISS:    1768959  HIT %:    6.97773  MISS %:    93.0223   MPKI: 17.6896
L2C DATA LOAD MPKI: 17.6896
L2C INSTRUCTION LOAD MPKI: 0
L2C RFO       ACCESS:        559  HIT:         21  MISS:        538  HIT %:    3.75671  MISS %:    96.2433   MPKI: 0.00538
L2C PREFETCH  ACCESS:     132979  HIT:        174  MISS:     132805  HIT %:   0.130848  MISS %:    99.8692   MPKI: 1.32805
L2C DATA PREFETCH MPKI: 1.32805
L2C INSTRUCTION PREFETCH MPKI: 0
L2C WRITEBACK ACCESS:        823  HIT:        823  MISS:          0  HIT %:        100  MISS %:          0   MPKI: 0
L2C LOAD TRANSLATION ACCESS:        118  HIT:         29  MISS:         89  HIT %:    24.5763  MISS %:    75.4237   MPKI: 0.00089
L2C PREFETCH  REQUESTED:     133030  ISSUED:     133030  USEFUL:     132266  USELESS:        754
L2C USEFUL LOAD PREFETCHES:     132266 PREFETCH ISSUED TO LOWER LEVEL:     132849  ACCURACY: 99.5612
L2C TIMELY PREFETCHES:     132266 LATE PREFETCHES: 44 DROPPED PREFETCHES: 0
L2C PREFETCHES SAME FILL-ORIGIN LEVEL: 132849 DIFFERENT FILL-ORIGIN LEVEL: 0
L2C AVERAGE MISS LATENCY: 41.7117 cycles
L2C RQ	ACCESS:    1902328	FORWARD:          0	MERGED:          0	TO_CACHE:    1902328
L2C WQ	ACCESS:        823	FORWARD:          0	MERGED:          0	TO_CACHE:        823
L2C PQ	ACCESS:     133030	FORWARD:          0	MERGED:          0	TO_CACHE:     133030

L2C Instructions Evicting Data 0
L2C Translations Evicting Data 89
L2C Data Evicting Data 1902213
L2C Instructions Evicting Instructions 0
L2C Translations Evicting Instructions 0
L2C Data Evicting Instructions 0
L2C Instructions Evicting Translations 0
L2C Translations Evicting Translations 0
L2C Data Evicting Translations 89
L2C Dense regions hint from L2: 0
PSCL5 TOTAL     ACCESS:        118  HIT:        118  MISS:          0  HIT %:        100  MISS %:          0   MPKI: 0
PSCL5 LOAD TRANSLATION ACCESS:        118  HIT:        118  MISS:          0  HIT %:        100  MISS %:          0   MPKI: 0
PSCL5 PREFETCH  REQUESTED:          0  ISSUED:          0  USEFUL:          0  USELESS:          0
PSCL5 USEFUL LOAD PREFETCHES:          0 PREFETCH ISSUED TO LOWER LEVEL:          0  ACCURACY: -nan
PSCL5 TIMELY PREFETCHES:          0 LATE PREFETCHES: 0 DROPPED PREFETCHES: 0
PSCL5 PREFETCHES SAME FILL-ORIGIN LEVEL: 0 DIFFERENT FILL-ORIGIN LEVEL: 0

PSCL4 TOTAL     ACCESS:        118  HIT:        118  MISS:          0  HIT %:        100  MISS %:          0   MPKI: 0
PSCL4 LOAD TRANSLATION ACCESS:        118  HIT:        118  MISS:          0  HIT %:        100  MISS %:          0   MPKI: 0
PSCL4 PREFETCH  REQUESTED:          0  ISSUED:          0  USEFUL:          0  USELESS:          0
PSCL4 USEFUL LOAD PREFETCHES:          0 PREFETCH ISSUED TO LOWER LEVEL:          0  ACCURACY: -nan
PSCL4 TIMELY PREFETCHES:          0 LATE PREFETCHES: 0 DROPPED PREFETCHES: 0
PSCL4 PREFETCHES SAME FILL-ORIGIN LEVEL: 0 DIFFERENT FILL-ORIGIN LEVEL: 0

PSCL3 TOTAL     ACCESS:        118  HIT:        118  MISS:          0  HIT %:        100  MISS %:          0   MPKI: 0
PSCL3 LOAD TRANSLATION ACCESS:        118  HIT:        118  MISS:          0  HIT %:        100  MISS %:          0   MPKI: 0
PSCL3 PREFETCH  REQUESTED:          0  ISSUED:          0  USEFUL:          0  USELESS:          0
PSCL3 USEFUL LOAD PREFETCHES:          0 PREFETCH ISSUED TO LOWER LEVEL:          0  ACCURACY: -nan
PSCL3 TIMELY PREFETCHES:          0 LATE PREFETCHES: 0 DROPPED PREFETCHES: 0
PSCL3 PREFETCHES SAME FILL-ORIGIN LEVEL: 0 DIFFERENT FILL-ORIGIN LEVEL: 0

PSCL2 TOTAL     ACCESS:        118  HIT:        118  MISS:          0  HIT %:        100  MISS %:          0   MPKI: 0
PSCL2 LOAD TRANSLATION ACCESS:        118  HIT:        118  MISS:          0  HIT %:        100  MISS %:          0   MPKI: 0
PSCL2 PREFETCH  REQUESTED:          0  ISSUED:          0  USEFUL:          0  USELESS:          0
PSCL2 USEFUL LOAD PREFETCHES:          0 PREFETCH ISSUED TO LOWER LEVEL:          0  ACCURACY: -nan
PSCL2 TIMELY PREFETCHES:          0 LATE PREFETCHES: 0 DROPPED PREFETCHES: 0
PSCL2 PREFETCHES SAME FILL-ORIGIN LEVEL: 0 DIFFERENT FILL-ORIGIN LEVEL: 0

LLC TOTAL     ACCESS:    1903219  HIT:    1624702  MISS:     278517  HIT %:     85.366  MISS %:     14.634   MPKI: 2.78517
LLC LOAD      ACCESS:    1768915  HIT:    1510778  MISS:     258137  HIT %:     85.407  MISS %:     14.593   MPKI: 2.58137
LLC RFO       ACCESS:        538  HIT:        217  MISS:        321  HIT %:    40.3346  MISS %:    59.6654   MPKI: 0.00321
LLC PREFETCH  ACCESS:     132849  HIT:     113180  MISS:      19669  HIT %:    85.1945  MISS %:    14.8055   MPKI: 0.19669
LLC WRITEBACK ACCESS:        828  HIT:        524  MISS:        304  HIT %:     63.285  MISS %:     36.715   MPKI: 0.00304
LLC LOAD TRANSLATION ACCESS:         89  HIT:          3  MISS:         86  HIT %:    3.37079  MISS %:    96.6292   MPKI: 0.00086
LLC PREFETCH  REQUESTED:          0  ISSUED:          0  USEFUL:      22560  USELESS:      22312
LLC USEFUL LOAD PREFETCHES:      22560 PREFETCH ISSUED TO LOWER LEVEL:      19669  ACCURACY: 114.698
LLC TIMELY PREFETCHES:      22560 LATE PREFETCHES: 0 DROPPED PREFETCHES: 0
LLC PREFETCHES SAME FILL-ORIGIN LEVEL: 0 DIFFERENT FILL-ORIGIN LEVEL: 0
LLC AVERAGE MISS LATENCY: 79.9936 cycles
LLC RQ	ACCESS:    1769542	FORWARD:          0	MERGED:          0	TO_CACHE:    1769542
LLC WQ	ACCESS:        828	FORWARD:          0	MERGED:          0	TO_CACHE:        828
LLC PQ	ACCESS:     132849	FORWARD:          0	MERGED:          0	TO_CACHE:     132849

LLC Dense regions hint to LLC: 0

RAW hits: 1985
Loads Generated: 29504419
Loads sent to L1D: 29502429
Stores Generated: 1312389
Stores sent to L1D: 1312392
Major fault: 0 Minor fault: 823
Allocated PAGES: 823
[Bingo] PHT Access: 46278
[Bingo] PHT Hit PC+Addr: 1267
[Bingo] PHT Hit PC+Offs: 44767
[Bingo] PHT Miss: 244
[Bingo] Prefetch PC+Addr: 0
[Bingo] Prefetch PC+Offs: 0
[Bingo] Useful PC+Addr: 0
[Bingo] Useful PC+Offs: 0
[Bingo] Useless PC+Addr: 0
[Bingo] Useless PC+Offs: 0
[Bingo] L1 Prefetch per Region: 0
[Bingo] L2 Prefetch per Region: 3.89065
[Bingo] L3 Prefetch per Region: 0
[Bingo] No Prefetch per Region: 28.1094
[Bingo] Number of Voters Mean: 15.9022
[Bingo] Number of Voters SD: 13.2545
PHT read accesses: 722317
PHT write accesses: 45873
AT read accesses: 117917
AT write accesses: 153050
FT read accesses: 138280
FT write accesses: 46278
PS read accesses: 92252
PS write accesses: 46034
PHT tag read accesses: 2173584
PHT tag write accesses: 47140
AT tag read accesses: 34614106
AT tag write accesses: 163918
FT tag read accesses: 33043469
FT tag write accesses: 138557
PS tag read accesses: 3983934
PS tag write accesses: 138286

DRAM Statistics
 CHANNEL 0
 RQ ROW_BUFFER_HIT:     251217  ROW_BUFFER_MISS:      26996
 DBUS_CONGESTED:          0
 WQ ROW_BUFFER_HIT:          8  ROW_BUFFER_MISS:         63  FULL:          0

 AVG_CONGESTED_CYCLE: -
 All warmup complete: 2
Channel 0 Bank busy for read cycles: 0
Channel 0 Bank busy for write cycles: 0
Channel 0
Rank 0
0banks busy for read cycles: 121667529
0banks busy for write cycles: 70
1banks busy for read cycles: 9448422
1banks busy for write cycles: 12954
2banks busy for read cycles: 1841769
2banks busy for write cycles: 241
3banks busy for read cycles: 776552
3banks busy for write cycles: 0
4banks busy for read cycles: 223153
4banks busy for write cycles: 0
5banks busy for read cycles: 28079
5banks busy for write cycles: 0
6banks busy for read cycles: 12773
6banks busy for write cycles: 0
7banks busy for read cycles: 2970
7banks busy for write cycles: 0
8banks busy for read cycles: 2275
8banks busy for write cycles: 0

CPU 0 Branch Prediction Accuracy: 99.9967% MPKI: 0.00917 Average ROB Occupancy at Mispredict: 251.521
Branch types
NOT_BRANCH: 72112621 72.1126%
BRANCH_DIRECT_JUMP: 864 0.000864%
BRANCH_INDIRECT: 0 0%
BRANCH_CONDITIONAL: 26588582 26.5886%
BRANCH_DIRECT_CALL: 325128 0.325128%
BRANCH_INDIRECT_CALL: 323778 0.323778%
BRANCH_RETURN: 648904 0.648904%
BRANCH_OTHER: 0 0%

DRAM PAGES: 1048576
Allocated PAGES: 823
