
*** ChampSim Multicore Out-of-Order Simulator ***

Warmup Instructions: 50000000
Simulation Instructions: 100000000
Number of CPUs: 1
LLC sets: 2048
LLC ways: 16
Off-chip DRAM Size: 4096 MB Channels: 1 Width: 64-bit Data Rate: 6400 MT/s
CPU 0 runs ../SPEC2017//623.xalancbmk_s-10B.champsimtrace.xz
.xz
BTB has LRU replacement policy
ITLB has LRU replacement policy
DTLB has LRU replacement policy
STLB has LRU replacement policy
L1I has LRU replacement policy
IP Table Entries: 64
L1D has LRU replacement policy
Initialize SRRIP state for L2C
Initialize DRRIP state for LLC
Heartbeat CPU 0 instructions: 10000002 cycles: 3143989 heartbeat IPC: 3.18067 cumulative IPC: 3.18067 (Simulation time: 0 hr 4 min 34 sec) 
Heartbeat CPU 0 instructions: 20000000 cycles: 6294341 heartbeat IPC: 3.17425 cumulative IPC: 3.17746 (Simulation time: 0 hr 8 min 17 sec) 
Heartbeat CPU 0 instructions: 30000001 cycles: 9436116 heartbeat IPC: 3.18291 cumulative IPC: 3.17927 (Simulation time: 0 hr 11 min 54 sec) 
Heartbeat CPU 0 instructions: 40000003 cycles: 12570258 heartbeat IPC: 3.19067 cumulative IPC: 3.18211 (Simulation time: 0 hr 15 min 28 sec) 
Heartbeat CPU 0 instructions: 50000003 cycles: 15743417 heartbeat IPC: 3.15143 cumulative IPC: 3.17593 (Simulation time: 0 hr 18 min 54 sec) 

Warmup complete CPU 0 instructions: 50000003 cycles: 15743417 (Simulation time: 0 hr 18 min 54 sec) 

Heartbeat CPU 0 instructions: 60000001 cycles: 45046087 heartbeat IPC: 0.341266 cumulative IPC: 0.341266 (Simulation time: 0 hr 24 min 59 sec) 
Heartbeat CPU 0 instructions: 70000000 cycles: 73964530 heartbeat IPC: 0.3458 cumulative IPC: 0.343518 (Simulation time: 0 hr 30 min 0 sec) 
Heartbeat CPU 0 instructions: 80000002 cycles: 103140161 heartbeat IPC: 0.342752 cumulative IPC: 0.343262 (Simulation time: 0 hr 35 min 23 sec) 
Heartbeat CPU 0 instructions: 90000002 cycles: 131359734 heartbeat IPC: 0.354364 cumulative IPC: 0.345972 (Simulation time: 0 hr 40 min 21 sec) 
Heartbeat CPU 0 instructions: 100000003 cycles: 160956404 heartbeat IPC: 0.337876 cumulative IPC: 0.344322 (Simulation time: 0 hr 45 min 30 sec) 
Heartbeat CPU 0 instructions: 110000000 cycles: 188684631 heartbeat IPC: 0.360643 cumulative IPC: 0.346939 (Simulation time: 0 hr 50 min 19 sec) 
Heartbeat CPU 0 instructions: 120000001 cycles: 216762051 heartbeat IPC: 0.356158 cumulative IPC: 0.348226 (Simulation time: 0 hr 54 min 45 sec) 
Heartbeat CPU 0 instructions: 130000000 cycles: 247218882 heartbeat IPC: 0.328334 cumulative IPC: 0.345609 (Simulation time: 0 hr 58 min 26 sec) 
Heartbeat CPU 0 instructions: 140000001 cycles: 277209465 heartbeat IPC: 0.333438 cumulative IPC: 0.344213 (Simulation time: 1 hr 0 min 55 sec) 
Heartbeat CPU 0 instructions: 150000003 cycles: 304278874 heartbeat IPC: 0.369421 cumulative IPC: 0.346578 (Simulation time: 1 hr 3 min 7 sec) 
Finished CPU 0 instructions: 100000000 cycles: 288535457 cumulative IPC: 0.346578 (Simulation time: 1 hr 3 min 7 sec) 

ChampSim completed all CPUs

Region of Interest Statistics

CPU 0 cumulative IPC: 0.346578 instructions: 100000000 cycles: 288535457

CPU 0 Average Load ROB stall cycles: 6.76263e+07
CPU 0 Fraction of times ROB stalled by Loads: 41.9141
CPU 0 Percentage of Load stall cycles in Total stall cycles: 4.48896e+08
Issued all: 191926905
Issued LT all: 181276505
rob_not_full_when_issued_lt_all: 35528977
Issued LT one: 168670293
rob_not_full_when_issued_lt_one: 30944400
HPCA_2009 critical_dynamic_instances_0: 207634
HPCA_2009 unique_critical_ips_0: 2945
multiple_destinations_0: 0
load_to_same_dest_0: 0
low_issue_rate_0: 33885368
total_issue_rate_checked_count_0: 34301023
 Total stall cycles: 260695546
 Total load stall cycles: 1170253089331732
Unique Load IPs: 3710
CPU 0 NUM of IPS identified critical: 0
CPU 0 Num of Load IPs stalling ROB: 0
Threshold modification factor: 0
Trouble in retire width: -nan
MaC = Marked as critical.
lt_50_percent_before_Mac: 0
gt_90_percent_before_Mac: 0
gt_75_percent_before_Mac: 0
gt_50_percent_before_Mac: 0
stall_proportion_bin_same_before_after: 0
stall_proportion_bin_lower_before_after: 0
stall_proportion_bin_upper_before_after: 0
average_stall_proportion_before: -nan
average_stall_proportion_after: -nan
Critical IP stalls, total frequency: 0
Non-critical IP stalls, total frequency: 0
Total Freq all stalling IPs: 0
Critical_IP_Detector_Accuracy_70: 0
Critical_IP_Detector_Accuracy_80: 0
Critical_IP_Detector_Accuracy_90: 0
Critical_IP_Detector_Coverage_70: 0
Critical_IP_Detector_Coverage_80: 0
Critical_IP_Detector_Coverage_90: 0
stat_90_percent_critical_ip_stalls_freq: 361986
stat_90_percent_non_critical_ip_stalls_freq: 18446744073709189630
AVERAGE_ROB_Occupancy_90_Percent_Critical_IP_Stalls: 308.174
AVERAGE_ROB_Occupancy_90_Percent_Non_Critical_IP_Stalls: 7.29643e-11
Critical_IP_ROB_Stalls_Bucket_0: 0
Non-critical_IP_ROB_Stalls_Bucket_0: 2194032
Critical_IP_ROB_Stalls_Bucket_1: 0
Non-critical_IP_ROB_Stalls_Bucket_1: 682450
Critical_IP_ROB_Stalls_Bucket_2: 0
Non-critical_IP_ROB_Stalls_Bucket_2: 283847
Critical_IP_ROB_Stalls_Bucket_3: 0
Non-critical_IP_ROB_Stalls_Bucket_3: 146222
Critical_IP_ROB_Stalls_Bucket_4: 0
Non-critical_IP_ROB_Stalls_Bucket_4: 135625
Critical_IP_ROB_Stalls_Bucket_5: 0
Non-critical_IP_ROB_Stalls_Bucket_5: 393353
Critical_IP_ROB_Stalls_Bucket_6: 0
Non-critical_IP_ROB_Stalls_Bucket_6: 3417582
0 => IPs accounting for >50 percent of stalls, 1 => 55, 2 => 60, 3 => 65 and so on till 90.
percent50: inf num IPs:  1
percent55: inf num IPs: 1
percent60: inf num IPs: 1
percent65: inf num IPs: 1
percent70: inf num IPs: 1
percent75: inf num IPs: 1
percent80: inf num IPs: 1
percent85: inf num IPs: 1
percent90: inf num IPs: 1
Critical_ROB_Stalls_Percent_0_Bucket_0: 36
Non-critical_ROB_Stalls_Percent_0_Bucket_0: 2193996
Critical_ROB_Stalls_Percent_0_Bucket_1: 30105
Non-critical_ROB_Stalls_Percent_0_Bucket_1: 652345
Critical_ROB_Stalls_Percent_0_Bucket_2: 19639
Non-critical_ROB_Stalls_Percent_0_Bucket_2: 264208
Critical_ROB_Stalls_Percent_0_Bucket_3: 6678
Non-critical_ROB_Stalls_Percent_0_Bucket_3: 139544
Critical_ROB_Stalls_Percent_0_Bucket_4: 9193
Non-critical_ROB_Stalls_Percent_0_Bucket_4: 126432
Critical_ROB_Stalls_Percent_0_Bucket_5: 3778
Non-critical_ROB_Stalls_Percent_0_Bucket_5: 389575
Critical_ROB_Stalls_Percent_0_Bucket_6: 292557
Non-critical_ROB_Stalls_Percent_0_Bucket_6: 3125025
Critical_ROB_Stalls_Percent_1_Bucket_0: 36
Non-critical_ROB_Stalls_Percent_1_Bucket_0: 2193996
Critical_ROB_Stalls_Percent_1_Bucket_1: 30105
Non-critical_ROB_Stalls_Percent_1_Bucket_1: 652345
Critical_ROB_Stalls_Percent_1_Bucket_2: 19639
Non-critical_ROB_Stalls_Percent_1_Bucket_2: 264208
Critical_ROB_Stalls_Percent_1_Bucket_3: 6678
Non-critical_ROB_Stalls_Percent_1_Bucket_3: 139544
Critical_ROB_Stalls_Percent_1_Bucket_4: 9193
Non-critical_ROB_Stalls_Percent_1_Bucket_4: 126432
Critical_ROB_Stalls_Percent_1_Bucket_5: 3778
Non-critical_ROB_Stalls_Percent_1_Bucket_5: 389575
Critical_ROB_Stalls_Percent_1_Bucket_6: 292557
Non-critical_ROB_Stalls_Percent_1_Bucket_6: 3125025
Critical_ROB_Stalls_Percent_2_Bucket_0: 36
Non-critical_ROB_Stalls_Percent_2_Bucket_0: 2193996
Critical_ROB_Stalls_Percent_2_Bucket_1: 30105
Non-critical_ROB_Stalls_Percent_2_Bucket_1: 652345
Critical_ROB_Stalls_Percent_2_Bucket_2: 19639
Non-critical_ROB_Stalls_Percent_2_Bucket_2: 264208
Critical_ROB_Stalls_Percent_2_Bucket_3: 6678
Non-critical_ROB_Stalls_Percent_2_Bucket_3: 139544
Critical_ROB_Stalls_Percent_2_Bucket_4: 9193
Non-critical_ROB_Stalls_Percent_2_Bucket_4: 126432
Critical_ROB_Stalls_Percent_2_Bucket_5: 3778
Non-critical_ROB_Stalls_Percent_2_Bucket_5: 389575
Critical_ROB_Stalls_Percent_2_Bucket_6: 292557
Non-critical_ROB_Stalls_Percent_2_Bucket_6: 3125025
Critical_ROB_Stalls_Percent_3_Bucket_0: 36
Non-critical_ROB_Stalls_Percent_3_Bucket_0: 2193996
Critical_ROB_Stalls_Percent_3_Bucket_1: 30105
Non-critical_ROB_Stalls_Percent_3_Bucket_1: 652345
Critical_ROB_Stalls_Percent_3_Bucket_2: 19639
Non-critical_ROB_Stalls_Percent_3_Bucket_2: 264208
Critical_ROB_Stalls_Percent_3_Bucket_3: 6678
Non-critical_ROB_Stalls_Percent_3_Bucket_3: 139544
Critical_ROB_Stalls_Percent_3_Bucket_4: 9193
Non-critical_ROB_Stalls_Percent_3_Bucket_4: 126432
Critical_ROB_Stalls_Percent_3_Bucket_5: 3778
Non-critical_ROB_Stalls_Percent_3_Bucket_5: 389575
Critical_ROB_Stalls_Percent_3_Bucket_6: 292557
Non-critical_ROB_Stalls_Percent_3_Bucket_6: 3125025
Critical_ROB_Stalls_Percent_4_Bucket_0: 36
Non-critical_ROB_Stalls_Percent_4_Bucket_0: 2193996
Critical_ROB_Stalls_Percent_4_Bucket_1: 30105
Non-critical_ROB_Stalls_Percent_4_Bucket_1: 652345
Critical_ROB_Stalls_Percent_4_Bucket_2: 19639
Non-critical_ROB_Stalls_Percent_4_Bucket_2: 264208
Critical_ROB_Stalls_Percent_4_Bucket_3: 6678
Non-critical_ROB_Stalls_Percent_4_Bucket_3: 139544
Critical_ROB_Stalls_Percent_4_Bucket_4: 9193
Non-critical_ROB_Stalls_Percent_4_Bucket_4: 126432
Critical_ROB_Stalls_Percent_4_Bucket_5: 3778
Non-critical_ROB_Stalls_Percent_4_Bucket_5: 389575
Critical_ROB_Stalls_Percent_4_Bucket_6: 292557
Non-critical_ROB_Stalls_Percent_4_Bucket_6: 3125025
Critical_ROB_Stalls_Percent_5_Bucket_0: 36
Non-critical_ROB_Stalls_Percent_5_Bucket_0: 2193996
Critical_ROB_Stalls_Percent_5_Bucket_1: 30105
Non-critical_ROB_Stalls_Percent_5_Bucket_1: 652345
Critical_ROB_Stalls_Percent_5_Bucket_2: 19639
Non-critical_ROB_Stalls_Percent_5_Bucket_2: 264208
Critical_ROB_Stalls_Percent_5_Bucket_3: 6678
Non-critical_ROB_Stalls_Percent_5_Bucket_3: 139544
Critical_ROB_Stalls_Percent_5_Bucket_4: 9193
Non-critical_ROB_Stalls_Percent_5_Bucket_4: 126432
Critical_ROB_Stalls_Percent_5_Bucket_5: 3778
Non-critical_ROB_Stalls_Percent_5_Bucket_5: 389575
Critical_ROB_Stalls_Percent_5_Bucket_6: 292557
Non-critical_ROB_Stalls_Percent_5_Bucket_6: 3125025
Critical_ROB_Stalls_Percent_6_Bucket_0: 36
Non-critical_ROB_Stalls_Percent_6_Bucket_0: 2193996
Critical_ROB_Stalls_Percent_6_Bucket_1: 30105
Non-critical_ROB_Stalls_Percent_6_Bucket_1: 652345
Critical_ROB_Stalls_Percent_6_Bucket_2: 19639
Non-critical_ROB_Stalls_Percent_6_Bucket_2: 264208
Critical_ROB_Stalls_Percent_6_Bucket_3: 6678
Non-critical_ROB_Stalls_Percent_6_Bucket_3: 139544
Critical_ROB_Stalls_Percent_6_Bucket_4: 9193
Non-critical_ROB_Stalls_Percent_6_Bucket_4: 126432
Critical_ROB_Stalls_Percent_6_Bucket_5: 3778
Non-critical_ROB_Stalls_Percent_6_Bucket_5: 389575
Critical_ROB_Stalls_Percent_6_Bucket_6: 292557
Non-critical_ROB_Stalls_Percent_6_Bucket_6: 3125025
Critical_ROB_Stalls_Percent_7_Bucket_0: 36
Non-critical_ROB_Stalls_Percent_7_Bucket_0: 2193996
Critical_ROB_Stalls_Percent_7_Bucket_1: 30105
Non-critical_ROB_Stalls_Percent_7_Bucket_1: 652345
Critical_ROB_Stalls_Percent_7_Bucket_2: 19639
Non-critical_ROB_Stalls_Percent_7_Bucket_2: 264208
Critical_ROB_Stalls_Percent_7_Bucket_3: 6678
Non-critical_ROB_Stalls_Percent_7_Bucket_3: 139544
Critical_ROB_Stalls_Percent_7_Bucket_4: 9193
Non-critical_ROB_Stalls_Percent_7_Bucket_4: 126432
Critical_ROB_Stalls_Percent_7_Bucket_5: 3778
Non-critical_ROB_Stalls_Percent_7_Bucket_5: 389575
Critical_ROB_Stalls_Percent_7_Bucket_6: 292557
Non-critical_ROB_Stalls_Percent_7_Bucket_6: 3125025
Critical_ROB_Stalls_Percent_8_Bucket_0: 36
Non-critical_ROB_Stalls_Percent_8_Bucket_0: 2193996
Critical_ROB_Stalls_Percent_8_Bucket_1: 30105
Non-critical_ROB_Stalls_Percent_8_Bucket_1: 652345
Critical_ROB_Stalls_Percent_8_Bucket_2: 19639
Non-critical_ROB_Stalls_Percent_8_Bucket_2: 264208
Critical_ROB_Stalls_Percent_8_Bucket_3: 6678
Non-critical_ROB_Stalls_Percent_8_Bucket_3: 139544
Critical_ROB_Stalls_Percent_8_Bucket_4: 9193
Non-critical_ROB_Stalls_Percent_8_Bucket_4: 126432
Critical_ROB_Stalls_Percent_8_Bucket_5: 3778
Non-critical_ROB_Stalls_Percent_8_Bucket_5: 389575
Critical_ROB_Stalls_Percent_8_Bucket_6: 292557
Non-critical_ROB_Stalls_Percent_8_Bucket_6: 3125025
Average ROB occupancy Load Stall Begin: 193.94
Average ROB occupancy Load Stall End: 200.949
Min ROB occupancy Load Stall Begin: 1
Max ROB occupancy Load Stall Begin: 352
Min ROB occupancy Load Stall End: 1
Max ROB occupancy Load Stall End: 352
Average ROB occupancy Critical Load Stall Begin: -nan
Average ROB occupancy Critical Load Stall End: -nan
Min ROB occupancy Critical Load Stall Begin: 400
Max ROB occupancy Critical Load Stall Begin: 0
Min ROB occupancy Critical Load Stall End: 400
Max ROB occupancy Critical Load Stall End: 0
 ROB Load Stall Begin Bucket Count 0: 2341667
 ROB Load Stall End Bucket Count 0: 2194032
 ROB Critical Load Stall Begin Bucket Count 0: 0
 ROB Critical Load Stall End Bucket Count 0: 0
 ROB Load Stall Begin Bucket Count 1: 615887
 ROB Load Stall End Bucket Count 1: 682450
 ROB Critical Load Stall Begin Bucket Count 1: 0
 ROB Critical Load Stall End Bucket Count 1: 0
 ROB Load Stall Begin Bucket Count 2: 251587
 ROB Load Stall End Bucket Count 2: 283847
 ROB Critical Load Stall Begin Bucket Count 2: 0
 ROB Critical Load Stall End Bucket Count 2: 0
 ROB Load Stall Begin Bucket Count 3: 131026
 ROB Load Stall End Bucket Count 3: 146222
 ROB Critical Load Stall Begin Bucket Count 3: 0
 ROB Critical Load Stall End Bucket Count 3: 0
 ROB Load Stall Begin Bucket Count 4: 130361
 ROB Load Stall End Bucket Count 4: 135625
 ROB Critical Load Stall Begin Bucket Count 4: 0
 ROB Critical Load Stall End Bucket Count 4: 0
 ROB Load Stall Begin Bucket Count 5: 663625
 ROB Load Stall End Bucket Count 5: 393353
 ROB Critical Load Stall Begin Bucket Count 5: 0
 ROB Critical Load Stall End Bucket Count 5: 0
 ROB Load Stall Begin Bucket Count 6: 3118958
 ROB Load Stall End Bucket Count 6: 3417582
 ROB Critical Load Stall Begin Bucket Count 6: 0
 ROB Critical Load Stall End Bucket Count 6: 0
PIST Tag Read Accesses: 0
PIST Read Accesses: 0
PIST Tag Write Accesses: 0
PIST Write Accesses: 0
Criticality detector called times: 0
Max global_stall_cycles_count: 0
Threshold Modified: 0 times, factor: 0
ITLB TOTAL     ACCESS:   16553036  HIT:   16487091  MISS:      65945  HIT %:    99.6016  MISS %:   0.398386   MPKI: 0.65945
ITLB LOAD TRANSLATION ACCESS:   16553036  HIT:   16487091  MISS:      65945  HIT %:    99.6016  MISS %:   0.398386   MPKI: 0.65945
ITLB PREFETCH  REQUESTED:          0  ISSUED:          0  USEFUL:          0  USELESS:          0
ITLB USEFUL LOAD PREFETCHES:          0 PREFETCH ISSUED TO LOWER LEVEL:          0  ACCURACY: -nan
ITLB TIMELY PREFETCHES:          0 LATE PREFETCHES: 0 DROPPED PREFETCHES: 0
ITLB PREFETCHES SAME FILL-ORIGIN LEVEL: 0 DIFFERENT FILL-ORIGIN LEVEL: 0
ITLB AVERAGE MISS LATENCY: 12.6315 cycles
ITLB RQ	ACCESS:   19440912	FORWARD:          0	MERGED:    2871105	TO_CACHE:   16569807

DTLB TOTAL     ACCESS:   18371093  HIT:   17713404  MISS:     657689  HIT %:      96.42  MISS %:    3.58002   MPKI: 6.57689
DTLB LOAD TRANSLATION ACCESS:   18371093  HIT:   17713404  MISS:     657689  HIT %:      96.42  MISS %:    3.58002   MPKI: 6.57689
DTLB PREFETCH  REQUESTED:          0  ISSUED:          0  USEFUL:          0  USELESS:          0
DTLB USEFUL LOAD PREFETCHES:          0 PREFETCH ISSUED TO LOWER LEVEL:          0  ACCURACY: -nan
DTLB TIMELY PREFETCHES:          0 LATE PREFETCHES: 0 DROPPED PREFETCHES: 0
DTLB PREFETCHES SAME FILL-ORIGIN LEVEL: 0 DIFFERENT FILL-ORIGIN LEVEL: 0
DTLB AVERAGE MISS LATENCY: 46.6749 cycles
DTLB RQ	ACCESS:   20825748	FORWARD:          0	MERGED:    2383884	TO_CACHE:   18441864

STLB TOTAL     ACCESS:     728534  HIT:     247400  MISS:     481134  HIT %:    33.9586  MISS %:    66.0414   MPKI: 4.81134
STLB LOAD TRANSLATION ACCESS:     723634  HIT:     242508  MISS:     481126  HIT %:    33.5125  MISS %:    66.4875   MPKI: 4.81126
STLB TRANSLATION FROM L1D PREFETCHER ACCESS:       4900  HIT:       4892  MISS:          8  HIT %:    99.8367  MISS %:   0.163265   MPKI: 8e-05
STLB PREFETCH  REQUESTED:          0  ISSUED:          0  USEFUL:          8  USELESS:          0
STLB USEFUL LOAD PREFETCHES:          8 PREFETCH ISSUED TO LOWER LEVEL:          0  ACCURACY: inf
STLB TIMELY PREFETCHES:          8 LATE PREFETCHES: 0 DROPPED PREFETCHES: 0
STLB PREFETCHES SAME FILL-ORIGIN LEVEL: 0 DIFFERENT FILL-ORIGIN LEVEL: 0
STLB AVERAGE MISS LATENCY: 51.9523 cycles
STLB RQ	ACCESS:     729858	FORWARD:          0	MERGED:       1324	TO_CACHE:     728534

STLB Hit, L1D data hit: 0
STLB Hit, L2C data hit: 0
STLB Hit, LLC data hit: 0
STLB Hit, LLC data miss: 0
STLB STLB hints to L2: 0
L1D TOTAL     ACCESS:   20420431  HIT:   17766505  MISS:    2653926  HIT %:    87.0036  MISS %:    12.9964   MPKI: 26.5393
L1D LOAD      ACCESS:   15639243  HIT:   13029040  MISS:    2610203  HIT %:    83.3099  MISS %:    16.6901   MPKI: 26.102
L1D RFO       ACCESS:    4775539  HIT:    4734347  MISS:      41192  HIT %:    99.1374  MISS %:   0.862562   MPKI: 0.41192
L1D PREFETCH  ACCESS:       5649  HIT:       3118  MISS:       2531  HIT %:    55.1956  MISS %:    44.8044   MPKI: 0.02531
L1D PREFETCH  REQUESTED:      12448  ISSUED:      12448  USEFUL:        669  USELESS:       1862
L1D USEFUL LOAD PREFETCHES:        669 PREFETCH ISSUED TO LOWER LEVEL:       2641  ACCURACY: 25.3313
L1D TIMELY PREFETCHES:        669 LATE PREFETCHES: 83 DROPPED PREFETCHES: 0
L1D PREFETCHES SAME FILL-ORIGIN LEVEL: 2641 DIFFERENT FILL-ORIGIN LEVEL: 0
L1D AVERAGE MISS LATENCY: 6811.96 cycles
L1D RQ	ACCESS:   29318370	FORWARD:          0	MERGED:   12955002	TO_CACHE:   15929352
L1D WQ	ACCESS:    4982653	FORWARD:     434016	MERGED:      86257	TO_CACHE:    4896396
L1D PQ	ACCESS:       6224	FORWARD:          0	MERGED:          0	TO_CACHE:       6224

L1D UNIQUE REGIONS ACCESSED: 0
L1D REGIONS CONFLICTS: 0
L1D Cross Page Prefetch Requests: 0
L1D Same Page Prefetch Requests: 11382
L1D ROI Sum of L1D PQ occupancy: 80260
L1D PREFETCHES PUSHED FROM L2C: 0
L1I TOTAL     ACCESS:   19330866  HIT:   18973864  MISS:     357002  HIT %:    98.1532  MISS %:     1.8468   MPKI: 3.57002
L1I LOAD      ACCESS:   19330866  HIT:   18973864  MISS:     357002  HIT %:    98.1532  MISS %:     1.8468   MPKI: 3.57002
L1I PREFETCH  REQUESTED:          0  ISSUED:          0  USEFUL:          0  USELESS:          0
L1I USEFUL LOAD PREFETCHES:          0 PREFETCH ISSUED TO LOWER LEVEL:          0  ACCURACY: -nan
L1I TIMELY PREFETCHES:          0 LATE PREFETCHES: 0 DROPPED PREFETCHES: 0
L1I PREFETCHES SAME FILL-ORIGIN LEVEL: 0 DIFFERENT FILL-ORIGIN LEVEL: 0
L1I AVERAGE MISS LATENCY: 21.476 cycles
L1I RQ	ACCESS:   33258204	FORWARD:          0	MERGED:   13817292	TO_CACHE:   19440912

BTB TOTAL     ACCESS:   16568656  HIT:   16408085  MISS:     160571  HIT %:    99.0309  MISS %:   0.969125   MPKI: 1.60571
BTB BRANCH_DIRECT_JUMP	ACCESS:     263115  HIT:     262050  MISS:       1065
BTB BRANCH_INDIRECT	ACCESS:      46555  HIT:      18645  MISS:      27910
BTB BRANCH_CONDITIONAL	ACCESS:   13898878  HIT:   13893773  MISS:       5105
BTB BRANCH_DIRECT_CALL	ACCESS:     652097  HIT:     650141  MISS:       1956
BTB BRANCH_INDIRECT_CALL	ACCESS:     527959  HIT:     521714  MISS:       6245
BTB BRANCH_RETURN	ACCESS:    1180052  HIT:    1061762  MISS:     118290
BTB BRANCH_OTHER ACCESS:          0  HIT:          0  MISS:          0

L2C TOTAL     ACCESS:    3571319  HIT:    1039472  MISS:    2531847  HIT %:    29.1061  MISS %:    70.8939   MPKI: 25.3185
L2C LOAD      ACCESS:    2967122  HIT:     576820  MISS:    2390302  HIT %:    19.4404  MISS %:    80.5596   MPKI: 23.903
L2C DATA LOAD MPKI: 23.3474
L2C INSTRUCTION LOAD MPKI: 0.55558
L2C RFO       ACCESS:      41160  HIT:      15141  MISS:      26019  HIT %:    36.7857  MISS %:    63.2143   MPKI: 0.26019
L2C PREFETCH  ACCESS:       2641  HIT:        528  MISS:       2113  HIT %:    19.9924  MISS %:    80.0076   MPKI: 0.02113
L2C DATA PREFETCH MPKI: 0.02113
L2C INSTRUCTION PREFETCH MPKI: 0
L2C WRITEBACK ACCESS:      77078  HIT:      76531  MISS:        547  HIT %:    99.2903  MISS %:   0.709671   MPKI: 0.00547
L2C LOAD TRANSLATION ACCESS:     483310  HIT:     370444  MISS:     112866  HIT %:    76.6473  MISS %:    23.3527   MPKI: 1.12866
L2C TRANSLATION FROM L1D PREFETCHER ACCESS:          8  HIT:          8  MISS:          0  HIT %:        100  MISS %:          0   MPKI: 0
L2C PREFETCH  REQUESTED:          0  ISSUED:          0  USEFUL:        229  USELESS:       1872
L2C USEFUL LOAD PREFETCHES:        229 PREFETCH ISSUED TO LOWER LEVEL:       2113  ACCURACY: 10.8377
L2C TIMELY PREFETCHES:        229 LATE PREFETCHES: 0 DROPPED PREFETCHES: 0
L2C PREFETCHES SAME FILL-ORIGIN LEVEL: 0 DIFFERENT FILL-ORIGIN LEVEL: 0
L2C AVERAGE MISS LATENCY: 82.8297 cycles
L2C RQ	ACCESS:    3491605	FORWARD:          0	MERGED:          0	TO_CACHE:    3491600
L2C WQ	ACCESS:      77078	FORWARD:          5	MERGED:          0	TO_CACHE:      77078
L2C PQ	ACCESS:       2641	FORWARD:          0	MERGED:          0	TO_CACHE:       2641

L2C Instructions Evicting Data 51709
L2C Translations Evicting Data 105068
L2C Data Evicting Data 2205498
L2C Instructions Evicting Instructions 837
L2C Translations Evicting Instructions 2156
L2C Data Evicting Instructions 52271
L2C Instructions Evicting Translations 3012
L2C Translations Evicting Translations 5642
L2C Data Evicting Translations 105107
L2C Dense regions hint from L2: 0
PSCL5 TOTAL     ACCESS:     481134  HIT:     481134  MISS:          0  HIT %:        100  MISS %:          0   MPKI: 0
PSCL5 LOAD TRANSLATION ACCESS:     481126  HIT:     481126  MISS:          0  HIT %:        100  MISS %:          0   MPKI: 0
PSCL5 TRANSLATION FROM L1D PREFETCHER ACCESS:          8  HIT:          8  MISS:          0  HIT %:        100  MISS %:          0   MPKI: 0
PSCL5 PREFETCH  REQUESTED:          0  ISSUED:          0  USEFUL:          0  USELESS:          0
PSCL5 USEFUL LOAD PREFETCHES:          0 PREFETCH ISSUED TO LOWER LEVEL:          0  ACCURACY: -nan
PSCL5 TIMELY PREFETCHES:          0 LATE PREFETCHES: 0 DROPPED PREFETCHES: 0
PSCL5 PREFETCHES SAME FILL-ORIGIN LEVEL: 0 DIFFERENT FILL-ORIGIN LEVEL: 0

PSCL4 TOTAL     ACCESS:     481134  HIT:     481134  MISS:          0  HIT %:        100  MISS %:          0   MPKI: 0
PSCL4 LOAD TRANSLATION ACCESS:     481126  HIT:     481126  MISS:          0  HIT %:        100  MISS %:          0   MPKI: 0
PSCL4 TRANSLATION FROM L1D PREFETCHER ACCESS:          8  HIT:          8  MISS:          0  HIT %:        100  MISS %:          0   MPKI: 0
PSCL4 PREFETCH  REQUESTED:          0  ISSUED:          0  USEFUL:          0  USELESS:          0
PSCL4 USEFUL LOAD PREFETCHES:          0 PREFETCH ISSUED TO LOWER LEVEL:          0  ACCURACY: -nan
PSCL4 TIMELY PREFETCHES:          0 LATE PREFETCHES: 0 DROPPED PREFETCHES: 0
PSCL4 PREFETCHES SAME FILL-ORIGIN LEVEL: 0 DIFFERENT FILL-ORIGIN LEVEL: 0

PSCL3 TOTAL     ACCESS:     481134  HIT:     481134  MISS:          0  HIT %:        100  MISS %:          0   MPKI: 0
PSCL3 LOAD TRANSLATION ACCESS:     481126  HIT:     481126  MISS:          0  HIT %:        100  MISS %:          0   MPKI: 0
PSCL3 TRANSLATION FROM L1D PREFETCHER ACCESS:          8  HIT:          8  MISS:          0  HIT %:        100  MISS %:          0   MPKI: 0
PSCL3 PREFETCH  REQUESTED:          0  ISSUED:          0  USEFUL:          0  USELESS:          0
PSCL3 USEFUL LOAD PREFETCHES:          0 PREFETCH ISSUED TO LOWER LEVEL:          0  ACCURACY: -nan
PSCL3 TIMELY PREFETCHES:          0 LATE PREFETCHES: 0 DROPPED PREFETCHES: 0
PSCL3 PREFETCHES SAME FILL-ORIGIN LEVEL: 0 DIFFERENT FILL-ORIGIN LEVEL: 0

PSCL2 TOTAL     ACCESS:     481134  HIT:     478950  MISS:       2184  HIT %:    99.5461  MISS %:   0.453928   MPKI: 0.02184
PSCL2 LOAD TRANSLATION ACCESS:     481126  HIT:     478942  MISS:       2184  HIT %:    99.5461  MISS %:   0.453935   MPKI: 0.02184
PSCL2 TRANSLATION FROM L1D PREFETCHER ACCESS:          8  HIT:          8  MISS:          0  HIT %:        100  MISS %:          0   MPKI: 0
PSCL2 PREFETCH  REQUESTED:          0  ISSUED:          0  USEFUL:          0  USELESS:          0
PSCL2 USEFUL LOAD PREFETCHES:          0 PREFETCH ISSUED TO LOWER LEVEL:          0  ACCURACY: -nan
PSCL2 TIMELY PREFETCHES:          0 LATE PREFETCHES: 0 DROPPED PREFETCHES: 0
PSCL2 PREFETCHES SAME FILL-ORIGIN LEVEL: 0 DIFFERENT FILL-ORIGIN LEVEL: 0

LLC TOTAL     ACCESS:    2568547  HIT:    1414099  MISS:    1154448  HIT %:    55.0544  MISS %:    44.9456   MPKI: 11.5445
LLC LOAD      ACCESS:    2390302  HIT:    1323936  MISS:    1066366  HIT %:    55.3878  MISS %:    44.6122   MPKI: 10.6637
LLC RFO       ACCESS:      26019  HIT:       6473  MISS:      19546  HIT %:     24.878  MISS %:     75.122   MPKI: 0.19546
LLC PREFETCH  ACCESS:       2113  HIT:        402  MISS:       1711  HIT %:    19.0251  MISS %:    80.9749   MPKI: 0.01711
LLC WRITEBACK ACCESS:      37247  HIT:      19910  MISS:      17337  HIT %:     53.454  MISS %:     46.546   MPKI: 0.17337
LLC LOAD TRANSLATION ACCESS:     112866  HIT:      63378  MISS:      49488  HIT %:    56.1533  MISS %:    43.8467   MPKI: 0.49488
LLC PREFETCH  REQUESTED:          0  ISSUED:          0  USEFUL:          4  USELESS:       1710
LLC USEFUL LOAD PREFETCHES:          4 PREFETCH ISSUED TO LOWER LEVEL:       1711  ACCURACY: 0.233781
LLC TIMELY PREFETCHES:          4 LATE PREFETCHES: 0 DROPPED PREFETCHES: 0
LLC PREFETCHES SAME FILL-ORIGIN LEVEL: 0 DIFFERENT FILL-ORIGIN LEVEL: 0
LLC AVERAGE MISS LATENCY: 115.873 cycles
LLC RQ	ACCESS:    2529187	FORWARD:          0	MERGED:          0	TO_CACHE:    2529187
LLC WQ	ACCESS:      37247	FORWARD:          0	MERGED:          0	TO_CACHE:      37247
LLC PQ	ACCESS:       2113	FORWARD:          0	MERGED:          0	TO_CACHE:       2113

LLC Dense regions hint to LLC: 0

RAW hits: 151132
Loads Generated: 29469504
Loads sent to L1D: 29318370
Stores Generated: 4982647
Stores sent to L1D: 4982653
Major fault: 0 Minor fault: 11236
Allocated PAGES: 11236

stream: 
stream:times selected: 13019
stream:pref_filled: 5145
stream:pref_useful: 956
stream:pref_late: 366
stream:misses: 1397
stream:misses_by_poll: 0

CS: 
CS:times selected: 235
CS:pref_filled: 45
CS:pref_useful: 15
CS:pref_late: 0
CS:misses: 1
CS:misses_by_poll: 0

CPLX: 
CPLX:times selected: 12553
CPLX:pref_filled: 547
CPLX:pref_useful: 72
CPLX:pref_late: 1
CPLX:misses: 3896
CPLX:misses_by_poll: 1

NL_L1: 
NL:times selected: 282
NL:pref_filled: 81
NL:pref_useful: 21
NL:pref_late: 1
NL:misses: 77
NL:misses_by_poll: 0

total selections: 26089
total_filled: 2531
total_useful: 669
total_late: 376
total_polluted: 1
total_misses_after_warmup: 3812
conflicts: 15264
Degree Incremented Times: 0
Degree Decremented Times: 170

L1 IP Table Write Accesses: 38270
L1 IP Table Read Accesses: 23006
L1 RST Write Accesses: 8580
L1 RST Read Accesses: 17160
L1 CSPT Write Accesses: 8580
L1 CSPT Read Accesses: 17653
L1 RR Filter Tag Write Accesses: 6224
L1 RR Filter Tag Read Accesses: 320035
L1 IP Table Tag Write Accesses: 57390
L1 IP Table Tag Read Accesses: 57390
L1 RST Tag Write Accesses: 0
L1 RST Tag Read Accesses: 80857
L1 RR Filter Write Accesses: 0
L1 RR Filter Read Accesses: 11071
test: 7067

DRAM Statistics
 CHANNEL 0
 RQ ROW_BUFFER_HIT:     626350  ROW_BUFFER_MISS:     510761
 DBUS_CONGESTED:        196
 WQ ROW_BUFFER_HIT:       2177  ROW_BUFFER_MISS:      21523  FULL:          0

 AVG_CONGESTED_CYCLE: 4
 All warmup complete: 2
Channel 0 Bank busy for read cycles: 0
Channel 0 Bank busy for write cycles: 0
Channel 0
Rank 0
0banks busy for read cycles: 203271296
0banks busy for write cycles: 19300
1banks busy for read cycles: 60961050
1banks busy for write cycles: 3522905
2banks busy for read cycles: 14812178
2banks busy for write cycles: 437077
3banks busy for read cycles: 4385529
3banks busy for write cycles: 110353
4banks busy for read cycles: 830540
4banks busy for write cycles: 34455
5banks busy for read cycles: 72207
5banks busy for write cycles: 4485
6banks busy for read cycles: 17145
6banks busy for write cycles: 1829
7banks busy for read cycles: 28342
7banks busy for write cycles: 956
8banks busy for read cycles: 25811
8banks busy for write cycles: 0

CPU 0 Branch Prediction Accuracy: 99.7242% MPKI: 0.71311 Average ROB Occupancy at Mispredict: 122.44
Branch types
NOT_BRANCH: 74147137 74.1471%
BRANCH_DIRECT_JUMP: 263115 0.263115%
BRANCH_INDIRECT: 46555 0.046555%
BRANCH_CONDITIONAL: 23183100 23.1831%
BRANCH_DIRECT_CALL: 652097 0.652097%
BRANCH_INDIRECT_CALL: 527959 0.527959%
BRANCH_RETURN: 1180052 1.18005%
BRANCH_OTHER: 0 0%

DRAM PAGES: 1048576
Allocated PAGES: 11236
