
*** ChampSim Multicore Out-of-Order Simulator ***

Warmup Instructions: 50000000
Simulation Instructions: 100000000
Number of CPUs: 1
LLC sets: 2048
LLC ways: 16
Off-chip DRAM Size: 4096 MB Channels: 1 Width: 64-bit Data Rate: 6400 MT/s
CPU 0 runs ../SPEC2017//623.xalancbmk_s-202B.champsimtrace.xz
.xz
NUM_OF_IPS_IN_CRITICAL_IP_TRAINING: 64
NUM_OF_CRITICAL_IP_TRAINING_TABLE_WAYS: 2
NUM_OF_CRITICAL_IP_TRAINING_TABLE_SETS: 32
WOBBLY_CRITICAL_IP_CACHE_SETS: 32
WOBBLY_CRITICAL_IP_CACHE_WAYS: 4
BTB has LRU replacement policy
ITLB has LRU replacement policy
DTLB has LRU replacement policy
STLB has LRU replacement policy
L1I has LRU replacement policy
L1D has LRU replacement policy
Bingo PHT WAYS: 16 and PHT_SIZE: 16384
Initialize SRRIP state for L2C
Initialize DRRIP state for LLC
Heartbeat CPU 0 instructions: 10000001 cycles: 2843620 heartbeat IPC: 3.51664 cumulative IPC: 3.51664 (Simulation time: 0 hr 4 min 48 sec) 
Heartbeat CPU 0 instructions: 20000002 cycles: 5685672 heartbeat IPC: 3.51858 cumulative IPC: 3.51761 (Simulation time: 0 hr 9 min 35 sec) 
Heartbeat CPU 0 instructions: 30000001 cycles: 8530233 heartbeat IPC: 3.51548 cumulative IPC: 3.5169 (Simulation time: 0 hr 13 min 54 sec) 
Heartbeat CPU 0 instructions: 40000001 cycles: 11367527 heartbeat IPC: 3.52448 cumulative IPC: 3.5188 (Simulation time: 0 hr 17 min 35 sec) 
Heartbeat CPU 0 instructions: 50000000 cycles: 14213402 heartbeat IPC: 3.51386 cumulative IPC: 3.51781 (Simulation time: 0 hr 21 min 0 sec) 

Warmup complete CPU 0 instructions: 50000004 cycles: 14213403 (Simulation time: 0 hr 21 min 0 sec) 

% increase in all ip prefetch 293.368
% increase in all ip prefetch 0.545824
Heartbeat CPU 0 instructions: 60000002 cycles: 26053254 heartbeat IPC: 0.844605 cumulative IPC: 0.844605 (Simulation time: 0 hr 26 min 16 sec) 
Heartbeat CPU 0 instructions: 70000000 cycles: 37858876 heartbeat IPC: 0.847054 cumulative IPC: 0.845828 (Simulation time: 0 hr 31 min 8 sec) 
Heartbeat CPU 0 instructions: 80000000 cycles: 49651032 heartbeat IPC: 0.848021 cumulative IPC: 0.846558 (Simulation time: 0 hr 35 min 50 sec) 
Heartbeat CPU 0 instructions: 90000001 cycles: 61461887 heartbeat IPC: 0.846679 cumulative IPC: 0.846588 (Simulation time: 0 hr 40 min 7 sec) 
Heartbeat CPU 0 instructions: 100000001 cycles: 73255018 heartbeat IPC: 0.847951 cumulative IPC: 0.84686 (Simulation time: 0 hr 44 min 8 sec) 
Heartbeat CPU 0 instructions: 110000000 cycles: 85077727 heartbeat IPC: 0.84583 cumulative IPC: 0.846688 (Simulation time: 0 hr 47 min 48 sec) 
Heartbeat CPU 0 instructions: 120000002 cycles: 96807782 heartbeat IPC: 0.852511 cumulative IPC: 0.847515 (Simulation time: 0 hr 52 min 59 sec) 
Heartbeat CPU 0 instructions: 130000002 cycles: 108534016 heartbeat IPC: 0.852789 cumulative IPC: 0.848171 (Simulation time: 0 hr 59 min 52 sec) 
Heartbeat CPU 0 instructions: 140000001 cycles: 120221358 heartbeat IPC: 0.855626 cumulative IPC: 0.848993 (Simulation time: 1 hr 6 min 3 sec) 
Heartbeat CPU 0 instructions: 150000001 cycles: 131933574 heartbeat IPC: 0.853809 cumulative IPC: 0.849472 (Simulation time: 1 hr 11 min 47 sec) 
Finished CPU 0 instructions: 100000001 cycles: 117720172 cumulative IPC: 0.849472 (Simulation time: 1 hr 11 min 47 sec) 

ChampSim completed all CPUs

Region of Interest Statistics

CPU 0 cumulative IPC: 0.849472 instructions: 100000001 cycles: 117720172

CPU 0 Average Load ROB stall cycles: 2.99951e+07
CPU 0 Fraction of times ROB stalled by Loads: 40.9798
CPU 0 Percentage of Load stall cycles in Total stall cycles: 3.89254e+08
Issued all: 71026951
Issued LT all: 58988289
rob_not_full_when_issued_lt_all: 42795501
Issued LT one: 50620364
rob_not_full_when_issued_lt_one: 37441625
 Total stall cycles: 93251357
 Total load stall cycles: 362984192467266
CPU 0 NUM of IPS identified critical: 0
CPU 0 Num of Load IPs stalling ROB: 53
Threshold modification factor: -1
Max PIST entries: 37
Min PIST entries: 0
Avg PIST entries: 5.69333
Trouble in retire width: 0.966903
MaC = Marked as critical.
lt_50_percent_before_Mac: 0
gt_90_percent_before_Mac: 0
gt_75_percent_before_Mac: 0
gt_50_percent_before_Mac: 0
stall_proportion_bin_same_before_after: 0
stall_proportion_bin_lower_before_after: 0
stall_proportion_bin_upper_before_after: 0
average_stall_proportion_before: -nan
average_stall_proportion_after: -nan
Critical IP stalls, total frequency: 0
Non-critical IP stalls, total frequency: 4959147
Total Freq all stalling IPs: 4959147
stat_90_percent_critical_ip_stalls_freq: 4554292
stat_90_percent_non_critical_ip_stalls_freq: 404855
Critical_IP_ROB_Stalls_Bucket_0: 0
Non-critical_IP_ROB_Stalls_Bucket_0: 11596
Critical_IP_ROB_Stalls_Bucket_1: 0
Non-critical_IP_ROB_Stalls_Bucket_1: 38879
Critical_IP_ROB_Stalls_Bucket_2: 0
Non-critical_IP_ROB_Stalls_Bucket_2: 56518
Critical_IP_ROB_Stalls_Bucket_3: 0
Non-critical_IP_ROB_Stalls_Bucket_3: 51916
Critical_IP_ROB_Stalls_Bucket_4: 0
Non-critical_IP_ROB_Stalls_Bucket_4: 103248
Critical_IP_ROB_Stalls_Bucket_5: 0
Non-critical_IP_ROB_Stalls_Bucket_5: 1043352
Critical_IP_ROB_Stalls_Bucket_6: 0
Non-critical_IP_ROB_Stalls_Bucket_6: 3653638
0 => IPs accounting for >50 percent of stalls, 1 => 55, 2 => 60, 3 => 65 and so on till 90.
percent50: 53.4146 num IPs:  6
percent55: 61.9622 num IPs: 7
percent60: 61.9622 num IPs: 7
percent65: 70.4862 num IPs: 8
percent70: 70.4862 num IPs: 8
percent75: 78.6625 num IPs: 9
percent80: 82.9305 num IPs: 10
percent85: 87.0647 num IPs: 11
percent90: 91.8362 num IPs: 13
Critical_ROB_Stalls_Percent_0_Bucket_0: 1114
Non-critical_ROB_Stalls_Percent_0_Bucket_0: 10482
Critical_ROB_Stalls_Percent_0_Bucket_1: 26605
Non-critical_ROB_Stalls_Percent_0_Bucket_1: 12274
Critical_ROB_Stalls_Percent_0_Bucket_2: 31834
Non-critical_ROB_Stalls_Percent_0_Bucket_2: 24684
Critical_ROB_Stalls_Percent_0_Bucket_3: 27248
Non-critical_ROB_Stalls_Percent_0_Bucket_3: 24668
Critical_ROB_Stalls_Percent_0_Bucket_4: 45733
Non-critical_ROB_Stalls_Percent_0_Bucket_4: 57515
Critical_ROB_Stalls_Percent_0_Bucket_5: 542411
Non-critical_ROB_Stalls_Percent_0_Bucket_5: 500941
Critical_ROB_Stalls_Percent_0_Bucket_6: 1973965
Non-critical_ROB_Stalls_Percent_0_Bucket_6: 1679673
Critical_ROB_Stalls_Percent_1_Bucket_0: 1114
Non-critical_ROB_Stalls_Percent_1_Bucket_0: 10482
Critical_ROB_Stalls_Percent_1_Bucket_1: 27168
Non-critical_ROB_Stalls_Percent_1_Bucket_1: 11711
Critical_ROB_Stalls_Percent_1_Bucket_2: 36171
Non-critical_ROB_Stalls_Percent_1_Bucket_2: 20347
Critical_ROB_Stalls_Percent_1_Bucket_3: 31516
Non-critical_ROB_Stalls_Percent_1_Bucket_3: 20400
Critical_ROB_Stalls_Percent_1_Bucket_4: 49312
Non-critical_ROB_Stalls_Percent_1_Bucket_4: 53936
Critical_ROB_Stalls_Percent_1_Bucket_5: 549256
Non-critical_ROB_Stalls_Percent_1_Bucket_5: 494096
Critical_ROB_Stalls_Percent_1_Bucket_6: 2378259
Non-critical_ROB_Stalls_Percent_1_Bucket_6: 1275379
Critical_ROB_Stalls_Percent_2_Bucket_0: 1114
Non-critical_ROB_Stalls_Percent_2_Bucket_0: 10482
Critical_ROB_Stalls_Percent_2_Bucket_1: 27168
Non-critical_ROB_Stalls_Percent_2_Bucket_1: 11711
Critical_ROB_Stalls_Percent_2_Bucket_2: 36171
Non-critical_ROB_Stalls_Percent_2_Bucket_2: 20347
Critical_ROB_Stalls_Percent_2_Bucket_3: 31516
Non-critical_ROB_Stalls_Percent_2_Bucket_3: 20400
Critical_ROB_Stalls_Percent_2_Bucket_4: 49312
Non-critical_ROB_Stalls_Percent_2_Bucket_4: 53936
Critical_ROB_Stalls_Percent_2_Bucket_5: 549256
Non-critical_ROB_Stalls_Percent_2_Bucket_5: 494096
Critical_ROB_Stalls_Percent_2_Bucket_6: 2378259
Non-critical_ROB_Stalls_Percent_2_Bucket_6: 1275379
Critical_ROB_Stalls_Percent_3_Bucket_0: 3762
Non-critical_ROB_Stalls_Percent_3_Bucket_0: 7834
Critical_ROB_Stalls_Percent_3_Bucket_1: 32109
Non-critical_ROB_Stalls_Percent_3_Bucket_1: 6770
Critical_ROB_Stalls_Percent_3_Bucket_2: 40963
Non-critical_ROB_Stalls_Percent_3_Bucket_2: 15555
Critical_ROB_Stalls_Percent_3_Bucket_3: 36763
Non-critical_ROB_Stalls_Percent_3_Bucket_3: 15153
Critical_ROB_Stalls_Percent_3_Bucket_4: 81368
Non-critical_ROB_Stalls_Percent_3_Bucket_4: 21880
Critical_ROB_Stalls_Percent_3_Bucket_5: 894744
Non-critical_ROB_Stalls_Percent_3_Bucket_5: 148608
Critical_ROB_Stalls_Percent_3_Bucket_6: 2405805
Non-critical_ROB_Stalls_Percent_3_Bucket_6: 1247833
Critical_ROB_Stalls_Percent_4_Bucket_0: 3762
Non-critical_ROB_Stalls_Percent_4_Bucket_0: 7834
Critical_ROB_Stalls_Percent_4_Bucket_1: 32109
Non-critical_ROB_Stalls_Percent_4_Bucket_1: 6770
Critical_ROB_Stalls_Percent_4_Bucket_2: 40963
Non-critical_ROB_Stalls_Percent_4_Bucket_2: 15555
Critical_ROB_Stalls_Percent_4_Bucket_3: 36763
Non-critical_ROB_Stalls_Percent_4_Bucket_3: 15153
Critical_ROB_Stalls_Percent_4_Bucket_4: 81368
Non-critical_ROB_Stalls_Percent_4_Bucket_4: 21880
Critical_ROB_Stalls_Percent_4_Bucket_5: 894744
Non-critical_ROB_Stalls_Percent_4_Bucket_5: 148608
Critical_ROB_Stalls_Percent_4_Bucket_6: 2405805
Non-critical_ROB_Stalls_Percent_4_Bucket_6: 1247833
Critical_ROB_Stalls_Percent_5_Bucket_0: 4016
Non-critical_ROB_Stalls_Percent_5_Bucket_0: 7580
Critical_ROB_Stalls_Percent_5_Bucket_1: 33432
Non-critical_ROB_Stalls_Percent_5_Bucket_1: 5447
Critical_ROB_Stalls_Percent_5_Bucket_2: 44936
Non-critical_ROB_Stalls_Percent_5_Bucket_2: 11582
Critical_ROB_Stalls_Percent_5_Bucket_3: 40243
Non-critical_ROB_Stalls_Percent_5_Bucket_3: 11673
Critical_ROB_Stalls_Percent_5_Bucket_4: 85464
Non-critical_ROB_Stalls_Percent_5_Bucket_4: 17784
Critical_ROB_Stalls_Percent_5_Bucket_5: 914176
Non-critical_ROB_Stalls_Percent_5_Bucket_5: 129176
Critical_ROB_Stalls_Percent_5_Bucket_6: 2778723
Non-critical_ROB_Stalls_Percent_5_Bucket_6: 874915
Critical_ROB_Stalls_Percent_6_Bucket_0: 4016
Non-critical_ROB_Stalls_Percent_6_Bucket_0: 7580
Critical_ROB_Stalls_Percent_6_Bucket_1: 33809
Non-critical_ROB_Stalls_Percent_6_Bucket_1: 5070
Critical_ROB_Stalls_Percent_6_Bucket_2: 46796
Non-critical_ROB_Stalls_Percent_6_Bucket_2: 9722
Critical_ROB_Stalls_Percent_6_Bucket_3: 41569
Non-critical_ROB_Stalls_Percent_6_Bucket_3: 10347
Critical_ROB_Stalls_Percent_6_Bucket_4: 86633
Non-critical_ROB_Stalls_Percent_6_Bucket_4: 16615
Critical_ROB_Stalls_Percent_6_Bucket_5: 915841
Non-critical_ROB_Stalls_Percent_6_Bucket_5: 127511
Critical_ROB_Stalls_Percent_6_Bucket_6: 2983983
Non-critical_ROB_Stalls_Percent_6_Bucket_6: 669655
Critical_ROB_Stalls_Percent_7_Bucket_0: 4371
Non-critical_ROB_Stalls_Percent_7_Bucket_0: 7225
Critical_ROB_Stalls_Percent_7_Bucket_1: 34848
Non-critical_ROB_Stalls_Percent_7_Bucket_1: 4031
Critical_ROB_Stalls_Percent_7_Bucket_2: 50047
Non-critical_ROB_Stalls_Percent_7_Bucket_2: 6471
Critical_ROB_Stalls_Percent_7_Bucket_3: 44736
Non-critical_ROB_Stalls_Percent_7_Bucket_3: 7180
Critical_ROB_Stalls_Percent_7_Bucket_4: 90724
Non-critical_ROB_Stalls_Percent_7_Bucket_4: 12524
Critical_ROB_Stalls_Percent_7_Bucket_5: 934717
Non-critical_ROB_Stalls_Percent_7_Bucket_5: 108635
Critical_ROB_Stalls_Percent_7_Bucket_6: 3158225
Non-critical_ROB_Stalls_Percent_7_Bucket_6: 495413
Critical_ROB_Stalls_Percent_8_Bucket_0: 5309
Non-critical_ROB_Stalls_Percent_8_Bucket_0: 6287
Critical_ROB_Stalls_Percent_8_Bucket_1: 35516
Non-critical_ROB_Stalls_Percent_8_Bucket_1: 3363
Critical_ROB_Stalls_Percent_8_Bucket_2: 51306
Non-critical_ROB_Stalls_Percent_8_Bucket_2: 5212
Critical_ROB_Stalls_Percent_8_Bucket_3: 46707
Non-critical_ROB_Stalls_Percent_8_Bucket_3: 5209
Critical_ROB_Stalls_Percent_8_Bucket_4: 92694
Non-critical_ROB_Stalls_Percent_8_Bucket_4: 10554
Critical_ROB_Stalls_Percent_8_Bucket_5: 945867
Non-critical_ROB_Stalls_Percent_8_Bucket_5: 97485
Critical_ROB_Stalls_Percent_8_Bucket_6: 3376893
Non-critical_ROB_Stalls_Percent_8_Bucket_6: 276745
Average ROB occupancy Load Stall Begin: 298.662
Average ROB occupancy Load Stall End: 310.232
Min ROB occupancy Load Stall Begin: 1
Max ROB occupancy Load Stall Begin: 352
Min ROB occupancy Load Stall End: 1
Max ROB occupancy Load Stall End: 352
Average ROB occupancy Critical Load Stall Begin: -nan
Average ROB occupancy Critical Load Stall End: -nan
Min ROB occupancy Critical Load Stall Begin: 400
Max ROB occupancy Critical Load Stall Begin: 0
Min ROB occupancy Critical Load Stall End: 400
Max ROB occupancy Critical Load Stall End: 0
 ROB Load Stall Begin Bucket Count 0: 17331
 ROB Load Stall End Bucket Count 0: 11596
 ROB Critical Load Stall Begin Bucket Count 0: 0
 ROB Critical Load Stall End Bucket Count 0: 0
 ROB Load Stall Begin Bucket Count 1: 47724
 ROB Load Stall End Bucket Count 1: 38879
 ROB Critical Load Stall Begin Bucket Count 1: 0
 ROB Critical Load Stall End Bucket Count 1: 0
 ROB Load Stall Begin Bucket Count 2: 56261
 ROB Load Stall End Bucket Count 2: 56518
 ROB Critical Load Stall Begin Bucket Count 2: 0
 ROB Critical Load Stall End Bucket Count 2: 0
 ROB Load Stall Begin Bucket Count 3: 54492
 ROB Load Stall End Bucket Count 3: 51916
 ROB Critical Load Stall Begin Bucket Count 3: 0
 ROB Critical Load Stall End Bucket Count 3: 0
 ROB Load Stall Begin Bucket Count 4: 153748
 ROB Load Stall End Bucket Count 4: 103248
 ROB Critical Load Stall Begin Bucket Count 4: 0
 ROB Critical Load Stall End Bucket Count 4: 0
 ROB Load Stall Begin Bucket Count 5: 1685151
 ROB Load Stall End Bucket Count 5: 1043352
 ROB Critical Load Stall Begin Bucket Count 5: 0
 ROB Critical Load Stall End Bucket Count 5: 0
 ROB Load Stall Begin Bucket Count 6: 2944440
 ROB Load Stall End Bucket Count 6: 3653638
 ROB Critical Load Stall Begin Bucket Count 6: 0
 ROB Critical Load Stall End Bucket Count 6: 0
PIST Tag Read Accesses: 14946
PIST Read Accesses: 7473
PIST Tag Write Accesses: 14946
PIST Write Accesses: 7473
Criticality detector called times: 7737
Max global_stall_cycles_count: 688339
Threshold Modified: 1 times, factor: -1
Sturdy critical IP cache stats: 
 Unused entries: 0
CIC Tag Read Accesses: 0
CIC Read Accesses: 0
CIC Tag Write Accesses: 0
CIC Write Accesses: 0
Wobbly critical IP cache stats: 
 Unused entries: 93
CIC Tag Read Accesses: 188411812
CIC Read Accesses: 0
CIC Tag Write Accesses: 9458442
CIC Write Accesses: 0
ITLB TOTAL     ACCESS:   14524721  HIT:   14524721  MISS:          0  HIT %:        100  MISS %:          0   MPKI: 0
ITLB LOAD TRANSLATION ACCESS:   14524721  HIT:   14524721  MISS:          0  HIT %:        100  MISS %:          0   MPKI: 0
ITLB PREFETCH  REQUESTED:          0  ISSUED:          0  USEFUL:          0  USELESS:          0
ITLB USEFUL LOAD PREFETCHES:          0 PREFETCH ISSUED TO LOWER LEVEL:          0  ACCURACY: -nan
ITLB TIMELY PREFETCHES:          0 LATE PREFETCHES: 0 DROPPED PREFETCHES: 0
ITLB PREFETCHES SAME FILL-ORIGIN LEVEL: 0 DIFFERENT FILL-ORIGIN LEVEL: 0
ITLB AVERAGE MISS LATENCY: -nan cycles
ITLB RQ	ACCESS:   18094561	FORWARD:          0	MERGED:    3569841	TO_CACHE:   14524720

DTLB TOTAL     ACCESS:   13192526  HIT:   13148602  MISS:      43924  HIT %:    99.6671  MISS %:   0.332946   MPKI: 0.43924
DTLB LOAD TRANSLATION ACCESS:   13192526  HIT:   13148602  MISS:      43924  HIT %:    99.6671  MISS %:   0.332946   MPKI: 0.43924
DTLB PREFETCH  REQUESTED:          0  ISSUED:          0  USEFUL:          0  USELESS:          0
DTLB USEFUL LOAD PREFETCHES:          0 PREFETCH ISSUED TO LOWER LEVEL:          0  ACCURACY: -nan
DTLB TIMELY PREFETCHES:          0 LATE PREFETCHES: 0 DROPPED PREFETCHES: 0
DTLB PREFETCHES SAME FILL-ORIGIN LEVEL: 0 DIFFERENT FILL-ORIGIN LEVEL: 0
DTLB AVERAGE MISS LATENCY: 9.50496 cycles
DTLB RQ	ACCESS:   15757895	FORWARD:          0	MERGED:    2565208	TO_CACHE:   13192687

STLB TOTAL     ACCESS:      43924  HIT:      43835  MISS:         89  HIT %:    99.7974  MISS %:   0.202623   MPKI: 0.00089
STLB LOAD TRANSLATION ACCESS:      43924  HIT:      43835  MISS:         89  HIT %:    99.7974  MISS %:   0.202623   MPKI: 0.00089
STLB PREFETCH  REQUESTED:          0  ISSUED:          0  USEFUL:          0  USELESS:          0
STLB USEFUL LOAD PREFETCHES:          0 PREFETCH ISSUED TO LOWER LEVEL:          0  ACCURACY: -nan
STLB TIMELY PREFETCHES:          0 LATE PREFETCHES: 0 DROPPED PREFETCHES: 0
STLB PREFETCHES SAME FILL-ORIGIN LEVEL: 0 DIFFERENT FILL-ORIGIN LEVEL: 0
STLB AVERAGE MISS LATENCY: 247.011 cycles
STLB RQ	ACCESS:      43924	FORWARD:          0	MERGED:          0	TO_CACHE:      43924

STLB Hit, L1D data hit: 0
STLB Hit, L2C data hit: 0
STLB Hit, LLC data hit: 0
STLB Hit, LLC data miss: 0
STLB STLB hints to L2: 0
L1D TOTAL     ACCESS:   15643045  HIT:   13132947  MISS:    2510098  HIT %:    83.9539  MISS %:    16.0461   MPKI: 25.101
L1D LOAD      ACCESS:   13875021  HIT:   11364923  MISS:    2510098  HIT %:    81.9092  MISS %:    18.0908   MPKI: 25.101
L1D RFO       ACCESS:    1768024  HIT:    1768024  MISS:          0  HIT %:        100  MISS %:          0   MPKI: 0
L1D PREFETCH  REQUESTED:          0  ISSUED:          0  USEFUL:          0  USELESS:          0
L1D USEFUL LOAD PREFETCHES:          0 PREFETCH ISSUED TO LOWER LEVEL:          0  ACCURACY: -nan
L1D TIMELY PREFETCHES:          0 LATE PREFETCHES: 0 DROPPED PREFETCHES: 0
L1D PREFETCHES SAME FILL-ORIGIN LEVEL: 0 DIFFERENT FILL-ORIGIN LEVEL: 0
L1D AVERAGE MISS LATENCY: 20.3034 cycles
L1D RQ	ACCESS:   29890711	FORWARD:          0	MERGED:   15527033	TO_CACHE:   13989870
L1D WQ	ACCESS:    1768025	FORWARD:     373808	MERGED:          0	TO_CACHE:    1768025

L1D UNIQUE REGIONS ACCESSED: 0
L1D REGIONS CONFLICTS: 0
L1D Cross Page Prefetch Requests: 0
L1D Same Page Prefetch Requests: 0
L1D ROI Sum of L1D PQ occupancy: 0
L1D PREFETCHES PUSHED FROM L2C: 0
L1I TOTAL     ACCESS:   18094560  HIT:   18094560  MISS:          0  HIT %:        100  MISS %:          0   MPKI: 0
L1I LOAD      ACCESS:   18094560  HIT:   18094560  MISS:          0  HIT %:        100  MISS %:          0   MPKI: 0
L1I PREFETCH  REQUESTED:          0  ISSUED:          0  USEFUL:          0  USELESS:          0
L1I USEFUL LOAD PREFETCHES:          0 PREFETCH ISSUED TO LOWER LEVEL:          0  ACCURACY: -nan
L1I TIMELY PREFETCHES:          0 LATE PREFETCHES: 0 DROPPED PREFETCHES: 0
L1I PREFETCHES SAME FILL-ORIGIN LEVEL: 0 DIFFERENT FILL-ORIGIN LEVEL: 0
L1I AVERAGE MISS LATENCY: -nan cycles
L1I RQ	ACCESS:   33287887	FORWARD:          0	MERGED:   15193326	TO_CACHE:   18094561

BTB TOTAL     ACCESS:   17463814  HIT:   17463797  MISS:         17  HIT %:    99.9999  MISS %: 9.73441e-05   MPKI: 0.00017
BTB BRANCH_DIRECT_JUMP	ACCESS:         65  HIT:         64  MISS:          1
BTB BRANCH_INDIRECT	ACCESS:          0  HIT:          0  MISS:          0
BTB BRANCH_CONDITIONAL	ACCESS:   15696179  HIT:   15696170  MISS:          9
BTB BRANCH_DIRECT_CALL	ACCESS:     441925  HIT:     441923  MISS:          2
BTB BRANCH_INDIRECT_CALL	ACCESS:     441860  HIT:     441859  MISS:          1
BTB BRANCH_RETURN	ACCESS:     883785  HIT:     883781  MISS:          4
BTB BRANCH_OTHER ACCESS:          0  HIT:          0  MISS:          0

L2C TOTAL     ACCESS:    4906488  HIT:    2353192  MISS:    2553296  HIT %:    47.9608  MISS %:    52.0392   MPKI: 25.533
L2C LOAD      ACCESS:    2510098  HIT:    2311522  MISS:     198576  HIT %:    92.0889  MISS %:    7.91109   MPKI: 1.98576
L2C DATA LOAD MPKI: 1.98576
L2C INSTRUCTION LOAD MPKI: 0
L2C PREFETCH  ACCESS:    2396237  HIT:      41587  MISS:    2354650  HIT %:    1.73551  MISS %:    98.2645   MPKI: 23.5465
L2C DATA PREFETCH MPKI: 23.5465
L2C INSTRUCTION PREFETCH MPKI: 0
L2C WRITEBACK ACCESS:         64  HIT:         54  MISS:         10  HIT %:     84.375  MISS %:     15.625   MPKI: 0.0001
L2C LOAD TRANSLATION ACCESS:         89  HIT:         29  MISS:         60  HIT %:    32.5843  MISS %:    67.4157   MPKI: 0.0006
L2C PREFETCH  REQUESTED:    2488863  ISSUED:    2488863  USEFUL:    2275085  USELESS:      79753
L2C USEFUL LOAD PREFETCHES:    2275085 PREFETCH ISSUED TO LOWER LEVEL:    2392041  ACCURACY: 95.1106
L2C TIMELY PREFETCHES:    2275085 LATE PREFETCHES: 37379 DROPPED PREFETCHES: 0
L2C PREFETCHES SAME FILL-ORIGIN LEVEL: 2392041 DIFFERENT FILL-ORIGIN LEVEL: 0
L2C AVERAGE MISS LATENCY: 78.9464 cycles
L2C RQ	ACCESS:    2510187	FORWARD:          0	MERGED:          0	TO_CACHE:    2510187
L2C WQ	ACCESS:         64	FORWARD:          0	MERGED:          0	TO_CACHE:         64
L2C PQ	ACCESS:    2488863	FORWARD:          0	MERGED:          9	TO_CACHE:    2488854

L2C Instructions Evicting Data 0
L2C Translations Evicting Data 60
L2C Data Evicting Data 2553165
L2C Instructions Evicting Instructions 0
L2C Translations Evicting Instructions 0
L2C Data Evicting Instructions 0
L2C Instructions Evicting Translations 0
L2C Translations Evicting Translations 0
L2C Data Evicting Translations 61
L2C Dense regions hint from L2: 0
PSCL5 TOTAL     ACCESS:         89  HIT:         89  MISS:          0  HIT %:        100  MISS %:          0   MPKI: 0
PSCL5 LOAD TRANSLATION ACCESS:         89  HIT:         89  MISS:          0  HIT %:        100  MISS %:          0   MPKI: 0
PSCL5 PREFETCH  REQUESTED:          0  ISSUED:          0  USEFUL:          0  USELESS:          0
PSCL5 USEFUL LOAD PREFETCHES:          0 PREFETCH ISSUED TO LOWER LEVEL:          0  ACCURACY: -nan
PSCL5 TIMELY PREFETCHES:          0 LATE PREFETCHES: 0 DROPPED PREFETCHES: 0
PSCL5 PREFETCHES SAME FILL-ORIGIN LEVEL: 0 DIFFERENT FILL-ORIGIN LEVEL: 0

PSCL4 TOTAL     ACCESS:         89  HIT:         89  MISS:          0  HIT %:        100  MISS %:          0   MPKI: 0
PSCL4 LOAD TRANSLATION ACCESS:         89  HIT:         89  MISS:          0  HIT %:        100  MISS %:          0   MPKI: 0
PSCL4 PREFETCH  REQUESTED:          0  ISSUED:          0  USEFUL:          0  USELESS:          0
PSCL4 USEFUL LOAD PREFETCHES:          0 PREFETCH ISSUED TO LOWER LEVEL:          0  ACCURACY: -nan
PSCL4 TIMELY PREFETCHES:          0 LATE PREFETCHES: 0 DROPPED PREFETCHES: 0
PSCL4 PREFETCHES SAME FILL-ORIGIN LEVEL: 0 DIFFERENT FILL-ORIGIN LEVEL: 0

PSCL3 TOTAL     ACCESS:         89  HIT:         89  MISS:          0  HIT %:        100  MISS %:          0   MPKI: 0
PSCL3 LOAD TRANSLATION ACCESS:         89  HIT:         89  MISS:          0  HIT %:        100  MISS %:          0   MPKI: 0
PSCL3 PREFETCH  REQUESTED:          0  ISSUED:          0  USEFUL:          0  USELESS:          0
PSCL3 USEFUL LOAD PREFETCHES:          0 PREFETCH ISSUED TO LOWER LEVEL:          0  ACCURACY: -nan
PSCL3 TIMELY PREFETCHES:          0 LATE PREFETCHES: 0 DROPPED PREFETCHES: 0
PSCL3 PREFETCHES SAME FILL-ORIGIN LEVEL: 0 DIFFERENT FILL-ORIGIN LEVEL: 0

PSCL2 TOTAL     ACCESS:         89  HIT:         89  MISS:          0  HIT %:        100  MISS %:          0   MPKI: 0
PSCL2 LOAD TRANSLATION ACCESS:         89  HIT:         89  MISS:          0  HIT %:        100  MISS %:          0   MPKI: 0
PSCL2 PREFETCH  REQUESTED:          0  ISSUED:          0  USEFUL:          0  USELESS:          0
PSCL2 USEFUL LOAD PREFETCHES:          0 PREFETCH ISSUED TO LOWER LEVEL:          0  ACCURACY: -nan
PSCL2 TIMELY PREFETCHES:          0 LATE PREFETCHES: 0 DROPPED PREFETCHES: 0
PSCL2 PREFETCHES SAME FILL-ORIGIN LEVEL: 0 DIFFERENT FILL-ORIGIN LEVEL: 0

LLC TOTAL     ACCESS:    2553344  HIT:    1219727  MISS:    1333617  HIT %:    47.7698  MISS %:    52.2302   MPKI: 13.3362
LLC LOAD      ACCESS:     161197  HIT:      83120  MISS:      78077  HIT %:    51.5642  MISS %:    48.4358   MPKI: 0.78077
LLC PREFETCH  ACCESS:    2392029  HIT:    1136549  MISS:    1255480  HIT %:     47.514  MISS %:     52.486   MPKI: 12.5548
LLC WRITEBACK ACCESS:         58  HIT:         57  MISS:          1  HIT %:    98.2759  MISS %:    1.72414   MPKI: 1e-05
LLC LOAD TRANSLATION ACCESS:         60  HIT:          1  MISS:         59  HIT %:    1.66667  MISS %:    98.3333   MPKI: 0.00059
LLC PREFETCH  REQUESTED:          0  ISSUED:          0  USEFUL:        808  USELESS:    1254499
LLC USEFUL LOAD PREFETCHES:        808 PREFETCH ISSUED TO LOWER LEVEL:    1255492  ACCURACY: 0.0643572
LLC TIMELY PREFETCHES:        808 LATE PREFETCHES: 0 DROPPED PREFETCHES: 0
LLC PREFETCHES SAME FILL-ORIGIN LEVEL: 0 DIFFERENT FILL-ORIGIN LEVEL: 0
LLC AVERAGE MISS LATENCY: 94.6612 cycles
LLC RQ	ACCESS:     161257	FORWARD:          0	MERGED:          0	TO_CACHE:     161257
LLC WQ	ACCESS:         58	FORWARD:          0	MERGED:          0	TO_CACHE:         58
LLC PQ	ACCESS:    2392041	FORWARD:          0	MERGED:          0	TO_CACHE:    2392041

LLC Dense regions hint to LLC: 0

RAW hits: 1845
Loads Generated: 29892557
Loads sent to L1D: 29890711
Stores Generated: 1768024
Stores sent to L1D: 1768025
Major fault: 0 Minor fault: 1392
Allocated PAGES: 1392
[Bingo] PHT Access: 86603
[Bingo] PHT Hit PC+Addr: 4328
[Bingo] PHT Hit PC+Offs: 81688
[Bingo] PHT Miss: 587
[Bingo] Prefetch PC+Addr: 0
[Bingo] Prefetch PC+Offs: 0
[Bingo] Useful PC+Addr: 0
[Bingo] Useful PC+Offs: 0
[Bingo] Useless PC+Addr: 0
[Bingo] Useless PC+Offs: 0
[Bingo] L1 Prefetch per Region: 0
[Bingo] L2 Prefetch per Region: 29.9362
[Bingo] L3 Prefetch per Region: 0
[Bingo] No Prefetch per Region: 2.06381
[Bingo] Number of Voters Mean: 15.9775
[Bingo] Number of Voters SD: 11.2797
PHT read accesses: 1332149
PHT write accesses: 86031
AT read accesses: 2470598
AT write accesses: 2509508
FT read accesses: 258712
FT write accesses: 86603
PS read accesses: 321690
PS write accesses: 86016
PHT tag read accesses: 4029055
PHT tag write accesses: 90359
AT tag read accesses: 84784217
AT tag write accesses: 2556631
FT tag read accesses: 46478785
FT tag write accesses: 259262
PS tag read accesses: 43060089
PS tag write accesses: 407695

DRAM Statistics
 CHANNEL 0
 RQ ROW_BUFFER_HIT:    1279321  ROW_BUFFER_MISS:      54302
 DBUS_CONGESTED:          0
 WQ ROW_BUFFER_HIT:          0  ROW_BUFFER_MISS:          1  FULL:          0

 AVG_CONGESTED_CYCLE: -
 All warmup complete: 2
Channel 0 Bank busy for read cycles: 0
Channel 0 Bank busy for write cycles: 0
Channel 0
Rank 0
0banks busy for read cycles: 100984453
0banks busy for write cycles: 1
1banks busy for read cycles: 3180860
1banks busy for write cycles: 150
2banks busy for read cycles: 1920103
2banks busy for write cycles: 0
3banks busy for read cycles: 1776859
3banks busy for write cycles: 0
4banks busy for read cycles: 1807366
4banks busy for write cycles: 0
5banks busy for read cycles: 1936920
5banks busy for write cycles: 0
6banks busy for read cycles: 1975408
6banks busy for write cycles: 0
7banks busy for read cycles: 2110884
7banks busy for write cycles: 0
8banks busy for read cycles: 2027169
8banks busy for write cycles: 0

CPU 0 Branch Prediction Accuracy: 99.9949% MPKI: 0.01399 Average ROB Occupancy at Mispredict: 186.333
Branch types
NOT_BRANCH: 72316725 72.3167%
BRANCH_DIRECT_JUMP: 65 6.5e-05%
BRANCH_INDIRECT: 0 0%
BRANCH_CONDITIONAL: 25915621 25.9156%
BRANCH_DIRECT_CALL: 441925 0.441925%
BRANCH_INDIRECT_CALL: 441860 0.44186%
BRANCH_RETURN: 883785 0.883785%
BRANCH_OTHER: 0 0%

DRAM PAGES: 1048576
Allocated PAGES: 1392
