Initialize SIGNATURE TABLE
ST_SET: 1
ST_WAY: 256
ST_TAG_BIT: 16
ST_TAG_MASK: ffff

Initialize PATTERN TABLE
PT_SET: 512
PT_WAY: 4
SIG_DELTA_BIT: 7
C_SIG_BIT: 4
C_DELTA_BIT: 4

Initialize PREFETCH FILTER
FILTER_SET: 1024

*** ChampSim Multicore Out-of-Order Simulator ***

Warmup Instructions: 50000000
Simulation Instructions: 100000000
Number of CPUs: 1
LLC sets: 2048
LLC ways: 16
Off-chip DRAM Size: 4096 MB Channels: 1 Width: 64-bit Data Rate: 6400 MT/s
CPU 0 runs ../SPEC2017//623.xalancbmk_s-165B.champsimtrace.xz
.xz
NUM_OF_IPS_IN_CRITICAL_IP_TRAINING: 64
NUM_OF_CRITICAL_IP_TRAINING_TABLE_WAYS: 2
NUM_OF_CRITICAL_IP_TRAINING_TABLE_SETS: 32
WOBBLY_CRITICAL_IP_CACHE_SETS: 32
WOBBLY_CRITICAL_IP_CACHE_WAYS: 4
BTB has LRU replacement policy
ITLB has LRU replacement policy
DTLB has LRU replacement policy
STLB has LRU replacement policy
L1I has LRU replacement policy
L1D has LRU replacement policy
Initialize SRRIP state for L2C
Initialize DRRIP state for LLC
Heartbeat CPU 0 instructions: 10000000 cycles: 2867378 heartbeat IPC: 3.48751 cumulative IPC: 3.48751 (Simulation time: 0 hr 4 min 56 sec) 
Heartbeat CPU 0 instructions: 20000001 cycles: 5736659 heartbeat IPC: 3.48519 cumulative IPC: 3.48635 (Simulation time: 0 hr 9 min 31 sec) 
Heartbeat CPU 0 instructions: 30000002 cycles: 8599414 heartbeat IPC: 3.49314 cumulative IPC: 3.48861 (Simulation time: 0 hr 13 min 45 sec) 
Heartbeat CPU 0 instructions: 40000003 cycles: 11468007 heartbeat IPC: 3.48603 cumulative IPC: 3.48796 (Simulation time: 0 hr 17 min 39 sec) 
Heartbeat CPU 0 instructions: 50000001 cycles: 14332317 heartbeat IPC: 3.49124 cumulative IPC: 3.48862 (Simulation time: 0 hr 21 min 16 sec) 

Warmup complete CPU 0 instructions: 50000001 cycles: 14332317 (Simulation time: 0 hr 21 min 16 sec) 

% increase in all ip prefetch 302.819
% increase in all ip prefetch 0.403895
Heartbeat CPU 0 instructions: 60000000 cycles: 26256336 heartbeat IPC: 0.838643 cumulative IPC: 0.838643 (Simulation time: 0 hr 26 min 21 sec) 
Heartbeat CPU 0 instructions: 70000001 cycles: 38147367 heartbeat IPC: 0.84097 cumulative IPC: 0.839805 (Simulation time: 0 hr 31 min 9 sec) 
Heartbeat CPU 0 instructions: 80000001 cycles: 50035807 heartbeat IPC: 0.841153 cumulative IPC: 0.840254 (Simulation time: 0 hr 35 min 34 sec) 
Heartbeat CPU 0 instructions: 90000002 cycles: 61857687 heartbeat IPC: 0.845889 cumulative IPC: 0.841656 (Simulation time: 0 hr 39 min 52 sec) 
Heartbeat CPU 0 instructions: 100000001 cycles: 73783529 heartbeat IPC: 0.838515 cumulative IPC: 0.841026 (Simulation time: 0 hr 43 min 42 sec) 
Heartbeat CPU 0 instructions: 110000000 cycles: 85618845 heartbeat IPC: 0.844929 cumulative IPC: 0.841674 (Simulation time: 0 hr 47 min 15 sec) 
Heartbeat CPU 0 instructions: 120000000 cycles: 97558658 heartbeat IPC: 0.837534 cumulative IPC: 0.84108 (Simulation time: 0 hr 52 min 22 sec) 
Heartbeat CPU 0 instructions: 130000002 cycles: 109433630 heartbeat IPC: 0.842107 cumulative IPC: 0.841208 (Simulation time: 1 hr 0 min 10 sec) 
Heartbeat CPU 0 instructions: 140000000 cycles: 121274797 heartbeat IPC: 0.844511 cumulative IPC: 0.841574 (Simulation time: 1 hr 8 min 11 sec) 
Heartbeat CPU 0 instructions: 150000003 cycles: 133150089 heartbeat IPC: 0.842085 cumulative IPC: 0.841625 (Simulation time: 1 hr 15 min 26 sec) 
Finished CPU 0 instructions: 100000002 cycles: 118817772 cumulative IPC: 0.841625 (Simulation time: 1 hr 15 min 26 sec) 

ChampSim completed all CPUs

Region of Interest Statistics

CPU 0 cumulative IPC: 0.841625 instructions: 100000002 cycles: 118817772

CPU 0 Average Load ROB stall cycles: 2.55643e+07
CPU 0 Fraction of times ROB stalled by Loads: 34.7497
CPU 0 Percentage of Load stall cycles in Total stall cycles: 2.76438e+08
Issued all: 72241774
Issued LT all: 59342442
rob_not_full_when_issued_lt_all: 49198201
Issued LT one: 51716403
rob_not_full_when_issued_lt_one: 42962005
 Total stall cycles: 93494557
 Total load stall cycles: 258454509854131
CPU 0 NUM of IPS identified critical: 0
CPU 0 Num of Load IPs stalling ROB: 150
Threshold modification factor: -1
Max PIST entries: 40
Min PIST entries: 0
Avg PIST entries: 12.6333
Trouble in retire width: 0.956929
MaC = Marked as critical.
lt_50_percent_before_Mac: 0
gt_90_percent_before_Mac: 0
gt_75_percent_before_Mac: 0
gt_50_percent_before_Mac: 0
stall_proportion_bin_same_before_after: 0
stall_proportion_bin_lower_before_after: 0
stall_proportion_bin_upper_before_after: 0
average_stall_proportion_before: -nan
average_stall_proportion_after: -nan
Critical IP stalls, total frequency: 0
Non-critical IP stalls, total frequency: 3513188
Total Freq all stalling IPs: 3513188
stat_90_percent_critical_ip_stalls_freq: 3168655
stat_90_percent_non_critical_ip_stalls_freq: 344533
Critical_IP_ROB_Stalls_Bucket_0: 0
Non-critical_IP_ROB_Stalls_Bucket_0: 22574
Critical_IP_ROB_Stalls_Bucket_1: 0
Non-critical_IP_ROB_Stalls_Bucket_1: 79899
Critical_IP_ROB_Stalls_Bucket_2: 0
Non-critical_IP_ROB_Stalls_Bucket_2: 247291
Critical_IP_ROB_Stalls_Bucket_3: 0
Non-critical_IP_ROB_Stalls_Bucket_3: 474924
Critical_IP_ROB_Stalls_Bucket_4: 0
Non-critical_IP_ROB_Stalls_Bucket_4: 846766
Critical_IP_ROB_Stalls_Bucket_5: 0
Non-critical_IP_ROB_Stalls_Bucket_5: 802935
Critical_IP_ROB_Stalls_Bucket_6: 0
Non-critical_IP_ROB_Stalls_Bucket_6: 1038799
0 => IPs accounting for >50 percent of stalls, 1 => 55, 2 => 60, 3 => 65 and so on till 90.
percent50: 54.9866 num IPs:  6
percent55: 63.9376 num IPs: 7
percent60: 63.9376 num IPs: 7
percent65: 71.3991 num IPs: 8
percent70: 71.3991 num IPs: 8
percent75: 76.2582 num IPs: 9
percent80: 80.8515 num IPs: 10
percent85: 87.6738 num IPs: 12
percent90: 90.1932 num IPs: 13
Critical_ROB_Stalls_Percent_0_Bucket_0: 645
Non-critical_ROB_Stalls_Percent_0_Bucket_0: 21929
Critical_ROB_Stalls_Percent_0_Bucket_1: 42958
Non-critical_ROB_Stalls_Percent_0_Bucket_1: 36941
Critical_ROB_Stalls_Percent_0_Bucket_2: 137407
Non-critical_ROB_Stalls_Percent_0_Bucket_2: 109884
Critical_ROB_Stalls_Percent_0_Bucket_3: 260980
Non-critical_ROB_Stalls_Percent_0_Bucket_3: 213944
Critical_ROB_Stalls_Percent_0_Bucket_4: 510589
Non-critical_ROB_Stalls_Percent_0_Bucket_4: 336177
Critical_ROB_Stalls_Percent_0_Bucket_5: 533029
Non-critical_ROB_Stalls_Percent_0_Bucket_5: 269906
Critical_ROB_Stalls_Percent_0_Bucket_6: 446174
Non-critical_ROB_Stalls_Percent_0_Bucket_6: 592625
Critical_ROB_Stalls_Percent_1_Bucket_0: 1319
Non-critical_ROB_Stalls_Percent_1_Bucket_0: 21255
Critical_ROB_Stalls_Percent_1_Bucket_1: 63434
Non-critical_ROB_Stalls_Percent_1_Bucket_1: 16465
Critical_ROB_Stalls_Percent_1_Bucket_2: 187885
Non-critical_ROB_Stalls_Percent_1_Bucket_2: 59406
Critical_ROB_Stalls_Percent_1_Bucket_3: 347962
Non-critical_ROB_Stalls_Percent_1_Bucket_3: 126962
Critical_ROB_Stalls_Percent_1_Bucket_4: 641737
Non-critical_ROB_Stalls_Percent_1_Bucket_4: 205029
Critical_ROB_Stalls_Percent_1_Bucket_5: 557681
Non-critical_ROB_Stalls_Percent_1_Bucket_5: 245254
Critical_ROB_Stalls_Percent_1_Bucket_6: 446230
Non-critical_ROB_Stalls_Percent_1_Bucket_6: 592569
Critical_ROB_Stalls_Percent_2_Bucket_0: 1319
Non-critical_ROB_Stalls_Percent_2_Bucket_0: 21255
Critical_ROB_Stalls_Percent_2_Bucket_1: 63434
Non-critical_ROB_Stalls_Percent_2_Bucket_1: 16465
Critical_ROB_Stalls_Percent_2_Bucket_2: 187885
Non-critical_ROB_Stalls_Percent_2_Bucket_2: 59406
Critical_ROB_Stalls_Percent_2_Bucket_3: 347962
Non-critical_ROB_Stalls_Percent_2_Bucket_3: 126962
Critical_ROB_Stalls_Percent_2_Bucket_4: 641737
Non-critical_ROB_Stalls_Percent_2_Bucket_4: 205029
Critical_ROB_Stalls_Percent_2_Bucket_5: 557681
Non-critical_ROB_Stalls_Percent_2_Bucket_5: 245254
Critical_ROB_Stalls_Percent_2_Bucket_6: 446230
Non-critical_ROB_Stalls_Percent_2_Bucket_6: 592569
Critical_ROB_Stalls_Percent_3_Bucket_0: 1492
Non-critical_ROB_Stalls_Percent_3_Bucket_0: 21082
Critical_ROB_Stalls_Percent_3_Bucket_1: 63440
Non-critical_ROB_Stalls_Percent_3_Bucket_1: 16459
Critical_ROB_Stalls_Percent_3_Bucket_2: 190740
Non-critical_ROB_Stalls_Percent_3_Bucket_2: 56551
Critical_ROB_Stalls_Percent_3_Bucket_3: 359418
Non-critical_ROB_Stalls_Percent_3_Bucket_3: 115506
Critical_ROB_Stalls_Percent_3_Bucket_4: 661216
Non-critical_ROB_Stalls_Percent_3_Bucket_4: 185550
Critical_ROB_Stalls_Percent_3_Bucket_5: 595105
Non-critical_ROB_Stalls_Percent_3_Bucket_5: 207830
Critical_ROB_Stalls_Percent_3_Bucket_6: 636975
Non-critical_ROB_Stalls_Percent_3_Bucket_6: 401824
Critical_ROB_Stalls_Percent_4_Bucket_0: 1492
Non-critical_ROB_Stalls_Percent_4_Bucket_0: 21082
Critical_ROB_Stalls_Percent_4_Bucket_1: 63440
Non-critical_ROB_Stalls_Percent_4_Bucket_1: 16459
Critical_ROB_Stalls_Percent_4_Bucket_2: 190740
Non-critical_ROB_Stalls_Percent_4_Bucket_2: 56551
Critical_ROB_Stalls_Percent_4_Bucket_3: 359418
Non-critical_ROB_Stalls_Percent_4_Bucket_3: 115506
Critical_ROB_Stalls_Percent_4_Bucket_4: 661216
Non-critical_ROB_Stalls_Percent_4_Bucket_4: 185550
Critical_ROB_Stalls_Percent_4_Bucket_5: 595105
Non-critical_ROB_Stalls_Percent_4_Bucket_5: 207830
Critical_ROB_Stalls_Percent_4_Bucket_6: 636975
Non-critical_ROB_Stalls_Percent_4_Bucket_6: 401824
Critical_ROB_Stalls_Percent_5_Bucket_0: 1492
Non-critical_ROB_Stalls_Percent_5_Bucket_0: 21082
Critical_ROB_Stalls_Percent_5_Bucket_1: 63555
Non-critical_ROB_Stalls_Percent_5_Bucket_1: 16344
Critical_ROB_Stalls_Percent_5_Bucket_2: 197291
Non-critical_ROB_Stalls_Percent_5_Bucket_2: 50000
Critical_ROB_Stalls_Percent_5_Bucket_3: 369793
Non-critical_ROB_Stalls_Percent_5_Bucket_3: 105131
Critical_ROB_Stalls_Percent_5_Bucket_4: 689761
Non-critical_ROB_Stalls_Percent_5_Bucket_4: 157005
Critical_ROB_Stalls_Percent_5_Bucket_5: 633208
Non-critical_ROB_Stalls_Percent_5_Bucket_5: 169727
Critical_ROB_Stalls_Percent_5_Bucket_6: 723994
Non-critical_ROB_Stalls_Percent_5_Bucket_6: 314805
Critical_ROB_Stalls_Percent_6_Bucket_0: 1681
Non-critical_ROB_Stalls_Percent_6_Bucket_0: 20893
Critical_ROB_Stalls_Percent_6_Bucket_1: 63585
Non-critical_ROB_Stalls_Percent_6_Bucket_1: 16314
Critical_ROB_Stalls_Percent_6_Bucket_2: 199585
Non-critical_ROB_Stalls_Percent_6_Bucket_2: 47706
Critical_ROB_Stalls_Percent_6_Bucket_3: 375961
Non-critical_ROB_Stalls_Percent_6_Bucket_3: 98963
Critical_ROB_Stalls_Percent_6_Bucket_4: 701255
Non-critical_ROB_Stalls_Percent_6_Bucket_4: 145511
Critical_ROB_Stalls_Percent_6_Bucket_5: 660946
Non-critical_ROB_Stalls_Percent_6_Bucket_5: 141989
Critical_ROB_Stalls_Percent_6_Bucket_6: 837452
Non-critical_ROB_Stalls_Percent_6_Bucket_6: 201347
Critical_ROB_Stalls_Percent_7_Bucket_0: 5411
Non-critical_ROB_Stalls_Percent_7_Bucket_0: 17163
Critical_ROB_Stalls_Percent_7_Bucket_1: 68395
Non-critical_ROB_Stalls_Percent_7_Bucket_1: 11504
Critical_ROB_Stalls_Percent_7_Bucket_2: 214096
Non-critical_ROB_Stalls_Percent_7_Bucket_2: 33195
Critical_ROB_Stalls_Percent_7_Bucket_3: 412648
Non-critical_ROB_Stalls_Percent_7_Bucket_3: 62276
Critical_ROB_Stalls_Percent_7_Bucket_4: 753660
Non-critical_ROB_Stalls_Percent_7_Bucket_4: 93106
Critical_ROB_Stalls_Percent_7_Bucket_5: 696620
Non-critical_ROB_Stalls_Percent_7_Bucket_5: 106315
Critical_ROB_Stalls_Percent_7_Bucket_6: 929314
Non-critical_ROB_Stalls_Percent_7_Bucket_6: 109485
Critical_ROB_Stalls_Percent_8_Bucket_0: 6231
Non-critical_ROB_Stalls_Percent_8_Bucket_0: 16343
Critical_ROB_Stalls_Percent_8_Bucket_1: 68691
Non-critical_ROB_Stalls_Percent_8_Bucket_1: 11208
Critical_ROB_Stalls_Percent_8_Bucket_2: 215769
Non-critical_ROB_Stalls_Percent_8_Bucket_2: 31522
Critical_ROB_Stalls_Percent_8_Bucket_3: 415900
Non-critical_ROB_Stalls_Percent_8_Bucket_3: 59024
Critical_ROB_Stalls_Percent_8_Bucket_4: 762631
Non-critical_ROB_Stalls_Percent_8_Bucket_4: 84135
Critical_ROB_Stalls_Percent_8_Bucket_5: 736784
Non-critical_ROB_Stalls_Percent_8_Bucket_5: 66151
Critical_ROB_Stalls_Percent_8_Bucket_6: 962649
Non-critical_ROB_Stalls_Percent_8_Bucket_6: 76150
Average ROB occupancy Load Stall Begin: 232.016
Average ROB occupancy Load Stall End: 250.065
Min ROB occupancy Load Stall Begin: 1
Max ROB occupancy Load Stall Begin: 352
Min ROB occupancy Load Stall End: 1
Max ROB occupancy Load Stall End: 352
Average ROB occupancy Critical Load Stall Begin: -nan
Average ROB occupancy Critical Load Stall End: -nan
Min ROB occupancy Critical Load Stall Begin: 400
Max ROB occupancy Critical Load Stall Begin: 0
Min ROB occupancy Critical Load Stall End: 400
Max ROB occupancy Critical Load Stall End: 0
 ROB Load Stall Begin Bucket Count 0: 36416
 ROB Load Stall End Bucket Count 0: 22574
 ROB Critical Load Stall Begin Bucket Count 0: 0
 ROB Critical Load Stall End Bucket Count 0: 0
 ROB Load Stall Begin Bucket Count 1: 104640
 ROB Load Stall End Bucket Count 1: 79899
 ROB Critical Load Stall Begin Bucket Count 1: 0
 ROB Critical Load Stall End Bucket Count 1: 0
 ROB Load Stall Begin Bucket Count 2: 326863
 ROB Load Stall End Bucket Count 2: 247291
 ROB Critical Load Stall Begin Bucket Count 2: 0
 ROB Critical Load Stall End Bucket Count 2: 0
 ROB Load Stall Begin Bucket Count 3: 590262
 ROB Load Stall End Bucket Count 3: 474924
 ROB Critical Load Stall Begin Bucket Count 3: 0
 ROB Critical Load Stall End Bucket Count 3: 0
 ROB Load Stall Begin Bucket Count 4: 989845
 ROB Load Stall End Bucket Count 4: 846766
 ROB Critical Load Stall Begin Bucket Count 4: 0
 ROB Critical Load Stall End Bucket Count 4: 0
 ROB Load Stall Begin Bucket Count 5: 770180
 ROB Load Stall End Bucket Count 5: 802935
 ROB Critical Load Stall Begin Bucket Count 5: 0
 ROB Critical Load Stall End Bucket Count 5: 0
 ROB Load Stall Begin Bucket Count 6: 694982
 ROB Load Stall End Bucket Count 6: 1038799
 ROB Critical Load Stall Begin Bucket Count 6: 0
 ROB Critical Load Stall End Bucket Count 6: 0
PIST Tag Read Accesses: 23612
PIST Read Accesses: 11806
PIST Tag Write Accesses: 23612
PIST Write Accesses: 11806
Criticality detector called times: 18723
Max global_stall_cycles_count: 439633
Threshold Modified: 1 times, factor: -1
Sturdy critical IP cache stats: 
 Unused entries: 0
CIC Tag Read Accesses: 0
CIC Read Accesses: 0
CIC Tag Write Accesses: 0
CIC Write Accesses: 0
Wobbly critical IP cache stats: 
 Unused entries: 91
CIC Tag Read Accesses: 179275063
CIC Read Accesses: 0
CIC Tag Write Accesses: 8296042
CIC Write Accesses: 0
ITLB TOTAL     ACCESS:   14372689  HIT:   14372689  MISS:          0  HIT %:        100  MISS %:          0   MPKI: 0
ITLB LOAD TRANSLATION ACCESS:   14372689  HIT:   14372689  MISS:          0  HIT %:        100  MISS %:          0   MPKI: 0
ITLB PREFETCH  REQUESTED:          0  ISSUED:          0  USEFUL:          0  USELESS:          0
ITLB USEFUL LOAD PREFETCHES:          0 PREFETCH ISSUED TO LOWER LEVEL:          0  ACCURACY: -nan
ITLB TIMELY PREFETCHES:          0 LATE PREFETCHES: 0 DROPPED PREFETCHES: 0
ITLB PREFETCHES SAME FILL-ORIGIN LEVEL: 0 DIFFERENT FILL-ORIGIN LEVEL: 0
ITLB AVERAGE MISS LATENCY: -nan cycles
ITLB RQ	ACCESS:   18906045	FORWARD:          0	MERGED:    4533357	TO_CACHE:   14372688

DTLB TOTAL     ACCESS:   12591183  HIT:   12555181  MISS:      36002  HIT %:    99.7141  MISS %:    0.28593   MPKI: 0.36002
DTLB LOAD TRANSLATION ACCESS:   12591183  HIT:   12555181  MISS:      36002  HIT %:    99.7141  MISS %:    0.28593   MPKI: 0.36002
DTLB PREFETCH  REQUESTED:          0  ISSUED:          0  USEFUL:          0  USELESS:          0
DTLB USEFUL LOAD PREFETCHES:          0 PREFETCH ISSUED TO LOWER LEVEL:          0  ACCURACY: -nan
DTLB TIMELY PREFETCHES:          0 LATE PREFETCHES: 0 DROPPED PREFETCHES: 0
DTLB PREFETCHES SAME FILL-ORIGIN LEVEL: 0 DIFFERENT FILL-ORIGIN LEVEL: 0
DTLB AVERAGE MISS LATENCY: 9.94598 cycles
DTLB RQ	ACCESS:   14154299	FORWARD:          0	MERGED:    1563058	TO_CACHE:   12591241

STLB TOTAL     ACCESS:      36002  HIT:      35884  MISS:        118  HIT %:    99.6722  MISS %:    0.32776   MPKI: 0.00118
STLB LOAD TRANSLATION ACCESS:      36002  HIT:      35884  MISS:        118  HIT %:    99.6722  MISS %:    0.32776   MPKI: 0.00118
STLB PREFETCH  REQUESTED:          0  ISSUED:          0  USEFUL:          0  USELESS:          0
STLB USEFUL LOAD PREFETCHES:          0 PREFETCH ISSUED TO LOWER LEVEL:          0  ACCURACY: -nan
STLB TIMELY PREFETCHES:          0 LATE PREFETCHES: 0 DROPPED PREFETCHES: 0
STLB PREFETCHES SAME FILL-ORIGIN LEVEL: 0 DIFFERENT FILL-ORIGIN LEVEL: 0
STLB AVERAGE MISS LATENCY: 288.466 cycles
STLB RQ	ACCESS:      36002	FORWARD:          0	MERGED:          0	TO_CACHE:      36002

STLB Hit, L1D data hit: 0
STLB Hit, L2C data hit: 0
STLB Hit, LLC data hit: 0
STLB Hit, LLC data miss: 0
STLB STLB hints to L2: 0
L1D TOTAL     ACCESS:   13854286  HIT:   11952076  MISS:    1902210  HIT %:    86.2699  MISS %:    13.7301   MPKI: 19.0221
L1D LOAD      ACCESS:   12543000  HIT:   10641349  MISS:    1901651  HIT %:    84.8389  MISS %:    15.1611   MPKI: 19.0165
L1D RFO       ACCESS:    1311286  HIT:    1310727  MISS:        559  HIT %:    99.9574  MISS %:  0.0426299   MPKI: 0.00559
L1D PREFETCH  REQUESTED:          0  ISSUED:          0  USEFUL:          0  USELESS:          0
L1D USEFUL LOAD PREFETCHES:          0 PREFETCH ISSUED TO LOWER LEVEL:          0  ACCURACY: -nan
L1D TIMELY PREFETCHES:          0 LATE PREFETCHES: 0 DROPPED PREFETCHES: 0
L1D PREFETCHES SAME FILL-ORIGIN LEVEL: 0 DIFFERENT FILL-ORIGIN LEVEL: 0
L1D AVERAGE MISS LATENCY: 40.8343 cycles
L1D RQ	ACCESS:   29502450	FORWARD:          0	MERGED:   16431508	TO_CACHE:   12842264
L1D WQ	ACCESS:    1312392	FORWARD:     228678	MERGED:        357	TO_CACHE:    1312035

L1D UNIQUE REGIONS ACCESSED: 0
L1D REGIONS CONFLICTS: 0
L1D Cross Page Prefetch Requests: 0
L1D Same Page Prefetch Requests: 0
L1D ROI Sum of L1D PQ occupancy: 0
L1D PREFETCHES PUSHED FROM L2C: 0
L1I TOTAL     ACCESS:   18906045  HIT:   18906045  MISS:          0  HIT %:        100  MISS %:          0   MPKI: 0
L1I LOAD      ACCESS:   18906045  HIT:   18906045  MISS:          0  HIT %:        100  MISS %:          0   MPKI: 0
L1I PREFETCH  REQUESTED:          0  ISSUED:          0  USEFUL:          0  USELESS:          0
L1I USEFUL LOAD PREFETCHES:          0 PREFETCH ISSUED TO LOWER LEVEL:          0  ACCURACY: -nan
L1I TIMELY PREFETCHES:          0 LATE PREFETCHES: 0 DROPPED PREFETCHES: 0
L1I PREFETCHES SAME FILL-ORIGIN LEVEL: 0 DIFFERENT FILL-ORIGIN LEVEL: 0
L1I AVERAGE MISS LATENCY: -nan cycles
L1I RQ	ACCESS:   37599638	FORWARD:          0	MERGED:   18693593	TO_CACHE:   18906045

BTB TOTAL     ACCESS:   16819646  HIT:   16818882  MISS:        764  HIT %:    99.9955  MISS %: 0.00454231   MPKI: 0.00764
BTB BRANCH_DIRECT_JUMP	ACCESS:        864  HIT:        862  MISS:          2
BTB BRANCH_INDIRECT	ACCESS:          0  HIT:          0  MISS:          0
BTB BRANCH_CONDITIONAL	ACCESS:   15520973  HIT:   15520940  MISS:         33
BTB BRANCH_DIRECT_CALL	ACCESS:     325128  HIT:     325115  MISS:         13
BTB BRANCH_INDIRECT_CALL	ACCESS:     323777  HIT:     323771  MISS:          6
BTB BRANCH_RETURN	ACCESS:     648904  HIT:     648194  MISS:        710
BTB BRANCH_OTHER ACCESS:          0  HIT:          0  MISS:          0

L2C TOTAL     ACCESS:    2299985  HIT:     396099  MISS:    1903886  HIT %:    17.2218  MISS %:    82.7782   MPKI: 19.0389
L2C LOAD      ACCESS:    1901651  HIT:     379309  MISS:    1522342  HIT %:    19.9463  MISS %:    80.0537   MPKI: 15.2234
L2C DATA LOAD MPKI: 15.2234
L2C INSTRUCTION LOAD MPKI: 0
L2C RFO       ACCESS:        559  HIT:         21  MISS:        538  HIT %:    3.75671  MISS %:    96.2433   MPKI: 0.00538
L2C PREFETCH  ACCESS:     396834  HIT:      15917  MISS:     380917  HIT %:      4.011  MISS %:     95.989   MPKI: 3.80917
L2C DATA PREFETCH MPKI: 3.80917
L2C INSTRUCTION PREFETCH MPKI: 0
L2C WRITEBACK ACCESS:        823  HIT:        823  MISS:          0  HIT %:        100  MISS %:          0   MPKI: 0
L2C LOAD TRANSLATION ACCESS:        118  HIT:         29  MISS:         89  HIT %:    24.5763  MISS %:    75.4237   MPKI: 0.00089
L2C PREFETCH  REQUESTED:    8984831  ISSUED:    8984822  USEFUL:     378862  USELESS:       2052
L2C USEFUL LOAD PREFETCHES:     378862 PREFETCH ISSUED TO LOWER LEVEL:    5399052  ACCURACY: 7.01719
L2C TIMELY PREFETCHES:     378862 LATE PREFETCHES: 186405 DROPPED PREFETCHES: 0
L2C PREFETCHES SAME FILL-ORIGIN LEVEL: 567322 DIFFERENT FILL-ORIGIN LEVEL: 4831730
L2C AVERAGE MISS LATENCY: 33.0761 cycles
L2C RQ	ACCESS:    1902328	FORWARD:          0	MERGED:          0	TO_CACHE:    1902328
L2C WQ	ACCESS:        823	FORWARD:          0	MERGED:          0	TO_CACHE:        823
L2C PQ	ACCESS:    8984822	FORWARD:          0	MERGED:    2910418	TO_CACHE:    6074404

L2C Instructions Evicting Data 0
L2C Translations Evicting Data 89
L2C Data Evicting Data 1903708
L2C Instructions Evicting Instructions 0
L2C Translations Evicting Instructions 0
L2C Data Evicting Instructions 0
L2C Instructions Evicting Translations 0
L2C Translations Evicting Translations 0
L2C Data Evicting Translations 89
L2C Dense regions hint from L2: 0
PSCL5 TOTAL     ACCESS:        118  HIT:        118  MISS:          0  HIT %:        100  MISS %:          0   MPKI: 0
PSCL5 LOAD TRANSLATION ACCESS:        118  HIT:        118  MISS:          0  HIT %:        100  MISS %:          0   MPKI: 0
PSCL5 PREFETCH  REQUESTED:          0  ISSUED:          0  USEFUL:          0  USELESS:          0
PSCL5 USEFUL LOAD PREFETCHES:          0 PREFETCH ISSUED TO LOWER LEVEL:          0  ACCURACY: -nan
PSCL5 TIMELY PREFETCHES:          0 LATE PREFETCHES: 0 DROPPED PREFETCHES: 0
PSCL5 PREFETCHES SAME FILL-ORIGIN LEVEL: 0 DIFFERENT FILL-ORIGIN LEVEL: 0

PSCL4 TOTAL     ACCESS:        118  HIT:        118  MISS:          0  HIT %:        100  MISS %:          0   MPKI: 0
PSCL4 LOAD TRANSLATION ACCESS:        118  HIT:        118  MISS:          0  HIT %:        100  MISS %:          0   MPKI: 0
PSCL4 PREFETCH  REQUESTED:          0  ISSUED:          0  USEFUL:          0  USELESS:          0
PSCL4 USEFUL LOAD PREFETCHES:          0 PREFETCH ISSUED TO LOWER LEVEL:          0  ACCURACY: -nan
PSCL4 TIMELY PREFETCHES:          0 LATE PREFETCHES: 0 DROPPED PREFETCHES: 0
PSCL4 PREFETCHES SAME FILL-ORIGIN LEVEL: 0 DIFFERENT FILL-ORIGIN LEVEL: 0

PSCL3 TOTAL     ACCESS:        118  HIT:        118  MISS:          0  HIT %:        100  MISS %:          0   MPKI: 0
PSCL3 LOAD TRANSLATION ACCESS:        118  HIT:        118  MISS:          0  HIT %:        100  MISS %:          0   MPKI: 0
PSCL3 PREFETCH  REQUESTED:          0  ISSUED:          0  USEFUL:          0  USELESS:          0
PSCL3 USEFUL LOAD PREFETCHES:          0 PREFETCH ISSUED TO LOWER LEVEL:          0  ACCURACY: -nan
PSCL3 TIMELY PREFETCHES:          0 LATE PREFETCHES: 0 DROPPED PREFETCHES: 0
PSCL3 PREFETCHES SAME FILL-ORIGIN LEVEL: 0 DIFFERENT FILL-ORIGIN LEVEL: 0

PSCL2 TOTAL     ACCESS:        118  HIT:        118  MISS:          0  HIT %:        100  MISS %:          0   MPKI: 0
PSCL2 LOAD TRANSLATION ACCESS:        118  HIT:        118  MISS:          0  HIT %:        100  MISS %:          0   MPKI: 0
PSCL2 PREFETCH  REQUESTED:          0  ISSUED:          0  USEFUL:          0  USELESS:          0
PSCL2 USEFUL LOAD PREFETCHES:          0 PREFETCH ISSUED TO LOWER LEVEL:          0  ACCURACY: -nan
PSCL2 TIMELY PREFETCHES:          0 LATE PREFETCHES: 0 DROPPED PREFETCHES: 0
PSCL2 PREFETCHES SAME FILL-ORIGIN LEVEL: 0 DIFFERENT FILL-ORIGIN LEVEL: 0

LLC TOTAL     ACCESS:    6355435  HIT:    5881611  MISS:     473824  HIT %:    92.5446  MISS %:    7.45541   MPKI: 4.73824
LLC LOAD      ACCESS:    1335937  HIT:    1219858  MISS:     116079  HIT %:     91.311  MISS %:    8.68896   MPKI: 1.16079
LLC RFO       ACCESS:        538  HIT:        261  MISS:        277  HIT %:     48.513  MISS %:     51.487   MPKI: 0.00277
LLC PREFETCH  ACCESS:    5018038  HIT:    4661065  MISS:     356973  HIT %:    92.8862  MISS %:     7.1138   MPKI: 3.56973
LLC WRITEBACK ACCESS:        833  HIT:        424  MISS:        409  HIT %:    50.9004  MISS %:    49.0996   MPKI: 0.00409
LLC LOAD TRANSLATION ACCESS:         89  HIT:          3  MISS:         86  HIT %:    3.37079  MISS %:    96.6292   MPKI: 0.00086
LLC PREFETCH  REQUESTED:          0  ISSUED:          0  USEFUL:     210682  USELESS:     146449
LLC USEFUL LOAD PREFETCHES:     210682 PREFETCH ISSUED TO LOWER LEVEL:     424922  ACCURACY: 49.5813
LLC TIMELY PREFETCHES:     210682 LATE PREFETCHES: 67949 DROPPED PREFETCHES: 0
LLC PREFETCHES SAME FILL-ORIGIN LEVEL: 411706 DIFFERENT FILL-ORIGIN LEVEL: 0
LLC AVERAGE MISS LATENCY: 74.509 cycles
LLC RQ	ACCESS:    1336564	FORWARD:          0	MERGED:          0	TO_CACHE:    1336564
LLC WQ	ACCESS:        833	FORWARD:          0	MERGED:          0	TO_CACHE:        833
LLC PQ	ACCESS:    5399052	FORWARD:          0	MERGED:     148946	TO_CACHE:    5250106

LLC Dense regions hint to LLC: 0

RAW hits: 1966
Loads Generated: 29504421
Loads sent to L1D: 29502450
Stores Generated: 1312389
Stores sent to L1D: 1312392
Major fault: 0 Minor fault: 823
Allocated PAGES: 823
 All Calls: 2852429
 Critical Calls: 2852429
------------------
Depth Distribution
------------------
depth 0: 0
depth 1: 3365452
depth 2: 2810406
depth 3: 2305860
depth 4: 1621798
depth 5: 1049735
depth 6: 633075
depth 7: 367794
depth 8: 200295
depth 9: 96528
depth 10: 50850
depth 11: 17612
depth 12: 2257
depth 13: 163
depth 14: 24
depth 15: 23
depth 16: 0
depth 17: 0
depth 18: 0
depth 19: 0
depth 20: 0
depth 21: 0
depth 22: 0
depth 23: 0
depth 24: 0
depth 25: 0
depth 26: 0
depth 27: 0
depth 28: 0
depth 29: 0
Total: 12521872
-----------------------------
-----------------------------
	Captured at Filter
-----------------------------
depth 0: 0
depth 1: 48459
depth 2: 35983
depth 3: 29843
depth 4: 22074
depth 5: 10705
depth 6: 3986
depth 7: 1949
depth 8: 1051
depth 9: 475
depth 10: 267
depth 11: 101
depth 12: 11
depth 13: 0
depth 14: 0
depth 15: 0
depth 16: 0
depth 17: 0
depth 18: 0
depth 19: 0
depth 20: 0
depth 21: 0
depth 22: 0
depth 23: 0
depth 24: 0
depth 25: 0
depth 26: 0
depth 27: 0
depth 28: 0
depth 29: 0
-----------------------------
-----------------------------
		Lost at Page
-----------------------------
depth 0: 0
depth 1: 88016
depth 2: 110274
depth 3: 128253
depth 4: 116888
depth 5: 99497
depth 6: 72071
depth 7: 49195
depth 8: 30965
depth 9: 17414
depth 10: 11059
depth 11: 4592
depth 12: 626
depth 13: 27
depth 14: 1
depth 15: 1
depth 16: 0
depth 17: 0
depth 18: 0
depth 19: 0
depth 20: 0
depth 21: 0
depth 22: 0
depth 23: 0
depth 24: 0
depth 25: 0
depth 26: 0
depth 27: 0
depth 28: 0
depth 29: 0
-----------------------------
-----------------------------
	Lost due to PQ Size
-----------------------------
258141
-----------------------------
ST read accesses: 1868129
ST write accesses: 33522
PT read accesses: 57258880
PT write accesses: 2799596
FILTER read accesses: 13187257
FILTER write accesses: 3616837
GHR read accesses: 3242515
GHR write accesses: 595061
GHR counter read accesses: 48879950
GHR counter write accesses: 3632127
ST tag read accesses: 748425909
ST tag write accesses: 10632768

DRAM Statistics
 CHANNEL 0
 RQ ROW_BUFFER_HIT:     432872  ROW_BUFFER_MISS:      40543
 DBUS_CONGESTED:          7
 WQ ROW_BUFFER_HIT:         43  ROW_BUFFER_MISS:        587  FULL:          0

 AVG_CONGESTED_CYCLE: 2
 All warmup complete: 2
Channel 0 Bank busy for read cycles: 0
Channel 0 Bank busy for write cycles: 0
Channel 0
Rank 0
0banks busy for read cycles: 100127310
0banks busy for write cycles: 602
1banks busy for read cycles: 12374785
1banks busy for write cycles: 93357
2banks busy for read cycles: 4217401
2banks busy for write cycles: 4110
3banks busy for read cycles: 1340042
3banks busy for write cycles: 0
4banks busy for read cycles: 465660
4banks busy for write cycles: 0
5banks busy for read cycles: 144870
5banks busy for write cycles: 0
6banks busy for read cycles: 39916
6banks busy for write cycles: 0
7banks busy for read cycles: 8863
7banks busy for write cycles: 0
8banks busy for read cycles: 857
8banks busy for write cycles: 0

CPU 0 Branch Prediction Accuracy: 99.9967% MPKI: 0.00917 Average ROB Occupancy at Mispredict: 243.469
Branch types
NOT_BRANCH: 72112588 72.1126%
BRANCH_DIRECT_JUMP: 864 0.000864%
BRANCH_INDIRECT: 0 0%
BRANCH_CONDITIONAL: 26588569 26.5886%
BRANCH_DIRECT_CALL: 325128 0.325128%
BRANCH_INDIRECT_CALL: 323777 0.323777%
BRANCH_RETURN: 648904 0.648904%
BRANCH_OTHER: 0 0%

DRAM PAGES: 1048576
Allocated PAGES: 823
