
*** ChampSim Multicore Out-of-Order Simulator ***

Warmup Instructions: 50000000
Simulation Instructions: 100000000
Number of CPUs: 1
LLC sets: 2048
LLC ways: 16
Off-chip DRAM Size: 4096 MB Channels: 1 Width: 64-bit Data Rate: 6400 MT/s
CPU 0 runs ../SPEC2017//623.xalancbmk_s-202B.champsimtrace.xz
.xz
NUM_OF_IPS_IN_CRITICAL_IP_TRAINING: 64
NUM_OF_CRITICAL_IP_TRAINING_TABLE_WAYS: 2
NUM_OF_CRITICAL_IP_TRAINING_TABLE_SETS: 32
WOBBLY_CRITICAL_IP_CACHE_SETS: 32
WOBBLY_CRITICAL_IP_CACHE_WAYS: 4
BTB has LRU replacement policy
ITLB has LRU replacement policy
DTLB has LRU replacement policy
STLB has LRU replacement policy
L1I has LRU replacement policy
IP Table Entries: 64
L1D has LRU replacement policy
IP_Table L2 entries: 64
Initialize SRRIP state for L2C
Initialize DRRIP state for LLC
Heartbeat CPU 0 instructions: 10000001 cycles: 2831206 heartbeat IPC: 3.53206 cumulative IPC: 3.53206 (Simulation time: 0 hr 7 min 43 sec) 
Heartbeat CPU 0 instructions: 20000002 cycles: 5665470 heartbeat IPC: 3.52825 cumulative IPC: 3.53016 (Simulation time: 0 hr 14 min 38 sec) 
Heartbeat CPU 0 instructions: 30000001 cycles: 8500029 heartbeat IPC: 3.52789 cumulative IPC: 3.5294 (Simulation time: 0 hr 20 min 11 sec) 
Heartbeat CPU 0 instructions: 40000001 cycles: 11329972 heartbeat IPC: 3.53364 cumulative IPC: 3.53046 (Simulation time: 0 hr 25 min 28 sec) 
Heartbeat CPU 0 instructions: 50000000 cycles: 14165422 heartbeat IPC: 3.52678 cumulative IPC: 3.52972 (Simulation time: 0 hr 30 min 29 sec) 

Warmup complete CPU 0 instructions: 50000004 cycles: 14165423 (Simulation time: 0 hr 30 min 29 sec) 

% increase in all ip prefetch 271.774
% increase in all ip prefetch -0.215622
Heartbeat CPU 0 instructions: 60000002 cycles: 25165857 heartbeat IPC: 0.909055 cumulative IPC: 0.909055 (Simulation time: 0 hr 34 min 52 sec) 
Heartbeat CPU 0 instructions: 70000000 cycles: 36172611 heartbeat IPC: 0.908533 cumulative IPC: 0.908794 (Simulation time: 0 hr 38 min 55 sec) 
Heartbeat CPU 0 instructions: 80000000 cycles: 47187316 heartbeat IPC: 0.907877 cumulative IPC: 0.908488 (Simulation time: 0 hr 42 min 41 sec) 
Heartbeat CPU 0 instructions: 90000001 cycles: 58105774 heartbeat IPC: 0.91588 cumulative IPC: 0.910325 (Simulation time: 0 hr 46 min 3 sec) 
Heartbeat CPU 0 instructions: 100000000 cycles: 69076780 heartbeat IPC: 0.911493 cumulative IPC: 0.910558 (Simulation time: 0 hr 49 min 11 sec) 
Heartbeat CPU 0 instructions: 110000000 cycles: 79975725 heartbeat IPC: 0.91752 cumulative IPC: 0.911711 (Simulation time: 0 hr 52 min 14 sec) 
Heartbeat CPU 0 instructions: 120000002 cycles: 90921748 heartbeat IPC: 0.913574 cumulative IPC: 0.911977 (Simulation time: 0 hr 55 min 6 sec) 
Heartbeat CPU 0 instructions: 130000002 cycles: 101946718 heartbeat IPC: 0.907032 cumulative IPC: 0.911356 (Simulation time: 1 hr 0 min 30 sec) 
Heartbeat CPU 0 instructions: 140000001 cycles: 112986165 heartbeat IPC: 0.905842 cumulative IPC: 0.91074 (Simulation time: 1 hr 7 min 9 sec) 
Heartbeat CPU 0 instructions: 150000001 cycles: 124005754 heartbeat IPC: 0.907475 cumulative IPC: 0.910412 (Simulation time: 1 hr 12 min 29 sec) 
Finished CPU 0 instructions: 100000001 cycles: 109840332 cumulative IPC: 0.910412 (Simulation time: 1 hr 12 min 29 sec) 

ChampSim completed all CPUs

Region of Interest Statistics

CPU 0 cumulative IPC: 0.910412 instructions: 100000001 cycles: 109840332

CPU 0 Average Load ROB stall cycles: 1.19346e+07
CPU 0 Fraction of times ROB stalled by Loads: 17.297
CPU 0 Percentage of Load stall cycles in Total stall cycles: 2.16503e+08
 Total stall cycles: 69602761
 Total load stall cycles: 150691719409695
CPU 0 NUM of IPS identified critical: 21
CPU 0 Num of Load IPs stalling ROB: 40
Threshold modification factor: -1
Max PIST entries: 30
Min PIST entries: 0
Avg PIST entries: 9.67333
Trouble in retire width: 0.802952
MaC = Marked as critical.
lt_50_percent_before_Mac: 20
gt_90_percent_before_Mac: 0
gt_75_percent_before_Mac: 0
gt_50_percent_before_Mac: 1
stall_proportion_bin_same_before_after: 0
stall_proportion_bin_lower_before_after: 0
stall_proportion_bin_upper_before_after: 0
average_stall_proportion_before: 0.0338806
average_stall_proportion_after: 0.0330577
Critical IP stalls, total frequency: 1389840
Non-critical IP stalls, total frequency: 794155
Critical_IP_ROB_Stalls_Bucket_0: 1114467
Non-critical_IP_ROB_Stalls_Bucket_0: 748337
Critical_IP_ROB_Stalls_Bucket_1: 135219
Non-critical_IP_ROB_Stalls_Bucket_1: 20992
Critical_IP_ROB_Stalls_Bucket_2: 58283
Non-critical_IP_ROB_Stalls_Bucket_2: 14299
Critical_IP_ROB_Stalls_Bucket_3: 41387
Non-critical_IP_ROB_Stalls_Bucket_3: 5519
Critical_IP_ROB_Stalls_Bucket_4: 21809
Non-critical_IP_ROB_Stalls_Bucket_4: 3056
Critical_IP_ROB_Stalls_Bucket_5: 12836
Non-critical_IP_ROB_Stalls_Bucket_5: 1325
Critical_IP_ROB_Stalls_Bucket_6: 5839
Non-critical_IP_ROB_Stalls_Bucket_6: 627
0 => IPs accounting for >50 percent of stalls, 1 => 55, 2 => 60, 3 => 65 and so on till 90.
percent50: 55.9162 num IPs:3
percent55: 55.9162 num IPs:3
percent60: 67.28 num IPs:4
percent65: 67.28 num IPs:4
percent70: 78.1239 num IPs:5
percent75: 78.1239 num IPs:5
percent80: 88.7546 num IPs:6
percent85: 88.7546 num IPs:6
percent90: 91.6605 num IPs:7
Critical_ROB_Stalls_Percent_0_Bucket_0: 1168608
Non-critical_ROB_Stalls_Percent_0_Bucket_0: 694196
Critical_ROB_Stalls_Percent_0_Bucket_1: 22147
Non-critical_ROB_Stalls_Percent_0_Bucket_1: 134064
Critical_ROB_Stalls_Percent_0_Bucket_2: 13622
Non-critical_ROB_Stalls_Percent_0_Bucket_2: 58960
Critical_ROB_Stalls_Percent_0_Bucket_3: 9600
Non-critical_ROB_Stalls_Percent_0_Bucket_3: 37306
Critical_ROB_Stalls_Percent_0_Bucket_4: 4430
Non-critical_ROB_Stalls_Percent_0_Bucket_4: 20435
Critical_ROB_Stalls_Percent_0_Bucket_5: 1794
Non-critical_ROB_Stalls_Percent_0_Bucket_5: 12367
Critical_ROB_Stalls_Percent_0_Bucket_6: 1005
Non-critical_ROB_Stalls_Percent_0_Bucket_6: 5461
Critical_ROB_Stalls_Percent_1_Bucket_0: 1168608
Non-critical_ROB_Stalls_Percent_1_Bucket_0: 694196
Critical_ROB_Stalls_Percent_1_Bucket_1: 22147
Non-critical_ROB_Stalls_Percent_1_Bucket_1: 134064
Critical_ROB_Stalls_Percent_1_Bucket_2: 13622
Non-critical_ROB_Stalls_Percent_1_Bucket_2: 58960
Critical_ROB_Stalls_Percent_1_Bucket_3: 9600
Non-critical_ROB_Stalls_Percent_1_Bucket_3: 37306
Critical_ROB_Stalls_Percent_1_Bucket_4: 4430
Non-critical_ROB_Stalls_Percent_1_Bucket_4: 20435
Critical_ROB_Stalls_Percent_1_Bucket_5: 1794
Non-critical_ROB_Stalls_Percent_1_Bucket_5: 12367
Critical_ROB_Stalls_Percent_1_Bucket_6: 1005
Non-critical_ROB_Stalls_Percent_1_Bucket_6: 5461
Critical_ROB_Stalls_Percent_2_Bucket_0: 1336902
Non-critical_ROB_Stalls_Percent_2_Bucket_0: 525902
Critical_ROB_Stalls_Percent_2_Bucket_1: 54052
Non-critical_ROB_Stalls_Percent_2_Bucket_1: 102159
Critical_ROB_Stalls_Percent_2_Bucket_2: 29702
Non-critical_ROB_Stalls_Percent_2_Bucket_2: 42880
Critical_ROB_Stalls_Percent_2_Bucket_3: 24824
Non-critical_ROB_Stalls_Percent_2_Bucket_3: 22082
Critical_ROB_Stalls_Percent_2_Bucket_4: 14108
Non-critical_ROB_Stalls_Percent_2_Bucket_4: 10757
Critical_ROB_Stalls_Percent_2_Bucket_5: 6578
Non-critical_ROB_Stalls_Percent_2_Bucket_5: 7583
Critical_ROB_Stalls_Percent_2_Bucket_6: 3226
Non-critical_ROB_Stalls_Percent_2_Bucket_6: 3240
Critical_ROB_Stalls_Percent_3_Bucket_0: 1336902
Non-critical_ROB_Stalls_Percent_3_Bucket_0: 525902
Critical_ROB_Stalls_Percent_3_Bucket_1: 54052
Non-critical_ROB_Stalls_Percent_3_Bucket_1: 102159
Critical_ROB_Stalls_Percent_3_Bucket_2: 29702
Non-critical_ROB_Stalls_Percent_3_Bucket_2: 42880
Critical_ROB_Stalls_Percent_3_Bucket_3: 24824
Non-critical_ROB_Stalls_Percent_3_Bucket_3: 22082
Critical_ROB_Stalls_Percent_3_Bucket_4: 14108
Non-critical_ROB_Stalls_Percent_3_Bucket_4: 10757
Critical_ROB_Stalls_Percent_3_Bucket_5: 6578
Non-critical_ROB_Stalls_Percent_3_Bucket_5: 7583
Critical_ROB_Stalls_Percent_3_Bucket_6: 3226
Non-critical_ROB_Stalls_Percent_3_Bucket_6: 3240
Critical_ROB_Stalls_Percent_4_Bucket_0: 1568402
Non-critical_ROB_Stalls_Percent_4_Bucket_0: 294402
Critical_ROB_Stalls_Percent_4_Bucket_1: 55762
Non-critical_ROB_Stalls_Percent_4_Bucket_1: 100449
Critical_ROB_Stalls_Percent_4_Bucket_2: 31620
Non-critical_ROB_Stalls_Percent_4_Bucket_2: 40962
Critical_ROB_Stalls_Percent_4_Bucket_3: 25754
Non-critical_ROB_Stalls_Percent_4_Bucket_3: 21152
Critical_ROB_Stalls_Percent_4_Bucket_4: 14661
Non-critical_ROB_Stalls_Percent_4_Bucket_4: 10204
Critical_ROB_Stalls_Percent_4_Bucket_5: 6736
Non-critical_ROB_Stalls_Percent_4_Bucket_5: 7425
Critical_ROB_Stalls_Percent_4_Bucket_6: 3287
Non-critical_ROB_Stalls_Percent_4_Bucket_6: 3179
Critical_ROB_Stalls_Percent_5_Bucket_0: 1568402
Non-critical_ROB_Stalls_Percent_5_Bucket_0: 294402
Critical_ROB_Stalls_Percent_5_Bucket_1: 55762
Non-critical_ROB_Stalls_Percent_5_Bucket_1: 100449
Critical_ROB_Stalls_Percent_5_Bucket_2: 31620
Non-critical_ROB_Stalls_Percent_5_Bucket_2: 40962
Critical_ROB_Stalls_Percent_5_Bucket_3: 25754
Non-critical_ROB_Stalls_Percent_5_Bucket_3: 21152
Critical_ROB_Stalls_Percent_5_Bucket_4: 14661
Non-critical_ROB_Stalls_Percent_5_Bucket_4: 10204
Critical_ROB_Stalls_Percent_5_Bucket_5: 6736
Non-critical_ROB_Stalls_Percent_5_Bucket_5: 7425
Critical_ROB_Stalls_Percent_5_Bucket_6: 3287
Non-critical_ROB_Stalls_Percent_5_Bucket_6: 3179
Critical_ROB_Stalls_Percent_6_Bucket_0: 1795507
Non-critical_ROB_Stalls_Percent_6_Bucket_0: 67297
Critical_ROB_Stalls_Percent_6_Bucket_1: 57358
Non-critical_ROB_Stalls_Percent_6_Bucket_1: 98853
Critical_ROB_Stalls_Percent_6_Bucket_2: 33440
Non-critical_ROB_Stalls_Percent_6_Bucket_2: 39142
Critical_ROB_Stalls_Percent_6_Bucket_3: 26676
Non-critical_ROB_Stalls_Percent_6_Bucket_3: 20230
Critical_ROB_Stalls_Percent_6_Bucket_4: 15188
Non-critical_ROB_Stalls_Percent_6_Bucket_4: 9677
Critical_ROB_Stalls_Percent_6_Bucket_5: 6880
Non-critical_ROB_Stalls_Percent_6_Bucket_5: 7281
Critical_ROB_Stalls_Percent_6_Bucket_6: 3347
Non-critical_ROB_Stalls_Percent_6_Bucket_6: 3119
Critical_ROB_Stalls_Percent_7_Bucket_0: 1795507
Non-critical_ROB_Stalls_Percent_7_Bucket_0: 67297
Critical_ROB_Stalls_Percent_7_Bucket_1: 57358
Non-critical_ROB_Stalls_Percent_7_Bucket_1: 98853
Critical_ROB_Stalls_Percent_7_Bucket_2: 33440
Non-critical_ROB_Stalls_Percent_7_Bucket_2: 39142
Critical_ROB_Stalls_Percent_7_Bucket_3: 26676
Non-critical_ROB_Stalls_Percent_7_Bucket_3: 20230
Critical_ROB_Stalls_Percent_7_Bucket_4: 15188
Non-critical_ROB_Stalls_Percent_7_Bucket_4: 9677
Critical_ROB_Stalls_Percent_7_Bucket_5: 6880
Non-critical_ROB_Stalls_Percent_7_Bucket_5: 7281
Critical_ROB_Stalls_Percent_7_Bucket_6: 3347
Non-critical_ROB_Stalls_Percent_7_Bucket_6: 3119
Critical_ROB_Stalls_Percent_8_Bucket_0: 1844602
Non-critical_ROB_Stalls_Percent_8_Bucket_0: 18202
Critical_ROB_Stalls_Percent_8_Bucket_1: 67374
Non-critical_ROB_Stalls_Percent_8_Bucket_1: 88837
Critical_ROB_Stalls_Percent_8_Bucket_2: 35860
Non-critical_ROB_Stalls_Percent_8_Bucket_2: 36722
Critical_ROB_Stalls_Percent_8_Bucket_3: 27681
Non-critical_ROB_Stalls_Percent_8_Bucket_3: 19225
Critical_ROB_Stalls_Percent_8_Bucket_4: 15692
Non-critical_ROB_Stalls_Percent_8_Bucket_4: 9173
Critical_ROB_Stalls_Percent_8_Bucket_5: 7197
Non-critical_ROB_Stalls_Percent_8_Bucket_5: 6964
Critical_ROB_Stalls_Percent_8_Bucket_6: 3454
Non-critical_ROB_Stalls_Percent_8_Bucket_6: 3012
Average ROB occupancy Load Stall Begin: 36.0605
Average ROB occupancy Load Stall End: 39.4345
Min ROB occupancy Load Stall Begin: 2
Max ROB occupancy Load Stall Begin: 351
Min ROB occupancy Load Stall End: 2
Max ROB occupancy Load Stall End: 352
Average ROB occupancy Critical Load Stall Begin: 41.7646
Average ROB occupancy Critical Load Stall End: 45.4328
Min ROB occupancy Critical Load Stall Begin: 3
Max ROB occupancy Critical Load Stall Begin: 351
Min ROB occupancy Critical Load Stall End: 3
Max ROB occupancy Critical Load Stall End: 352
 ROB Load Stall Begin Bucket Count 0: 1877819
 ROB Load Stall End Bucket Count 0: 1862804
 ROB Critical Load Stall Begin Bucket Count 0: 1075897
 ROB Critical Load Stall End Bucket Count 0: 1063563
 ROB Load Stall Begin Bucket Count 1: 167361
 ROB Load Stall End Bucket Count 1: 156211
 ROB Critical Load Stall Begin Bucket Count 1: 131697
 ROB Critical Load Stall End Bucket Count 1: 120725
 ROB Load Stall Begin Bucket Count 2: 62794
 ROB Load Stall End Bucket Count 2: 72582
 ROB Critical Load Stall Begin Bucket Count 2: 46019
 ROB Critical Load Stall End Bucket Count 2: 54070
 ROB Load Stall Begin Bucket Count 3: 39323
 ROB Load Stall End Bucket Count 3: 46906
 ROB Critical Load Stall Begin Bucket Count 3: 32336
 ROB Critical Load Stall End Bucket Count 3: 39482
 ROB Load Stall Begin Bucket Count 4: 22128
 ROB Load Stall End Bucket Count 4: 24865
 ROB Critical Load Stall Begin Bucket Count 4: 18382
 ROB Critical Load Stall End Bucket Count 4: 20757
 ROB Load Stall Begin Bucket Count 5: 10451
 ROB Load Stall End Bucket Count 5: 14161
 ROB Critical Load Stall Begin Bucket Count 5: 8751
 ROB Critical Load Stall End Bucket Count 5: 12257
 ROB Load Stall Begin Bucket Count 6: 4119
 ROB Load Stall End Bucket Count 6: 6466
 ROB Critical Load Stall Begin Bucket Count 6: 3364
 ROB Critical Load Stall End Bucket Count 6: 5592
PIST Tag Read Accesses: 76918
PIST Read Accesses: 38459
PIST Tag Write Accesses: 76918
PIST Write Accesses: 38459
Criticality detector called times: 544470
Max global_stall_cycles_count: 221978
Threshold Modified: 1 times, factor: -1
ITLB TOTAL     ACCESS:   14159215  HIT:   14159215  MISS:          0  HIT %:        100  MISS %:          0   MPKI: 0
ITLB LOAD TRANSLATION ACCESS:   14159215  HIT:   14159215  MISS:          0  HIT %:        100  MISS %:          0   MPKI: 0
ITLB PREFETCH  REQUESTED:          0  ISSUED:          0  USEFUL:          0  USELESS:          0
ITLB USEFUL LOAD PREFETCHES:          0 PREFETCH ISSUED TO LOWER LEVEL:          0  ACCURACY: -nan
ITLB TIMELY PREFETCHES:          0 LATE PREFETCHES: 0 DROPPED PREFETCHES: 0
ITLB PREFETCHES SAME FILL-ORIGIN LEVEL: 0 DIFFERENT FILL-ORIGIN LEVEL: 0
ITLB AVERAGE MISS LATENCY: -nan cycles
ITLB RQ	ACCESS:   17695820	FORWARD:          0	MERGED:    3536606	TO_CACHE:   14159214

DTLB TOTAL     ACCESS:   15991307  HIT:   15947487  MISS:      43820  HIT %:     99.726  MISS %:   0.274024   MPKI: 0.4382
DTLB LOAD TRANSLATION ACCESS:   15991307  HIT:   15947487  MISS:      43820  HIT %:     99.726  MISS %:   0.274024   MPKI: 0.4382
DTLB PREFETCH  REQUESTED:          0  ISSUED:          0  USEFUL:          0  USELESS:          0
DTLB USEFUL LOAD PREFETCHES:          0 PREFETCH ISSUED TO LOWER LEVEL:          0  ACCURACY: -nan
DTLB TIMELY PREFETCHES:          0 LATE PREFETCHES: 0 DROPPED PREFETCHES: 0
DTLB PREFETCHES SAME FILL-ORIGIN LEVEL: 0 DIFFERENT FILL-ORIGIN LEVEL: 0
DTLB AVERAGE MISS LATENCY: 9.53307 cycles
DTLB RQ	ACCESS:   18101264	FORWARD:          0	MERGED:    2109735	TO_CACHE:   15991529

STLB TOTAL     ACCESS:    1418218  HIT:    1418129  MISS:         89  HIT %:    99.9937  MISS %: 0.00627548   MPKI: 0.00089
STLB LOAD TRANSLATION ACCESS:      43820  HIT:      43731  MISS:         89  HIT %:    99.7969  MISS %:   0.203104   MPKI: 0.00089
STLB TRANSLATION FROM L1D PREFETCHER ACCESS:    1374398  HIT:    1374398  MISS:          0  HIT %:        100  MISS %:          0   MPKI: 0
STLB PREFETCH  REQUESTED:          0  ISSUED:          0  USEFUL:          0  USELESS:          0
STLB USEFUL LOAD PREFETCHES:          0 PREFETCH ISSUED TO LOWER LEVEL:          0  ACCURACY: -nan
STLB TIMELY PREFETCHES:          0 LATE PREFETCHES: 0 DROPPED PREFETCHES: 0
STLB PREFETCHES SAME FILL-ORIGIN LEVEL: 0 DIFFERENT FILL-ORIGIN LEVEL: 0
STLB AVERAGE MISS LATENCY: 261.348 cycles
STLB RQ	ACCESS:    3823369	FORWARD:          0	MERGED:    2405151	TO_CACHE:    1418218

STLB Hit, L1D data hit: 0
STLB Hit, L2C data hit: 0
STLB Hit, LLC data hit: 0
STLB Hit, LLC data miss: 0
STLB STLB hints to L2: 0
L1D TOTAL     ACCESS:   21795913  HIT:   19073559  MISS:    2722354  HIT %:    87.5098  MISS %:    12.4902   MPKI: 27.2235
L1D LOAD      ACCESS:   16321011  HIT:   16194691  MISS:     126320  HIT %:     99.226  MISS %:   0.773972   MPKI: 1.2632
L1D RFO       ACCESS:    1768024  HIT:    1768024  MISS:          0  HIT %:        100  MISS %:          0   MPKI: 0
L1D PREFETCH  ACCESS:    3706878  HIT:    1110844  MISS:    2596034  HIT %:    29.9671  MISS %:    70.0329   MPKI: 25.9603
L1D PREFETCH  REQUESTED:    7568537  ISSUED:    7559098  USEFUL:    2383836  USELESS:     212312
L1D USEFUL LOAD PREFETCHES:    2383836 PREFETCH ISSUED TO LOWER LEVEL:    2628325  ACCURACY: 90.6979
L1D TIMELY PREFETCHES:    2383836 LATE PREFETCHES: 32248 DROPPED PREFETCHES: 0
L1D PREFETCHES SAME FILL-ORIGIN LEVEL: 2628325 DIFFERENT FILL-ORIGIN LEVEL: 0
L1D AVERAGE MISS LATENCY: 824076 cycles
L1D RQ	ACCESS:   29891960	FORWARD:          0	MERGED:   13425328	TO_CACHE:   16333239
L1D WQ	ACCESS:    1768025	FORWARD:     133393	MERGED:          0	TO_CACHE:    1768025
L1D PQ	ACCESS:    3779549	FORWARD:          0	MERGED:          0	TO_CACHE:    3779549

L1D UNIQUE REGIONS ACCESSED: 0
L1D REGIONS CONFLICTS: 0
L1D Cross Page Prefetch Requests: 0
L1D Same Page Prefetch Requests: 5643676
L1D ROI Sum of L1D PQ occupancy: 51571543
L1D PREFETCHES PUSHED FROM L2C: 0
L1I TOTAL     ACCESS:   17695821  HIT:   17695821  MISS:          0  HIT %:        100  MISS %:          0   MPKI: 0
L1I LOAD      ACCESS:   17695821  HIT:   17695821  MISS:          0  HIT %:        100  MISS %:          0   MPKI: 0
L1I PREFETCH  REQUESTED:          0  ISSUED:          0  USEFUL:          0  USELESS:          0
L1I USEFUL LOAD PREFETCHES:          0 PREFETCH ISSUED TO LOWER LEVEL:          0  ACCURACY: -nan
L1I TIMELY PREFETCHES:          0 LATE PREFETCHES: 0 DROPPED PREFETCHES: 0
L1I PREFETCHES SAME FILL-ORIGIN LEVEL: 0 DIFFERENT FILL-ORIGIN LEVEL: 0
L1I AVERAGE MISS LATENCY: -nan cycles
L1I RQ	ACCESS:   33004355	FORWARD:          0	MERGED:   15308535	TO_CACHE:   17695820

BTB TOTAL     ACCESS:   17463786  HIT:   17463769  MISS:         17  HIT %:    99.9999  MISS %: 9.73443e-05   MPKI: 0.00017
BTB BRANCH_DIRECT_JUMP	ACCESS:         65  HIT:         64  MISS:          1
BTB BRANCH_INDIRECT	ACCESS:          0  HIT:          0  MISS:          0
BTB BRANCH_CONDITIONAL	ACCESS:   15696155  HIT:   15696146  MISS:          9
BTB BRANCH_DIRECT_CALL	ACCESS:     441924  HIT:     441922  MISS:          2
BTB BRANCH_INDIRECT_CALL	ACCESS:     441859  HIT:     441858  MISS:          1
BTB BRANCH_RETURN	ACCESS:     883783  HIT:     883779  MISS:          4
BTB BRANCH_OTHER ACCESS:          0  HIT:          0  MISS:          0

L2C TOTAL     ACCESS:    6261464  HIT:    3582696  MISS:    2678768  HIT %:    57.2182  MISS %:    42.7818   MPKI: 26.7877
L2C LOAD      ACCESS:      94072  HIT:       5759  MISS:      88313  HIT %:    6.12191  MISS %:    93.8781   MPKI: 0.88313
L2C DATA LOAD MPKI: 0.88313
L2C INSTRUCTION LOAD MPKI: 0
L2C PREFETCH  ACCESS:    6167239  HIT:    3576848  MISS:    2590391  HIT %:    57.9976  MISS %:    42.0024   MPKI: 25.9039
L2C DATA PREFETCH MPKI: 25.9039
L2C INSTRUCTION PREFETCH MPKI: 0
L2C WRITEBACK ACCESS:         64  HIT:         60  MISS:          4  HIT %:      93.75  MISS %:       6.25   MPKI: 4e-05
L2C LOAD TRANSLATION ACCESS:         89  HIT:         29  MISS:         60  HIT %:    32.5843  MISS %:    67.4157   MPKI: 0.0006
L2C PREFETCH  REQUESTED:    4310321  ISSUED:    4310282  USEFUL:       4450  USELESS:    2585948
L2C USEFUL LOAD PREFETCHES:       4450 PREFETCH ISSUED TO LOWER LEVEL:    2590398  ACCURACY: 0.171788
L2C TIMELY PREFETCHES:       4450 LATE PREFETCHES: 7 DROPPED PREFETCHES: 0
L2C PREFETCHES SAME FILL-ORIGIN LEVEL: 1430288 DIFFERENT FILL-ORIGIN LEVEL: 0
L2C AVERAGE MISS LATENCY: 76.3338 cycles
L2C RQ	ACCESS:      94161	FORWARD:          0	MERGED:          0	TO_CACHE:      94161
L2C WQ	ACCESS:         64	FORWARD:          0	MERGED:          0	TO_CACHE:         64
L2C PQ	ACCESS:    6938563	FORWARD:          0	MERGED:     732642	TO_CACHE:    6205921

L2C Instructions Evicting Data 0
L2C Translations Evicting Data 60
L2C Data Evicting Data 2678643
L2C Instructions Evicting Instructions 0
L2C Translations Evicting Instructions 0
L2C Data Evicting Instructions 0
L2C Instructions Evicting Translations 0
L2C Translations Evicting Translations 0
L2C Data Evicting Translations 61
L2C Dense regions hint from L2: 0
PSCL5 TOTAL     ACCESS:         89  HIT:         89  MISS:          0  HIT %:        100  MISS %:          0   MPKI: 0
PSCL5 LOAD TRANSLATION ACCESS:         89  HIT:         89  MISS:          0  HIT %:        100  MISS %:          0   MPKI: 0
PSCL5 PREFETCH  REQUESTED:          0  ISSUED:          0  USEFUL:          0  USELESS:          0
PSCL5 USEFUL LOAD PREFETCHES:          0 PREFETCH ISSUED TO LOWER LEVEL:          0  ACCURACY: -nan
PSCL5 TIMELY PREFETCHES:          0 LATE PREFETCHES: 0 DROPPED PREFETCHES: 0
PSCL5 PREFETCHES SAME FILL-ORIGIN LEVEL: 0 DIFFERENT FILL-ORIGIN LEVEL: 0

PSCL4 TOTAL     ACCESS:         89  HIT:         89  MISS:          0  HIT %:        100  MISS %:          0   MPKI: 0
PSCL4 LOAD TRANSLATION ACCESS:         89  HIT:         89  MISS:          0  HIT %:        100  MISS %:          0   MPKI: 0
PSCL4 PREFETCH  REQUESTED:          0  ISSUED:          0  USEFUL:          0  USELESS:          0
PSCL4 USEFUL LOAD PREFETCHES:          0 PREFETCH ISSUED TO LOWER LEVEL:          0  ACCURACY: -nan
PSCL4 TIMELY PREFETCHES:          0 LATE PREFETCHES: 0 DROPPED PREFETCHES: 0
PSCL4 PREFETCHES SAME FILL-ORIGIN LEVEL: 0 DIFFERENT FILL-ORIGIN LEVEL: 0

PSCL3 TOTAL     ACCESS:         89  HIT:         89  MISS:          0  HIT %:        100  MISS %:          0   MPKI: 0
PSCL3 LOAD TRANSLATION ACCESS:         89  HIT:         89  MISS:          0  HIT %:        100  MISS %:          0   MPKI: 0
PSCL3 PREFETCH  REQUESTED:          0  ISSUED:          0  USEFUL:          0  USELESS:          0
PSCL3 USEFUL LOAD PREFETCHES:          0 PREFETCH ISSUED TO LOWER LEVEL:          0  ACCURACY: -nan
PSCL3 TIMELY PREFETCHES:          0 LATE PREFETCHES: 0 DROPPED PREFETCHES: 0
PSCL3 PREFETCHES SAME FILL-ORIGIN LEVEL: 0 DIFFERENT FILL-ORIGIN LEVEL: 0

PSCL2 TOTAL     ACCESS:         89  HIT:         89  MISS:          0  HIT %:        100  MISS %:          0   MPKI: 0
PSCL2 LOAD TRANSLATION ACCESS:         89  HIT:         89  MISS:          0  HIT %:        100  MISS %:          0   MPKI: 0
PSCL2 PREFETCH  REQUESTED:          0  ISSUED:          0  USEFUL:          0  USELESS:          0
PSCL2 USEFUL LOAD PREFETCHES:          0 PREFETCH ISSUED TO LOWER LEVEL:          0  ACCURACY: -nan
PSCL2 TIMELY PREFETCHES:          0 LATE PREFETCHES: 0 DROPPED PREFETCHES: 0
PSCL2 PREFETCHES SAME FILL-ORIGIN LEVEL: 0 DIFFERENT FILL-ORIGIN LEVEL: 0

LLC TOTAL     ACCESS:    2678820  HIT:    1354164  MISS:    1324656  HIT %:    50.5508  MISS %:    49.4492   MPKI: 13.2466
LLC LOAD      ACCESS:      88306  HIT:      45831  MISS:      42475  HIT %:    51.9002  MISS %:    48.0998   MPKI: 0.42475
LLC PREFETCH  ACCESS:    2590398  HIT:    1308279  MISS:    1282119  HIT %:    50.5049  MISS %:    49.4951   MPKI: 12.8212
LLC WRITEBACK ACCESS:         56  HIT:         53  MISS:          3  HIT %:    94.6429  MISS %:    5.35714   MPKI: 3e-05
LLC LOAD TRANSLATION ACCESS:         60  HIT:          1  MISS:         59  HIT %:    1.66667  MISS %:    98.3333   MPKI: 0.00059
LLC PREFETCH  REQUESTED:          0  ISSUED:          0  USEFUL:       1273  USELESS:    1281933
LLC USEFUL LOAD PREFETCHES:       1273 PREFETCH ISSUED TO LOWER LEVEL:    1282119  ACCURACY: 0.0992888
LLC TIMELY PREFETCHES:       1273 LATE PREFETCHES: 0 DROPPED PREFETCHES: 0
LLC PREFETCHES SAME FILL-ORIGIN LEVEL: 0 DIFFERENT FILL-ORIGIN LEVEL: 0
LLC AVERAGE MISS LATENCY: 93.6741 cycles
LLC RQ	ACCESS:      88366	FORWARD:          0	MERGED:          0	TO_CACHE:      88366
LLC WQ	ACCESS:         56	FORWARD:          0	MERGED:          0	TO_CACHE:         56
LLC PQ	ACCESS:    2590398	FORWARD:          0	MERGED:          0	TO_CACHE:    2590398

LLC Dense regions hint to LLC: 0

RAW hits: 594
Loads Generated: 29892555
Loads sent to L1D: 29891960
Stores Generated: 1768024
Stores sent to L1D: 1768025
Major fault: 0 Minor fault: 1392
Allocated PAGES: 1392

stream: 
stream:times selected: 6576629
stream:pref_filled: 789020
stream:pref_useful: 487514
stream:pref_late: 41435
stream:misses: 170103
stream:misses_by_poll: 0

CS: 
CS:times selected: 5510669
CS:pref_filled: 2988827
CS:pref_useful: 2972317
CS:pref_late: 737
CS:misses: 24972
CS:misses_by_poll: 13004

CPLX: 
CPLX:times selected: 1065766
CPLX:pref_filled: 115610
CPLX:pref_useful: 112944
CPLX:pref_late: 285
CPLX:misses: 10291
CPLX:misses_by_poll: 226

NL_L1: 
NL:times selected: 140
NL:pref_filled: 43
NL:pref_useful: 32
NL:pref_late: 2
NL:misses: 11
NL:misses_by_poll: 0

total selections: 13153204
total_filled: 2596034
total_useful: 2383836
total_late: 50635
total_polluted: 13230
total_misses_after_warmup: 138547
conflicts: 797735
Degree Incremented Times: 167930
Degree Decremented Times: 0

L1 IP Table Write Accesses: 13728557
L1 IP Table Read Accesses: 12930822
L1 RST Write Accesses: 4220310
L1 RST Read Accesses: 8440620
L1 CSPT Write Accesses: 4220310
L1 CSPT Read Accesses: 5721385
L1 RR Filter Tag Write Accesses: 3788988
L1 RR Filter Tag Read Accesses: 705004568
L1 IP Table Tag Write Accesses: 16333238
L1 IP Table Tag Read Accesses: 16333238
L1 RST Tag Write Accesses: 0
L1 RST Tag Read Accesses: 37082477
L1 RR Filter Write Accesses: 0
L1 RR Filter Read Accesses: 34033237
test: 640531
L2 IP Table Read Accesses: 4992093
L2 IP Table Write Accesses: 4898285
L2 IP Table Tag Read Accesses: 2496150
L2 IP Table Tag Write Accesses: 2496150

DRAM Statistics
 CHANNEL 0
 RQ ROW_BUFFER_HIT:    1250794  ROW_BUFFER_MISS:      73859
 DBUS_CONGESTED:          0
 WQ ROW_BUFFER_HIT:          0  ROW_BUFFER_MISS:          3  FULL:          0

 AVG_CONGESTED_CYCLE: -
 All warmup complete: 2
Channel 0 Bank busy for read cycles: 0
Channel 0 Bank busy for write cycles: 0
Channel 0
Rank 0
0banks busy for read cycles: 81942625
0banks busy for write cycles: 3
1banks busy for read cycles: 11777003
1banks busy for write cycles: 1144
2banks busy for read cycles: 4948126
2banks busy for write cycles: 0
3banks busy for read cycles: 3516585
3banks busy for write cycles: 0
4banks busy for read cycles: 2755835
4banks busy for write cycles: 0
5banks busy for read cycles: 1765208
5banks busy for write cycles: 0
6banks busy for read cycles: 1252771
6banks busy for write cycles: 0
7banks busy for read cycles: 1017977
7banks busy for write cycles: 0
8banks busy for read cycles: 863056
8banks busy for write cycles: 0

CPU 0 Branch Prediction Accuracy: 99.9949% MPKI: 0.01399 Average ROB Occupancy at Mispredict: 68.2159
Branch types
NOT_BRANCH: 72316599 72.3166%
BRANCH_DIRECT_JUMP: 65 6.5e-05%
BRANCH_INDIRECT: 0 0%
BRANCH_CONDITIONAL: 25915580 25.9156%
BRANCH_DIRECT_CALL: 441924 0.441924%
BRANCH_INDIRECT_CALL: 441859 0.441859%
BRANCH_RETURN: 883783 0.883783%
BRANCH_OTHER: 0 0%

DRAM PAGES: 1048576
Allocated PAGES: 1392
