
*** ChampSim Multicore Out-of-Order Simulator ***

Warmup Instructions: 50000000
Simulation Instructions: 100000000
Number of CPUs: 1
LLC sets: 2048
LLC ways: 16
Off-chip DRAM Size: 4096 MB Channels: 1 Width: 64-bit Data Rate: 6400 MT/s
CPU 0 runs ../SPEC2017//623.xalancbmk_s-165B.champsimtrace.xz
.xz
BTB has LRU replacement policy
ITLB has LRU replacement policy
DTLB has LRU replacement policy
STLB has LRU replacement policy
L1I has LRU replacement policy
IP Table Entries: 64
L1D has LRU replacement policy
Initialize SRRIP state for L2C
Initialize DRRIP state for LLC
Heartbeat CPU 0 instructions: 10000000 cycles: 2886790 heartbeat IPC: 3.46406 cumulative IPC: 3.46406 (Simulation time: 0 hr 5 min 42 sec) 
Heartbeat CPU 0 instructions: 20000001 cycles: 5774159 heartbeat IPC: 3.46336 cumulative IPC: 3.46371 (Simulation time: 0 hr 10 min 34 sec) 
Heartbeat CPU 0 instructions: 30000002 cycles: 8655688 heartbeat IPC: 3.47038 cumulative IPC: 3.46593 (Simulation time: 0 hr 15 min 17 sec) 
Heartbeat CPU 0 instructions: 40000003 cycles: 11535732 heartbeat IPC: 3.47217 cumulative IPC: 3.46749 (Simulation time: 0 hr 19 min 49 sec) 
Heartbeat CPU 0 instructions: 50000001 cycles: 14407258 heartbeat IPC: 3.48247 cumulative IPC: 3.47047 (Simulation time: 0 hr 24 min 18 sec) 

Warmup complete CPU 0 instructions: 50000001 cycles: 14407258 (Simulation time: 0 hr 24 min 18 sec) 

Heartbeat CPU 0 instructions: 60000002 cycles: 25838768 heartbeat IPC: 0.874775 cumulative IPC: 0.874775 (Simulation time: 0 hr 29 min 18 sec) 
Heartbeat CPU 0 instructions: 70000001 cycles: 37267976 heartbeat IPC: 0.874951 cumulative IPC: 0.874863 (Simulation time: 0 hr 33 min 46 sec) 
Heartbeat CPU 0 instructions: 80000001 cycles: 48694322 heartbeat IPC: 0.87517 cumulative IPC: 0.874966 (Simulation time: 0 hr 37 min 49 sec) 
Heartbeat CPU 0 instructions: 90000001 cycles: 60122260 heartbeat IPC: 0.875049 cumulative IPC: 0.874986 (Simulation time: 0 hr 41 min 48 sec) 
Heartbeat CPU 0 instructions: 100000001 cycles: 71549199 heartbeat IPC: 0.875125 cumulative IPC: 0.875014 (Simulation time: 0 hr 45 min 31 sec) 
Heartbeat CPU 0 instructions: 110000000 cycles: 82981907 heartbeat IPC: 0.874683 cumulative IPC: 0.874959 (Simulation time: 0 hr 48 min 56 sec) 
Heartbeat CPU 0 instructions: 120000000 cycles: 94404002 heartbeat IPC: 0.875496 cumulative IPC: 0.875036 (Simulation time: 0 hr 52 min 14 sec) 
Heartbeat CPU 0 instructions: 130000002 cycles: 105831123 heartbeat IPC: 0.875111 cumulative IPC: 0.875045 (Simulation time: 0 hr 55 min 22 sec) 
Heartbeat CPU 0 instructions: 140000002 cycles: 117256351 heartbeat IPC: 0.875256 cumulative IPC: 0.875068 (Simulation time: 0 hr 58 min 18 sec) 
Heartbeat CPU 0 instructions: 150000002 cycles: 128683085 heartbeat IPC: 0.875141 cumulative IPC: 0.875076 (Simulation time: 1 hr 1 min 8 sec) 
Finished CPU 0 instructions: 100000001 cycles: 114275827 cumulative IPC: 0.875076 (Simulation time: 1 hr 1 min 8 sec) 

ChampSim completed all CPUs

Region of Interest Statistics

CPU 0 cumulative IPC: 0.875076 instructions: 100000001 cycles: 114275827

CPU 0 Average Load ROB stall cycles: 3.16167e+07
CPU 0 Fraction of times ROB stalled by Loads: 44.1433
CPU 0 Percentage of Load stall cycles in Total stall cycles: 6.2562e+08
Issued all: 64679707
Issued LT all: 51033378
rob_not_full_when_issued_lt_all: 50943132
Issued LT one: 44865231
rob_not_full_when_issued_lt_one: 44779550
FVP critical_dynamic_instances_0: 21355654
FVP unique_critical_ips_0: 93
 Total stall cycles: 90209697
 Total load stall cycles: 564369963257599
Unique Load IPs: 168
CPU 0 NUM of IPS identified critical: 0
CPU 0 Num of Load IPs stalling ROB: 0
Threshold modification factor: 0
Trouble in retire width: -nan
MaC = Marked as critical.
lt_50_percent_before_Mac: 0
gt_90_percent_before_Mac: 0
gt_75_percent_before_Mac: 0
gt_50_percent_before_Mac: 0
stall_proportion_bin_same_before_after: 0
stall_proportion_bin_lower_before_after: 0
stall_proportion_bin_upper_before_after: 0
average_stall_proportion_before: -nan
average_stall_proportion_after: -nan
Critical IP stalls, total frequency: 0
Non-critical IP stalls, total frequency: 0
Total Freq all stalling IPs: 0
Critical_IP_Detector_Accuracy_70: 0.0107527
Critical_IP_Detector_Accuracy_80: 0.0107527
Critical_IP_Detector_Accuracy_90: 0.0107527
Critical_IP_Detector_Coverage_70: 1
Critical_IP_Detector_Coverage_80: 1
Critical_IP_Detector_Coverage_90: 1
stat_90_percent_critical_ip_stalls_freq: 1619247
stat_90_percent_non_critical_ip_stalls_freq: 18446744073707932369
AVERAGE_ROB_Occupancy_90_Percent_Critical_IP_Stalls: 22.835
AVERAGE_ROB_Occupancy_90_Percent_Non_Critical_IP_Stalls: 1.51875e-11
Critical_IP_ROB_Stalls_Bucket_0: 0
Non-critical_IP_ROB_Stalls_Bucket_0: 5590614
Critical_IP_ROB_Stalls_Bucket_1: 0
Non-critical_IP_ROB_Stalls_Bucket_1: 2054849
Critical_IP_ROB_Stalls_Bucket_2: 0
Non-critical_IP_ROB_Stalls_Bucket_2: 175686
Critical_IP_ROB_Stalls_Bucket_3: 0
Non-critical_IP_ROB_Stalls_Bucket_3: 36674
Critical_IP_ROB_Stalls_Bucket_4: 0
Non-critical_IP_ROB_Stalls_Bucket_4: 11651
Critical_IP_ROB_Stalls_Bucket_5: 0
Non-critical_IP_ROB_Stalls_Bucket_5: 6887
Critical_IP_ROB_Stalls_Bucket_6: 0
Non-critical_IP_ROB_Stalls_Bucket_6: 3396
0 => IPs accounting for >50 percent of stalls, 1 => 55, 2 => 60, 3 => 65 and so on till 90.
percent50: inf num IPs:  1
percent55: inf num IPs: 1
percent60: inf num IPs: 1
percent65: inf num IPs: 1
percent70: inf num IPs: 1
percent75: inf num IPs: 1
percent80: inf num IPs: 1
percent85: inf num IPs: 1
percent90: inf num IPs: 1
Critical_ROB_Stalls_Percent_0_Bucket_0: 1614662
Non-critical_ROB_Stalls_Percent_0_Bucket_0: 3975952
Critical_ROB_Stalls_Percent_0_Bucket_1: 2978
Non-critical_ROB_Stalls_Percent_0_Bucket_1: 2051871
Critical_ROB_Stalls_Percent_0_Bucket_2: 800
Non-critical_ROB_Stalls_Percent_0_Bucket_2: 174886
Critical_ROB_Stalls_Percent_0_Bucket_3: 576
Non-critical_ROB_Stalls_Percent_0_Bucket_3: 36098
Critical_ROB_Stalls_Percent_0_Bucket_4: 153
Non-critical_ROB_Stalls_Percent_0_Bucket_4: 11498
Critical_ROB_Stalls_Percent_0_Bucket_5: 61
Non-critical_ROB_Stalls_Percent_0_Bucket_5: 6826
Critical_ROB_Stalls_Percent_0_Bucket_6: 17
Non-critical_ROB_Stalls_Percent_0_Bucket_6: 3379
Critical_ROB_Stalls_Percent_1_Bucket_0: 1614662
Non-critical_ROB_Stalls_Percent_1_Bucket_0: 3975952
Critical_ROB_Stalls_Percent_1_Bucket_1: 2978
Non-critical_ROB_Stalls_Percent_1_Bucket_1: 2051871
Critical_ROB_Stalls_Percent_1_Bucket_2: 800
Non-critical_ROB_Stalls_Percent_1_Bucket_2: 174886
Critical_ROB_Stalls_Percent_1_Bucket_3: 576
Non-critical_ROB_Stalls_Percent_1_Bucket_3: 36098
Critical_ROB_Stalls_Percent_1_Bucket_4: 153
Non-critical_ROB_Stalls_Percent_1_Bucket_4: 11498
Critical_ROB_Stalls_Percent_1_Bucket_5: 61
Non-critical_ROB_Stalls_Percent_1_Bucket_5: 6826
Critical_ROB_Stalls_Percent_1_Bucket_6: 17
Non-critical_ROB_Stalls_Percent_1_Bucket_6: 3379
Critical_ROB_Stalls_Percent_2_Bucket_0: 1614662
Non-critical_ROB_Stalls_Percent_2_Bucket_0: 3975952
Critical_ROB_Stalls_Percent_2_Bucket_1: 2978
Non-critical_ROB_Stalls_Percent_2_Bucket_1: 2051871
Critical_ROB_Stalls_Percent_2_Bucket_2: 800
Non-critical_ROB_Stalls_Percent_2_Bucket_2: 174886
Critical_ROB_Stalls_Percent_2_Bucket_3: 576
Non-critical_ROB_Stalls_Percent_2_Bucket_3: 36098
Critical_ROB_Stalls_Percent_2_Bucket_4: 153
Non-critical_ROB_Stalls_Percent_2_Bucket_4: 11498
Critical_ROB_Stalls_Percent_2_Bucket_5: 61
Non-critical_ROB_Stalls_Percent_2_Bucket_5: 6826
Critical_ROB_Stalls_Percent_2_Bucket_6: 17
Non-critical_ROB_Stalls_Percent_2_Bucket_6: 3379
Critical_ROB_Stalls_Percent_3_Bucket_0: 1614662
Non-critical_ROB_Stalls_Percent_3_Bucket_0: 3975952
Critical_ROB_Stalls_Percent_3_Bucket_1: 2978
Non-critical_ROB_Stalls_Percent_3_Bucket_1: 2051871
Critical_ROB_Stalls_Percent_3_Bucket_2: 800
Non-critical_ROB_Stalls_Percent_3_Bucket_2: 174886
Critical_ROB_Stalls_Percent_3_Bucket_3: 576
Non-critical_ROB_Stalls_Percent_3_Bucket_3: 36098
Critical_ROB_Stalls_Percent_3_Bucket_4: 153
Non-critical_ROB_Stalls_Percent_3_Bucket_4: 11498
Critical_ROB_Stalls_Percent_3_Bucket_5: 61
Non-critical_ROB_Stalls_Percent_3_Bucket_5: 6826
Critical_ROB_Stalls_Percent_3_Bucket_6: 17
Non-critical_ROB_Stalls_Percent_3_Bucket_6: 3379
Critical_ROB_Stalls_Percent_4_Bucket_0: 1614662
Non-critical_ROB_Stalls_Percent_4_Bucket_0: 3975952
Critical_ROB_Stalls_Percent_4_Bucket_1: 2978
Non-critical_ROB_Stalls_Percent_4_Bucket_1: 2051871
Critical_ROB_Stalls_Percent_4_Bucket_2: 800
Non-critical_ROB_Stalls_Percent_4_Bucket_2: 174886
Critical_ROB_Stalls_Percent_4_Bucket_3: 576
Non-critical_ROB_Stalls_Percent_4_Bucket_3: 36098
Critical_ROB_Stalls_Percent_4_Bucket_4: 153
Non-critical_ROB_Stalls_Percent_4_Bucket_4: 11498
Critical_ROB_Stalls_Percent_4_Bucket_5: 61
Non-critical_ROB_Stalls_Percent_4_Bucket_5: 6826
Critical_ROB_Stalls_Percent_4_Bucket_6: 17
Non-critical_ROB_Stalls_Percent_4_Bucket_6: 3379
Critical_ROB_Stalls_Percent_5_Bucket_0: 1614662
Non-critical_ROB_Stalls_Percent_5_Bucket_0: 3975952
Critical_ROB_Stalls_Percent_5_Bucket_1: 2978
Non-critical_ROB_Stalls_Percent_5_Bucket_1: 2051871
Critical_ROB_Stalls_Percent_5_Bucket_2: 800
Non-critical_ROB_Stalls_Percent_5_Bucket_2: 174886
Critical_ROB_Stalls_Percent_5_Bucket_3: 576
Non-critical_ROB_Stalls_Percent_5_Bucket_3: 36098
Critical_ROB_Stalls_Percent_5_Bucket_4: 153
Non-critical_ROB_Stalls_Percent_5_Bucket_4: 11498
Critical_ROB_Stalls_Percent_5_Bucket_5: 61
Non-critical_ROB_Stalls_Percent_5_Bucket_5: 6826
Critical_ROB_Stalls_Percent_5_Bucket_6: 17
Non-critical_ROB_Stalls_Percent_5_Bucket_6: 3379
Critical_ROB_Stalls_Percent_6_Bucket_0: 1614662
Non-critical_ROB_Stalls_Percent_6_Bucket_0: 3975952
Critical_ROB_Stalls_Percent_6_Bucket_1: 2978
Non-critical_ROB_Stalls_Percent_6_Bucket_1: 2051871
Critical_ROB_Stalls_Percent_6_Bucket_2: 800
Non-critical_ROB_Stalls_Percent_6_Bucket_2: 174886
Critical_ROB_Stalls_Percent_6_Bucket_3: 576
Non-critical_ROB_Stalls_Percent_6_Bucket_3: 36098
Critical_ROB_Stalls_Percent_6_Bucket_4: 153
Non-critical_ROB_Stalls_Percent_6_Bucket_4: 11498
Critical_ROB_Stalls_Percent_6_Bucket_5: 61
Non-critical_ROB_Stalls_Percent_6_Bucket_5: 6826
Critical_ROB_Stalls_Percent_6_Bucket_6: 17
Non-critical_ROB_Stalls_Percent_6_Bucket_6: 3379
Critical_ROB_Stalls_Percent_7_Bucket_0: 1614662
Non-critical_ROB_Stalls_Percent_7_Bucket_0: 3975952
Critical_ROB_Stalls_Percent_7_Bucket_1: 2978
Non-critical_ROB_Stalls_Percent_7_Bucket_1: 2051871
Critical_ROB_Stalls_Percent_7_Bucket_2: 800
Non-critical_ROB_Stalls_Percent_7_Bucket_2: 174886
Critical_ROB_Stalls_Percent_7_Bucket_3: 576
Non-critical_ROB_Stalls_Percent_7_Bucket_3: 36098
Critical_ROB_Stalls_Percent_7_Bucket_4: 153
Non-critical_ROB_Stalls_Percent_7_Bucket_4: 11498
Critical_ROB_Stalls_Percent_7_Bucket_5: 61
Non-critical_ROB_Stalls_Percent_7_Bucket_5: 6826
Critical_ROB_Stalls_Percent_7_Bucket_6: 17
Non-critical_ROB_Stalls_Percent_7_Bucket_6: 3379
Critical_ROB_Stalls_Percent_8_Bucket_0: 1614662
Non-critical_ROB_Stalls_Percent_8_Bucket_0: 3975952
Critical_ROB_Stalls_Percent_8_Bucket_1: 2978
Non-critical_ROB_Stalls_Percent_8_Bucket_1: 2051871
Critical_ROB_Stalls_Percent_8_Bucket_2: 800
Non-critical_ROB_Stalls_Percent_8_Bucket_2: 174886
Critical_ROB_Stalls_Percent_8_Bucket_3: 576
Non-critical_ROB_Stalls_Percent_8_Bucket_3: 36098
Critical_ROB_Stalls_Percent_8_Bucket_4: 153
Non-critical_ROB_Stalls_Percent_8_Bucket_4: 11498
Critical_ROB_Stalls_Percent_8_Bucket_5: 61
Non-critical_ROB_Stalls_Percent_8_Bucket_5: 6826
Critical_ROB_Stalls_Percent_8_Bucket_6: 17
Non-critical_ROB_Stalls_Percent_8_Bucket_6: 3379
Average ROB occupancy Load Stall Begin: 33.3963
Average ROB occupancy Load Stall End: 40.2468
Min ROB occupancy Load Stall Begin: 1
Max ROB occupancy Load Stall Begin: 352
Min ROB occupancy Load Stall End: 1
Max ROB occupancy Load Stall End: 352
Average ROB occupancy Critical Load Stall Begin: -nan
Average ROB occupancy Critical Load Stall End: -nan
Min ROB occupancy Critical Load Stall Begin: 400
Max ROB occupancy Critical Load Stall Begin: 0
Min ROB occupancy Critical Load Stall End: 400
Max ROB occupancy Critical Load Stall End: 0
 ROB Load Stall Begin Bucket Count 0: 6232904
 ROB Load Stall End Bucket Count 0: 5590614
 ROB Critical Load Stall Begin Bucket Count 0: 0
 ROB Critical Load Stall End Bucket Count 0: 0
 ROB Load Stall Begin Bucket Count 1: 1506032
 ROB Load Stall End Bucket Count 1: 2054849
 ROB Critical Load Stall Begin Bucket Count 1: 0
 ROB Critical Load Stall End Bucket Count 1: 0
 ROB Load Stall Begin Bucket Count 2: 100705
 ROB Load Stall End Bucket Count 2: 175686
 ROB Critical Load Stall Begin Bucket Count 2: 0
 ROB Critical Load Stall End Bucket Count 2: 0
 ROB Load Stall Begin Bucket Count 3: 24852
 ROB Load Stall End Bucket Count 3: 36674
 ROB Critical Load Stall Begin Bucket Count 3: 0
 ROB Critical Load Stall End Bucket Count 3: 0
 ROB Load Stall Begin Bucket Count 4: 8553
 ROB Load Stall End Bucket Count 4: 11651
 ROB Critical Load Stall Begin Bucket Count 4: 0
 ROB Critical Load Stall End Bucket Count 4: 0
 ROB Load Stall Begin Bucket Count 5: 4818
 ROB Load Stall End Bucket Count 5: 6887
 ROB Critical Load Stall Begin Bucket Count 5: 0
 ROB Critical Load Stall End Bucket Count 5: 0
 ROB Load Stall Begin Bucket Count 6: 1893
 ROB Load Stall End Bucket Count 6: 3396
 ROB Critical Load Stall Begin Bucket Count 6: 0
 ROB Critical Load Stall End Bucket Count 6: 0
PIST Tag Read Accesses: 0
PIST Read Accesses: 0
PIST Tag Write Accesses: 0
PIST Write Accesses: 0
Criticality detector called times: 0
Max global_stall_cycles_count: 0
Threshold Modified: 0 times, factor: 0
ITLB TOTAL     ACCESS:   14251147  HIT:   14251147  MISS:          0  HIT %:        100  MISS %:          0   MPKI: 0
ITLB LOAD TRANSLATION ACCESS:   14251147  HIT:   14251147  MISS:          0  HIT %:        100  MISS %:          0   MPKI: 0
ITLB PREFETCH  REQUESTED:          0  ISSUED:          0  USEFUL:          0  USELESS:          0
ITLB USEFUL LOAD PREFETCHES:          0 PREFETCH ISSUED TO LOWER LEVEL:          0  ACCURACY: -nan
ITLB TIMELY PREFETCHES:          0 LATE PREFETCHES: 0 DROPPED PREFETCHES: 0
ITLB PREFETCHES SAME FILL-ORIGIN LEVEL: 0 DIFFERENT FILL-ORIGIN LEVEL: 0
ITLB AVERAGE MISS LATENCY: -nan cycles
ITLB RQ	ACCESS:   18791545	FORWARD:          0	MERGED:    4540399	TO_CACHE:   14251146

DTLB TOTAL     ACCESS:   15117920  HIT:   15081961  MISS:      35959  HIT %:    99.7621  MISS %:   0.237857   MPKI: 0.35959
DTLB LOAD TRANSLATION ACCESS:   15117920  HIT:   15081961  MISS:      35959  HIT %:    99.7621  MISS %:   0.237857   MPKI: 0.35959
DTLB PREFETCH  REQUESTED:          0  ISSUED:          0  USEFUL:          0  USELESS:          0
DTLB USEFUL LOAD PREFETCHES:          0 PREFETCH ISSUED TO LOWER LEVEL:          0  ACCURACY: -nan
DTLB TIMELY PREFETCHES:          0 LATE PREFETCHES: 0 DROPPED PREFETCHES: 0
DTLB PREFETCHES SAME FILL-ORIGIN LEVEL: 0 DIFFERENT FILL-ORIGIN LEVEL: 0
DTLB AVERAGE MISS LATENCY: 9.97099 cycles
DTLB RQ	ACCESS:   16340762	FORWARD:          0	MERGED:    1222759	TO_CACHE:   15118003

STLB TOTAL     ACCESS:    1138154  HIT:    1138036  MISS:        118  HIT %:    99.9896  MISS %:  0.0103677   MPKI: 0.00118
STLB LOAD TRANSLATION ACCESS:      35959  HIT:      35841  MISS:        118  HIT %:    99.6718  MISS %:   0.328152   MPKI: 0.00118
STLB TRANSLATION FROM L1D PREFETCHER ACCESS:    1102195  HIT:    1102195  MISS:          0  HIT %:        100  MISS %:          0   MPKI: 0
STLB PREFETCH  REQUESTED:          0  ISSUED:          0  USEFUL:          0  USELESS:          0
STLB USEFUL LOAD PREFETCHES:          0 PREFETCH ISSUED TO LOWER LEVEL:          0  ACCURACY: -nan
STLB TIMELY PREFETCHES:          0 LATE PREFETCHES: 0 DROPPED PREFETCHES: 0
STLB PREFETCHES SAME FILL-ORIGIN LEVEL: 0 DIFFERENT FILL-ORIGIN LEVEL: 0
STLB AVERAGE MISS LATENCY: 295.746 cycles
STLB RQ	ACCESS:    3187440	FORWARD:          0	MERGED:    2049286	TO_CACHE:    1138154

STLB Hit, L1D data hit: 0
STLB Hit, L2C data hit: 0
STLB Hit, LLC data hit: 0
STLB Hit, LLC data miss: 0
STLB STLB hints to L2: 0
L1D TOTAL     ACCESS:   19438725  HIT:   17357117  MISS:    2081608  HIT %:    89.2914  MISS %:    10.7086   MPKI: 20.8161
L1D LOAD      ACCESS:   15017810  HIT:   14912896  MISS:     104914  HIT %:    99.3014  MISS %:   0.698597   MPKI: 1.04914
L1D RFO       ACCESS:    1311241  HIT:    1310996  MISS:        245  HIT %:    99.9813  MISS %:  0.0186846   MPKI: 0.00245
L1D PREFETCH  ACCESS:    3109674  HIT:    1133225  MISS:    1976449  HIT %:    36.4419  MISS %:    63.5581   MPKI: 19.7645
L1D PREFETCH  REQUESTED:    6303981  ISSUED:    6302962  USEFUL:    1797017  USELESS:     179352
L1D USEFUL LOAD PREFETCHES:    1797017 PREFETCH ISSUED TO LOWER LEVEL:    1995056  ACCURACY: 90.0735
L1D TIMELY PREFETCHES:    1797017 LATE PREFETCHES: 18375 DROPPED PREFETCHES: 0
L1D PREFETCHES SAME FILL-ORIGIN LEVEL: 1995056 DIFFERENT FILL-ORIGIN LEVEL: 0
L1D AVERAGE MISS LATENCY: 630993 cycles
L1D RQ	ACCESS:   29503407	FORWARD:          0	MERGED:   14465544	TO_CACHE:   15028759
L1D WQ	ACCESS:    1312392	FORWARD:       9104	MERGED:        389	TO_CACHE:    1312003
L1D PQ	ACCESS:    3151481	FORWARD:          0	MERGED:          0	TO_CACHE:    3151481

L1D UNIQUE REGIONS ACCESSED: 0
L1D REGIONS CONFLICTS: 0
L1D Cross Page Prefetch Requests: 0
L1D Same Page Prefetch Requests: 3151852
L1D ROI Sum of L1D PQ occupancy: 42530164
L1D PREFETCHES PUSHED FROM L2C: 0
L1I TOTAL     ACCESS:   18791545  HIT:   18791545  MISS:          0  HIT %:        100  MISS %:          0   MPKI: 0
L1I LOAD      ACCESS:   18791545  HIT:   18791545  MISS:          0  HIT %:        100  MISS %:          0   MPKI: 0
L1I PREFETCH  REQUESTED:          0  ISSUED:          0  USEFUL:          0  USELESS:          0
L1I USEFUL LOAD PREFETCHES:          0 PREFETCH ISSUED TO LOWER LEVEL:          0  ACCURACY: -nan
L1I TIMELY PREFETCHES:          0 LATE PREFETCHES: 0 DROPPED PREFETCHES: 0
L1I PREFETCHES SAME FILL-ORIGIN LEVEL: 0 DIFFERENT FILL-ORIGIN LEVEL: 0
L1I AVERAGE MISS LATENCY: -nan cycles
L1I RQ	ACCESS:   37612347	FORWARD:          0	MERGED:   18820802	TO_CACHE:   18791545

BTB TOTAL     ACCESS:   16819614  HIT:   16818850  MISS:        764  HIT %:    99.9955  MISS %: 0.00454232   MPKI: 0.00764
BTB BRANCH_DIRECT_JUMP	ACCESS:        864  HIT:        862  MISS:          2
BTB BRANCH_INDIRECT	ACCESS:          0  HIT:          0  MISS:          0
BTB BRANCH_CONDITIONAL	ACCESS:   15520942  HIT:   15520909  MISS:         33
BTB BRANCH_DIRECT_CALL	ACCESS:     325127  HIT:     325114  MISS:         13
BTB BRANCH_INDIRECT_CALL	ACCESS:     323777  HIT:     323771  MISS:          6
BTB BRANCH_RETURN	ACCESS:     648904  HIT:     648194  MISS:        710
BTB BRANCH_OTHER ACCESS:          0  HIT:          0  MISS:          0

L2C TOTAL     ACCESS:    5653146  HIT:    3575672  MISS:    2077474  HIT %:     63.251  MISS %:     36.749   MPKI: 20.7747
L2C LOAD      ACCESS:      86539  HIT:       9185  MISS:      77354  HIT %:    10.6137  MISS %:    89.3863   MPKI: 0.77354
L2C DATA LOAD MPKI: 0.77354
L2C INSTRUCTION LOAD MPKI: 0
L2C RFO       ACCESS:        245  HIT:          0  MISS:        245  HIT %:          0  MISS %:        100   MPKI: 0.00245
L2C PREFETCH  ACCESS:    5565421  HIT:    3565653  MISS:    1999768  HIT %:     64.068  MISS %:     35.932   MPKI: 19.9977
L2C DATA PREFETCH MPKI: 19.9977
L2C INSTRUCTION PREFETCH MPKI: 0
L2C WRITEBACK ACCESS:        823  HIT:        805  MISS:         18  HIT %:    97.8129  MISS %:    2.18712   MPKI: 0.00018
L2C LOAD TRANSLATION ACCESS:        118  HIT:         29  MISS:         89  HIT %:    24.5763  MISS %:    75.4237   MPKI: 0.00089
L2C PREFETCH  REQUESTED:    5478148  ISSUED:    5474148  USEFUL:       9179  USELESS:    1982767
L2C USEFUL LOAD PREFETCHES:       9179 PREFETCH ISSUED TO LOWER LEVEL:    1999940  ACCURACY: 0.458964
L2C TIMELY PREFETCHES:       9179 LATE PREFETCHES: 172 DROPPED PREFETCHES: 0
L2C PREFETCHES SAME FILL-ORIGIN LEVEL: 1122978 DIFFERENT FILL-ORIGIN LEVEL: 0
L2C AVERAGE MISS LATENCY: 48.1987 cycles
L2C RQ	ACCESS:      86902	FORWARD:          0	MERGED:          0	TO_CACHE:      86902
L2C WQ	ACCESS:        823	FORWARD:          0	MERGED:          0	TO_CACHE:        823
L2C PQ	ACCESS:    7468972	FORWARD:          0	MERGED:    1822678	TO_CACHE:    5646294

L2C Instructions Evicting Data 0
L2C Translations Evicting Data 89
L2C Data Evicting Data 2077277
L2C Instructions Evicting Instructions 0
L2C Translations Evicting Instructions 0
L2C Data Evicting Instructions 0
L2C Instructions Evicting Translations 0
L2C Translations Evicting Translations 0
L2C Data Evicting Translations 90
L2C Dense regions hint from L2: 0
PSCL5 TOTAL     ACCESS:        118  HIT:        118  MISS:          0  HIT %:        100  MISS %:          0   MPKI: 0
PSCL5 LOAD TRANSLATION ACCESS:        118  HIT:        118  MISS:          0  HIT %:        100  MISS %:          0   MPKI: 0
PSCL5 PREFETCH  REQUESTED:          0  ISSUED:          0  USEFUL:          0  USELESS:          0
PSCL5 USEFUL LOAD PREFETCHES:          0 PREFETCH ISSUED TO LOWER LEVEL:          0  ACCURACY: -nan
PSCL5 TIMELY PREFETCHES:          0 LATE PREFETCHES: 0 DROPPED PREFETCHES: 0
PSCL5 PREFETCHES SAME FILL-ORIGIN LEVEL: 0 DIFFERENT FILL-ORIGIN LEVEL: 0

PSCL4 TOTAL     ACCESS:        118  HIT:        118  MISS:          0  HIT %:        100  MISS %:          0   MPKI: 0
PSCL4 LOAD TRANSLATION ACCESS:        118  HIT:        118  MISS:          0  HIT %:        100  MISS %:          0   MPKI: 0
PSCL4 PREFETCH  REQUESTED:          0  ISSUED:          0  USEFUL:          0  USELESS:          0
PSCL4 USEFUL LOAD PREFETCHES:          0 PREFETCH ISSUED TO LOWER LEVEL:          0  ACCURACY: -nan
PSCL4 TIMELY PREFETCHES:          0 LATE PREFETCHES: 0 DROPPED PREFETCHES: 0
PSCL4 PREFETCHES SAME FILL-ORIGIN LEVEL: 0 DIFFERENT FILL-ORIGIN LEVEL: 0

PSCL3 TOTAL     ACCESS:        118  HIT:        118  MISS:          0  HIT %:        100  MISS %:          0   MPKI: 0
PSCL3 LOAD TRANSLATION ACCESS:        118  HIT:        118  MISS:          0  HIT %:        100  MISS %:          0   MPKI: 0
PSCL3 PREFETCH  REQUESTED:          0  ISSUED:          0  USEFUL:          0  USELESS:          0
PSCL3 USEFUL LOAD PREFETCHES:          0 PREFETCH ISSUED TO LOWER LEVEL:          0  ACCURACY: -nan
PSCL3 TIMELY PREFETCHES:          0 LATE PREFETCHES: 0 DROPPED PREFETCHES: 0
PSCL3 PREFETCHES SAME FILL-ORIGIN LEVEL: 0 DIFFERENT FILL-ORIGIN LEVEL: 0

PSCL2 TOTAL     ACCESS:        118  HIT:        118  MISS:          0  HIT %:        100  MISS %:          0   MPKI: 0
PSCL2 LOAD TRANSLATION ACCESS:        118  HIT:        118  MISS:          0  HIT %:        100  MISS %:          0   MPKI: 0
PSCL2 PREFETCH  REQUESTED:          0  ISSUED:          0  USEFUL:          0  USELESS:          0
PSCL2 USEFUL LOAD PREFETCHES:          0 PREFETCH ISSUED TO LOWER LEVEL:          0  ACCURACY: -nan
PSCL2 TIMELY PREFETCHES:          0 LATE PREFETCHES: 0 DROPPED PREFETCHES: 0
PSCL2 PREFETCHES SAME FILL-ORIGIN LEVEL: 0 DIFFERENT FILL-ORIGIN LEVEL: 0

LLC TOTAL     ACCESS:    2078295  HIT:    1654178  MISS:     424117  HIT %:     79.593  MISS %:     20.407   MPKI: 4.24117
LLC LOAD      ACCESS:      77182  HIT:      66790  MISS:      10392  HIT %:    86.5357  MISS %:    13.4643   MPKI: 0.10392
LLC RFO       ACCESS:        245  HIT:         53  MISS:        192  HIT %:    21.6327  MISS %:    78.3673   MPKI: 0.00192
LLC PREFETCH  ACCESS:    1999940  HIT:    1586724  MISS:     413216  HIT %:    79.3386  MISS %:    20.6614   MPKI: 4.13216
LLC WRITEBACK ACCESS:        839  HIT:        611  MISS:        228  HIT %:    72.8248  MISS %:    27.1752   MPKI: 0.00228
LLC LOAD TRANSLATION ACCESS:         89  HIT:          0  MISS:         89  HIT %:          0  MISS %:        100   MPKI: 0.00089
LLC PREFETCH  REQUESTED:          0  ISSUED:          0  USEFUL:          5  USELESS:     410480
LLC USEFUL LOAD PREFETCHES:          5 PREFETCH ISSUED TO LOWER LEVEL:     413216  ACCURACY: 0.00121002
LLC TIMELY PREFETCHES:          5 LATE PREFETCHES: 0 DROPPED PREFETCHES: 0
LLC PREFETCHES SAME FILL-ORIGIN LEVEL: 0 DIFFERENT FILL-ORIGIN LEVEL: 0
LLC AVERAGE MISS LATENCY: 89.1139 cycles
LLC RQ	ACCESS:      77516	FORWARD:          0	MERGED:          0	TO_CACHE:      77516
LLC WQ	ACCESS:        839	FORWARD:          0	MERGED:          0	TO_CACHE:        839
LLC PQ	ACCESS:    1999940	FORWARD:          0	MERGED:          0	TO_CACHE:    1999940

LLC Dense regions hint to LLC: 0

RAW hits: 1004
Loads Generated: 29504412
Loads sent to L1D: 29503407
Stores Generated: 1312389
Stores sent to L1D: 1312392
Major fault: 0 Minor fault: 823
Allocated PAGES: 823

stream: 
stream:times selected: 2431459
stream:pref_filled: 737379
stream:pref_useful: 570852
stream:pref_late: 12160
stream:misses: 29870
stream:misses_by_poll: 0

CS: 
CS:times selected: 1598438
CS:pref_filled: 866900
CS:pref_useful: 860179
CS:pref_late: 216
CS:misses: 13658
CS:misses_by_poll: 3854

CPLX: 
CPLX:times selected: 832810
CPLX:pref_filled: 372391
CPLX:pref_useful: 366015
CPLX:pref_late: 79
CPLX:misses: 8286
CPLX:misses_by_poll: 1539

NL_L1: 
NL:times selected: 25
NL:pref_filled: 17
NL:pref_useful: 16
NL:pref_late: 2
NL:misses: 2
NL:misses_by_poll: 0

total selections: 4862732
total_filled: 1976449
total_useful: 1797017
total_late: 18376
total_polluted: 5393
total_misses_after_warmup: 52211
conflicts: 623183
Degree Incremented Times: 136341
Degree Decremented Times: 0

L1 IP Table Write Accesses: 10234175
L1 IP Table Read Accesses: 9610992
L1 RST Write Accesses: 2431366
L1 RST Read Accesses: 4862732
L1 CSPT Write Accesses: 2431366
L1 CSPT Read Accesses: 4797750
L1 RR Filter Tag Write Accesses: 3152500
L1 RR Filter Tag Read Accesses: 418493695
L1 IP Table Tag Write Accesses: 11811745
L1 IP Table Tag Read Accesses: 11811745
L1 RST Tag Write Accesses: 0
L1 RST Tag Read Accesses: 21158037
L1 RR Filter Write Accesses: 0
L1 RR Filter Read Accesses: 19790352
test: 246751
L2 IP Table Read Accesses: 3706673
L2 IP Table Write Accesses: 3665832
L2 IP Table Tag Read Accesses: 1853372
L2 IP Table Tag Write Accesses: 1853372

DRAM Statistics
 CHANNEL 0
 RQ ROW_BUFFER_HIT:     385266  ROW_BUFFER_MISS:      38623
 DBUS_CONGESTED:         10
 WQ ROW_BUFFER_HIT:        104  ROW_BUFFER_MISS:        543  FULL:          0

 AVG_CONGESTED_CYCLE: 3
 All warmup complete: 2
Channel 0 Bank busy for read cycles: 0
Channel 0 Bank busy for write cycles: 0
Channel 0
Rank 0
0banks busy for read cycles: 101548080
0banks busy for write cycles: 528
1banks busy for read cycles: 6829190
1banks busy for write cycles: 95759
2banks busy for read cycles: 2830543
2banks busy for write cycles: 15249
3banks busy for read cycles: 1309653
3banks busy for write cycles: 3417
4banks busy for read cycles: 643457
4banks busy for write cycles: 1447
5banks busy for read cycles: 405599
5banks busy for write cycles: 4
6banks busy for read cycles: 262716
6banks busy for write cycles: 170
7banks busy for read cycles: 180587
7banks busy for write cycles: 0
8banks busy for read cycles: 149429
8banks busy for write cycles: 0

CPU 0 Branch Prediction Accuracy: 99.9967% MPKI: 0.00917 Average ROB Occupancy at Mispredict: 55.3795
Branch types
NOT_BRANCH: 72112493 72.1125%
BRANCH_DIRECT_JUMP: 864 0.000864%
BRANCH_INDIRECT: 0 0%
BRANCH_CONDITIONAL: 26588528 26.5885%
BRANCH_DIRECT_CALL: 325127 0.325127%
BRANCH_INDIRECT_CALL: 323777 0.323777%
BRANCH_RETURN: 648904 0.648904%
BRANCH_OTHER: 0 0%

DRAM PAGES: 1048576
Allocated PAGES: 823
