Initialize SIGNATURE TABLE
ST_SET: 1
ST_WAY: 256
ST_TAG_BIT: 16
ST_TAG_MASK: ffff

Initialize PATTERN TABLE
PT_SET: 512
PT_WAY: 4
SIG_DELTA_BIT: 7
C_SIG_BIT: 4
C_DELTA_BIT: 4

Initialize PREFETCH FILTER
FILTER_SET: 1024

*** ChampSim Multicore Out-of-Order Simulator ***

Warmup Instructions: 50000000
Simulation Instructions: 100000000
Number of CPUs: 1
LLC sets: 2048
LLC ways: 16
Off-chip DRAM Size: 4096 MB Channels: 1 Width: 64-bit Data Rate: 6400 MT/s
CPU 0 runs ../SPEC2017//627.cam4_s-490B.champsimtrace.xz
.xz
NUM_OF_IPS_IN_CRITICAL_IP_TRAINING: 128
NUM_OF_CRITICAL_IP_TRAINING_TABLE_WAYS: 8
NUM_OF_CRITICAL_IP_TRAINING_TABLE_SETS: 16
BTB has LRU replacement policy
ITLB has LRU replacement policy
DTLB has LRU replacement policy
STLB has LRU replacement policy
L1I has LRU replacement policy
L1D has LRU replacement policy
Initialize SRRIP state for L2C
Initialize DRRIP state for LLC
Heartbeat CPU 0 instructions: 10000002 cycles: 2973652 heartbeat IPC: 3.36287 cumulative IPC: 3.36287 (Simulation time: 0 hr 5 min 4 sec) 
Heartbeat CPU 0 instructions: 20000002 cycles: 5931635 heartbeat IPC: 3.38068 cumulative IPC: 3.37175 (Simulation time: 0 hr 9 min 15 sec) 
Heartbeat CPU 0 instructions: 30000003 cycles: 8876209 heartbeat IPC: 3.39608 cumulative IPC: 3.37982 (Simulation time: 0 hr 13 min 35 sec) 
Heartbeat CPU 0 instructions: 40000000 cycles: 11833860 heartbeat IPC: 3.38106 cumulative IPC: 3.38013 (Simulation time: 0 hr 17 min 22 sec) 
Heartbeat CPU 0 instructions: 50000002 cycles: 14790500 heartbeat IPC: 3.38222 cumulative IPC: 3.38055 (Simulation time: 0 hr 20 min 50 sec) 

Warmup complete CPU 0 instructions: 50000002 cycles: 14790500 (Simulation time: 0 hr 20 min 50 sec) 

% increase in all ip prefetch 362.367
% increase in all ip prefetch -1.72593
Heartbeat CPU 0 instructions: 60000002 cycles: 28649545 heartbeat IPC: 0.72155 cumulative IPC: 0.72155 (Simulation time: 0 hr 24 min 51 sec) 
Heartbeat CPU 0 instructions: 70000002 cycles: 42103773 heartbeat IPC: 0.743261 cumulative IPC: 0.732245 (Simulation time: 0 hr 28 min 22 sec) 
Heartbeat CPU 0 instructions: 80000003 cycles: 55853562 heartbeat IPC: 0.727284 cumulative IPC: 0.730584 (Simulation time: 0 hr 31 min 53 sec) 
Heartbeat CPU 0 instructions: 90000002 cycles: 69349420 heartbeat IPC: 0.740968 cumulative IPC: 0.733152 (Simulation time: 0 hr 35 min 14 sec) 
Heartbeat CPU 0 instructions: 100000000 cycles: 83034024 heartbeat IPC: 0.730748 cumulative IPC: 0.73267 (Simulation time: 0 hr 38 min 32 sec) 
Heartbeat CPU 0 instructions: 110000000 cycles: 96665911 heartbeat IPC: 0.733574 cumulative IPC: 0.732821 (Simulation time: 0 hr 41 min 23 sec) 
Heartbeat CPU 0 instructions: 120000001 cycles: 110447764 heartbeat IPC: 0.725592 cumulative IPC: 0.731779 (Simulation time: 0 hr 44 min 6 sec) 
Heartbeat CPU 0 instructions: 130000000 cycles: 124225001 heartbeat IPC: 0.725835 cumulative IPC: 0.731031 (Simulation time: 0 hr 46 min 52 sec) 
Heartbeat CPU 0 instructions: 140000001 cycles: 137948499 heartbeat IPC: 0.728677 cumulative IPC: 0.730769 (Simulation time: 0 hr 49 min 20 sec) 
Heartbeat CPU 0 instructions: 150000003 cycles: 151826251 heartbeat IPC: 0.720578 cumulative IPC: 0.729737 (Simulation time: 0 hr 51 min 33 sec) 
Finished CPU 0 instructions: 100000001 cycles: 137035751 cumulative IPC: 0.729737 (Simulation time: 0 hr 51 min 33 sec) 

ChampSim completed all CPUs

Region of Interest Statistics

CPU 0 cumulative IPC: 0.729737 instructions: 100000001 cycles: 137035751

CPU 0 Average Load ROB stall cycles: 8.27104e+06
CPU 0 Fraction of times ROB stalled by Loads: 9.90882
CPU 0 Percentage of Load stall cycles in Total stall cycles: 1.9704e+08
 Total stall cycles: 83305013
 Total load stall cycles: 164144378377014
CPU 0 NUM of IPS identified critical: 50

Threshold modification factor: -1
Max PIST entries: 90
Min PIST entries: 0
Avg PIST entries: 27.8467
Average ROB occupancy Load Stall Begin: 30.4516
Average ROB occupancy Load Stall End: 35.9546
Min ROB occupancy Load Stall Begin: 1
Max ROB occupancy Load Stall Begin: 351
Min ROB occupancy Load Stall End: 1
Max ROB occupancy Load Stall End: 352
Average ROB occupancy Critical Load Stall Begin: 66.5455
Average ROB occupancy Critical Load Stall End: 78.0505
Min ROB occupancy Critical Load Stall Begin: 2
Max ROB occupancy Critical Load Stall Begin: 351
Min ROB occupancy Critical Load Stall End: 3
Max ROB occupancy Critical Load Stall End: 352
 ROB Load Stall Begin Bucket Count 0: 1794778
 ROB Load Stall End Bucket Count 0: 1699573
 ROB Critical Load Stall Begin Bucket Count 0: 238487
 ROB Critical Load Stall End Bucket Count 0: 158798
 ROB Load Stall Begin Bucket Count 1: 101177
 ROB Load Stall End Bucket Count 1: 186509
 ROB Critical Load Stall Begin Bucket Count 1: 70065
 ROB Critical Load Stall End Bucket Count 1: 142993
 ROB Load Stall Begin Bucket Count 2: 19858
 ROB Load Stall End Bucket Count 2: 26027
 ROB Critical Load Stall Begin Bucket Count 2: 13121
 ROB Critical Load Stall End Bucket Count 2: 17218
 ROB Load Stall Begin Bucket Count 3: 8759
 ROB Load Stall End Bucket Count 3: 9518
 ROB Critical Load Stall Begin Bucket Count 3: 5530
 ROB Critical Load Stall End Bucket Count 3: 5864
 ROB Load Stall Begin Bucket Count 4: 8547
 ROB Load Stall End Bucket Count 4: 7743
 ROB Critical Load Stall Begin Bucket Count 4: 6064
 ROB Critical Load Stall End Bucket Count 4: 5220
 ROB Load Stall Begin Bucket Count 5: 15818
 ROB Load Stall End Bucket Count 5: 11395
 ROB Critical Load Stall Begin Bucket Count 5: 11697
 ROB Critical Load Stall End Bucket Count 5: 7777
 ROB Load Stall Begin Bucket Count 6: 17536
 ROB Load Stall End Bucket Count 6: 25708
 ROB Critical Load Stall Begin Bucket Count 6: 11566
 ROB Critical Load Stall End Bucket Count 6: 18660
Threshold Modified: 1 times, factor: -1
ITLB TOTAL     ACCESS:   15461921  HIT:   15461921  MISS:          0  HIT %:        100  MISS %:          0   MPKI: 0
ITLB LOAD TRANSLATION ACCESS:   15461921  HIT:   15461921  MISS:          0  HIT %:        100  MISS %:          0   MPKI: 0
ITLB AVERAGE MISS LATENCY: -nan cycles
ITLB RQ	ACCESS:   18701415	FORWARD:          0	MERGED:    3239495	TO_CACHE:   15461920

DTLB TOTAL     ACCESS:   16079499  HIT:   16048055  MISS:      31444  HIT %:    99.8044  MISS %:   0.195553   MPKI: 0.31444
DTLB LOAD TRANSLATION ACCESS:   16079499  HIT:   16048055  MISS:      31444  HIT %:    99.8044  MISS %:   0.195553   MPKI: 0.31444
DTLB AVERAGE MISS LATENCY: 17.1614 cycles
DTLB RQ	ACCESS:   17908639	FORWARD:          0	MERGED:    1821750	TO_CACHE:   16086889

STLB TOTAL     ACCESS:      31444  HIT:      29840  MISS:       1604  HIT %:    94.8989  MISS %:    5.10113   MPKI: 0.01604
STLB LOAD TRANSLATION ACCESS:      31444  HIT:      29840  MISS:       1604  HIT %:    94.8989  MISS %:    5.10113   MPKI: 0.01604
STLB AVERAGE MISS LATENCY: 159.661 cycles
STLB RQ	ACCESS:      31444	FORWARD:          0	MERGED:          0	TO_CACHE:      31444

STLB Hit, L1D data hit: 0
STLB Hit, L2C data hit: 0
STLB Hit, LLC data hit: 0
STLB Hit, LLC data miss: 0
STLB STLB hints to L2: 0
L1D TOTAL     ACCESS:   15591038  HIT:   13772212  MISS:    1818826  HIT %:    88.3342  MISS %:    11.6658   MPKI: 18.1883
L1D LOAD      ACCESS:   10936827  HIT:    9672347  MISS:    1264480  HIT %:    88.4383  MISS %:    11.5617   MPKI: 12.6448
L1D RFO       ACCESS:    4654211  HIT:    4099865  MISS:     554346  HIT %:    88.0894  MISS %:    11.9106   MPKI: 5.54346
L1D AVERAGE MISS LATENCY: 60.7411 cycles
L1D RQ	ACCESS:   16104266	FORWARD:          0	MERGED:    4699043	TO_CACHE:   11403064
L1D WQ	ACCESS:    6676139	FORWARD:       2159	MERGED:     170564	TO_CACHE:    6505575

L1D UNIQUE REGIONS ACCESSED: 0
L1D REGIONS CONFLICTS: 0
L1D Cross Page Prefetch Requests: 0
L1D Same Page Prefetch Requests: 0
L1D ROI Sum of L1D PQ occupancy: 0
L1D PREFETCHES PUSHED FROM L2C: 0
L1I TOTAL     ACCESS:   18700101  HIT:   18697827  MISS:       2274  HIT %:    99.9878  MISS %:  0.0121604   MPKI: 0.02274
L1I LOAD      ACCESS:   18700101  HIT:   18697827  MISS:       2274  HIT %:    99.9878  MISS %:  0.0121604   MPKI: 0.02274
L1I AVERAGE MISS LATENCY: 228.249 cycles
L1I RQ	ACCESS:   25298118	FORWARD:          0	MERGED:    6596703	TO_CACHE:   18701415

BTB TOTAL     ACCESS:    9444635  HIT:    9439502  MISS:       5133  HIT %:    99.9457  MISS %:  0.0543483   MPKI: 0.05133
BTB BRANCH_DIRECT_JUMP	ACCESS:     422217  HIT:     422185  MISS:         32
BTB BRANCH_INDIRECT	ACCESS:       1781  HIT:       1780  MISS:          1
BTB BRANCH_CONDITIONAL	ACCESS:    8989059  HIT:    8988804  MISS:        255
BTB BRANCH_DIRECT_CALL	ACCESS:      15788  HIT:      15670  MISS:        118
BTB BRANCH_INDIRECT_CALL	ACCESS:          0  HIT:          0  MISS:          0
BTB BRANCH_RETURN	ACCESS:      15790  HIT:      11063  MISS:       4727
BTB BRANCH_OTHER ACCESS:          0  HIT:          0  MISS:          0

L2C TOTAL     ACCESS:    8149337  HIT:    7036483  MISS:    1112854  HIT %:    86.3442  MISS %:    13.6558   MPKI: 11.1285
L2C LOAD      ACCESS:    1266754  HIT:     887632  MISS:     379122  HIT %:    70.0714  MISS %:    29.9286   MPKI: 3.79122
L2C DATA LOAD MPKI: 3.76848
L2C INSTRUCTION LOAD MPKI: 0.02274
L2C RFO       ACCESS:     554346  HIT:      31281  MISS:     523065  HIT %:    5.64287  MISS %:    94.3571   MPKI: 5.23065
L2C PREFETCH  ACCESS:    5546455  HIT:    5353836  MISS:     192619  HIT %:    96.5272  MISS %:    3.47283   MPKI: 1.92619
L2C DATA PREFETCH MPKI: 1.92619
L2C INSTRUCTION PREFETCH MPKI: 0
L2C WRITEBACK ACCESS:     780178  HIT:     762409  MISS:      17769  HIT %:    97.7224  MISS %:    2.27756   MPKI: 0.17769
L2C LOAD TRANSLATION ACCESS:       1604  HIT:       1325  MISS:        279  HIT %:     82.606  MISS %:     17.394   MPKI: 0.00279
L2C PREFETCH  REQUESTED:    9541075  ISSUED:    8960225  USEFUL:     191656  USELESS:        961
L2C USEFUL LOAD PREFETCHES:     191656 PREFETCH ISSUED TO LOWER LEVEL:    3205687  ACCURACY: 5.97862
L2C TIMELY PREFETCHES:     191656 LATE PREFETCHES: 72838 DROPPED PREFETCHES: 0
L2C PREFETCHES SAME FILL-ORIGIN LEVEL: 265457 DIFFERENT FILL-ORIGIN LEVEL: 2940230
L2C AVERAGE MISS LATENCY: 81.8684 cycles
L2C RQ	ACCESS:    1822704	FORWARD:          0	MERGED:          0	TO_CACHE:    1822704
L2C WQ	ACCESS:     780178	FORWARD:          0	MERGED:          0	TO_CACHE:     780178
L2C PQ	ACCESS:    8960225	FORWARD:          0	MERGED:     340504	TO_CACHE:    8619721

L2C Instructions Evicting Data2271
L2C Translations Evicting Data278
L2C Data Evicting Data1089995
L2C Instructions Evicting Instructions0
L2C Translations Evicting Instructions1
L2C Data Evicting Instructions2265
L2C Instructions Evicting Translations3
L2C Translations Evicting Translations0
L2C Data Evicting Translations272
L2C Dense regions hint from L2: 0
PSCL5 TOTAL     ACCESS:       1604  HIT:       1604  MISS:          0  HIT %:        100  MISS %:          0   MPKI: 0
PSCL5 LOAD TRANSLATION ACCESS:       1604  HIT:       1604  MISS:          0  HIT %:        100  MISS %:          0   MPKI: 0

PSCL4 TOTAL     ACCESS:       1604  HIT:       1604  MISS:          0  HIT %:        100  MISS %:          0   MPKI: 0
PSCL4 LOAD TRANSLATION ACCESS:       1604  HIT:       1604  MISS:          0  HIT %:        100  MISS %:          0   MPKI: 0

PSCL3 TOTAL     ACCESS:       1604  HIT:       1604  MISS:          0  HIT %:        100  MISS %:          0   MPKI: 0
PSCL3 LOAD TRANSLATION ACCESS:       1604  HIT:       1604  MISS:          0  HIT %:        100  MISS %:          0   MPKI: 0

PSCL2 TOTAL     ACCESS:       1604  HIT:       1602  MISS:          2  HIT %:    99.8753  MISS %:   0.124688   MPKI: 2e-05
PSCL2 LOAD TRANSLATION ACCESS:       1604  HIT:       1602  MISS:          2  HIT %:    99.8753  MISS %:   0.124688   MPKI: 2e-05

LLC TOTAL     ACCESS:    4327818  HIT:    3650969  MISS:     676849  HIT %:    84.3605  MISS %:    15.6395   MPKI: 6.76849
LLC LOAD      ACCESS:     306284  HIT:     275827  MISS:      30457  HIT %:     90.056  MISS %:    9.94404   MPKI: 0.30457
LLC RFO       ACCESS:     523065  HIT:     259039  MISS:     264026  HIT %:    49.5233  MISS %:    50.4767   MPKI: 2.64026
LLC PREFETCH  ACCESS:    2894105  HIT:    2725316  MISS:     168789  HIT %:    94.1678  MISS %:    5.83217   MPKI: 1.68789
LLC WRITEBACK ACCESS:     604085  HIT:     390785  MISS:     213300  HIT %:    64.6904  MISS %:    35.3096   MPKI: 2.133
LLC LOAD TRANSLATION ACCESS:        279  HIT:          2  MISS:        277  HIT %:   0.716846  MISS %:    99.2832   MPKI: 0.00277
LLC AVERAGE MISS LATENCY: 135.755 cycles
LLC RQ	ACCESS:     829628	FORWARD:          0	MERGED:          0	TO_CACHE:     829628
LLC WQ	ACCESS:     604085	FORWARD:          8	MERGED:          0	TO_CACHE:     604085
LLC PQ	ACCESS:    3205687	FORWARD:          0	MERGED:      76336	TO_CACHE:    3129343

LLC Dense regions hint to LLC: 0

RAW hits: 21759
Loads Generated: 16126025
Loads sent to L1D: 16104266
Stores Generated: 6676131
Stores sent to L1D: 6676139
Major fault: 0 Minor fault: 3163
Allocated PAGES: 3163
------------------
Depth Distribution
------------------
depth 0: 0
depth 1: 1822492
depth 2: 1722093
depth 3: 1614693
depth 4: 1494795
depth 5: 1364103
depth 6: 1188956
depth 7: 1030816
depth 8: 855889
depth 9: 658500
depth 10: 528510
depth 11: 388233
depth 12: 271128
depth 13: 143227
depth 14: 34218
depth 15: 32773
depth 16: 50
depth 17: 0
depth 18: 0
depth 19: 0
depth 20: 0
depth 21: 0
depth 22: 0
depth 23: 0
depth 24: 0
depth 25: 0
depth 26: 0
depth 27: 0
depth 28: 0
depth 29: 0
Total: 13150476
-----------------------------
-----------------------------
	Captured at Filter
-----------------------------
depth 0: 0
depth 1: 23035
depth 2: 24855
depth 3: 23109
depth 4: 20777
depth 5: 18765
depth 6: 16958
depth 7: 15495
depth 8: 13814
depth 9: 11131
depth 10: 9639
depth 11: 7552
depth 12: 5512
depth 13: 2855
depth 14: 754
depth 15: 698
depth 16: 4
depth 17: 0
depth 18: 0
depth 19: 0
depth 20: 0
depth 21: 0
depth 22: 0
depth 23: 0
depth 24: 0
depth 25: 0
depth 26: 0
depth 27: 0
depth 28: 0
depth 29: 0
-----------------------------
-----------------------------
		Lost at Page
-----------------------------
depth 0: 0
depth 1: 35023
depth 2: 60888
depth 3: 86280
depth 4: 109108
depth 5: 128882
depth 6: 138841
depth 7: 144777
depth 8: 142536
depth 9: 126268
depth 10: 112854
depth 11: 91887
depth 12: 69796
depth 13: 40809
depth 14: 10110
depth 15: 10765
depth 16: 21
depth 17: 0
depth 18: 0
depth 19: 0
depth 20: 0
depth 21: 0
depth 22: 0
depth 23: 0
depth 24: 0
depth 25: 0
depth 26: 0
depth 27: 0
depth 28: 0
depth 29: 0
-----------------------------
-----------------------------
	Lost due to PQ Size
-----------------------------
1075219
-----------------------------
ST read accesses: 1252439
ST write accesses: 12041
PT read accesses: 59176626
PT write accesses: 1875063
FILTER read accesses: 12046368
FILTER write accesses: 2547333
GHR read accesses: 5232364
GHR write accesses: 884358
GHR counter read accesses: 49683888
GHR counter write accesses: 2719114
ST tag read accesses: 493160616
ST tag write accesses: 7416664

DRAM Statistics
 CHANNEL 0
 RQ ROW_BUFFER_HIT:     124402  ROW_BUFFER_MISS:     339041
 DBUS_CONGESTED:        868
 WQ ROW_BUFFER_HIT:      71255  ROW_BUFFER_MISS:     278212  FULL:        258

 AVG_CONGESTED_CYCLE: 5
 All warmup complete: 2
Channel 0 Bank busy for read cycles: 0
Channel 0 Bank busy for write cycles: 0
Channel 0
Rank 0
0banks busy for read cycles: 91869497
0banks busy for write cycles: 45809
1banks busy for read cycles: 16979261
1banks busy for write cycles: 6597193
2banks busy for read cycles: 4755257
2banks busy for write cycles: 1981387
3banks busy for read cycles: 1827780
3banks busy for write cycles: 1075072
4banks busy for read cycles: 1018765
4banks busy for write cycles: 783065
5banks busy for read cycles: 698413
5banks busy for write cycles: 654567
6banks busy for read cycles: 619851
6banks busy for write cycles: 609079
7banks busy for read cycles: 595382
7banks busy for write cycles: 881637
8banks busy for read cycles: 1340362
8banks busy for write cycles: 4703375

CPU 0 Branch Prediction Accuracy: 95.6544% MPKI: 4.18265 Average ROB Occupancy at Mispredict: 19.8375
Branch types
NOT_BRANCH: 90374670 90.3747%
BRANCH_DIRECT_JUMP: 422217 0.422217%
BRANCH_INDIRECT: 1781 0.001781%
BRANCH_CONDITIONAL: 9169430 9.16943%
BRANCH_DIRECT_CALL: 15788 0.015788%
BRANCH_INDIRECT_CALL: 0 0%
BRANCH_RETURN: 15790 0.01579%
BRANCH_OTHER: 0 0%

DRAM PAGES: 1048576
Allocated PAGES: 3163
