
*** ChampSim Multicore Out-of-Order Simulator ***

Warmup Instructions: 50000000
Simulation Instructions: 100000000
Number of CPUs: 1
LLC sets: 2048
LLC ways: 16
Off-chip DRAM Size: 4096 MB Channels: 1 Width: 64-bit Data Rate: 6400 MT/s
CPU 0 runs ../SPEC2017//627.cam4_s-490B.champsimtrace.xz
.xz
NUM_OF_IPS_IN_CRITICAL_IP_TRAINING: 64
NUM_OF_CRITICAL_IP_TRAINING_TABLE_WAYS: 2
NUM_OF_CRITICAL_IP_TRAINING_TABLE_SETS: 32
WOBBLY_CRITICAL_IP_CACHE_SETS: 32
WOBBLY_CRITICAL_IP_CACHE_WAYS: 4
BTB has LRU replacement policy
ITLB has LRU replacement policy
DTLB has LRU replacement policy
STLB has LRU replacement policy
L1I has LRU replacement policy
L1D has LRU replacement policy
Bingo PHT WAYS: 16 and PHT_SIZE: 16384
Initialize SRRIP state for L2C
Initialize DRRIP state for LLC
Heartbeat CPU 0 instructions: 10000002 cycles: 2972225 heartbeat IPC: 3.36448 cumulative IPC: 3.36448 (Simulation time: 0 hr 4 min 25 sec) 
Heartbeat CPU 0 instructions: 20000002 cycles: 5928271 heartbeat IPC: 3.3829 cumulative IPC: 3.37367 (Simulation time: 0 hr 8 min 16 sec) 
Heartbeat CPU 0 instructions: 30000003 cycles: 8869298 heartbeat IPC: 3.40017 cumulative IPC: 3.38246 (Simulation time: 0 hr 12 min 2 sec) 
Heartbeat CPU 0 instructions: 40000000 cycles: 11824593 heartbeat IPC: 3.38376 cumulative IPC: 3.38278 (Simulation time: 0 hr 15 min 17 sec) 
Heartbeat CPU 0 instructions: 50000002 cycles: 14777540 heartbeat IPC: 3.38645 cumulative IPC: 3.38351 (Simulation time: 0 hr 18 min 7 sec) 

Warmup complete CPU 0 instructions: 50000002 cycles: 14777540 (Simulation time: 0 hr 18 min 7 sec) 

% increase in all ip prefetch 364.734
% increase in all ip prefetch -4.16689
Heartbeat CPU 0 instructions: 60000002 cycles: 28449483 heartbeat IPC: 0.731425 cumulative IPC: 0.731425 (Simulation time: 0 hr 21 min 28 sec) 
Heartbeat CPU 0 instructions: 70000000 cycles: 41769699 heartbeat IPC: 0.750738 cumulative IPC: 0.740956 (Simulation time: 0 hr 24 min 40 sec) 
Heartbeat CPU 0 instructions: 80000003 cycles: 55438638 heartbeat IPC: 0.731586 cumulative IPC: 0.737806 (Simulation time: 0 hr 27 min 53 sec) 
Heartbeat CPU 0 instructions: 90000002 cycles: 68786316 heartbeat IPC: 0.749194 cumulative IPC: 0.74062 (Simulation time: 0 hr 30 min 52 sec) 
Heartbeat CPU 0 instructions: 100000000 cycles: 82382260 heartbeat IPC: 0.735513 cumulative IPC: 0.739593 (Simulation time: 0 hr 33 min 49 sec) 
Heartbeat CPU 0 instructions: 110000000 cycles: 95885655 heartbeat IPC: 0.740555 cumulative IPC: 0.739753 (Simulation time: 0 hr 36 min 38 sec) 
Heartbeat CPU 0 instructions: 120000001 cycles: 109470643 heartbeat IPC: 0.736107 cumulative IPC: 0.73923 (Simulation time: 0 hr 39 min 16 sec) 
Heartbeat CPU 0 instructions: 130000000 cycles: 123163451 heartbeat IPC: 0.73031 cumulative IPC: 0.738103 (Simulation time: 0 hr 41 min 36 sec) 
Heartbeat CPU 0 instructions: 140000001 cycles: 136694166 heartbeat IPC: 0.739059 cumulative IPC: 0.738209 (Simulation time: 0 hr 43 min 49 sec) 
Heartbeat CPU 0 instructions: 150000003 cycles: 150503408 heartbeat IPC: 0.724153 cumulative IPC: 0.736779 (Simulation time: 0 hr 45 min 52 sec) 
Finished CPU 0 instructions: 100000001 cycles: 135725868 cumulative IPC: 0.736779 (Simulation time: 0 hr 45 min 52 sec) 

ChampSim completed all CPUs

Region of Interest Statistics

CPU 0 cumulative IPC: 0.736779 instructions: 100000001 cycles: 135725868

CPU 0 Average Load ROB stall cycles: 8.35178e+06
CPU 0 Fraction of times ROB stalled by Loads: 10.0898
CPU 0 Percentage of Load stall cycles in Total stall cycles: 2.05762e+08
 Total stall cycles: 82666129
 Total load stall cycles: 170095229171657
CPU 0 NUM of IPS identified critical: 0

Threshold modification factor: -1
Max PIST entries: 58
Min PIST entries: 0
Avg PIST entries: 22.2667
Average ROB occupancy Load Stall Begin: 27.5651
Average ROB occupancy Load Stall End: 32.3135
Min ROB occupancy Load Stall Begin: 1
Max ROB occupancy Load Stall Begin: 351
Min ROB occupancy Load Stall End: 1
Max ROB occupancy Load Stall End: 352
Average ROB occupancy Critical Load Stall Begin: -nan
Average ROB occupancy Critical Load Stall End: -nan
Min ROB occupancy Critical Load Stall Begin: 400
Max ROB occupancy Critical Load Stall Begin: 0
Min ROB occupancy Critical Load Stall End: 400
Max ROB occupancy Critical Load Stall End: 0
 ROB Load Stall Begin Bucket Count 0: 1912628
 ROB Load Stall End Bucket Count 0: 1836770
 ROB Critical Load Stall Begin Bucket Count 0: 0
 ROB Critical Load Stall End Bucket Count 0: 0
 ROB Load Stall Begin Bucket Count 1: 95352
 ROB Load Stall End Bucket Count 1: 163139
 ROB Critical Load Stall Begin Bucket Count 1: 0
 ROB Critical Load Stall End Bucket Count 1: 0
 ROB Load Stall Begin Bucket Count 2: 16378
 ROB Load Stall End Bucket Count 2: 20566
 ROB Critical Load Stall Begin Bucket Count 2: 0
 ROB Critical Load Stall End Bucket Count 2: 0
 ROB Load Stall Begin Bucket Count 3: 6792
 ROB Load Stall End Bucket Count 3: 7343
 ROB Critical Load Stall Begin Bucket Count 3: 0
 ROB Critical Load Stall End Bucket Count 3: 0
 ROB Load Stall Begin Bucket Count 4: 6870
 ROB Load Stall End Bucket Count 4: 7353
 ROB Critical Load Stall Begin Bucket Count 4: 0
 ROB Critical Load Stall End Bucket Count 4: 0
 ROB Load Stall Begin Bucket Count 5: 7372
 ROB Load Stall End Bucket Count 5: 7066
 ROB Critical Load Stall Begin Bucket Count 5: 0
 ROB Critical Load Stall End Bucket Count 5: 0
 ROB Load Stall Begin Bucket Count 6: 9525
 ROB Load Stall End Bucket Count 6: 12680
 ROB Critical Load Stall Begin Bucket Count 6: 0
 ROB Critical Load Stall End Bucket Count 6: 0
PIST Tag Read Accesses: 117084
PIST Read Accesses: 58542
PIST Tag Write Accesses: 117084
PIST Write Accesses: 58542
Criticality detector called times: 877891
Max global_stall_cycles_count: 271754
Threshold Modified: 1 times, factor: -1
Sturdy critical IP cache stats: 
 Unused entries: 0
CIC Tag Read Accesses: 0
CIC Read Accesses: 0
CIC Tag Write Accesses: 0
CIC Write Accesses: 0
Wobbly critical IP cache stats: 
 Unused entries: 91
CIC Tag Read Accesses: 97839814
CIC Read Accesses: 0
CIC Tag Write Accesses: 252
CIC Write Accesses: 0
ITLB TOTAL     ACCESS:   15448364  HIT:   15448364  MISS:          0  HIT %:        100  MISS %:          0   MPKI: 0
ITLB LOAD TRANSLATION ACCESS:   15448364  HIT:   15448364  MISS:          0  HIT %:        100  MISS %:          0   MPKI: 0
ITLB PREFETCHES SAME FILL-ORIGIN LEVEL: 0 DIFFERENT FILL-ORIGIN LEVEL: 0
ITLB AVERAGE MISS LATENCY: -nan cycles
ITLB RQ	ACCESS:   18687798	FORWARD:          0	MERGED:    3239435	TO_CACHE:   15448363

DTLB TOTAL     ACCESS:   16330229  HIT:   16298785  MISS:      31444  HIT %:    99.8074  MISS %:   0.192551   MPKI: 0.31444
DTLB LOAD TRANSLATION ACCESS:   16330229  HIT:   16298785  MISS:      31444  HIT %:    99.8074  MISS %:   0.192551   MPKI: 0.31444
DTLB PREFETCHES SAME FILL-ORIGIN LEVEL: 0 DIFFERENT FILL-ORIGIN LEVEL: 0
DTLB AVERAGE MISS LATENCY: 17.1682 cycles
DTLB RQ	ACCESS:   18169838	FORWARD:          0	MERGED:    1833554	TO_CACHE:   16336284

STLB TOTAL     ACCESS:      31444  HIT:      29840  MISS:       1604  HIT %:    94.8989  MISS %:    5.10113   MPKI: 0.01604
STLB LOAD TRANSLATION ACCESS:      31444  HIT:      29840  MISS:       1604  HIT %:    94.8989  MISS %:    5.10113   MPKI: 0.01604
STLB PREFETCHES SAME FILL-ORIGIN LEVEL: 0 DIFFERENT FILL-ORIGIN LEVEL: 0
STLB AVERAGE MISS LATENCY: 159.625 cycles
STLB RQ	ACCESS:      31444	FORWARD:          0	MERGED:          0	TO_CACHE:      31444

STLB Hit, L1D data hit: 0
STLB Hit, L2C data hit: 0
STLB Hit, LLC data hit: 0
STLB Hit, LLC data miss: 0
STLB STLB hints to L2: 0
L1D TOTAL     ACCESS:   16346482  HIT:   14527656  MISS:    1818826  HIT %:    88.8733  MISS %:    11.1267   MPKI: 18.1883
L1D LOAD      ACCESS:   11442350  HIT:   10177865  MISS:    1264485  HIT %:    88.9491  MISS %:    11.0509   MPKI: 12.6448
L1D RFO       ACCESS:    4904132  HIT:    4349791  MISS:     554341  HIT %:    88.6965  MISS %:    11.3035   MPKI: 5.54341
L1D PREFETCHES SAME FILL-ORIGIN LEVEL: 0 DIFFERENT FILL-ORIGIN LEVEL: 0
L1D AVERAGE MISS LATENCY: 48.3409 cycles
L1D RQ	ACCESS:   16104376	FORWARD:          0	MERGED:    4438288	TO_CACHE:   11663991
L1D WQ	ACCESS:    6676139	FORWARD:       2097	MERGED:     170292	TO_CACHE:    6505847

L1D UNIQUE REGIONS ACCESSED: 0
L1D REGIONS CONFLICTS: 0
L1D Cross Page Prefetch Requests: 0
L1D Same Page Prefetch Requests: 0
L1D ROI Sum of L1D PQ occupancy: 0
L1D PREFETCHES PUSHED FROM L2C: 0
L1I TOTAL     ACCESS:   18686474  HIT:   18684200  MISS:       2274  HIT %:    99.9878  MISS %:  0.0121692   MPKI: 0.02274
L1I LOAD      ACCESS:   18686474  HIT:   18684200  MISS:       2274  HIT %:    99.9878  MISS %:  0.0121692   MPKI: 0.02274
L1I PREFETCHES SAME FILL-ORIGIN LEVEL: 0 DIFFERENT FILL-ORIGIN LEVEL: 0
L1I AVERAGE MISS LATENCY: 213.504 cycles
L1I RQ	ACCESS:   25265998	FORWARD:          0	MERGED:    6578200	TO_CACHE:   18687798

BTB TOTAL     ACCESS:    9444635  HIT:    9439502  MISS:       5133  HIT %:    99.9457  MISS %:  0.0543483   MPKI: 0.05133
BTB BRANCH_DIRECT_JUMP	ACCESS:     422217  HIT:     422185  MISS:         32
BTB BRANCH_INDIRECT	ACCESS:       1781  HIT:       1780  MISS:          1
BTB BRANCH_CONDITIONAL	ACCESS:    8989059  HIT:    8988804  MISS:        255
BTB BRANCH_DIRECT_CALL	ACCESS:      15788  HIT:      15670  MISS:        118
BTB BRANCH_INDIRECT_CALL	ACCESS:          0  HIT:          0  MISS:          0
BTB BRANCH_RETURN	ACCESS:      15790  HIT:      11063  MISS:       4727
BTB BRANCH_OTHER ACCESS:          0  HIT:          0  MISS:          0

L2C TOTAL     ACCESS:    3661957  HIT:    2506335  MISS:    1155622  HIT %:    68.4425  MISS %:    31.5575   MPKI: 11.5562
L2C LOAD      ACCESS:    1266759  HIT:    1209624  MISS:      57135  HIT %:    95.4897  MISS %:    4.51033   MPKI: 0.57135
L2C DATA LOAD MPKI: 0.54861
L2C INSTRUCTION LOAD MPKI: 0.02274
L2C RFO       ACCESS:     554341  HIT:      31580  MISS:     522761  HIT %:    5.69685  MISS %:    94.3031   MPKI: 5.22761
L2C PREFETCH  ACCESS:    1059079  HIT:     512775  MISS:     546304  HIT %:    48.4171  MISS %:    51.5829   MPKI: 5.46304
L2C DATA PREFETCH MPKI: 5.46304
L2C INSTRUCTION PREFETCH MPKI: 0
L2C WRITEBACK ACCESS:     780174  HIT:     751038  MISS:      29136  HIT %:    96.2654  MISS %:    3.73455   MPKI: 0.29136
L2C LOAD TRANSLATION ACCESS:       1604  HIT:       1318  MISS:        286  HIT %:    82.1696  MISS %:    17.8304   MPKI: 0.00286
L2C PREFETCH  REQUESTED:    1076386  ISSUED:    1076386  USEFUL:     533817  USELESS:      12529
L2C USEFUL LOAD PREFETCHES:     533817 PREFETCH ISSUED TO LOWER LEVEL:     561050  ACCURACY: 95.1461
L2C TIMELY PREFETCHES:     533817 LATE PREFETCHES: 14746 DROPPED PREFETCHES: 0
L2C PREFETCHES SAME FILL-ORIGIN LEVEL: 561050 DIFFERENT FILL-ORIGIN LEVEL: 0
L2C AVERAGE MISS LATENCY: 107.37 cycles
L2C RQ	ACCESS:    1822704	FORWARD:          0	MERGED:          0	TO_CACHE:    1822704
L2C WQ	ACCESS:     780174	FORWARD:          0	MERGED:          0	TO_CACHE:     780174
L2C PQ	ACCESS:    1076386	FORWARD:          0	MERGED:         22	TO_CACHE:    1076364

L2C Instructions Evicting Data2273
L2C Translations Evicting Data285
L2C Data Evicting Data1121387
L2C Instructions Evicting Instructions0
L2C Translations Evicting Instructions1
L2C Data Evicting Instructions2261
L2C Instructions Evicting Translations1
L2C Translations Evicting Translations0
L2C Data Evicting Translations278
L2C Dense regions hint from L2: 0
PSCL5 TOTAL     ACCESS:       1604  HIT:       1604  MISS:          0  HIT %:        100  MISS %:          0   MPKI: 0
PSCL5 LOAD TRANSLATION ACCESS:       1604  HIT:       1604  MISS:          0  HIT %:        100  MISS %:          0   MPKI: 0
PSCL5 PREFETCHES SAME FILL-ORIGIN LEVEL: 0 DIFFERENT FILL-ORIGIN LEVEL: 0

PSCL4 TOTAL     ACCESS:       1604  HIT:       1604  MISS:          0  HIT %:        100  MISS %:          0   MPKI: 0
PSCL4 LOAD TRANSLATION ACCESS:       1604  HIT:       1604  MISS:          0  HIT %:        100  MISS %:          0   MPKI: 0
PSCL4 PREFETCHES SAME FILL-ORIGIN LEVEL: 0 DIFFERENT FILL-ORIGIN LEVEL: 0

PSCL3 TOTAL     ACCESS:       1604  HIT:       1604  MISS:          0  HIT %:        100  MISS %:          0   MPKI: 0
PSCL3 LOAD TRANSLATION ACCESS:       1604  HIT:       1604  MISS:          0  HIT %:        100  MISS %:          0   MPKI: 0
PSCL3 PREFETCHES SAME FILL-ORIGIN LEVEL: 0 DIFFERENT FILL-ORIGIN LEVEL: 0

PSCL2 TOTAL     ACCESS:       1604  HIT:       1602  MISS:          2  HIT %:    99.8753  MISS %:   0.124688   MPKI: 2e-05
PSCL2 LOAD TRANSLATION ACCESS:       1604  HIT:       1602  MISS:          2  HIT %:    99.8753  MISS %:   0.124688   MPKI: 2e-05
PSCL2 PREFETCHES SAME FILL-ORIGIN LEVEL: 0 DIFFERENT FILL-ORIGIN LEVEL: 0

LLC TOTAL     ACCESS:    1742386  HIT:    1095890  MISS:     646496  HIT %:    62.8959  MISS %:    37.1041   MPKI: 6.46496
LLC LOAD      ACCESS:      42389  HIT:      20052  MISS:      22337  HIT %:    47.3047  MISS %:    52.6953   MPKI: 0.22337
LLC RFO       ACCESS:     522760  HIT:     322447  MISS:     200313  HIT %:    61.6817  MISS %:    38.3183   MPKI: 2.00313
LLC PREFETCH  ACCESS:     561043  HIT:     358364  MISS:     202679  HIT %:    63.8746  MISS %:    36.1254   MPKI: 2.02679
LLC WRITEBACK ACCESS:     615908  HIT:     395023  MISS:     220885  HIT %:    64.1367  MISS %:    35.8633   MPKI: 2.20885
LLC LOAD TRANSLATION ACCESS:        286  HIT:          4  MISS:        282  HIT %:     1.3986  MISS %:    98.6014   MPKI: 0.00282
LLC PREFETCHES SAME FILL-ORIGIN LEVEL: 0 DIFFERENT FILL-ORIGIN LEVEL: 0
LLC AVERAGE MISS LATENCY: 142.309 cycles
LLC RQ	ACCESS:     565436	FORWARD:          0	MERGED:          0	TO_CACHE:     565435
LLC WQ	ACCESS:     615908	FORWARD:          8	MERGED:          0	TO_CACHE:     615908
LLC PQ	ACCESS:     561050	FORWARD:          0	MERGED:          0	TO_CACHE:     561043

LLC Dense regions hint to LLC: 0

RAW hits: 21649
Loads Generated: 16126025
Loads sent to L1D: 16104376
Stores Generated: 6676131
Stores sent to L1D: 6676139
Major fault: 0 Minor fault: 3163
Allocated PAGES: 3163
[Bingo] PHT Access: 39588
[Bingo] PHT Hit PC+Addr: 5939
[Bingo] PHT Hit PC+Offs: 30961
[Bingo] PHT Miss: 2688
[Bingo] Prefetch PC+Addr: 0
[Bingo] Prefetch PC+Offs: 0
[Bingo] Useful PC+Addr: 0
[Bingo] Useful PC+Offs: 0
[Bingo] Useless PC+Addr: 0
[Bingo] Useless PC+Offs: 0
[Bingo] L1 Prefetch per Region: 0
[Bingo] L2 Prefetch per Region: 30.2836
[Bingo] L3 Prefetch per Region: 0
[Bingo] No Prefetch per Region: 1.71645
[Bingo] Number of Voters Mean: 14.4378
[Bingo] Number of Voters SD: 10.3304
PHT read accesses: 538724
PHT write accesses: 37430
AT read accesses: 1251821
AT write accesses: 1262085
FT read accesses: 114908
FT write accesses: 39588
PS read accesses: 123615
PS write accesses: 36900
PHT tag read accesses: 1694927
PHT tag write accesses: 43369
AT tag read accesses: 40292217
AT tag write accesses: 1289245
FT tag read accesses: 21034939
FT tag write accesses: 116836
PS tag read accesses: 21459975
PS tag write accesses: 160266

DRAM Statistics
 CHANNEL 0
 RQ ROW_BUFFER_HIT:     214383  ROW_BUFFER_MISS:     211144
 DBUS_CONGESTED:        885
 WQ ROW_BUFFER_HIT:      46617  ROW_BUFFER_MISS:     207928  FULL:      20824

 AVG_CONGESTED_CYCLE: 5
 All warmup complete: 2
Channel 0 Bank busy for read cycles: 0
Channel 0 Bank busy for write cycles: 0
Channel 0
Rank 0
0banks busy for read cycles: 106367275
0banks busy for write cycles: 37949
1banks busy for read cycles: 10215875
1banks busy for write cycles: 5139897
2banks busy for read cycles: 2073367
2banks busy for write cycles: 1390795
3banks busy for read cycles: 881803
3banks busy for write cycles: 786735
4banks busy for read cycles: 591131
4banks busy for write cycles: 579386
5banks busy for read cycles: 369539
5banks busy for write cycles: 494136
6banks busy for read cycles: 396808
6banks busy for write cycles: 465714
7banks busy for read cycles: 578816
7banks busy for write cycles: 632097
8banks busy for read cycles: 1942286
8banks busy for write cycles: 2782260

CPU 0 Branch Prediction Accuracy: 95.6544% MPKI: 4.18265 Average ROB Occupancy at Mispredict: 18.6893
Branch types
NOT_BRANCH: 90374670 90.3747%
BRANCH_DIRECT_JUMP: 422217 0.422217%
BRANCH_INDIRECT: 1781 0.001781%
BRANCH_CONDITIONAL: 9169430 9.16943%
BRANCH_DIRECT_CALL: 15788 0.015788%
BRANCH_INDIRECT_CALL: 0 0%
BRANCH_RETURN: 15790 0.01579%
BRANCH_OTHER: 0 0%

DRAM PAGES: 1048576
Allocated PAGES: 3163
