Initialize SIGNATURE TABLE
ST_SET: 1
ST_WAY: 256
ST_TAG_BIT: 16
ST_TAG_MASK: ffff

Initialize PATTERN TABLE
PT_SET: 512
PT_WAY: 4
SIG_DELTA_BIT: 7
C_SIG_BIT: 4
C_DELTA_BIT: 4

Initialize PREFETCH FILTER
FILTER_SET: 1024

*** ChampSim Multicore Out-of-Order Simulator ***

Warmup Instructions: 50000000
Simulation Instructions: 100000000
Number of CPUs: 1
LLC sets: 2048
LLC ways: 16
Off-chip DRAM Size: 4096 MB Channels: 1 Width: 64-bit Data Rate: 6400 MT/s
CPU 0 runs ../SPEC2017//628.pop2_s-17B.champsimtrace.xz
.xz
NUM_OF_IPS_IN_CRITICAL_IP_TRAINING: 64
NUM_OF_CRITICAL_IP_TRAINING_TABLE_WAYS: 2
NUM_OF_CRITICAL_IP_TRAINING_TABLE_SETS: 32
WOBBLY_CRITICAL_IP_CACHE_SETS: 32
WOBBLY_CRITICAL_IP_CACHE_WAYS: 4
BTB has LRU replacement policy
ITLB has LRU replacement policy
DTLB has LRU replacement policy
STLB has LRU replacement policy
L1I has LRU replacement policy
L1D has LRU replacement policy
Initialize SRRIP state for L2C
Initialize DRRIP state for LLC
Heartbeat CPU 0 instructions: 10000003 cycles: 3002586 heartbeat IPC: 3.33046 cumulative IPC: 3.33046 (Simulation time: 0 hr 4 min 13 sec) 
Heartbeat CPU 0 instructions: 20000001 cycles: 6004807 heartbeat IPC: 3.33087 cumulative IPC: 3.33067 (Simulation time: 0 hr 7 min 59 sec) 
Heartbeat CPU 0 instructions: 30000003 cycles: 9006917 heartbeat IPC: 3.33099 cumulative IPC: 3.33077 (Simulation time: 0 hr 11 min 27 sec) 
Heartbeat CPU 0 instructions: 40000003 cycles: 12008624 heartbeat IPC: 3.33144 cumulative IPC: 3.33094 (Simulation time: 0 hr 14 min 34 sec) 
Heartbeat CPU 0 instructions: 50000002 cycles: 15012301 heartbeat IPC: 3.32925 cumulative IPC: 3.3306 (Simulation time: 0 hr 17 min 26 sec) 

Warmup complete CPU 0 instructions: 50000002 cycles: 15012301 (Simulation time: 0 hr 17 min 26 sec) 

Heartbeat CPU 0 instructions: 60000000 cycles: 27495687 heartbeat IPC: 0.801065 cumulative IPC: 0.801065 (Simulation time: 0 hr 21 min 26 sec) 
Heartbeat CPU 0 instructions: 70000002 cycles: 39828900 heartbeat IPC: 0.810819 cumulative IPC: 0.805912 (Simulation time: 0 hr 25 min 14 sec) 
Heartbeat CPU 0 instructions: 80000000 cycles: 51590268 heartbeat IPC: 0.850241 cumulative IPC: 0.820166 (Simulation time: 0 hr 28 min 33 sec) 
Heartbeat CPU 0 instructions: 90000003 cycles: 65355674 heartbeat IPC: 0.726459 cumulative IPC: 0.794544 (Simulation time: 0 hr 31 min 53 sec) 
Heartbeat CPU 0 instructions: 100000001 cycles: 77243050 heartbeat IPC: 0.841228 cumulative IPC: 0.803461 (Simulation time: 0 hr 35 min 14 sec) 
Heartbeat CPU 0 instructions: 110000000 cycles: 89893889 heartbeat IPC: 0.790461 cumulative IPC: 0.801265 (Simulation time: 0 hr 38 min 20 sec) 
Heartbeat CPU 0 instructions: 120000000 cycles: 103127376 heartbeat IPC: 0.755659 cumulative IPC: 0.794416 (Simulation time: 0 hr 40 min 53 sec) 
Heartbeat CPU 0 instructions: 130000002 cycles: 116819495 heartbeat IPC: 0.730347 cumulative IPC: 0.785799 (Simulation time: 0 hr 43 min 24 sec) 
Heartbeat CPU 0 instructions: 140000002 cycles: 131384016 heartbeat IPC: 0.6866 cumulative IPC: 0.773384 (Simulation time: 0 hr 45 min 46 sec) 
Heartbeat CPU 0 instructions: 150000000 cycles: 144625858 heartbeat IPC: 0.755182 cumulative IPC: 0.771524 (Simulation time: 0 hr 47 min 49 sec) 
Finished CPU 0 instructions: 100000000 cycles: 129613558 cumulative IPC: 0.771524 (Simulation time: 0 hr 47 min 49 sec) 

ChampSim completed all CPUs

Region of Interest Statistics

CPU 0 cumulative IPC: 0.771524 instructions: 100000000 cycles: 129613558

CPU 0 Average Load ROB stall cycles: 2.39821e+07
CPU 0 Fraction of times ROB stalled by Loads: 29.3027
CPU 0 Percentage of Load stall cycles in Total stall cycles: 4.88578e+08
Issued all: 64887568
Issued LT all: 51526453
rob_not_full_when_issued_lt_all: 45830317
Issued LT one: 44150519
rob_not_full_when_issued_lt_one: 39035646
 Total stall cycles: 104630262
 Total load stall cycles: 511199923930982
CPU 0 NUM of IPS identified critical: 0
CPU 0 Num of Load IPs stalling ROB: 5888
Threshold modification factor: 0
Max PIST entries: 64
Min PIST entries: 0
Avg PIST entries: 27.94
Trouble in retire width: 0.930011
MaC = Marked as critical.
lt_50_percent_before_Mac: 0
gt_90_percent_before_Mac: 0
gt_75_percent_before_Mac: 0
gt_50_percent_before_Mac: 0
stall_proportion_bin_same_before_after: 0
stall_proportion_bin_lower_before_after: 0
stall_proportion_bin_upper_before_after: 0
average_stall_proportion_before: -nan
average_stall_proportion_after: -nan
Critical IP stalls, total frequency: 0
Non-critical IP stalls, total frequency: 6246141
Total Freq all stalling IPs: 6246141
stat_90_percent_critical_ip_stalls_freq: 5623298
stat_90_percent_non_critical_ip_stalls_freq: 622843
Critical_IP_ROB_Stalls_Bucket_0: 0
Non-critical_IP_ROB_Stalls_Bucket_0: 5362891
Critical_IP_ROB_Stalls_Bucket_1: 0
Non-critical_IP_ROB_Stalls_Bucket_1: 403995
Critical_IP_ROB_Stalls_Bucket_2: 0
Non-critical_IP_ROB_Stalls_Bucket_2: 103696
Critical_IP_ROB_Stalls_Bucket_3: 0
Non-critical_IP_ROB_Stalls_Bucket_3: 60097
Critical_IP_ROB_Stalls_Bucket_4: 0
Non-critical_IP_ROB_Stalls_Bucket_4: 42211
Critical_IP_ROB_Stalls_Bucket_5: 0
Non-critical_IP_ROB_Stalls_Bucket_5: 48701
Critical_IP_ROB_Stalls_Bucket_6: 0
Non-critical_IP_ROB_Stalls_Bucket_6: 224550
0 => IPs accounting for >50 percent of stalls, 1 => 55, 2 => 60, 3 => 65 and so on till 90.
percent50: 50.1897 num IPs:  99
percent55: 55.0741 num IPs: 121
percent60: 60.0562 num IPs: 145
percent65: 65.0492 num IPs: 171
percent70: 70.0893 num IPs: 204
percent75: 75.0895 num IPs: 246
percent80: 80.0575 num IPs: 301
percent85: 85.0108 num IPs: 383
percent90: 90.0283 num IPs: 499
Critical_ROB_Stalls_Percent_0_Bucket_0: 2842083
Non-critical_ROB_Stalls_Percent_0_Bucket_0: 2520808
Critical_ROB_Stalls_Percent_0_Bucket_1: 117524
Non-critical_ROB_Stalls_Percent_0_Bucket_1: 286471
Critical_ROB_Stalls_Percent_0_Bucket_2: 32597
Non-critical_ROB_Stalls_Percent_0_Bucket_2: 71099
Critical_ROB_Stalls_Percent_0_Bucket_3: 17712
Non-critical_ROB_Stalls_Percent_0_Bucket_3: 42385
Critical_ROB_Stalls_Percent_0_Bucket_4: 11410
Non-critical_ROB_Stalls_Percent_0_Bucket_4: 30801
Critical_ROB_Stalls_Percent_0_Bucket_5: 9678
Non-critical_ROB_Stalls_Percent_0_Bucket_5: 39023
Critical_ROB_Stalls_Percent_0_Bucket_6: 103915
Non-critical_ROB_Stalls_Percent_0_Bucket_6: 120635
Critical_ROB_Stalls_Percent_1_Bucket_0: 3117582
Non-critical_ROB_Stalls_Percent_1_Bucket_0: 2245309
Critical_ROB_Stalls_Percent_1_Bucket_1: 142214
Non-critical_ROB_Stalls_Percent_1_Bucket_1: 261781
Critical_ROB_Stalls_Percent_1_Bucket_2: 36290
Non-critical_ROB_Stalls_Percent_1_Bucket_2: 67406
Critical_ROB_Stalls_Percent_1_Bucket_3: 18180
Non-critical_ROB_Stalls_Percent_1_Bucket_3: 41917
Critical_ROB_Stalls_Percent_1_Bucket_4: 11821
Non-critical_ROB_Stalls_Percent_1_Bucket_4: 30390
Critical_ROB_Stalls_Percent_1_Bucket_5: 9954
Non-critical_ROB_Stalls_Percent_1_Bucket_5: 38747
Critical_ROB_Stalls_Percent_1_Bucket_6: 103967
Non-critical_ROB_Stalls_Percent_1_Bucket_6: 120583
Critical_ROB_Stalls_Percent_2_Bucket_0: 3409130
Non-critical_ROB_Stalls_Percent_2_Bucket_0: 1953761
Critical_ROB_Stalls_Percent_2_Bucket_1: 149135
Non-critical_ROB_Stalls_Percent_2_Bucket_1: 254860
Critical_ROB_Stalls_Percent_2_Bucket_2: 37512
Non-critical_ROB_Stalls_Percent_2_Bucket_2: 66184
Critical_ROB_Stalls_Percent_2_Bucket_3: 19169
Non-critical_ROB_Stalls_Percent_2_Bucket_3: 40928
Critical_ROB_Stalls_Percent_2_Bucket_4: 12733
Non-critical_ROB_Stalls_Percent_2_Bucket_4: 29478
Critical_ROB_Stalls_Percent_2_Bucket_5: 11072
Non-critical_ROB_Stalls_Percent_2_Bucket_5: 37629
Critical_ROB_Stalls_Percent_2_Bucket_6: 112447
Non-critical_ROB_Stalls_Percent_2_Bucket_6: 112103
Critical_ROB_Stalls_Percent_3_Bucket_0: 3678573
Non-critical_ROB_Stalls_Percent_3_Bucket_0: 1684318
Critical_ROB_Stalls_Percent_3_Bucket_1: 155821
Non-critical_ROB_Stalls_Percent_3_Bucket_1: 248174
Critical_ROB_Stalls_Percent_3_Bucket_2: 40663
Non-critical_ROB_Stalls_Percent_3_Bucket_2: 63033
Critical_ROB_Stalls_Percent_3_Bucket_3: 22772
Non-critical_ROB_Stalls_Percent_3_Bucket_3: 37325
Critical_ROB_Stalls_Percent_3_Bucket_4: 16009
Non-critical_ROB_Stalls_Percent_3_Bucket_4: 26202
Critical_ROB_Stalls_Percent_3_Bucket_5: 16312
Non-critical_ROB_Stalls_Percent_3_Bucket_5: 32389
Critical_ROB_Stalls_Percent_3_Bucket_6: 132912
Non-critical_ROB_Stalls_Percent_3_Bucket_6: 91638
Critical_ROB_Stalls_Percent_4_Bucket_0: 3968264
Non-critical_ROB_Stalls_Percent_4_Bucket_0: 1394627
Critical_ROB_Stalls_Percent_4_Bucket_1: 176713
Non-critical_ROB_Stalls_Percent_4_Bucket_1: 227282
Critical_ROB_Stalls_Percent_4_Bucket_2: 42417
Non-critical_ROB_Stalls_Percent_4_Bucket_2: 61279
Critical_ROB_Stalls_Percent_4_Bucket_3: 23487
Non-critical_ROB_Stalls_Percent_4_Bucket_3: 36610
Critical_ROB_Stalls_Percent_4_Bucket_4: 16565
Non-critical_ROB_Stalls_Percent_4_Bucket_4: 25646
Critical_ROB_Stalls_Percent_4_Bucket_5: 16835
Non-critical_ROB_Stalls_Percent_4_Bucket_5: 31866
Critical_ROB_Stalls_Percent_4_Bucket_6: 133596
Non-critical_ROB_Stalls_Percent_4_Bucket_6: 90954
Critical_ROB_Stalls_Percent_5_Bucket_0: 4230565
Non-critical_ROB_Stalls_Percent_5_Bucket_0: 1132326
Critical_ROB_Stalls_Percent_5_Bucket_1: 197877
Non-critical_ROB_Stalls_Percent_5_Bucket_1: 206118
Critical_ROB_Stalls_Percent_5_Bucket_2: 52156
Non-critical_ROB_Stalls_Percent_5_Bucket_2: 51540
Critical_ROB_Stalls_Percent_5_Bucket_3: 31219
Non-critical_ROB_Stalls_Percent_5_Bucket_3: 28878
Critical_ROB_Stalls_Percent_5_Bucket_4: 21034
Non-critical_ROB_Stalls_Percent_5_Bucket_4: 21177
Critical_ROB_Stalls_Percent_5_Bucket_5: 19824
Non-critical_ROB_Stalls_Percent_5_Bucket_5: 28877
Critical_ROB_Stalls_Percent_5_Bucket_6: 137518
Non-critical_ROB_Stalls_Percent_5_Bucket_6: 87032
Critical_ROB_Stalls_Percent_6_Bucket_0: 4482810
Non-critical_ROB_Stalls_Percent_6_Bucket_0: 880081
Critical_ROB_Stalls_Percent_6_Bucket_1: 240354
Non-critical_ROB_Stalls_Percent_6_Bucket_1: 163641
Critical_ROB_Stalls_Percent_6_Bucket_2: 58162
Non-critical_ROB_Stalls_Percent_6_Bucket_2: 45534
Critical_ROB_Stalls_Percent_6_Bucket_3: 33013
Non-critical_ROB_Stalls_Percent_6_Bucket_3: 27084
Critical_ROB_Stalls_Percent_6_Bucket_4: 22446
Non-critical_ROB_Stalls_Percent_6_Bucket_4: 19765
Critical_ROB_Stalls_Percent_6_Bucket_5: 22144
Non-critical_ROB_Stalls_Percent_6_Bucket_5: 26557
Critical_ROB_Stalls_Percent_6_Bucket_6: 141575
Non-critical_ROB_Stalls_Percent_6_Bucket_6: 82975
Critical_ROB_Stalls_Percent_7_Bucket_0: 4734505
Non-critical_ROB_Stalls_Percent_7_Bucket_0: 628386
Critical_ROB_Stalls_Percent_7_Bucket_1: 272099
Non-critical_ROB_Stalls_Percent_7_Bucket_1: 131896
Critical_ROB_Stalls_Percent_7_Bucket_2: 67939
Non-critical_ROB_Stalls_Percent_7_Bucket_2: 35757
Critical_ROB_Stalls_Percent_7_Bucket_3: 37546
Non-critical_ROB_Stalls_Percent_7_Bucket_3: 22551
Critical_ROB_Stalls_Percent_7_Bucket_4: 25415
Non-critical_ROB_Stalls_Percent_7_Bucket_4: 16796
Critical_ROB_Stalls_Percent_7_Bucket_5: 24534
Non-critical_ROB_Stalls_Percent_7_Bucket_5: 24167
Critical_ROB_Stalls_Percent_7_Bucket_6: 147857
Non-critical_ROB_Stalls_Percent_7_Bucket_6: 76693
Critical_ROB_Stalls_Percent_8_Bucket_0: 4971792
Non-critical_ROB_Stalls_Percent_8_Bucket_0: 391099
Critical_ROB_Stalls_Percent_8_Bucket_1: 307901
Non-critical_ROB_Stalls_Percent_8_Bucket_1: 96094
Critical_ROB_Stalls_Percent_8_Bucket_2: 76399
Non-critical_ROB_Stalls_Percent_8_Bucket_2: 27297
Critical_ROB_Stalls_Percent_8_Bucket_3: 43152
Non-critical_ROB_Stalls_Percent_8_Bucket_3: 16945
Critical_ROB_Stalls_Percent_8_Bucket_4: 28698
Non-critical_ROB_Stalls_Percent_8_Bucket_4: 13513
Critical_ROB_Stalls_Percent_8_Bucket_5: 27945
Non-critical_ROB_Stalls_Percent_8_Bucket_5: 20756
Critical_ROB_Stalls_Percent_8_Bucket_6: 167411
Non-critical_ROB_Stalls_Percent_8_Bucket_6: 57139
Average ROB occupancy Load Stall Begin: 35.2387
Average ROB occupancy Load Stall End: 41.4284
Min ROB occupancy Load Stall Begin: 1
Max ROB occupancy Load Stall Begin: 352
Min ROB occupancy Load Stall End: 1
Max ROB occupancy Load Stall End: 352
Average ROB occupancy Critical Load Stall Begin: -nan
Average ROB occupancy Critical Load Stall End: -nan
Min ROB occupancy Critical Load Stall Begin: 400
Max ROB occupancy Critical Load Stall Begin: 0
Min ROB occupancy Critical Load Stall End: 400
Max ROB occupancy Critical Load Stall End: 0
 ROB Load Stall Begin Bucket Count 0: 5523742
 ROB Load Stall End Bucket Count 0: 5362891
 ROB Critical Load Stall Begin Bucket Count 0: 0
 ROB Critical Load Stall End Bucket Count 0: 0
 ROB Load Stall Begin Bucket Count 1: 287745
 ROB Load Stall End Bucket Count 1: 403995
 ROB Critical Load Stall Begin Bucket Count 1: 0
 ROB Critical Load Stall End Bucket Count 1: 0
 ROB Load Stall Begin Bucket Count 2: 86231
 ROB Load Stall End Bucket Count 2: 103696
 ROB Critical Load Stall Begin Bucket Count 2: 0
 ROB Critical Load Stall End Bucket Count 2: 0
 ROB Load Stall Begin Bucket Count 3: 52605
 ROB Load Stall End Bucket Count 3: 60097
 ROB Critical Load Stall Begin Bucket Count 3: 0
 ROB Critical Load Stall End Bucket Count 3: 0
 ROB Load Stall Begin Bucket Count 4: 41644
 ROB Load Stall End Bucket Count 4: 42211
 ROB Critical Load Stall Begin Bucket Count 4: 0
 ROB Critical Load Stall End Bucket Count 4: 0
 ROB Load Stall Begin Bucket Count 5: 55391
 ROB Load Stall End Bucket Count 5: 48701
 ROB Critical Load Stall Begin Bucket Count 5: 0
 ROB Critical Load Stall End Bucket Count 5: 0
 ROB Load Stall Begin Bucket Count 6: 198783
 ROB Load Stall End Bucket Count 6: 224550
 ROB Critical Load Stall Begin Bucket Count 6: 0
 ROB Critical Load Stall End Bucket Count 6: 0
PIST Tag Read Accesses: 787146
PIST Read Accesses: 393573
PIST Tag Write Accesses: 787146
PIST Write Accesses: 393573
Criticality detector called times: 5402871
Max global_stall_cycles_count: 1555165
Threshold Modified: 0 times, factor: 0
Sturdy critical IP cache stats: 
 Unused entries: 0
CIC Tag Read Accesses: 0
CIC Read Accesses: 0
CIC Tag Write Accesses: 0
CIC Write Accesses: 0
Wobbly critical IP cache stats: 
 Unused entries: 12
CIC Tag Read Accesses: 196220612
CIC Read Accesses: 0
CIC Tag Write Accesses: 7194
CIC Write Accesses: 0
ITLB TOTAL     ACCESS:   17801233  HIT:   17800148  MISS:       1085  HIT %:    99.9939  MISS %: 0.00609508   MPKI: 0.01085
ITLB LOAD TRANSLATION ACCESS:   17801233  HIT:   17800148  MISS:       1085  HIT %:    99.9939  MISS %: 0.00609508   MPKI: 0.01085
ITLB PREFETCH  REQUESTED:          0  ISSUED:          0  USEFUL:          0  USELESS:          0
ITLB USEFUL LOAD PREFETCHES:          0 PREFETCH ISSUED TO LOWER LEVEL:          0  ACCURACY: -nan
ITLB TIMELY PREFETCHES:          0 LATE PREFETCHES: 0 DROPPED PREFETCHES: 0
ITLB PREFETCHES SAME FILL-ORIGIN LEVEL: 0 DIFFERENT FILL-ORIGIN LEVEL: 0
ITLB AVERAGE MISS LATENCY: 20.9585 cycles
ITLB RQ	ACCESS:   19967334	FORWARD:          0	MERGED:    2165796	TO_CACHE:   17801538

DTLB TOTAL     ACCESS:   17903440  HIT:   17866836  MISS:      36604  HIT %:    99.7955  MISS %:   0.204452   MPKI: 0.36604
DTLB LOAD TRANSLATION ACCESS:   17903440  HIT:   17866836  MISS:      36604  HIT %:    99.7955  MISS %:   0.204452   MPKI: 0.36604
DTLB PREFETCH  REQUESTED:          0  ISSUED:          0  USEFUL:          0  USELESS:          0
DTLB USEFUL LOAD PREFETCHES:          0 PREFETCH ISSUED TO LOWER LEVEL:          0  ACCURACY: -nan
DTLB TIMELY PREFETCHES:          0 LATE PREFETCHES: 0 DROPPED PREFETCHES: 0
DTLB PREFETCHES SAME FILL-ORIGIN LEVEL: 0 DIFFERENT FILL-ORIGIN LEVEL: 0
DTLB AVERAGE MISS LATENCY: 31.4358 cycles
DTLB RQ	ACCESS:   19421967	FORWARD:          0	MERGED:    1500841	TO_CACHE:   17921126

STLB TOTAL     ACCESS:      37689  HIT:      32826  MISS:       4863  HIT %:     87.097  MISS %:     12.903   MPKI: 0.04863
STLB LOAD TRANSLATION ACCESS:      37689  HIT:      32826  MISS:       4863  HIT %:     87.097  MISS %:     12.903   MPKI: 0.04863
STLB PREFETCH  REQUESTED:          0  ISSUED:          0  USEFUL:          0  USELESS:          0
STLB USEFUL LOAD PREFETCHES:          0 PREFETCH ISSUED TO LOWER LEVEL:          0  ACCURACY: -nan
STLB TIMELY PREFETCHES:          0 LATE PREFETCHES: 0 DROPPED PREFETCHES: 0
STLB PREFETCHES SAME FILL-ORIGIN LEVEL: 0 DIFFERENT FILL-ORIGIN LEVEL: 0
STLB AVERAGE MISS LATENCY: 170.523 cycles
STLB RQ	ACCESS:      37689	FORWARD:          0	MERGED:          0	TO_CACHE:      37689

STLB Hit, L1D data hit: 0
STLB Hit, L2C data hit: 0
STLB Hit, LLC data hit: 0
STLB Hit, LLC data miss: 0
STLB STLB hints to L2: 0
L1D TOTAL     ACCESS:   18071154  HIT:   16824367  MISS:    1246787  HIT %:    93.1007  MISS %:    6.89932   MPKI: 12.4679
L1D LOAD      ACCESS:   12946487  HIT:   12215884  MISS:     730603  HIT %:    94.3567  MISS %:    5.64325   MPKI: 7.30603
L1D RFO       ACCESS:    5124667  HIT:    4608483  MISS:     516184  HIT %:    89.9275  MISS %:    10.0725   MPKI: 5.16184
L1D PREFETCH  REQUESTED:          0  ISSUED:          0  USEFUL:          0  USELESS:          0
L1D USEFUL LOAD PREFETCHES:          0 PREFETCH ISSUED TO LOWER LEVEL:          0  ACCURACY: -nan
L1D TIMELY PREFETCHES:          0 LATE PREFETCHES: 0 DROPPED PREFETCHES: 0
L1D PREFETCHES SAME FILL-ORIGIN LEVEL: 0 DIFFERENT FILL-ORIGIN LEVEL: 0
L1D AVERAGE MISS LATENCY: 68.8977 cycles
L1D RQ	ACCESS:   19389509	FORWARD:          0	MERGED:    6127993	TO_CACHE:   13229660
L1D WQ	ACCESS:    6299467	FORWARD:      31856	MERGED:     107160	TO_CACHE:    6192307

L1D UNIQUE REGIONS ACCESSED: 0
L1D REGIONS CONFLICTS: 0
L1D Cross Page Prefetch Requests: 0
L1D Same Page Prefetch Requests: 0
L1D ROI Sum of L1D PQ occupancy: 0
L1D PREFETCHES PUSHED FROM L2C: 0
L1I TOTAL     ACCESS:   19956891  HIT:   19930913  MISS:      25978  HIT %:    99.8698  MISS %:   0.130171   MPKI: 0.25978
L1I LOAD      ACCESS:   19956891  HIT:   19930913  MISS:      25978  HIT %:    99.8698  MISS %:   0.130171   MPKI: 0.25978
L1I PREFETCH  REQUESTED:          0  ISSUED:          0  USEFUL:          0  USELESS:          0
L1I USEFUL LOAD PREFETCHES:          0 PREFETCH ISSUED TO LOWER LEVEL:          0  ACCURACY: -nan
L1I TIMELY PREFETCHES:          0 LATE PREFETCHES: 0 DROPPED PREFETCHES: 0
L1I PREFETCHES SAME FILL-ORIGIN LEVEL: 0 DIFFERENT FILL-ORIGIN LEVEL: 0
L1I AVERAGE MISS LATENCY: 56.4784 cycles
L1I RQ	ACCESS:   30890159	FORWARD:          0	MERGED:   10922825	TO_CACHE:   19967334

BTB TOTAL     ACCESS:   15375964  HIT:   15356416  MISS:      19548  HIT %:    99.8729  MISS %:   0.127133   MPKI: 0.19548
BTB BRANCH_DIRECT_JUMP	ACCESS:     363450  HIT:     363248  MISS:        202
BTB BRANCH_INDIRECT	ACCESS:       3741  HIT:       3479  MISS:        262
BTB BRANCH_CONDITIONAL	ACCESS:   14789507  HIT:   14787581  MISS:       1926
BTB BRANCH_DIRECT_CALL	ACCESS:     109633  HIT:     108926  MISS:        707
BTB BRANCH_INDIRECT_CALL	ACCESS:          0  HIT:          0  MISS:          0
BTB BRANCH_RETURN	ACCESS:     109633  HIT:      93182  MISS:      16451
BTB BRANCH_OTHER ACCESS:          0  HIT:          0  MISS:          0

L2C TOTAL     ACCESS:    2144758  HIT:    1572940  MISS:     571818  HIT %:    73.3388  MISS %:    26.6612   MPKI: 5.71818
L2C LOAD      ACCESS:     756552  HIT:     503192  MISS:     253360  HIT %:    66.5112  MISS %:    33.4888   MPKI: 2.5336
L2C DATA LOAD MPKI: 2.28168
L2C INSTRUCTION LOAD MPKI: 0.25192
L2C RFO       ACCESS:     516159  HIT:     298183  MISS:     217976  HIT %:    57.7696  MISS %:    42.2304   MPKI: 2.17976
L2C PREFETCH  ACCESS:     239260  HIT:     146974  MISS:      92286  HIT %:    61.4286  MISS %:    38.5714   MPKI: 0.92286
L2C DATA PREFETCH MPKI: 0.92286
L2C INSTRUCTION PREFETCH MPKI: 0
L2C WRITEBACK ACCESS:     627565  HIT:     621158  MISS:       6407  HIT %:    98.9791  MISS %:    1.02093   MPKI: 0.06407
L2C LOAD TRANSLATION ACCESS:       5222  HIT:       3433  MISS:       1789  HIT %:    65.7411  MISS %:    34.2589   MPKI: 0.01789
L2C PREFETCH  REQUESTED:    1436077  ISSUED:    1371145  USEFUL:      91656  USELESS:        624
L2C USEFUL LOAD PREFETCHES:      91656 PREFETCH ISSUED TO LOWER LEVEL:    1166603  ACCURACY: 7.85666
L2C TIMELY PREFETCHES:      91656 LATE PREFETCHES: 15465 DROPPED PREFETCHES: 0
L2C PREFETCHES SAME FILL-ORIGIN LEVEL: 107751 DIFFERENT FILL-ORIGIN LEVEL: 1058852
L2C AVERAGE MISS LATENCY: 125.188 cycles
L2C RQ	ACCESS:    1277987	FORWARD:          0	MERGED:          0	TO_CACHE:    1277933
L2C WQ	ACCESS:     627565	FORWARD:         54	MERGED:          0	TO_CACHE:     627565
L2C PQ	ACCESS:    1371145	FORWARD:          0	MERGED:      50066	TO_CACHE:    1321079

L2C Instructions Evicting Data 21812
L2C Translations Evicting Data 1631
L2C Data Evicting Data 514497
L2C Instructions Evicting Instructions 3255
L2C Translations Evicting Instructions 152
L2C Data Evicting Instructions 22278
L2C Instructions Evicting Translations 125
L2C Translations Evicting Translations 6
L2C Data Evicting Translations 1655
L2C Dense regions hint from L2: 0
PSCL5 TOTAL     ACCESS:       4863  HIT:       4863  MISS:          0  HIT %:        100  MISS %:          0   MPKI: 0
PSCL5 LOAD TRANSLATION ACCESS:       4863  HIT:       4863  MISS:          0  HIT %:        100  MISS %:          0   MPKI: 0
PSCL5 PREFETCH  REQUESTED:          0  ISSUED:          0  USEFUL:          0  USELESS:          0
PSCL5 USEFUL LOAD PREFETCHES:          0 PREFETCH ISSUED TO LOWER LEVEL:          0  ACCURACY: -nan
PSCL5 TIMELY PREFETCHES:          0 LATE PREFETCHES: 0 DROPPED PREFETCHES: 0
PSCL5 PREFETCHES SAME FILL-ORIGIN LEVEL: 0 DIFFERENT FILL-ORIGIN LEVEL: 0

PSCL4 TOTAL     ACCESS:       4863  HIT:       4863  MISS:          0  HIT %:        100  MISS %:          0   MPKI: 0
PSCL4 LOAD TRANSLATION ACCESS:       4863  HIT:       4863  MISS:          0  HIT %:        100  MISS %:          0   MPKI: 0
PSCL4 PREFETCH  REQUESTED:          0  ISSUED:          0  USEFUL:          0  USELESS:          0
PSCL4 USEFUL LOAD PREFETCHES:          0 PREFETCH ISSUED TO LOWER LEVEL:          0  ACCURACY: -nan
PSCL4 TIMELY PREFETCHES:          0 LATE PREFETCHES: 0 DROPPED PREFETCHES: 0
PSCL4 PREFETCHES SAME FILL-ORIGIN LEVEL: 0 DIFFERENT FILL-ORIGIN LEVEL: 0

PSCL3 TOTAL     ACCESS:       4863  HIT:       4863  MISS:          0  HIT %:        100  MISS %:          0   MPKI: 0
PSCL3 LOAD TRANSLATION ACCESS:       4863  HIT:       4863  MISS:          0  HIT %:        100  MISS %:          0   MPKI: 0
PSCL3 PREFETCH  REQUESTED:          0  ISSUED:          0  USEFUL:          0  USELESS:          0
PSCL3 USEFUL LOAD PREFETCHES:          0 PREFETCH ISSUED TO LOWER LEVEL:          0  ACCURACY: -nan
PSCL3 TIMELY PREFETCHES:          0 LATE PREFETCHES: 0 DROPPED PREFETCHES: 0
PSCL3 PREFETCHES SAME FILL-ORIGIN LEVEL: 0 DIFFERENT FILL-ORIGIN LEVEL: 0

PSCL2 TOTAL     ACCESS:       4863  HIT:       4469  MISS:        394  HIT %:     91.898  MISS %:    8.10199   MPKI: 0.00394
PSCL2 LOAD TRANSLATION ACCESS:       4863  HIT:       4469  MISS:        394  HIT %:     91.898  MISS %:    8.10199   MPKI: 0.00394
PSCL2 PREFETCH  REQUESTED:          0  ISSUED:          0  USEFUL:          0  USELESS:          0
PSCL2 USEFUL LOAD PREFETCHES:          0 PREFETCH ISSUED TO LOWER LEVEL:          0  ACCURACY: -nan
PSCL2 TIMELY PREFETCHES:          0 LATE PREFETCHES: 0 DROPPED PREFETCHES: 0
PSCL2 PREFETCHES SAME FILL-ORIGIN LEVEL: 0 DIFFERENT FILL-ORIGIN LEVEL: 0

LLC TOTAL     ACCESS:    1790750  HIT:    1393181  MISS:     397569  HIT %:    77.7987  MISS %:    22.2013   MPKI: 3.97569
LLC LOAD      ACCESS:     237895  HIT:     158667  MISS:      79228  HIT %:    66.6962  MISS %:    33.3038   MPKI: 0.79228
LLC RFO       ACCESS:     217976  HIT:      37597  MISS:     180379  HIT %:    17.2482  MISS %:    82.7518   MPKI: 1.80379
LLC PREFETCH  ACCESS:    1045561  HIT:     922546  MISS:     123015  HIT %:    88.2345  MISS %:    11.7655   MPKI: 1.23015
LLC WRITEBACK ACCESS:     287529  HIT:     273444  MISS:      14085  HIT %:    95.1014  MISS %:    4.89864   MPKI: 0.14085
LLC LOAD TRANSLATION ACCESS:       1789  HIT:        927  MISS:        862  HIT %:    51.8167  MISS %:    48.1833   MPKI: 0.00862
LLC PREFETCH  REQUESTED:          0  ISSUED:          0  USEFUL:      49539  USELESS:      65509
LLC USEFUL LOAD PREFETCHES:      49539 PREFETCH ISSUED TO LOWER LEVEL:     125619  ACCURACY: 39.4359
LLC TIMELY PREFETCHES:      49539 LATE PREFETCHES: 2604 DROPPED PREFETCHES: 0
LLC PREFETCHES SAME FILL-ORIGIN LEVEL: 122523 DIFFERENT FILL-ORIGIN LEVEL: 0
LLC AVERAGE MISS LATENCY: 188.158 cycles
LLC RQ	ACCESS:     457660	FORWARD:          0	MERGED:          0	TO_CACHE:     457660
LLC WQ	ACCESS:     287529	FORWARD:          0	MERGED:          0	TO_CACHE:     287529
LLC PQ	ACCESS:    1166603	FORWARD:          0	MERGED:      26474	TO_CACHE:    1140129

LLC Dense regions hint to LLC: 0

RAW hits: 142869
Loads Generated: 19532379
Loads sent to L1D: 19389509
Stores Generated: 6299455
Stores sent to L1D: 6299467
Major fault: 0 Minor fault: 7689
Allocated PAGES: 7689
 All Calls: 1472206
 Critical Calls: 219922
------------------
Depth Distribution
------------------
depth 0: 0
depth 1: 205223
depth 2: 190575
depth 3: 177419
depth 4: 166290
depth 5: 153702
depth 6: 133866
depth 7: 111599
depth 8: 86896
depth 9: 59855
depth 10: 40821
depth 11: 25279
depth 12: 13484
depth 13: 5189
depth 14: 481
depth 15: 466
depth 16: 0
depth 17: 0
depth 18: 0
depth 19: 0
depth 20: 0
depth 21: 0
depth 22: 0
depth 23: 0
depth 24: 0
depth 25: 0
depth 26: 0
depth 27: 0
depth 28: 0
depth 29: 0
Total: 1371145
-----------------------------
-----------------------------
	Captured at Filter
-----------------------------
depth 0: 0
depth 1: 8043
depth 2: 7568
depth 3: 7223
depth 4: 6625
depth 5: 6068
depth 6: 4712
depth 7: 3680
depth 8: 2879
depth 9: 2034
depth 10: 1481
depth 11: 996
depth 12: 529
depth 13: 313
depth 14: 29
depth 15: 31
depth 16: 0
depth 17: 0
depth 18: 0
depth 19: 0
depth 20: 0
depth 21: 0
depth 22: 0
depth 23: 0
depth 24: 0
depth 25: 0
depth 26: 0
depth 27: 0
depth 28: 0
depth 29: 0
-----------------------------
-----------------------------
		Lost at Page
-----------------------------
depth 0: 0
depth 1: 5862
depth 2: 7447
depth 3: 9653
depth 4: 11741
depth 5: 13827
depth 6: 14915
depth 7: 15030
depth 8: 14089
depth 9: 11606
depth 10: 9164
depth 11: 6540
depth 12: 3806
depth 13: 1683
depth 14: 157
depth 15: 168
depth 16: 0
depth 17: 0
depth 18: 0
depth 19: 0
depth 20: 0
depth 21: 0
depth 22: 0
depth 23: 0
depth 24: 0
depth 25: 0
depth 26: 0
depth 27: 0
depth 28: 0
depth 29: 0
-----------------------------
-----------------------------
	Lost due to PQ Size
-----------------------------
64932
-----------------------------
ST read accesses: 216976
ST write accesses: 2946
PT read accesses: 9149338
PT write accesses: 319320
FILTER read accesses: 2279697
FILTER write accesses: 817941
GHR read accesses: 727773
GHR write accesses: 125688
GHR counter read accesses: 7721120
GHR counter write accesses: 469787
ST tag read accesses: 85739666
ST tag write accesses: 1512495

DRAM Statistics
 CHANNEL 0
 RQ ROW_BUFFER_HIT:     118887  ROW_BUFFER_MISS:     264560
 DBUS_CONGESTED:        870
 WQ ROW_BUFFER_HIT:      49848  ROW_BUFFER_MISS:     167219  FULL:        102

 AVG_CONGESTED_CYCLE: 5
 All warmup complete: 2
Channel 0 Bank busy for read cycles: 0
Channel 0 Bank busy for write cycles: 0
Channel 0
Rank 0
0banks busy for read cycles: 101445751
0banks busy for write cycles: 16680
1banks busy for read cycles: 7444789
1banks busy for write cycles: 2027727
2banks busy for read cycles: 5583080
2banks busy for write cycles: 1095831
3banks busy for read cycles: 2278114
3banks busy for write cycles: 692367
4banks busy for read cycles: 1420322
4banks busy for write cycles: 511150
5banks busy for read cycles: 807184
5banks busy for write cycles: 418381
6banks busy for read cycles: 552698
6banks busy for write cycles: 403786
7banks busy for read cycles: 349186
7banks busy for write cycles: 562377
8banks busy for read cycles: 645880
8banks busy for write cycles: 3358256

CPU 0 Branch Prediction Accuracy: 99.0212% MPKI: 1.53793 Average ROB Occupancy at Mispredict: 22.6104
Branch types
NOT_BRANCH: 84286909 84.2869%
BRANCH_DIRECT_JUMP: 363450 0.36345%
BRANCH_INDIRECT: 3741 0.003741%
BRANCH_CONDITIONAL: 15126375 15.1264%
BRANCH_DIRECT_CALL: 109633 0.109633%
BRANCH_INDIRECT_CALL: 0 0%
BRANCH_RETURN: 109633 0.109633%
BRANCH_OTHER: 0 0%

DRAM PAGES: 1048576
Allocated PAGES: 7689
