Initialize SIGNATURE TABLE
ST_SET: 1
ST_WAY: 16
ST_TAG_BIT: 16
ST_TAG_MASK: ffff

Initialize PATTERN TABLE
PT_SET: 16
PT_WAY: 4
SIG_DELTA_BIT: 7
C_SIG_BIT: 4
C_DELTA_BIT: 4

Initialize PREFETCH FILTER
FILTER_SET: 1024

Initialize PERCEPTRON
PERC_ENTRIES: 4096
PERC_FEATURES: 9

*** ChampSim Multicore Out-of-Order Simulator ***

Warmup Instructions: 50000000
Simulation Instructions: 100000000
Number of CPUs: 1
LLC sets: 2048
LLC ways: 16
Off-chip DRAM Size: 4096 MB Channels: 1 Width: 64-bit Data Rate: 6400 MT/s
CPU 0 runs ../SPEC2017//628.pop2_s-17B.champsimtrace.xz
.xz
BTB has LRU replacement policy
ITLB has LRU replacement policy
DTLB has LRU replacement policy
STLB has LRU replacement policy
L1I has LRU replacement policy
L1D has LRU replacement policy
Initialize SRRIP state for L2C
Initialize DRRIP state for LLC
Heartbeat CPU 0 instructions: 10000003 cycles: 3002587 heartbeat IPC: 3.33046 cumulative IPC: 3.33046 (Simulation time: 0 hr 4 min 48 sec) 
Heartbeat CPU 0 instructions: 20000001 cycles: 6004774 heartbeat IPC: 3.3309 cumulative IPC: 3.33068 (Simulation time: 0 hr 9 min 22 sec) 
Heartbeat CPU 0 instructions: 30000003 cycles: 9006844 heartbeat IPC: 3.33104 cumulative IPC: 3.3308 (Simulation time: 0 hr 13 min 21 sec) 
Heartbeat CPU 0 instructions: 40000003 cycles: 12008546 heartbeat IPC: 3.33144 cumulative IPC: 3.33096 (Simulation time: 0 hr 17 min 6 sec) 
Heartbeat CPU 0 instructions: 50000002 cycles: 15012229 heartbeat IPC: 3.32925 cumulative IPC: 3.33062 (Simulation time: 0 hr 20 min 35 sec) 

Warmup complete CPU 0 instructions: 50000002 cycles: 15012229 (Simulation time: 0 hr 20 min 35 sec) 

Heartbeat CPU 0 instructions: 60000000 cycles: 27071369 heartbeat IPC: 0.829246 cumulative IPC: 0.829246 (Simulation time: 0 hr 25 min 31 sec) 
Heartbeat CPU 0 instructions: 70000002 cycles: 39017555 heartbeat IPC: 0.837087 cumulative IPC: 0.833148 (Simulation time: 0 hr 30 min 11 sec) 
Heartbeat CPU 0 instructions: 80000000 cycles: 50718030 heartbeat IPC: 0.854666 cumulative IPC: 0.8402 (Simulation time: 0 hr 34 min 20 sec) 
Heartbeat CPU 0 instructions: 90000003 cycles: 64385451 heartbeat IPC: 0.731667 cumulative IPC: 0.810156 (Simulation time: 0 hr 38 min 18 sec) 
Heartbeat CPU 0 instructions: 100000001 cycles: 76018798 heartbeat IPC: 0.859598 cumulative IPC: 0.819584 (Simulation time: 0 hr 42 min 14 sec) 
Heartbeat CPU 0 instructions: 110000000 cycles: 88367418 heartbeat IPC: 0.809807 cumulative IPC: 0.817938 (Simulation time: 0 hr 45 min 55 sec) 
Heartbeat CPU 0 instructions: 120000000 cycles: 101369957 heartbeat IPC: 0.769081 cumulative IPC: 0.810582 (Simulation time: 0 hr 49 min 13 sec) 
Heartbeat CPU 0 instructions: 130000002 cycles: 114809780 heartbeat IPC: 0.744058 cumulative IPC: 0.801623 (Simulation time: 0 hr 52 min 27 sec) 
Heartbeat CPU 0 instructions: 140000002 cycles: 129321146 heartbeat IPC: 0.689115 cumulative IPC: 0.78734 (Simulation time: 0 hr 55 min 24 sec) 
Heartbeat CPU 0 instructions: 150000000 cycles: 142525511 heartbeat IPC: 0.757325 cumulative IPC: 0.784232 (Simulation time: 0 hr 57 min 36 sec) 
Finished CPU 0 instructions: 100000000 cycles: 127513283 cumulative IPC: 0.784232 (Simulation time: 0 hr 57 min 36 sec) 

ChampSim completed all CPUs

Region of Interest Statistics

CPU 0 cumulative IPC: 0.784232 instructions: 100000000 cycles: 127513283

CPU 0 Average Load ROB stall cycles: 2.33949e+07
CPU 0 Fraction of times ROB stalled by Loads: 29.3479
CPU 0 Percentage of Load stall cycles in Total stall cycles: 5.06404e+08
Issued all: 63134971
Issued LT all: 49699915
rob_not_full_when_issued_lt_all: 45977200
Issued LT one: 42479696
rob_not_full_when_issued_lt_one: 39168153
FVP critical_dynamic_instances_0: 15397744
FVP unique_critical_ips_0: 3898
 Total stall cycles: 102811431
 Total load stall cycles: 520641384348707
Unique Load IPs: 7991
CPU 0 NUM of IPS identified critical: 0
CPU 0 Num of Load IPs stalling ROB: 0
Threshold modification factor: 0
Trouble in retire width: -nan
MaC = Marked as critical.
lt_50_percent_before_Mac: 0
gt_90_percent_before_Mac: 0
gt_75_percent_before_Mac: 0
gt_50_percent_before_Mac: 0
stall_proportion_bin_same_before_after: 0
stall_proportion_bin_lower_before_after: 0
stall_proportion_bin_upper_before_after: 0
average_stall_proportion_before: -nan
average_stall_proportion_after: -nan
Critical IP stalls, total frequency: 0
Non-critical IP stalls, total frequency: 0
Total Freq all stalling IPs: 0
Critical_IP_Detector_Accuracy_70: 0.000256542
Critical_IP_Detector_Accuracy_80: 0.000256542
Critical_IP_Detector_Accuracy_90: 0.000256542
Critical_IP_Detector_Coverage_70: 1
Critical_IP_Detector_Coverage_80: 1
Critical_IP_Detector_Coverage_90: 1
stat_90_percent_critical_ip_stalls_freq: 112752
stat_90_percent_non_critical_ip_stalls_freq: 18446744073709438864
AVERAGE_ROB_Occupancy_90_Percent_Critical_IP_Stalls: 327.67
AVERAGE_ROB_Occupancy_90_Percent_Non_Critical_IP_Stalls: 1.117e-11
Critical_IP_ROB_Stalls_Bucket_0: 0
Non-critical_IP_ROB_Stalls_Bucket_0: 5738102
Critical_IP_ROB_Stalls_Bucket_1: 0
Non-critical_IP_ROB_Stalls_Bucket_1: 402315
Critical_IP_ROB_Stalls_Bucket_2: 0
Non-critical_IP_ROB_Stalls_Bucket_2: 97368
Critical_IP_ROB_Stalls_Bucket_3: 0
Non-critical_IP_ROB_Stalls_Bucket_3: 50033
Critical_IP_ROB_Stalls_Bucket_4: 0
Non-critical_IP_ROB_Stalls_Bucket_4: 31768
Critical_IP_ROB_Stalls_Bucket_5: 0
Non-critical_IP_ROB_Stalls_Bucket_5: 30181
Critical_IP_ROB_Stalls_Bucket_6: 0
Non-critical_IP_ROB_Stalls_Bucket_6: 181451
0 => IPs accounting for >50 percent of stalls, 1 => 55, 2 => 60, 3 => 65 and so on till 90.
percent50: inf num IPs:  1
percent55: inf num IPs: 1
percent60: inf num IPs: 1
percent65: inf num IPs: 1
percent70: inf num IPs: 1
percent75: inf num IPs: 1
percent80: inf num IPs: 1
percent85: inf num IPs: 1
percent90: inf num IPs: 1
Critical_ROB_Stalls_Percent_0_Bucket_0: 513
Non-critical_ROB_Stalls_Percent_0_Bucket_0: 5737589
Critical_ROB_Stalls_Percent_0_Bucket_1: 1742
Non-critical_ROB_Stalls_Percent_0_Bucket_1: 400573
Critical_ROB_Stalls_Percent_0_Bucket_2: 2869
Non-critical_ROB_Stalls_Percent_0_Bucket_2: 94499
Critical_ROB_Stalls_Percent_0_Bucket_3: 3098
Non-critical_ROB_Stalls_Percent_0_Bucket_3: 46935
Critical_ROB_Stalls_Percent_0_Bucket_4: 3811
Non-critical_ROB_Stalls_Percent_0_Bucket_4: 27957
Critical_ROB_Stalls_Percent_0_Bucket_5: 4075
Non-critical_ROB_Stalls_Percent_0_Bucket_5: 26106
Critical_ROB_Stalls_Percent_0_Bucket_6: 96644
Non-critical_ROB_Stalls_Percent_0_Bucket_6: 84807
Critical_ROB_Stalls_Percent_1_Bucket_0: 513
Non-critical_ROB_Stalls_Percent_1_Bucket_0: 5737589
Critical_ROB_Stalls_Percent_1_Bucket_1: 1742
Non-critical_ROB_Stalls_Percent_1_Bucket_1: 400573
Critical_ROB_Stalls_Percent_1_Bucket_2: 2869
Non-critical_ROB_Stalls_Percent_1_Bucket_2: 94499
Critical_ROB_Stalls_Percent_1_Bucket_3: 3098
Non-critical_ROB_Stalls_Percent_1_Bucket_3: 46935
Critical_ROB_Stalls_Percent_1_Bucket_4: 3811
Non-critical_ROB_Stalls_Percent_1_Bucket_4: 27957
Critical_ROB_Stalls_Percent_1_Bucket_5: 4075
Non-critical_ROB_Stalls_Percent_1_Bucket_5: 26106
Critical_ROB_Stalls_Percent_1_Bucket_6: 96644
Non-critical_ROB_Stalls_Percent_1_Bucket_6: 84807
Critical_ROB_Stalls_Percent_2_Bucket_0: 513
Non-critical_ROB_Stalls_Percent_2_Bucket_0: 5737589
Critical_ROB_Stalls_Percent_2_Bucket_1: 1742
Non-critical_ROB_Stalls_Percent_2_Bucket_1: 400573
Critical_ROB_Stalls_Percent_2_Bucket_2: 2869
Non-critical_ROB_Stalls_Percent_2_Bucket_2: 94499
Critical_ROB_Stalls_Percent_2_Bucket_3: 3098
Non-critical_ROB_Stalls_Percent_2_Bucket_3: 46935
Critical_ROB_Stalls_Percent_2_Bucket_4: 3811
Non-critical_ROB_Stalls_Percent_2_Bucket_4: 27957
Critical_ROB_Stalls_Percent_2_Bucket_5: 4075
Non-critical_ROB_Stalls_Percent_2_Bucket_5: 26106
Critical_ROB_Stalls_Percent_2_Bucket_6: 96644
Non-critical_ROB_Stalls_Percent_2_Bucket_6: 84807
Critical_ROB_Stalls_Percent_3_Bucket_0: 513
Non-critical_ROB_Stalls_Percent_3_Bucket_0: 5737589
Critical_ROB_Stalls_Percent_3_Bucket_1: 1742
Non-critical_ROB_Stalls_Percent_3_Bucket_1: 400573
Critical_ROB_Stalls_Percent_3_Bucket_2: 2869
Non-critical_ROB_Stalls_Percent_3_Bucket_2: 94499
Critical_ROB_Stalls_Percent_3_Bucket_3: 3098
Non-critical_ROB_Stalls_Percent_3_Bucket_3: 46935
Critical_ROB_Stalls_Percent_3_Bucket_4: 3811
Non-critical_ROB_Stalls_Percent_3_Bucket_4: 27957
Critical_ROB_Stalls_Percent_3_Bucket_5: 4075
Non-critical_ROB_Stalls_Percent_3_Bucket_5: 26106
Critical_ROB_Stalls_Percent_3_Bucket_6: 96644
Non-critical_ROB_Stalls_Percent_3_Bucket_6: 84807
Critical_ROB_Stalls_Percent_4_Bucket_0: 513
Non-critical_ROB_Stalls_Percent_4_Bucket_0: 5737589
Critical_ROB_Stalls_Percent_4_Bucket_1: 1742
Non-critical_ROB_Stalls_Percent_4_Bucket_1: 400573
Critical_ROB_Stalls_Percent_4_Bucket_2: 2869
Non-critical_ROB_Stalls_Percent_4_Bucket_2: 94499
Critical_ROB_Stalls_Percent_4_Bucket_3: 3098
Non-critical_ROB_Stalls_Percent_4_Bucket_3: 46935
Critical_ROB_Stalls_Percent_4_Bucket_4: 3811
Non-critical_ROB_Stalls_Percent_4_Bucket_4: 27957
Critical_ROB_Stalls_Percent_4_Bucket_5: 4075
Non-critical_ROB_Stalls_Percent_4_Bucket_5: 26106
Critical_ROB_Stalls_Percent_4_Bucket_6: 96644
Non-critical_ROB_Stalls_Percent_4_Bucket_6: 84807
Critical_ROB_Stalls_Percent_5_Bucket_0: 513
Non-critical_ROB_Stalls_Percent_5_Bucket_0: 5737589
Critical_ROB_Stalls_Percent_5_Bucket_1: 1742
Non-critical_ROB_Stalls_Percent_5_Bucket_1: 400573
Critical_ROB_Stalls_Percent_5_Bucket_2: 2869
Non-critical_ROB_Stalls_Percent_5_Bucket_2: 94499
Critical_ROB_Stalls_Percent_5_Bucket_3: 3098
Non-critical_ROB_Stalls_Percent_5_Bucket_3: 46935
Critical_ROB_Stalls_Percent_5_Bucket_4: 3811
Non-critical_ROB_Stalls_Percent_5_Bucket_4: 27957
Critical_ROB_Stalls_Percent_5_Bucket_5: 4075
Non-critical_ROB_Stalls_Percent_5_Bucket_5: 26106
Critical_ROB_Stalls_Percent_5_Bucket_6: 96644
Non-critical_ROB_Stalls_Percent_5_Bucket_6: 84807
Critical_ROB_Stalls_Percent_6_Bucket_0: 513
Non-critical_ROB_Stalls_Percent_6_Bucket_0: 5737589
Critical_ROB_Stalls_Percent_6_Bucket_1: 1742
Non-critical_ROB_Stalls_Percent_6_Bucket_1: 400573
Critical_ROB_Stalls_Percent_6_Bucket_2: 2869
Non-critical_ROB_Stalls_Percent_6_Bucket_2: 94499
Critical_ROB_Stalls_Percent_6_Bucket_3: 3098
Non-critical_ROB_Stalls_Percent_6_Bucket_3: 46935
Critical_ROB_Stalls_Percent_6_Bucket_4: 3811
Non-critical_ROB_Stalls_Percent_6_Bucket_4: 27957
Critical_ROB_Stalls_Percent_6_Bucket_5: 4075
Non-critical_ROB_Stalls_Percent_6_Bucket_5: 26106
Critical_ROB_Stalls_Percent_6_Bucket_6: 96644
Non-critical_ROB_Stalls_Percent_6_Bucket_6: 84807
Critical_ROB_Stalls_Percent_7_Bucket_0: 513
Non-critical_ROB_Stalls_Percent_7_Bucket_0: 5737589
Critical_ROB_Stalls_Percent_7_Bucket_1: 1742
Non-critical_ROB_Stalls_Percent_7_Bucket_1: 400573
Critical_ROB_Stalls_Percent_7_Bucket_2: 2869
Non-critical_ROB_Stalls_Percent_7_Bucket_2: 94499
Critical_ROB_Stalls_Percent_7_Bucket_3: 3098
Non-critical_ROB_Stalls_Percent_7_Bucket_3: 46935
Critical_ROB_Stalls_Percent_7_Bucket_4: 3811
Non-critical_ROB_Stalls_Percent_7_Bucket_4: 27957
Critical_ROB_Stalls_Percent_7_Bucket_5: 4075
Non-critical_ROB_Stalls_Percent_7_Bucket_5: 26106
Critical_ROB_Stalls_Percent_7_Bucket_6: 96644
Non-critical_ROB_Stalls_Percent_7_Bucket_6: 84807
Critical_ROB_Stalls_Percent_8_Bucket_0: 513
Non-critical_ROB_Stalls_Percent_8_Bucket_0: 5737589
Critical_ROB_Stalls_Percent_8_Bucket_1: 1742
Non-critical_ROB_Stalls_Percent_8_Bucket_1: 400573
Critical_ROB_Stalls_Percent_8_Bucket_2: 2869
Non-critical_ROB_Stalls_Percent_8_Bucket_2: 94499
Critical_ROB_Stalls_Percent_8_Bucket_3: 3098
Non-critical_ROB_Stalls_Percent_8_Bucket_3: 46935
Critical_ROB_Stalls_Percent_8_Bucket_4: 3811
Non-critical_ROB_Stalls_Percent_8_Bucket_4: 27957
Critical_ROB_Stalls_Percent_8_Bucket_5: 4075
Non-critical_ROB_Stalls_Percent_8_Bucket_5: 26106
Critical_ROB_Stalls_Percent_8_Bucket_6: 96644
Non-critical_ROB_Stalls_Percent_8_Bucket_6: 84807
Average ROB occupancy Load Stall Begin: 31.501
Average ROB occupancy Load Stall End: 37.2051
Min ROB occupancy Load Stall Begin: 1
Max ROB occupancy Load Stall Begin: 352
Min ROB occupancy Load Stall End: 1
Max ROB occupancy Load Stall End: 352
Average ROB occupancy Critical Load Stall Begin: -nan
Average ROB occupancy Critical Load Stall End: -nan
Min ROB occupancy Critical Load Stall Begin: 400
Max ROB occupancy Critical Load Stall Begin: 0
Min ROB occupancy Critical Load Stall End: 400
Max ROB occupancy Critical Load Stall End: 0
 ROB Load Stall Begin Bucket Count 0: 5892649
 ROB Load Stall End Bucket Count 0: 5738102
 ROB Critical Load Stall Begin Bucket Count 0: 0
 ROB Critical Load Stall End Bucket Count 0: 0
 ROB Load Stall Begin Bucket Count 1: 286591
 ROB Load Stall End Bucket Count 1: 402315
 ROB Critical Load Stall Begin Bucket Count 1: 0
 ROB Critical Load Stall End Bucket Count 1: 0
 ROB Load Stall Begin Bucket Count 2: 78969
 ROB Load Stall End Bucket Count 2: 97368
 ROB Critical Load Stall Begin Bucket Count 2: 0
 ROB Critical Load Stall End Bucket Count 2: 0
 ROB Load Stall Begin Bucket Count 3: 42840
 ROB Load Stall End Bucket Count 3: 50033
 ROB Critical Load Stall Begin Bucket Count 3: 0
 ROB Critical Load Stall End Bucket Count 3: 0
 ROB Load Stall Begin Bucket Count 4: 28504
 ROB Load Stall End Bucket Count 4: 31768
 ROB Critical Load Stall Begin Bucket Count 4: 0
 ROB Critical Load Stall End Bucket Count 4: 0
 ROB Load Stall Begin Bucket Count 5: 31007
 ROB Load Stall End Bucket Count 5: 30181
 ROB Critical Load Stall Begin Bucket Count 5: 0
 ROB Critical Load Stall End Bucket Count 5: 0
 ROB Load Stall Begin Bucket Count 6: 170658
 ROB Load Stall End Bucket Count 6: 181451
 ROB Critical Load Stall Begin Bucket Count 6: 0
 ROB Critical Load Stall End Bucket Count 6: 0
PIST Tag Read Accesses: 0
PIST Read Accesses: 0
PIST Tag Write Accesses: 0
PIST Write Accesses: 0
Criticality detector called times: 0
Max global_stall_cycles_count: 0
Threshold Modified: 0 times, factor: 0
ITLB TOTAL     ACCESS:   17773018  HIT:   17771933  MISS:       1085  HIT %:    99.9939  MISS %: 0.00610476   MPKI: 0.01085
ITLB LOAD TRANSLATION ACCESS:   17773018  HIT:   17771933  MISS:       1085  HIT %:    99.9939  MISS %: 0.00610476   MPKI: 0.01085
ITLB PREFETCH  REQUESTED:          0  ISSUED:          0  USEFUL:          0  USELESS:          0
ITLB USEFUL LOAD PREFETCHES:          0 PREFETCH ISSUED TO LOWER LEVEL:          0  ACCURACY: -nan
ITLB TIMELY PREFETCHES:          0 LATE PREFETCHES: 0 DROPPED PREFETCHES: 0
ITLB PREFETCHES SAME FILL-ORIGIN LEVEL: 0 DIFFERENT FILL-ORIGIN LEVEL: 0
ITLB AVERAGE MISS LATENCY: 20.4055 cycles
ITLB RQ	ACCESS:   19939200	FORWARD:          0	MERGED:    2165877	TO_CACHE:   17773323

DTLB TOTAL     ACCESS:   18170251  HIT:   18133644  MISS:      36607  HIT %:    99.7985  MISS %:   0.201467   MPKI: 0.36607
DTLB LOAD TRANSLATION ACCESS:   18170251  HIT:   18133644  MISS:      36607  HIT %:    99.7985  MISS %:   0.201467   MPKI: 0.36607
DTLB PREFETCH  REQUESTED:          0  ISSUED:          0  USEFUL:          0  USELESS:          0
DTLB USEFUL LOAD PREFETCHES:          0 PREFETCH ISSUED TO LOWER LEVEL:          0  ACCURACY: -nan
DTLB TIMELY PREFETCHES:          0 LATE PREFETCHES: 0 DROPPED PREFETCHES: 0
DTLB PREFETCHES SAME FILL-ORIGIN LEVEL: 0 DIFFERENT FILL-ORIGIN LEVEL: 0
DTLB AVERAGE MISS LATENCY: 31.4375 cycles
DTLB RQ	ACCESS:   19687477	FORWARD:          0	MERGED:    1499893	TO_CACHE:   18187584

STLB TOTAL     ACCESS:      37692  HIT:      32829  MISS:       4863  HIT %:    87.0981  MISS %:    12.9019   MPKI: 0.04863
STLB LOAD TRANSLATION ACCESS:      37692  HIT:      32829  MISS:       4863  HIT %:    87.0981  MISS %:    12.9019   MPKI: 0.04863
STLB PREFETCH  REQUESTED:          0  ISSUED:          0  USEFUL:          0  USELESS:          0
STLB USEFUL LOAD PREFETCHES:          0 PREFETCH ISSUED TO LOWER LEVEL:          0  ACCURACY: -nan
STLB TIMELY PREFETCHES:          0 LATE PREFETCHES: 0 DROPPED PREFETCHES: 0
STLB PREFETCHES SAME FILL-ORIGIN LEVEL: 0 DIFFERENT FILL-ORIGIN LEVEL: 0
STLB AVERAGE MISS LATENCY: 170.285 cycles
STLB RQ	ACCESS:      37692	FORWARD:          0	MERGED:          0	TO_CACHE:      37692

STLB Hit, L1D data hit: 0
STLB Hit, L2C data hit: 0
STLB Hit, LLC data hit: 0
STLB Hit, LLC data miss: 0
STLB STLB hints to L2: 0
L1D TOTAL     ACCESS:   18499173  HIT:   17252307  MISS:    1246866  HIT %:    93.2599  MISS %:    6.74012   MPKI: 12.4687
L1D LOAD      ACCESS:   13355040  HIT:   12624355  MISS:     730685  HIT %:    94.5288  MISS %:    5.47123   MPKI: 7.30685
L1D RFO       ACCESS:    5144133  HIT:    4627952  MISS:     516181  HIT %:    89.9656  MISS %:    10.0344   MPKI: 5.16181
L1D PREFETCH  REQUESTED:          0  ISSUED:          0  USEFUL:          0  USELESS:          0
L1D USEFUL LOAD PREFETCHES:          0 PREFETCH ISSUED TO LOWER LEVEL:          0  ACCURACY: -nan
L1D TIMELY PREFETCHES:          0 LATE PREFETCHES: 0 DROPPED PREFETCHES: 0
L1D PREFETCHES SAME FILL-ORIGIN LEVEL: 0 DIFFERENT FILL-ORIGIN LEVEL: 0
L1D AVERAGE MISS LATENCY: 57.7818 cycles
L1D RQ	ACCESS:   19392900	FORWARD:          0	MERGED:    5865707	TO_CACHE:   13494743
L1D WQ	ACCESS:    6299467	FORWARD:      32450	MERGED:     106733	TO_CACHE:    6192734

L1D UNIQUE REGIONS ACCESSED: 0
L1D REGIONS CONFLICTS: 0
L1D Cross Page Prefetch Requests: 0
L1D Same Page Prefetch Requests: 0
L1D ROI Sum of L1D PQ occupancy: 0
L1D PREFETCHES PUSHED FROM L2C: 0
L1I TOTAL     ACCESS:   19928533  HIT:   19902555  MISS:      25978  HIT %:    99.8696  MISS %:   0.130356   MPKI: 0.25978
L1I LOAD      ACCESS:   19928533  HIT:   19902555  MISS:      25978  HIT %:    99.8696  MISS %:   0.130356   MPKI: 0.25978
L1I PREFETCH  REQUESTED:          0  ISSUED:          0  USEFUL:          0  USELESS:          0
L1I USEFUL LOAD PREFETCHES:          0 PREFETCH ISSUED TO LOWER LEVEL:          0  ACCURACY: -nan
L1I TIMELY PREFETCHES:          0 LATE PREFETCHES: 0 DROPPED PREFETCHES: 0
L1I PREFETCHES SAME FILL-ORIGIN LEVEL: 0 DIFFERENT FILL-ORIGIN LEVEL: 0
L1I AVERAGE MISS LATENCY: 57.3056 cycles
L1I RQ	ACCESS:   30829741	FORWARD:          0	MERGED:   10890541	TO_CACHE:   19939200

BTB TOTAL     ACCESS:   15375964  HIT:   15356416  MISS:      19548  HIT %:    99.8729  MISS %:   0.127133   MPKI: 0.19548
BTB BRANCH_DIRECT_JUMP	ACCESS:     363450  HIT:     363248  MISS:        202
BTB BRANCH_INDIRECT	ACCESS:       3741  HIT:       3479  MISS:        262
BTB BRANCH_CONDITIONAL	ACCESS:   14789507  HIT:   14787581  MISS:       1926
BTB BRANCH_DIRECT_CALL	ACCESS:     109633  HIT:     108926  MISS:        707
BTB BRANCH_INDIRECT_CALL	ACCESS:          0  HIT:          0  MISS:          0
BTB BRANCH_RETURN	ACCESS:     109633  HIT:      93182  MISS:      16451
BTB BRANCH_OTHER ACCESS:          0  HIT:          0  MISS:          0

L2C TOTAL     ACCESS:    2540139  HIT:    1924537  MISS:     615602  HIT %:     75.765  MISS %:     24.235   MPKI: 6.15602
L2C LOAD      ACCESS:     756631  HIT:     677225  MISS:      79406  HIT %:    89.5053  MISS %:    10.4947   MPKI: 0.79406
L2C DATA LOAD MPKI: 0.5381
L2C INSTRUCTION LOAD MPKI: 0.25596
L2C RFO       ACCESS:     516149  HIT:     293077  MISS:     223072  HIT %:    56.7815  MISS %:    43.2185   MPKI: 2.23072
L2C PREFETCH  ACCESS:     634583  HIT:     331427  MISS:     303156  HIT %:    52.2275  MISS %:    47.7725   MPKI: 3.03156
L2C DATA PREFETCH MPKI: 3.03156
L2C INSTRUCTION PREFETCH MPKI: 0
L2C WRITEBACK ACCESS:     627554  HIT:     619398  MISS:       8156  HIT %:    98.7004  MISS %:    1.29965   MPKI: 0.08156
L2C LOAD TRANSLATION ACCESS:       5222  HIT:       3410  MISS:       1812  HIT %:    65.3007  MISS %:    34.6993   MPKI: 0.01812
L2C PREFETCH  REQUESTED:     652703  ISSUED:     652652  USEFUL:     267160  USELESS:      34922
L2C USEFUL LOAD PREFETCHES:     267160 PREFETCH ISSUED TO LOWER LEVEL:     316477  ACCURACY: 84.4169
L2C TIMELY PREFETCHES:     267160 LATE PREFETCHES: 9341 DROPPED PREFETCHES: 0
L2C PREFETCHES SAME FILL-ORIGIN LEVEL: 312497 DIFFERENT FILL-ORIGIN LEVEL: 3980
L2C AVERAGE MISS LATENCY: 154.635 cycles
L2C RQ	ACCESS:    1278066	FORWARD:          0	MERGED:          0	TO_CACHE:    1278002
L2C WQ	ACCESS:     627554	FORWARD:         83	MERGED:          0	TO_CACHE:     627554
L2C PQ	ACCESS:     652652	FORWARD:          0	MERGED:        810	TO_CACHE:     651823

L2C Instructions Evicting Data 22726
L2C Translations Evicting Data 1685
L2C Data Evicting Data 555184
L2C Instructions Evicting Instructions 2762
L2C Translations Evicting Instructions 118
L2C Data Evicting Instructions 23182
L2C Instructions Evicting Translations 108
L2C Translations Evicting Translations 9
L2C Data Evicting Translations 1672
L2C Dense regions hint from L2: 0
PSCL5 TOTAL     ACCESS:       4863  HIT:       4863  MISS:          0  HIT %:        100  MISS %:          0   MPKI: 0
PSCL5 LOAD TRANSLATION ACCESS:       4863  HIT:       4863  MISS:          0  HIT %:        100  MISS %:          0   MPKI: 0
PSCL5 PREFETCH  REQUESTED:          0  ISSUED:          0  USEFUL:          0  USELESS:          0
PSCL5 USEFUL LOAD PREFETCHES:          0 PREFETCH ISSUED TO LOWER LEVEL:          0  ACCURACY: -nan
PSCL5 TIMELY PREFETCHES:          0 LATE PREFETCHES: 0 DROPPED PREFETCHES: 0
PSCL5 PREFETCHES SAME FILL-ORIGIN LEVEL: 0 DIFFERENT FILL-ORIGIN LEVEL: 0

PSCL4 TOTAL     ACCESS:       4863  HIT:       4863  MISS:          0  HIT %:        100  MISS %:          0   MPKI: 0
PSCL4 LOAD TRANSLATION ACCESS:       4863  HIT:       4863  MISS:          0  HIT %:        100  MISS %:          0   MPKI: 0
PSCL4 PREFETCH  REQUESTED:          0  ISSUED:          0  USEFUL:          0  USELESS:          0
PSCL4 USEFUL LOAD PREFETCHES:          0 PREFETCH ISSUED TO LOWER LEVEL:          0  ACCURACY: -nan
PSCL4 TIMELY PREFETCHES:          0 LATE PREFETCHES: 0 DROPPED PREFETCHES: 0
PSCL4 PREFETCHES SAME FILL-ORIGIN LEVEL: 0 DIFFERENT FILL-ORIGIN LEVEL: 0

PSCL3 TOTAL     ACCESS:       4863  HIT:       4863  MISS:          0  HIT %:        100  MISS %:          0   MPKI: 0
PSCL3 LOAD TRANSLATION ACCESS:       4863  HIT:       4863  MISS:          0  HIT %:        100  MISS %:          0   MPKI: 0
PSCL3 PREFETCH  REQUESTED:          0  ISSUED:          0  USEFUL:          0  USELESS:          0
PSCL3 USEFUL LOAD PREFETCHES:          0 PREFETCH ISSUED TO LOWER LEVEL:          0  ACCURACY: -nan
PSCL3 TIMELY PREFETCHES:          0 LATE PREFETCHES: 0 DROPPED PREFETCHES: 0
PSCL3 PREFETCHES SAME FILL-ORIGIN LEVEL: 0 DIFFERENT FILL-ORIGIN LEVEL: 0

PSCL2 TOTAL     ACCESS:       4863  HIT:       4469  MISS:        394  HIT %:     91.898  MISS %:    8.10199   MPKI: 0.00394
PSCL2 LOAD TRANSLATION ACCESS:       4863  HIT:       4469  MISS:        394  HIT %:     91.898  MISS %:    8.10199   MPKI: 0.00394
PSCL2 PREFETCH  REQUESTED:          0  ISSUED:          0  USEFUL:          0  USELESS:          0
PSCL2 USEFUL LOAD PREFETCHES:          0 PREFETCH ISSUED TO LOWER LEVEL:          0  ACCURACY: -nan
PSCL2 TIMELY PREFETCHES:          0 LATE PREFETCHES: 0 DROPPED PREFETCHES: 0
PSCL2 PREFETCHES SAME FILL-ORIGIN LEVEL: 0 DIFFERENT FILL-ORIGIN LEVEL: 0

LLC TOTAL     ACCESS:     910939  HIT:     516936  MISS:     394003  HIT %:    56.7476  MISS %:    43.2524   MPKI: 3.94003
LLC LOAD      ACCESS:      70066  HIT:      51052  MISS:      19014  HIT %:    72.8627  MISS %:    27.1373   MPKI: 0.19014
LLC RFO       ACCESS:     223068  HIT:      45751  MISS:     177317  HIT %:    20.5099  MISS %:    79.4901   MPKI: 1.77317
LLC PREFETCH  ACCESS:     316474  HIT:     126712  MISS:     189762  HIT %:    40.0387  MISS %:    59.9613   MPKI: 1.89762
LLC WRITEBACK ACCESS:     299519  HIT:     292463  MISS:       7056  HIT %:    97.6442  MISS %:    2.35578   MPKI: 0.07056
LLC LOAD TRANSLATION ACCESS:       1812  HIT:        958  MISS:        854  HIT %:    52.8698  MISS %:    47.1302   MPKI: 0.00854
LLC PREFETCH  REQUESTED:          0  ISSUED:          0  USEFUL:       5784  USELESS:     170267
LLC USEFUL LOAD PREFETCHES:       5784 PREFETCH ISSUED TO LOWER LEVEL:     189763  ACCURACY: 3.04801
LLC TIMELY PREFETCHES:       5784 LATE PREFETCHES: 1 DROPPED PREFETCHES: 0
LLC PREFETCHES SAME FILL-ORIGIN LEVEL: 1568 DIFFERENT FILL-ORIGIN LEVEL: 0
LLC AVERAGE MISS LATENCY: 198.265 cycles
LLC RQ	ACCESS:     294949	FORWARD:          0	MERGED:          0	TO_CACHE:     294946
LLC WQ	ACCESS:     299519	FORWARD:          3	MERGED:          0	TO_CACHE:     299519
LLC PQ	ACCESS:     316477	FORWARD:          0	MERGED:          1	TO_CACHE:     316476

LLC Dense regions hint to LLC: 0

RAW hits: 139478
Loads Generated: 19532379
Loads sent to L1D: 19392900
Stores Generated: 6299455
Stores sent to L1D: 6299467
Major fault: 0 Minor fault: 7689
Allocated PAGES: 7689
------------------
Depth Distribution
------------------
depth 0: 4111
depth 1: 7960
depth 2: 3415
depth 3: 12067
depth 4: 27624
depth 5: 55043
depth 6: 98459
depth 7: 137613
depth 8: 118962
depth 9: 59190
depth 10: 6159
depth 11: 20684
depth 12: 11909
depth 13: 2338
depth 14: 10323
depth 15: 1478
depth 16: 976
depth 17: 437
depth 18: 221
depth 19: 10
depth 20: 0
depth 21: 0
depth 22: 0
depth 23: 0
depth 24: 0
depth 25: 0
depth 26: 0
depth 27: 0
depth 28: 0
depth 29: 0
Total: 578979
------------------
ST read accesses: 542882
ST write accesses: 30354
PT read accesses: 23692815
PT write accesses: 795486
FILTER read accesses: 5179784
FILTER write accesses: 2360987
GHR read accesses: 2760976
GHR write accesses: 394819
PERC read accesses: 170658594
PERC write accesses: 5956640
GHR counter read accesses: 1146472
GHR counter write accesses: 1747575
GHR ip read accesses: 3712467
GHR ip write accesses: 2292944
ST tag read accesses: 14987879
ST tag write accesses: 1771170

DRAM Statistics
 CHANNEL 0
 RQ ROW_BUFFER_HIT:     130955  ROW_BUFFER_MISS:     255931
 DBUS_CONGESTED:       1246
 WQ ROW_BUFFER_HIT:      43153  ROW_BUFFER_MISS:     169974  FULL:          0

 AVG_CONGESTED_CYCLE: 5
 All warmup complete: 2
Channel 0 Bank busy for read cycles: 0
Channel 0 Bank busy for write cycles: 0
Channel 0
Rank 0
0banks busy for read cycles: 100827392
0banks busy for write cycles: 13558
1banks busy for read cycles: 7224755
1banks busy for write cycles: 1561153
2banks busy for read cycles: 5329089
2banks busy for write cycles: 866074
3banks busy for read cycles: 2160562
3banks busy for write cycles: 600436
4banks busy for read cycles: 1270194
4banks busy for write cycles: 504437
5banks busy for read cycles: 725468
5banks busy for write cycles: 438606
6banks busy for read cycles: 549129
6banks busy for write cycles: 394222
7banks busy for read cycles: 438643
7banks busy for write cycles: 571004
8banks busy for read cycles: 783001
8banks busy for write cycles: 3255561

CPU 0 Branch Prediction Accuracy: 99.0212% MPKI: 1.53793 Average ROB Occupancy at Mispredict: 20.1112
Branch types
NOT_BRANCH: 84286909 84.2869%
BRANCH_DIRECT_JUMP: 363450 0.36345%
BRANCH_INDIRECT: 3741 0.003741%
BRANCH_CONDITIONAL: 15126375 15.1264%
BRANCH_DIRECT_CALL: 109633 0.109633%
BRANCH_INDIRECT_CALL: 0 0%
BRANCH_RETURN: 109633 0.109633%
BRANCH_OTHER: 0 0%

DRAM PAGES: 1048576
Allocated PAGES: 7689
