
*** ChampSim Multicore Out-of-Order Simulator ***

Warmup Instructions: 50000000
Simulation Instructions: 100000000
Number of CPUs: 1
LLC sets: 2048
LLC ways: 16
Off-chip DRAM Size: 4096 MB Channels: 1 Width: 64-bit Data Rate: 6400 MT/s
CPU 0 runs ../SPEC2017//628.pop2_s-17B.champsimtrace.xz
.xz
NUM_OF_IPS_IN_CRITICAL_IP_TRAINING: 64
NUM_OF_CRITICAL_IP_TRAINING_TABLE_WAYS: 2
NUM_OF_CRITICAL_IP_TRAINING_TABLE_SETS: 32
WOBBLY_CRITICAL_IP_CACHE_SETS: 32
WOBBLY_CRITICAL_IP_CACHE_WAYS: 4
BTB has LRU replacement policy
ITLB has LRU replacement policy
DTLB has LRU replacement policy
STLB has LRU replacement policy
L1I has LRU replacement policy
IP Table Entries: 256
L1D has LRU replacement policy
Initialize SRRIP state for L2C
Initialize DRRIP state for LLC
Heartbeat CPU 0 instructions: 10000003 cycles: 2997874 heartbeat IPC: 3.3357 cumulative IPC: 3.3357 (Simulation time: 0 hr 2 min 24 sec) 
Heartbeat CPU 0 instructions: 20000001 cycles: 5995899 heartbeat IPC: 3.33553 cumulative IPC: 3.33561 (Simulation time: 0 hr 4 min 49 sec) 
Heartbeat CPU 0 instructions: 30000003 cycles: 8993628 heartbeat IPC: 3.33586 cumulative IPC: 3.3357 (Simulation time: 0 hr 7 min 20 sec) 
Heartbeat CPU 0 instructions: 40000003 cycles: 11991321 heartbeat IPC: 3.3359 cumulative IPC: 3.33575 (Simulation time: 0 hr 9 min 48 sec) 
Heartbeat CPU 0 instructions: 50000003 cycles: 14990994 heartbeat IPC: 3.3337 cumulative IPC: 3.33534 (Simulation time: 0 hr 12 min 15 sec) 

Warmup complete CPU 0 instructions: 50000003 cycles: 14990994 (Simulation time: 0 hr 12 min 15 sec) 

% increase in all ip prefetch 273.076
% increase in all ip prefetch 4.50781
% increase in all ip prefetch -1.9909
Heartbeat CPU 0 instructions: 60000000 cycles: 27135209 heartbeat IPC: 0.823437 cumulative IPC: 0.823437 (Simulation time: 0 hr 14 min 41 sec) 
Heartbeat CPU 0 instructions: 70000002 cycles: 39131564 heartbeat IPC: 0.833587 cumulative IPC: 0.828481 (Simulation time: 0 hr 17 min 6 sec) 
Heartbeat CPU 0 instructions: 80000000 cycles: 50857656 heartbeat IPC: 0.852799 cumulative IPC: 0.836431 (Simulation time: 0 hr 19 min 20 sec) 
Heartbeat CPU 0 instructions: 90000003 cycles: 64611660 heartbeat IPC: 0.727061 cumulative IPC: 0.806116 (Simulation time: 0 hr 21 min 32 sec) 
Heartbeat CPU 0 instructions: 100000001 cycles: 76343756 heartbeat IPC: 0.852362 cumulative IPC: 0.814959 (Simulation time: 0 hr 23 min 51 sec) 
Heartbeat CPU 0 instructions: 110000000 cycles: 88973510 heartbeat IPC: 0.791781 cumulative IPC: 0.811002 (Simulation time: 0 hr 26 min 7 sec) 
Heartbeat CPU 0 instructions: 120000000 cycles: 102131728 heartbeat IPC: 0.759981 cumulative IPC: 0.803298 (Simulation time: 0 hr 28 min 12 sec) 
Heartbeat CPU 0 instructions: 130000000 cycles: 115748660 heartbeat IPC: 0.73438 cumulative IPC: 0.793984 (Simulation time: 0 hr 30 min 25 sec) 
Heartbeat CPU 0 instructions: 140000002 cycles: 130295587 heartbeat IPC: 0.687431 cumulative IPC: 0.780541 (Simulation time: 0 hr 32 min 30 sec) 
Heartbeat CPU 0 instructions: 150000000 cycles: 143517819 heartbeat IPC: 0.756302 cumulative IPC: 0.778048 (Simulation time: 0 hr 34 min 21 sec) 
Finished CPU 0 instructions: 100000003 cycles: 128526830 cumulative IPC: 0.778048 (Simulation time: 0 hr 34 min 21 sec) 

ChampSim completed all CPUs

Region of Interest Statistics

CPU 0 cumulative IPC: 0.778048 instructions: 100000003 cycles: 128526830

CPU 0 Average Load ROB stall cycles: 2.34173e+07
CPU 0 Fraction of times ROB stalled by Loads: 29.1482
CPU 0 Percentage of Load stall cycles in Total stall cycles: 5.01491e+08
Issued all: 63875140
Issued LT all: 50465615
rob_not_full_when_issued_lt_all: 45910013
Issued LT one: 43190809
rob_not_full_when_issued_lt_one: 39105509
 Total stall cycles: 103862513
 Total load stall cycles: 520861655014343
CPU 0 NUM of IPS identified critical: 0
CPU 0 Num of Load IPs stalling ROB: 5928
Threshold modification factor: -2
Max PIST entries: 64
Min PIST entries: 0
Avg PIST entries: 31.7533
Trouble in retire width: 0.927997
MaC = Marked as critical.
lt_50_percent_before_Mac: 0
gt_90_percent_before_Mac: 0
gt_75_percent_before_Mac: 0
gt_50_percent_before_Mac: 0
stall_proportion_bin_same_before_after: 0
stall_proportion_bin_lower_before_after: 0
stall_proportion_bin_upper_before_after: 0
average_stall_proportion_before: -nan
average_stall_proportion_after: -nan
Critical IP stalls, total frequency: 0
Non-critical IP stalls, total frequency: 6483326
Total Freq all stalling IPs: 6483326
stat_90_percent_critical_ip_stalls_freq: 5835640
stat_90_percent_non_critical_ip_stalls_freq: 647686
Critical_IP_ROB_Stalls_Bucket_0: 0
Non-critical_IP_ROB_Stalls_Bucket_0: 5684977
Critical_IP_ROB_Stalls_Bucket_1: 0
Non-critical_IP_ROB_Stalls_Bucket_1: 379894
Critical_IP_ROB_Stalls_Bucket_2: 0
Non-critical_IP_ROB_Stalls_Bucket_2: 96439
Critical_IP_ROB_Stalls_Bucket_3: 0
Non-critical_IP_ROB_Stalls_Bucket_3: 53801
Critical_IP_ROB_Stalls_Bucket_4: 0
Non-critical_IP_ROB_Stalls_Bucket_4: 35370
Critical_IP_ROB_Stalls_Bucket_5: 0
Non-critical_IP_ROB_Stalls_Bucket_5: 36106
Critical_IP_ROB_Stalls_Bucket_6: 0
Non-critical_IP_ROB_Stalls_Bucket_6: 196739
0 => IPs accounting for >50 percent of stalls, 1 => 55, 2 => 60, 3 => 65 and so on till 90.
percent50: 50.1608 num IPs:  102
percent55: 55.0927 num IPs: 125
percent60: 60.107 num IPs: 150
percent65: 65.1421 num IPs: 177
percent70: 70.1095 num IPs: 210
percent75: 75.003 num IPs: 250
percent80: 80.0515 num IPs: 304
percent85: 85.0235 num IPs: 383
percent90: 90.01 num IPs: 499
Critical_ROB_Stalls_Percent_0_Bucket_0: 2983000
Non-critical_ROB_Stalls_Percent_0_Bucket_0: 2701977
Critical_ROB_Stalls_Percent_0_Bucket_1: 109094
Non-critical_ROB_Stalls_Percent_0_Bucket_1: 270800
Critical_ROB_Stalls_Percent_0_Bucket_2: 29389
Non-critical_ROB_Stalls_Percent_0_Bucket_2: 67050
Critical_ROB_Stalls_Percent_0_Bucket_3: 15127
Non-critical_ROB_Stalls_Percent_0_Bucket_3: 38674
Critical_ROB_Stalls_Percent_0_Bucket_4: 8152
Non-critical_ROB_Stalls_Percent_0_Bucket_4: 27218
Critical_ROB_Stalls_Percent_0_Bucket_5: 6810
Non-critical_ROB_Stalls_Percent_0_Bucket_5: 29296
Critical_ROB_Stalls_Percent_0_Bucket_6: 100516
Non-critical_ROB_Stalls_Percent_0_Bucket_6: 96223
Critical_ROB_Stalls_Percent_1_Bucket_0: 3272929
Non-critical_ROB_Stalls_Percent_1_Bucket_0: 2412048
Critical_ROB_Stalls_Percent_1_Bucket_1: 133941
Non-critical_ROB_Stalls_Percent_1_Bucket_1: 245953
Critical_ROB_Stalls_Percent_1_Bucket_2: 33144
Non-critical_ROB_Stalls_Percent_1_Bucket_2: 63295
Critical_ROB_Stalls_Percent_1_Bucket_3: 15609
Non-critical_ROB_Stalls_Percent_1_Bucket_3: 38192
Critical_ROB_Stalls_Percent_1_Bucket_4: 8568
Non-critical_ROB_Stalls_Percent_1_Bucket_4: 26802
Critical_ROB_Stalls_Percent_1_Bucket_5: 7086
Non-critical_ROB_Stalls_Percent_1_Bucket_5: 29020
Critical_ROB_Stalls_Percent_1_Bucket_6: 100564
Non-critical_ROB_Stalls_Percent_1_Bucket_6: 96175
Critical_ROB_Stalls_Percent_2_Bucket_0: 3575875
Non-critical_ROB_Stalls_Percent_2_Bucket_0: 2109102
Critical_ROB_Stalls_Percent_2_Bucket_1: 142616
Non-critical_ROB_Stalls_Percent_2_Bucket_1: 237278
Critical_ROB_Stalls_Percent_2_Bucket_2: 34823
Non-critical_ROB_Stalls_Percent_2_Bucket_2: 61616
Critical_ROB_Stalls_Percent_2_Bucket_3: 16946
Non-critical_ROB_Stalls_Percent_2_Bucket_3: 36855
Critical_ROB_Stalls_Percent_2_Bucket_4: 9795
Non-critical_ROB_Stalls_Percent_2_Bucket_4: 25575
Critical_ROB_Stalls_Percent_2_Bucket_5: 8417
Non-critical_ROB_Stalls_Percent_2_Bucket_5: 27689
Critical_ROB_Stalls_Percent_2_Bucket_6: 108464
Non-critical_ROB_Stalls_Percent_2_Bucket_6: 88275
Critical_ROB_Stalls_Percent_3_Bucket_0: 3861236
Non-critical_ROB_Stalls_Percent_3_Bucket_0: 1823741
Critical_ROB_Stalls_Percent_3_Bucket_1: 148034
Non-critical_ROB_Stalls_Percent_3_Bucket_1: 231860
Critical_ROB_Stalls_Percent_3_Bucket_2: 37952
Non-critical_ROB_Stalls_Percent_3_Bucket_2: 58487
Critical_ROB_Stalls_Percent_3_Bucket_3: 20480
Non-critical_ROB_Stalls_Percent_3_Bucket_3: 33321
Critical_ROB_Stalls_Percent_3_Bucket_4: 13051
Non-critical_ROB_Stalls_Percent_3_Bucket_4: 22319
Critical_ROB_Stalls_Percent_3_Bucket_5: 13658
Non-critical_ROB_Stalls_Percent_3_Bucket_5: 22448
Critical_ROB_Stalls_Percent_3_Bucket_6: 128962
Non-critical_ROB_Stalls_Percent_3_Bucket_6: 67777
Critical_ROB_Stalls_Percent_4_Bucket_0: 4168451
Non-critical_ROB_Stalls_Percent_4_Bucket_0: 1516526
Critical_ROB_Stalls_Percent_4_Bucket_1: 159622
Non-critical_ROB_Stalls_Percent_4_Bucket_1: 220272
Critical_ROB_Stalls_Percent_4_Bucket_2: 39698
Non-critical_ROB_Stalls_Percent_4_Bucket_2: 56741
Critical_ROB_Stalls_Percent_4_Bucket_3: 21188
Non-critical_ROB_Stalls_Percent_4_Bucket_3: 32613
Critical_ROB_Stalls_Percent_4_Bucket_4: 13244
Non-critical_ROB_Stalls_Percent_4_Bucket_4: 22126
Critical_ROB_Stalls_Percent_4_Bucket_5: 13884
Non-critical_ROB_Stalls_Percent_4_Bucket_5: 22222
Critical_ROB_Stalls_Percent_4_Bucket_6: 129336
Non-critical_ROB_Stalls_Percent_4_Bucket_6: 67403
Critical_ROB_Stalls_Percent_5_Bucket_0: 4443873
Non-critical_ROB_Stalls_Percent_5_Bucket_0: 1241104
Critical_ROB_Stalls_Percent_5_Bucket_1: 184242
Non-critical_ROB_Stalls_Percent_5_Bucket_1: 195652
Critical_ROB_Stalls_Percent_5_Bucket_2: 47463
Non-critical_ROB_Stalls_Percent_5_Bucket_2: 48976
Critical_ROB_Stalls_Percent_5_Bucket_3: 25190
Non-critical_ROB_Stalls_Percent_5_Bucket_3: 28611
Critical_ROB_Stalls_Percent_5_Bucket_4: 15820
Non-critical_ROB_Stalls_Percent_5_Bucket_4: 19550
Critical_ROB_Stalls_Percent_5_Bucket_5: 15296
Non-critical_ROB_Stalls_Percent_5_Bucket_5: 20810
Critical_ROB_Stalls_Percent_5_Bucket_6: 130806
Non-critical_ROB_Stalls_Percent_5_Bucket_6: 65933
Critical_ROB_Stalls_Percent_6_Bucket_0: 4712720
Non-critical_ROB_Stalls_Percent_6_Bucket_0: 972257
Critical_ROB_Stalls_Percent_6_Bucket_1: 224109
Non-critical_ROB_Stalls_Percent_6_Bucket_1: 155785
Critical_ROB_Stalls_Percent_6_Bucket_2: 53490
Non-critical_ROB_Stalls_Percent_6_Bucket_2: 42949
Critical_ROB_Stalls_Percent_6_Bucket_3: 29694
Non-critical_ROB_Stalls_Percent_6_Bucket_3: 24107
Critical_ROB_Stalls_Percent_6_Bucket_4: 18960
Non-critical_ROB_Stalls_Percent_6_Bucket_4: 16410
Critical_ROB_Stalls_Percent_6_Bucket_5: 17240
Non-critical_ROB_Stalls_Percent_6_Bucket_5: 18866
Critical_ROB_Stalls_Percent_6_Bucket_6: 133784
Non-critical_ROB_Stalls_Percent_6_Bucket_6: 62955
Critical_ROB_Stalls_Percent_7_Bucket_0: 4997103
Non-critical_ROB_Stalls_Percent_7_Bucket_0: 687874
Critical_ROB_Stalls_Percent_7_Bucket_1: 249226
Non-critical_ROB_Stalls_Percent_7_Bucket_1: 130668
Critical_ROB_Stalls_Percent_7_Bucket_2: 58540
Non-critical_ROB_Stalls_Percent_7_Bucket_2: 37899
Critical_ROB_Stalls_Percent_7_Bucket_3: 32969
Non-critical_ROB_Stalls_Percent_7_Bucket_3: 20832
Critical_ROB_Stalls_Percent_7_Bucket_4: 21021
Non-critical_ROB_Stalls_Percent_7_Bucket_4: 14349
Critical_ROB_Stalls_Percent_7_Bucket_5: 18646
Non-critical_ROB_Stalls_Percent_7_Bucket_5: 17460
Critical_ROB_Stalls_Percent_7_Bucket_6: 134842
Non-critical_ROB_Stalls_Percent_7_Bucket_6: 61897
Critical_ROB_Stalls_Percent_8_Bucket_0: 5255516
Non-critical_ROB_Stalls_Percent_8_Bucket_0: 429461
Critical_ROB_Stalls_Percent_8_Bucket_1: 278328
Non-critical_ROB_Stalls_Percent_8_Bucket_1: 101566
Critical_ROB_Stalls_Percent_8_Bucket_2: 68013
Non-critical_ROB_Stalls_Percent_8_Bucket_2: 28426
Critical_ROB_Stalls_Percent_8_Bucket_3: 37160
Non-critical_ROB_Stalls_Percent_8_Bucket_3: 16641
Critical_ROB_Stalls_Percent_8_Bucket_4: 23151
Non-critical_ROB_Stalls_Percent_8_Bucket_4: 12219
Critical_ROB_Stalls_Percent_8_Bucket_5: 21135
Non-critical_ROB_Stalls_Percent_8_Bucket_5: 14971
Critical_ROB_Stalls_Percent_8_Bucket_6: 152337
Non-critical_ROB_Stalls_Percent_8_Bucket_6: 44402
Average ROB occupancy Load Stall Begin: 32.4951
Average ROB occupancy Load Stall End: 38.1927
Min ROB occupancy Load Stall Begin: 1
Max ROB occupancy Load Stall Begin: 352
Min ROB occupancy Load Stall End: 1
Max ROB occupancy Load Stall End: 352
Average ROB occupancy Critical Load Stall Begin: -nan
Average ROB occupancy Critical Load Stall End: -nan
Min ROB occupancy Critical Load Stall Begin: 400
Max ROB occupancy Critical Load Stall Begin: 0
Min ROB occupancy Critical Load Stall End: 400
Max ROB occupancy Critical Load Stall End: 0
 ROB Load Stall Begin Bucket Count 0: 5826959
 ROB Load Stall End Bucket Count 0: 5684977
 ROB Critical Load Stall Begin Bucket Count 0: 0
 ROB Critical Load Stall End Bucket Count 0: 0
 ROB Load Stall Begin Bucket Count 1: 277775
 ROB Load Stall End Bucket Count 1: 379894
 ROB Critical Load Stall Begin Bucket Count 1: 0
 ROB Critical Load Stall End Bucket Count 1: 0
 ROB Load Stall Begin Bucket Count 2: 79869
 ROB Load Stall End Bucket Count 2: 96439
 ROB Critical Load Stall Begin Bucket Count 2: 0
 ROB Critical Load Stall End Bucket Count 2: 0
 ROB Load Stall Begin Bucket Count 3: 46433
 ROB Load Stall End Bucket Count 3: 53801
 ROB Critical Load Stall Begin Bucket Count 3: 0
 ROB Critical Load Stall End Bucket Count 3: 0
 ROB Load Stall Begin Bucket Count 4: 32884
 ROB Load Stall End Bucket Count 4: 35370
 ROB Critical Load Stall Begin Bucket Count 4: 0
 ROB Critical Load Stall End Bucket Count 4: 0
 ROB Load Stall Begin Bucket Count 5: 39573
 ROB Load Stall End Bucket Count 5: 36106
 ROB Critical Load Stall Begin Bucket Count 5: 0
 ROB Critical Load Stall End Bucket Count 5: 0
 ROB Load Stall Begin Bucket Count 6: 179833
 ROB Load Stall End Bucket Count 6: 196739
 ROB Critical Load Stall Begin Bucket Count 6: 0
 ROB Critical Load Stall End Bucket Count 6: 0
PIST Tag Read Accesses: 1272446
PIST Read Accesses: 636223
PIST Tag Write Accesses: 1272446
PIST Write Accesses: 636223
Criticality detector called times: 5056415
Max global_stall_cycles_count: 1535068
Threshold Modified: 2 times, factor: -2
Sturdy critical IP cache stats: 
 Unused entries: 0
CIC Tag Read Accesses: 0
CIC Read Accesses: 0
CIC Tag Write Accesses: 0
CIC Write Accesses: 0
Wobbly critical IP cache stats: 
 Unused entries: 0
CIC Tag Read Accesses: 137755309
CIC Read Accesses: 0
CIC Tag Write Accesses: 43990
CIC Write Accesses: 0
ITLB TOTAL     ACCESS:   17783935  HIT:   17782850  MISS:       1085  HIT %:    99.9939  MISS %: 0.00610101   MPKI: 0.01085
ITLB LOAD TRANSLATION ACCESS:   17783935  HIT:   17782850  MISS:       1085  HIT %:    99.9939  MISS %: 0.00610101   MPKI: 0.01085
ITLB PREFETCH  REQUESTED:          0  ISSUED:          0  USEFUL:          0  USELESS:          0
ITLB USEFUL LOAD PREFETCHES:          0 PREFETCH ISSUED TO LOWER LEVEL:          0  ACCURACY: -nan
ITLB TIMELY PREFETCHES:          0 LATE PREFETCHES: 0 DROPPED PREFETCHES: 0
ITLB PREFETCHES SAME FILL-ORIGIN LEVEL: 0 DIFFERENT FILL-ORIGIN LEVEL: 0
ITLB AVERAGE MISS LATENCY: 20.2332 cycles
ITLB RQ	ACCESS:   19949259	FORWARD:          0	MERGED:    2165020	TO_CACHE:   17784239

DTLB TOTAL     ACCESS:   18071373  HIT:   18034769  MISS:      36604  HIT %:    99.7974  MISS %:   0.202552   MPKI: 0.36604
DTLB LOAD TRANSLATION ACCESS:   18071373  HIT:   18034769  MISS:      36604  HIT %:    99.7974  MISS %:   0.202552   MPKI: 0.36604
DTLB PREFETCH  REQUESTED:          0  ISSUED:          0  USEFUL:          0  USELESS:          0
DTLB USEFUL LOAD PREFETCHES:          0 PREFETCH ISSUED TO LOWER LEVEL:          0  ACCURACY: -nan
DTLB TIMELY PREFETCHES:          0 LATE PREFETCHES: 0 DROPPED PREFETCHES: 0
DTLB PREFETCHES SAME FILL-ORIGIN LEVEL: 0 DIFFERENT FILL-ORIGIN LEVEL: 0
DTLB AVERAGE MISS LATENCY: 31.3734 cycles
DTLB RQ	ACCESS:   19589691	FORWARD:          0	MERGED:    1500840	TO_CACHE:   18088851

STLB TOTAL     ACCESS:     564263  HIT:     559398  MISS:       4865  HIT %:    99.1378  MISS %:   0.862187   MPKI: 0.04865
STLB LOAD TRANSLATION ACCESS:      37689  HIT:      32824  MISS:       4865  HIT %:    87.0917  MISS %:    12.9083   MPKI: 0.04865
STLB TRANSLATION FROM L1D PREFETCHER ACCESS:     526574  HIT:     526574  MISS:          0  HIT %:        100  MISS %:          0   MPKI: 0
STLB PREFETCH  REQUESTED:          0  ISSUED:          0  USEFUL:          0  USELESS:          0
STLB USEFUL LOAD PREFETCHES:          0 PREFETCH ISSUED TO LOWER LEVEL:          0  ACCURACY: -nan
STLB TIMELY PREFETCHES:          0 LATE PREFETCHES: 0 DROPPED PREFETCHES: 0
STLB PREFETCHES SAME FILL-ORIGIN LEVEL: 0 DIFFERENT FILL-ORIGIN LEVEL: 0
STLB AVERAGE MISS LATENCY: 169.862 cycles
STLB RQ	ACCESS:    1245408	FORWARD:          0	MERGED:     681145	TO_CACHE:     564263

STLB Hit, L1D data hit: 0
STLB Hit, L2C data hit: 0
STLB Hit, LLC data hit: 0
STLB Hit, LLC data miss: 0
STLB STLB hints to L2: 0
L1D TOTAL     ACCESS:   19575746  HIT:   18191006  MISS:    1384740  HIT %:    92.9262  MISS %:    7.07375   MPKI: 13.8474
L1D LOAD      ACCESS:   13239501  HIT:   12760326  MISS:     479175  HIT %:    96.3807  MISS %:    3.61928   MPKI: 4.79175
L1D RFO       ACCESS:    5140106  HIT:    4617385  MISS:     522721  HIT %:    89.8305  MISS %:    10.1695   MPKI: 5.22721
L1D PREFETCH  ACCESS:    1196139  HIT:     813295  MISS:     382844  HIT %:    67.9934  MISS %:    32.0066   MPKI: 3.82844
L1D PREFETCH  REQUESTED:    2498091  ISSUED:    2415466  USEFUL:     272820  USELESS:     109831
L1D USEFUL LOAD PREFETCHES:     272820 PREFETCH ISSUED TO LOWER LEVEL:     391806  ACCURACY: 69.6314
L1D TIMELY PREFETCHES:     272820 LATE PREFETCHES: 8962 DROPPED PREFETCHES: 0
L1D PREFETCHES SAME FILL-ORIGIN LEVEL: 391806 DIFFERENT FILL-ORIGIN LEVEL: 0
L1D AVERAGE MISS LATENCY: 576878 cycles
L1D RQ	ACCESS:   19396415	FORWARD:          0	MERGED:    5966957	TO_CACHE:   13395915
L1D WQ	ACCESS:    6299467	FORWARD:      33549	MERGED:     105691	TO_CACHE:    6193776
L1D PQ	ACCESS:    1207747	FORWARD:          0	MERGED:         22	TO_CACHE:    1207719

L1D UNIQUE REGIONS ACCESSED: 0
L1D REGIONS CONFLICTS: 0
L1D Cross Page Prefetch Requests: 0
L1D Same Page Prefetch Requests: 5746347
L1D ROI Sum of L1D PQ occupancy: 17523167
L1D PREFETCHES PUSHED FROM L2C: 0
L1I TOTAL     ACCESS:   19938586  HIT:   19912608  MISS:      25978  HIT %:    99.8697  MISS %:    0.13029   MPKI: 0.25978
L1I LOAD      ACCESS:   19938586  HIT:   19912608  MISS:      25978  HIT %:    99.8697  MISS %:    0.13029   MPKI: 0.25978
L1I PREFETCH  REQUESTED:          0  ISSUED:          0  USEFUL:          0  USELESS:          0
L1I USEFUL LOAD PREFETCHES:          0 PREFETCH ISSUED TO LOWER LEVEL:          0  ACCURACY: -nan
L1I TIMELY PREFETCHES:          0 LATE PREFETCHES: 0 DROPPED PREFETCHES: 0
L1I PREFETCHES SAME FILL-ORIGIN LEVEL: 0 DIFFERENT FILL-ORIGIN LEVEL: 0
L1I AVERAGE MISS LATENCY: 56.6393 cycles
L1I RQ	ACCESS:   30855706	FORWARD:          0	MERGED:   10906447	TO_CACHE:   19949259

BTB TOTAL     ACCESS:   15375966  HIT:   15356418  MISS:      19548  HIT %:    99.8729  MISS %:   0.127133   MPKI: 0.19548
BTB BRANCH_DIRECT_JUMP	ACCESS:     363450  HIT:     363248  MISS:        202
BTB BRANCH_INDIRECT	ACCESS:       3741  HIT:       3479  MISS:        262
BTB BRANCH_CONDITIONAL	ACCESS:   14789509  HIT:   14787583  MISS:       1926
BTB BRANCH_DIRECT_CALL	ACCESS:     109633  HIT:     108926  MISS:        707
BTB BRANCH_INDIRECT_CALL	ACCESS:          0  HIT:          0  MISS:          0
BTB BRANCH_RETURN	ACCESS:     109633  HIT:      93182  MISS:      16451
BTB BRANCH_OTHER ACCESS:          0  HIT:          0  MISS:          0

L2C TOTAL     ACCESS:    2053618  HIT:    1445802  MISS:     607816  HIT %:    70.4027  MISS %:    29.5973   MPKI: 6.07816
L2C LOAD      ACCESS:     496177  HIT:     353645  MISS:     142532  HIT %:     71.274  MISS %:     28.726   MPKI: 1.42532
L2C DATA LOAD MPKI: 1.17073
L2C INSTRUCTION LOAD MPKI: 0.25459
L2C RFO       ACCESS:     522692  HIT:     304128  MISS:     218564  HIT %:    58.1849  MISS %:    41.8151   MPKI: 2.18564
L2C PREFETCH  ACCESS:     391804  HIT:     152509  MISS:     239295  HIT %:    38.9248  MISS %:    61.0752   MPKI: 2.39295
L2C DATA PREFETCH MPKI: 2.39295
L2C INSTRUCTION PREFETCH MPKI: 0
L2C WRITEBACK ACCESS:     637721  HIT:     632093  MISS:       5628  HIT %:    99.1175  MISS %:   0.882518   MPKI: 0.05628
L2C LOAD TRANSLATION ACCESS:       5224  HIT:       3427  MISS:       1797  HIT %:    65.6011  MISS %:    34.3989   MPKI: 0.01797
L2C PREFETCH  REQUESTED:          0  ISSUED:          0  USEFUL:      20469  USELESS:     219539
L2C USEFUL LOAD PREFETCHES:      20469 PREFETCH ISSUED TO LOWER LEVEL:     239295  ACCURACY: 8.55388
L2C TIMELY PREFETCHES:      20469 LATE PREFETCHES: 0 DROPPED PREFETCHES: 0
L2C PREFETCHES SAME FILL-ORIGIN LEVEL: 0 DIFFERENT FILL-ORIGIN LEVEL: 0
L2C AVERAGE MISS LATENCY: 155.547 cycles
L2C RQ	ACCESS:    1024136	FORWARD:          0	MERGED:          0	TO_CACHE:    1024093
L2C WQ	ACCESS:     637721	FORWARD:         45	MERGED:          0	TO_CACHE:     637721
L2C PQ	ACCESS:     391806	FORWARD:          0	MERGED:          0	TO_CACHE:     391804

L2C Instructions Evicting Data 22497
L2C Translations Evicting Data 1667
L2C Data Evicting Data 550280
L2C Instructions Evicting Instructions 2842
L2C Translations Evicting Instructions 125
L2C Data Evicting Instructions 22981
L2C Instructions Evicting Translations 120
L2C Translations Evicting Translations 5
L2C Data Evicting Translations 1671
L2C Dense regions hint from L2: 0
PSCL5 TOTAL     ACCESS:       4865  HIT:       4865  MISS:          0  HIT %:        100  MISS %:          0   MPKI: 0
PSCL5 LOAD TRANSLATION ACCESS:       4865  HIT:       4865  MISS:          0  HIT %:        100  MISS %:          0   MPKI: 0
PSCL5 PREFETCH  REQUESTED:          0  ISSUED:          0  USEFUL:          0  USELESS:          0
PSCL5 USEFUL LOAD PREFETCHES:          0 PREFETCH ISSUED TO LOWER LEVEL:          0  ACCURACY: -nan
PSCL5 TIMELY PREFETCHES:          0 LATE PREFETCHES: 0 DROPPED PREFETCHES: 0
PSCL5 PREFETCHES SAME FILL-ORIGIN LEVEL: 0 DIFFERENT FILL-ORIGIN LEVEL: 0

PSCL4 TOTAL     ACCESS:       4865  HIT:       4865  MISS:          0  HIT %:        100  MISS %:          0   MPKI: 0
PSCL4 LOAD TRANSLATION ACCESS:       4865  HIT:       4865  MISS:          0  HIT %:        100  MISS %:          0   MPKI: 0
PSCL4 PREFETCH  REQUESTED:          0  ISSUED:          0  USEFUL:          0  USELESS:          0
PSCL4 USEFUL LOAD PREFETCHES:          0 PREFETCH ISSUED TO LOWER LEVEL:          0  ACCURACY: -nan
PSCL4 TIMELY PREFETCHES:          0 LATE PREFETCHES: 0 DROPPED PREFETCHES: 0
PSCL4 PREFETCHES SAME FILL-ORIGIN LEVEL: 0 DIFFERENT FILL-ORIGIN LEVEL: 0

PSCL3 TOTAL     ACCESS:       4865  HIT:       4865  MISS:          0  HIT %:        100  MISS %:          0   MPKI: 0
PSCL3 LOAD TRANSLATION ACCESS:       4865  HIT:       4865  MISS:          0  HIT %:        100  MISS %:          0   MPKI: 0
PSCL3 PREFETCH  REQUESTED:          0  ISSUED:          0  USEFUL:          0  USELESS:          0
PSCL3 USEFUL LOAD PREFETCHES:          0 PREFETCH ISSUED TO LOWER LEVEL:          0  ACCURACY: -nan
PSCL3 TIMELY PREFETCHES:          0 LATE PREFETCHES: 0 DROPPED PREFETCHES: 0
PSCL3 PREFETCHES SAME FILL-ORIGIN LEVEL: 0 DIFFERENT FILL-ORIGIN LEVEL: 0

PSCL2 TOTAL     ACCESS:       4865  HIT:       4471  MISS:        394  HIT %:    91.9013  MISS %:    8.09866   MPKI: 0.00394
PSCL2 LOAD TRANSLATION ACCESS:       4865  HIT:       4471  MISS:        394  HIT %:    91.9013  MISS %:    8.09866   MPKI: 0.00394
PSCL2 PREFETCH  REQUESTED:          0  ISSUED:          0  USEFUL:          0  USELESS:          0
PSCL2 USEFUL LOAD PREFETCHES:          0 PREFETCH ISSUED TO LOWER LEVEL:          0  ACCURACY: -nan
PSCL2 TIMELY PREFETCHES:          0 LATE PREFETCHES: 0 DROPPED PREFETCHES: 0
PSCL2 PREFETCHES SAME FILL-ORIGIN LEVEL: 0 DIFFERENT FILL-ORIGIN LEVEL: 0

LLC TOTAL     ACCESS:     891251  HIT:     495059  MISS:     396192  HIT %:    55.5465  MISS %:    44.4535   MPKI: 3.96192
LLC LOAD      ACCESS:     142532  HIT:      88085  MISS:      54447  HIT %:    61.8002  MISS %:    38.1998   MPKI: 0.54447
LLC RFO       ACCESS:     218563  HIT:      38761  MISS:     179802  HIT %:    17.7345  MISS %:    82.2655   MPKI: 1.79802
LLC PREFETCH  ACCESS:     239295  HIT:      87465  MISS:     151830  HIT %:    36.5511  MISS %:    63.4489   MPKI: 1.5183
LLC WRITEBACK ACCESS:     289064  HIT:     279812  MISS:       9252  HIT %:    96.7993  MISS %:    3.20068   MPKI: 0.09252
LLC LOAD TRANSLATION ACCESS:       1797  HIT:        936  MISS:        861  HIT %:    52.0868  MISS %:    47.9132   MPKI: 0.00861
LLC PREFETCH  REQUESTED:          0  ISSUED:          0  USEFUL:      10221  USELESS:     149011
LLC USEFUL LOAD PREFETCHES:      10221 PREFETCH ISSUED TO LOWER LEVEL:     151830  ACCURACY: 6.73187
LLC TIMELY PREFETCHES:      10221 LATE PREFETCHES: 0 DROPPED PREFETCHES: 0
LLC PREFETCHES SAME FILL-ORIGIN LEVEL: 0 DIFFERENT FILL-ORIGIN LEVEL: 0
LLC AVERAGE MISS LATENCY: 192.05 cycles
LLC RQ	ACCESS:     362893	FORWARD:          0	MERGED:          0	TO_CACHE:     362892
LLC WQ	ACCESS:     289064	FORWARD:          1	MERGED:          0	TO_CACHE:     289064
LLC PQ	ACCESS:     239295	FORWARD:          0	MERGED:          0	TO_CACHE:     239295

LLC Dense regions hint to LLC: 0

RAW hits: 135963
Loads Generated: 19532379
Loads sent to L1D: 19396415
Stores Generated: 6299455
Stores sent to L1D: 6299467
Major fault: 0 Minor fault: 7689
Allocated PAGES: 7689

stream: 
stream:times selected: 4202040
stream:pref_filled: 1244235
stream:pref_useful: 954686
stream:pref_late: 9177
stream:misses: 7070
stream:misses_by_poll: 0

CS: 
CS:times selected: 3758180
CS:pref_filled: 14424
CS:pref_useful: 9562
CS:pref_late: 287
CS:misses: 528449
CS:misses_by_poll: 51

CPLX: 
CPLX:times selected: 443260
CPLX:pref_filled: 5754
CPLX:pref_useful: 2308
CPLX:pref_late: 42
CPLX:misses: 80310
CPLX:misses_by_poll: 0

NL_L1: 
NL:times selected: 606
NL:pref_filled: 119
NL:pref_useful: 54
NL:pref_late: 5
NL:misses: 186
NL:misses_by_poll: 0

total selections: 8404086
total_filled: 382844
total_useful: 272820
total_late: 10008
total_polluted: 51
total_misses_after_warmup: 635589
conflicts: 93280
Degree Incremented Times: 56992
Degree Decremented Times: 2284

L1 IP Table Write Accesses: 13274393
L1 IP Table Read Accesses: 13181113
L1 RST Write Accesses: 2384860
L1 RST Read Accesses: 4769720
L1 CSPT Write Accesses: 2384860
L1 CSPT Read Accesses: 2622060
L1 RR Filter Tag Write Accesses: 1290372
L1 RR Filter Tag Read Accesses: 137121265
L1 IP Table Tag Write Accesses: 13395915
L1 IP Table Tag Read Accesses: 13395915
L1 RST Tag Write Accesses: 0
L1 RST Tag Read Accesses: 22250810
L1 RR Filter Write Accesses: 0
L1 RR Filter Read Accesses: 5226530
test: 183519

DRAM Statistics
 CHANNEL 0
 RQ ROW_BUFFER_HIT:     119388  ROW_BUFFER_MISS:     267491
 DBUS_CONGESTED:       1197
 WQ ROW_BUFFER_HIT:      45510  ROW_BUFFER_MISS:     168693  FULL:        116

 AVG_CONGESTED_CYCLE: 5
 All warmup complete: 2
Channel 0 Bank busy for read cycles: 0
Channel 0 Bank busy for write cycles: 0
Channel 0
Rank 0
0banks busy for read cycles: 100582960
0banks busy for write cycles: 12805
1banks busy for read cycles: 8075703
1banks busy for write cycles: 1576744
2banks busy for read cycles: 5610960
2banks busy for write cycles: 860720
3banks busy for read cycles: 2044235
3banks busy for write cycles: 588778
4banks busy for read cycles: 1213642
4banks busy for write cycles: 471541
5banks busy for read cycles: 658731
5banks busy for write cycles: 411499
6banks busy for read cycles: 600016
6banks busy for write cycles: 404086
7banks busy for read cycles: 605903
7banks busy for write cycles: 641999
8banks busy for read cycles: 652970
8banks busy for write cycles: 3513539

CPU 0 Branch Prediction Accuracy: 99.0212% MPKI: 1.53793 Average ROB Occupancy at Mispredict: 21.4517
Branch types
NOT_BRANCH: 84286915 84.2869%
BRANCH_DIRECT_JUMP: 363450 0.36345%
BRANCH_INDIRECT: 3741 0.003741%
BRANCH_CONDITIONAL: 15126377 15.1264%
BRANCH_DIRECT_CALL: 109633 0.109633%
BRANCH_INDIRECT_CALL: 0 0%
BRANCH_RETURN: 109633 0.109633%
BRANCH_OTHER: 0 0%

DRAM PAGES: 1048576
Allocated PAGES: 7689
