Initialize SIGNATURE TABLE
ST_SET: 1
ST_WAY: 256
ST_TAG_BIT: 16
ST_TAG_MASK: ffff

Initialize PATTERN TABLE
PT_SET: 512
PT_WAY: 4
SIG_DELTA_BIT: 7
C_SIG_BIT: 4
C_DELTA_BIT: 4

Initialize PREFETCH FILTER
FILTER_SET: 1024

*** ChampSim Multicore Out-of-Order Simulator ***

Warmup Instructions: 50000000
Simulation Instructions: 100000000
Number of CPUs: 1
LLC sets: 2048
LLC ways: 16
Off-chip DRAM Size: 4096 MB Channels: 1 Width: 64-bit Data Rate: 6400 MT/s
CPU 0 runs ../SPEC2017//628.pop2_s-17B.champsimtrace.xz
.xz
BTB has LRU replacement policy
ITLB has LRU replacement policy
DTLB has LRU replacement policy
STLB has LRU replacement policy
L1I has LRU replacement policy
L1D has LRU replacement policy
Initialize SRRIP state for L2C
Initialize DRRIP state for LLC
Heartbeat CPU 0 instructions: 10000003 cycles: 3002586 heartbeat IPC: 3.33046 cumulative IPC: 3.33046 (Simulation time: 0 hr 4 min 24 sec) 
Heartbeat CPU 0 instructions: 20000001 cycles: 6004807 heartbeat IPC: 3.33087 cumulative IPC: 3.33067 (Simulation time: 0 hr 8 min 22 sec) 
Heartbeat CPU 0 instructions: 30000003 cycles: 9006912 heartbeat IPC: 3.331 cumulative IPC: 3.33078 (Simulation time: 0 hr 12 min 14 sec) 
Heartbeat CPU 0 instructions: 40000003 cycles: 12008625 heartbeat IPC: 3.33143 cumulative IPC: 3.33094 (Simulation time: 0 hr 15 min 48 sec) 
Heartbeat CPU 0 instructions: 50000002 cycles: 15012310 heartbeat IPC: 3.32924 cumulative IPC: 3.3306 (Simulation time: 0 hr 19 min 15 sec) 

Warmup complete CPU 0 instructions: 50000002 cycles: 15012310 (Simulation time: 0 hr 19 min 15 sec) 

Heartbeat CPU 0 instructions: 60000000 cycles: 27127528 heartbeat IPC: 0.825408 cumulative IPC: 0.825408 (Simulation time: 0 hr 24 min 12 sec) 
Heartbeat CPU 0 instructions: 70000002 cycles: 39109348 heartbeat IPC: 0.834598 cumulative IPC: 0.829978 (Simulation time: 0 hr 28 min 41 sec) 
Heartbeat CPU 0 instructions: 80000000 cycles: 50815630 heartbeat IPC: 0.854242 cumulative IPC: 0.837911 (Simulation time: 0 hr 32 min 19 sec) 
Heartbeat CPU 0 instructions: 90000003 cycles: 64501802 heartbeat IPC: 0.730665 cumulative IPC: 0.808252 (Simulation time: 0 hr 36 min 1 sec) 
Heartbeat CPU 0 instructions: 100000001 cycles: 76174263 heartbeat IPC: 0.856717 cumulative IPC: 0.817502 (Simulation time: 0 hr 39 min 54 sec) 
Heartbeat CPU 0 instructions: 110000000 cycles: 88532963 heartbeat IPC: 0.809147 cumulative IPC: 0.816097 (Simulation time: 0 hr 43 min 33 sec) 
Heartbeat CPU 0 instructions: 120000000 cycles: 101628164 heartbeat IPC: 0.763639 cumulative IPC: 0.808166 (Simulation time: 0 hr 47 min 1 sec) 
Heartbeat CPU 0 instructions: 130000002 cycles: 115111728 heartbeat IPC: 0.741644 cumulative IPC: 0.799205 (Simulation time: 0 hr 50 min 23 sec) 
Heartbeat CPU 0 instructions: 140000002 cycles: 129636603 heartbeat IPC: 0.688474 cumulative IPC: 0.785174 (Simulation time: 0 hr 53 min 23 sec) 
Heartbeat CPU 0 instructions: 150000000 cycles: 142855781 heartbeat IPC: 0.756477 cumulative IPC: 0.782207 (Simulation time: 0 hr 55 min 58 sec) 
Finished CPU 0 instructions: 100000000 cycles: 127843472 cumulative IPC: 0.782207 (Simulation time: 0 hr 55 min 58 sec) 

ChampSim completed all CPUs

Region of Interest Statistics

CPU 0 cumulative IPC: 0.782207 instructions: 100000000 cycles: 127843472

CPU 0 Average Load ROB stall cycles: 2.35584e+07
CPU 0 Fraction of times ROB stalled by Loads: 29.3581
CPU 0 Percentage of Load stall cycles in Total stall cycles: 4.9479e+08
Issued all: 63360281
Issued LT all: 49937872
rob_not_full_when_issued_lt_all: 45944076
Issued LT one: 42687203
rob_not_full_when_issued_lt_one: 39140453
FVP critical_dynamic_instances_0: 15339324
FVP unique_critical_ips_0: 3908
 Total stall cycles: 103023382
 Total load stall cycles: 509749379853445
Unique Load IPs: 7991
CPU 0 NUM of IPS identified critical: 0
CPU 0 Num of Load IPs stalling ROB: 0
Threshold modification factor: 0
Trouble in retire width: -nan
MaC = Marked as critical.
lt_50_percent_before_Mac: 0
gt_90_percent_before_Mac: 0
gt_75_percent_before_Mac: 0
gt_50_percent_before_Mac: 0
stall_proportion_bin_same_before_after: 0
stall_proportion_bin_lower_before_after: 0
stall_proportion_bin_upper_before_after: 0
average_stall_proportion_before: -nan
average_stall_proportion_after: -nan
Critical IP stalls, total frequency: 0
Non-critical IP stalls, total frequency: 0
Total Freq all stalling IPs: 0
Critical_IP_Detector_Accuracy_70: 0.000255885
Critical_IP_Detector_Accuracy_80: 0.000255885
Critical_IP_Detector_Accuracy_90: 0.000255885
Critical_IP_Detector_Coverage_70: 1
Critical_IP_Detector_Coverage_80: 1
Critical_IP_Detector_Coverage_90: 1
stat_90_percent_critical_ip_stalls_freq: 112752
stat_90_percent_non_critical_ip_stalls_freq: 18446744073709438864
AVERAGE_ROB_Occupancy_90_Percent_Critical_IP_Stalls: 327.818
AVERAGE_ROB_Occupancy_90_Percent_Non_Critical_IP_Stalls: 1.14853e-11
Critical_IP_ROB_Stalls_Bucket_0: 0
Non-critical_IP_ROB_Stalls_Bucket_0: 5487120
Critical_IP_ROB_Stalls_Bucket_1: 0
Non-critical_IP_ROB_Stalls_Bucket_1: 431958
Critical_IP_ROB_Stalls_Bucket_2: 0
Non-critical_IP_ROB_Stalls_Bucket_2: 106895
Critical_IP_ROB_Stalls_Bucket_3: 0
Non-critical_IP_ROB_Stalls_Bucket_3: 57174
Critical_IP_ROB_Stalls_Bucket_4: 0
Non-critical_IP_ROB_Stalls_Bucket_4: 38227
Critical_IP_ROB_Stalls_Bucket_5: 0
Non-critical_IP_ROB_Stalls_Bucket_5: 38385
Critical_IP_ROB_Stalls_Bucket_6: 0
Non-critical_IP_ROB_Stalls_Bucket_6: 192658
0 => IPs accounting for >50 percent of stalls, 1 => 55, 2 => 60, 3 => 65 and so on till 90.
percent50: inf num IPs:  1
percent55: inf num IPs: 1
percent60: inf num IPs: 1
percent65: inf num IPs: 1
percent70: inf num IPs: 1
percent75: inf num IPs: 1
percent80: inf num IPs: 1
percent85: inf num IPs: 1
percent90: inf num IPs: 1
Critical_ROB_Stalls_Percent_0_Bucket_0: 506
Non-critical_ROB_Stalls_Percent_0_Bucket_0: 5486614
Critical_ROB_Stalls_Percent_0_Bucket_1: 1724
Non-critical_ROB_Stalls_Percent_0_Bucket_1: 430234
Critical_ROB_Stalls_Percent_0_Bucket_2: 2831
Non-critical_ROB_Stalls_Percent_0_Bucket_2: 104064
Critical_ROB_Stalls_Percent_0_Bucket_3: 3109
Non-critical_ROB_Stalls_Percent_0_Bucket_3: 54065
Critical_ROB_Stalls_Percent_0_Bucket_4: 3792
Non-critical_ROB_Stalls_Percent_0_Bucket_4: 34435
Critical_ROB_Stalls_Percent_0_Bucket_5: 4078
Non-critical_ROB_Stalls_Percent_0_Bucket_5: 34307
Critical_ROB_Stalls_Percent_0_Bucket_6: 96712
Non-critical_ROB_Stalls_Percent_0_Bucket_6: 95946
Critical_ROB_Stalls_Percent_1_Bucket_0: 506
Non-critical_ROB_Stalls_Percent_1_Bucket_0: 5486614
Critical_ROB_Stalls_Percent_1_Bucket_1: 1724
Non-critical_ROB_Stalls_Percent_1_Bucket_1: 430234
Critical_ROB_Stalls_Percent_1_Bucket_2: 2831
Non-critical_ROB_Stalls_Percent_1_Bucket_2: 104064
Critical_ROB_Stalls_Percent_1_Bucket_3: 3109
Non-critical_ROB_Stalls_Percent_1_Bucket_3: 54065
Critical_ROB_Stalls_Percent_1_Bucket_4: 3792
Non-critical_ROB_Stalls_Percent_1_Bucket_4: 34435
Critical_ROB_Stalls_Percent_1_Bucket_5: 4078
Non-critical_ROB_Stalls_Percent_1_Bucket_5: 34307
Critical_ROB_Stalls_Percent_1_Bucket_6: 96712
Non-critical_ROB_Stalls_Percent_1_Bucket_6: 95946
Critical_ROB_Stalls_Percent_2_Bucket_0: 506
Non-critical_ROB_Stalls_Percent_2_Bucket_0: 5486614
Critical_ROB_Stalls_Percent_2_Bucket_1: 1724
Non-critical_ROB_Stalls_Percent_2_Bucket_1: 430234
Critical_ROB_Stalls_Percent_2_Bucket_2: 2831
Non-critical_ROB_Stalls_Percent_2_Bucket_2: 104064
Critical_ROB_Stalls_Percent_2_Bucket_3: 3109
Non-critical_ROB_Stalls_Percent_2_Bucket_3: 54065
Critical_ROB_Stalls_Percent_2_Bucket_4: 3792
Non-critical_ROB_Stalls_Percent_2_Bucket_4: 34435
Critical_ROB_Stalls_Percent_2_Bucket_5: 4078
Non-critical_ROB_Stalls_Percent_2_Bucket_5: 34307
Critical_ROB_Stalls_Percent_2_Bucket_6: 96712
Non-critical_ROB_Stalls_Percent_2_Bucket_6: 95946
Critical_ROB_Stalls_Percent_3_Bucket_0: 506
Non-critical_ROB_Stalls_Percent_3_Bucket_0: 5486614
Critical_ROB_Stalls_Percent_3_Bucket_1: 1724
Non-critical_ROB_Stalls_Percent_3_Bucket_1: 430234
Critical_ROB_Stalls_Percent_3_Bucket_2: 2831
Non-critical_ROB_Stalls_Percent_3_Bucket_2: 104064
Critical_ROB_Stalls_Percent_3_Bucket_3: 3109
Non-critical_ROB_Stalls_Percent_3_Bucket_3: 54065
Critical_ROB_Stalls_Percent_3_Bucket_4: 3792
Non-critical_ROB_Stalls_Percent_3_Bucket_4: 34435
Critical_ROB_Stalls_Percent_3_Bucket_5: 4078
Non-critical_ROB_Stalls_Percent_3_Bucket_5: 34307
Critical_ROB_Stalls_Percent_3_Bucket_6: 96712
Non-critical_ROB_Stalls_Percent_3_Bucket_6: 95946
Critical_ROB_Stalls_Percent_4_Bucket_0: 506
Non-critical_ROB_Stalls_Percent_4_Bucket_0: 5486614
Critical_ROB_Stalls_Percent_4_Bucket_1: 1724
Non-critical_ROB_Stalls_Percent_4_Bucket_1: 430234
Critical_ROB_Stalls_Percent_4_Bucket_2: 2831
Non-critical_ROB_Stalls_Percent_4_Bucket_2: 104064
Critical_ROB_Stalls_Percent_4_Bucket_3: 3109
Non-critical_ROB_Stalls_Percent_4_Bucket_3: 54065
Critical_ROB_Stalls_Percent_4_Bucket_4: 3792
Non-critical_ROB_Stalls_Percent_4_Bucket_4: 34435
Critical_ROB_Stalls_Percent_4_Bucket_5: 4078
Non-critical_ROB_Stalls_Percent_4_Bucket_5: 34307
Critical_ROB_Stalls_Percent_4_Bucket_6: 96712
Non-critical_ROB_Stalls_Percent_4_Bucket_6: 95946
Critical_ROB_Stalls_Percent_5_Bucket_0: 506
Non-critical_ROB_Stalls_Percent_5_Bucket_0: 5486614
Critical_ROB_Stalls_Percent_5_Bucket_1: 1724
Non-critical_ROB_Stalls_Percent_5_Bucket_1: 430234
Critical_ROB_Stalls_Percent_5_Bucket_2: 2831
Non-critical_ROB_Stalls_Percent_5_Bucket_2: 104064
Critical_ROB_Stalls_Percent_5_Bucket_3: 3109
Non-critical_ROB_Stalls_Percent_5_Bucket_3: 54065
Critical_ROB_Stalls_Percent_5_Bucket_4: 3792
Non-critical_ROB_Stalls_Percent_5_Bucket_4: 34435
Critical_ROB_Stalls_Percent_5_Bucket_5: 4078
Non-critical_ROB_Stalls_Percent_5_Bucket_5: 34307
Critical_ROB_Stalls_Percent_5_Bucket_6: 96712
Non-critical_ROB_Stalls_Percent_5_Bucket_6: 95946
Critical_ROB_Stalls_Percent_6_Bucket_0: 506
Non-critical_ROB_Stalls_Percent_6_Bucket_0: 5486614
Critical_ROB_Stalls_Percent_6_Bucket_1: 1724
Non-critical_ROB_Stalls_Percent_6_Bucket_1: 430234
Critical_ROB_Stalls_Percent_6_Bucket_2: 2831
Non-critical_ROB_Stalls_Percent_6_Bucket_2: 104064
Critical_ROB_Stalls_Percent_6_Bucket_3: 3109
Non-critical_ROB_Stalls_Percent_6_Bucket_3: 54065
Critical_ROB_Stalls_Percent_6_Bucket_4: 3792
Non-critical_ROB_Stalls_Percent_6_Bucket_4: 34435
Critical_ROB_Stalls_Percent_6_Bucket_5: 4078
Non-critical_ROB_Stalls_Percent_6_Bucket_5: 34307
Critical_ROB_Stalls_Percent_6_Bucket_6: 96712
Non-critical_ROB_Stalls_Percent_6_Bucket_6: 95946
Critical_ROB_Stalls_Percent_7_Bucket_0: 506
Non-critical_ROB_Stalls_Percent_7_Bucket_0: 5486614
Critical_ROB_Stalls_Percent_7_Bucket_1: 1724
Non-critical_ROB_Stalls_Percent_7_Bucket_1: 430234
Critical_ROB_Stalls_Percent_7_Bucket_2: 2831
Non-critical_ROB_Stalls_Percent_7_Bucket_2: 104064
Critical_ROB_Stalls_Percent_7_Bucket_3: 3109
Non-critical_ROB_Stalls_Percent_7_Bucket_3: 54065
Critical_ROB_Stalls_Percent_7_Bucket_4: 3792
Non-critical_ROB_Stalls_Percent_7_Bucket_4: 34435
Critical_ROB_Stalls_Percent_7_Bucket_5: 4078
Non-critical_ROB_Stalls_Percent_7_Bucket_5: 34307
Critical_ROB_Stalls_Percent_7_Bucket_6: 96712
Non-critical_ROB_Stalls_Percent_7_Bucket_6: 95946
Critical_ROB_Stalls_Percent_8_Bucket_0: 506
Non-critical_ROB_Stalls_Percent_8_Bucket_0: 5486614
Critical_ROB_Stalls_Percent_8_Bucket_1: 1724
Non-critical_ROB_Stalls_Percent_8_Bucket_1: 430234
Critical_ROB_Stalls_Percent_8_Bucket_2: 2831
Non-critical_ROB_Stalls_Percent_8_Bucket_2: 104064
Critical_ROB_Stalls_Percent_8_Bucket_3: 3109
Non-critical_ROB_Stalls_Percent_8_Bucket_3: 54065
Critical_ROB_Stalls_Percent_8_Bucket_4: 3792
Non-critical_ROB_Stalls_Percent_8_Bucket_4: 34435
Critical_ROB_Stalls_Percent_8_Bucket_5: 4078
Non-critical_ROB_Stalls_Percent_8_Bucket_5: 34307
Critical_ROB_Stalls_Percent_8_Bucket_6: 96712
Non-critical_ROB_Stalls_Percent_8_Bucket_6: 95946
Average ROB occupancy Load Stall Begin: 33.1509
Average ROB occupancy Load Stall End: 39.1707
Min ROB occupancy Load Stall Begin: 1
Max ROB occupancy Load Stall Begin: 352
Min ROB occupancy Load Stall End: 1
Max ROB occupancy Load Stall End: 352
Average ROB occupancy Critical Load Stall Begin: -nan
Average ROB occupancy Critical Load Stall End: -nan
Min ROB occupancy Critical Load Stall Begin: 400
Max ROB occupancy Critical Load Stall Begin: 0
Min ROB occupancy Critical Load Stall End: 400
Max ROB occupancy Critical Load Stall End: 0
 ROB Load Stall Begin Bucket Count 0: 5661745
 ROB Load Stall End Bucket Count 0: 5487120
 ROB Critical Load Stall Begin Bucket Count 0: 0
 ROB Critical Load Stall End Bucket Count 0: 0
 ROB Load Stall Begin Bucket Count 1: 302214
 ROB Load Stall End Bucket Count 1: 431958
 ROB Critical Load Stall Begin Bucket Count 1: 0
 ROB Critical Load Stall End Bucket Count 1: 0
 ROB Load Stall Begin Bucket Count 2: 86591
 ROB Load Stall End Bucket Count 2: 106895
 ROB Critical Load Stall Begin Bucket Count 2: 0
 ROB Critical Load Stall End Bucket Count 2: 0
 ROB Load Stall Begin Bucket Count 3: 49516
 ROB Load Stall End Bucket Count 3: 57174
 ROB Critical Load Stall Begin Bucket Count 3: 0
 ROB Critical Load Stall End Bucket Count 3: 0
 ROB Load Stall Begin Bucket Count 4: 34523
 ROB Load Stall End Bucket Count 4: 38227
 ROB Critical Load Stall Begin Bucket Count 4: 0
 ROB Critical Load Stall End Bucket Count 4: 0
 ROB Load Stall Begin Bucket Count 5: 39447
 ROB Load Stall End Bucket Count 5: 38385
 ROB Critical Load Stall Begin Bucket Count 5: 0
 ROB Critical Load Stall End Bucket Count 5: 0
 ROB Load Stall Begin Bucket Count 6: 178381
 ROB Load Stall End Bucket Count 6: 192658
 ROB Critical Load Stall Begin Bucket Count 6: 0
 ROB Critical Load Stall End Bucket Count 6: 0
PIST Tag Read Accesses: 0
PIST Read Accesses: 0
PIST Tag Write Accesses: 0
PIST Write Accesses: 0
Criticality detector called times: 0
Max global_stall_cycles_count: 0
Threshold Modified: 0 times, factor: 0
ITLB TOTAL     ACCESS:   17777023  HIT:   17775938  MISS:       1085  HIT %:    99.9939  MISS %: 0.00610338   MPKI: 0.01085
ITLB LOAD TRANSLATION ACCESS:   17777023  HIT:   17775938  MISS:       1085  HIT %:    99.9939  MISS %: 0.00610338   MPKI: 0.01085
ITLB PREFETCH  REQUESTED:          0  ISSUED:          0  USEFUL:          0  USELESS:          0
ITLB USEFUL LOAD PREFETCHES:          0 PREFETCH ISSUED TO LOWER LEVEL:          0  ACCURACY: -nan
ITLB TIMELY PREFETCHES:          0 LATE PREFETCHES: 0 DROPPED PREFETCHES: 0
ITLB PREFETCHES SAME FILL-ORIGIN LEVEL: 0 DIFFERENT FILL-ORIGIN LEVEL: 0
ITLB AVERAGE MISS LATENCY: 21.27 cycles
ITLB RQ	ACCESS:   19943078	FORWARD:          0	MERGED:    2165750	TO_CACHE:   17777328

DTLB TOTAL     ACCESS:   18046316  HIT:   18009714  MISS:      36602  HIT %:    99.7972  MISS %:   0.202823   MPKI: 0.36602
DTLB LOAD TRANSLATION ACCESS:   18046316  HIT:   18009714  MISS:      36602  HIT %:    99.7972  MISS %:   0.202823   MPKI: 0.36602
DTLB PREFETCH  REQUESTED:          0  ISSUED:          0  USEFUL:          0  USELESS:          0
DTLB USEFUL LOAD PREFETCHES:          0 PREFETCH ISSUED TO LOWER LEVEL:          0  ACCURACY: -nan
DTLB TIMELY PREFETCHES:          0 LATE PREFETCHES: 0 DROPPED PREFETCHES: 0
DTLB PREFETCHES SAME FILL-ORIGIN LEVEL: 0 DIFFERENT FILL-ORIGIN LEVEL: 0
DTLB AVERAGE MISS LATENCY: 31.5873 cycles
DTLB RQ	ACCESS:   19557076	FORWARD:          0	MERGED:    1493242	TO_CACHE:   18063834

STLB TOTAL     ACCESS:      37687  HIT:      32824  MISS:       4863  HIT %:    87.0963  MISS %:    12.9037   MPKI: 0.04863
STLB LOAD TRANSLATION ACCESS:      37687  HIT:      32824  MISS:       4863  HIT %:    87.0963  MISS %:    12.9037   MPKI: 0.04863
STLB PREFETCH  REQUESTED:          0  ISSUED:          0  USEFUL:          0  USELESS:          0
STLB USEFUL LOAD PREFETCHES:          0 PREFETCH ISSUED TO LOWER LEVEL:          0  ACCURACY: -nan
STLB TIMELY PREFETCHES:          0 LATE PREFETCHES: 0 DROPPED PREFETCHES: 0
STLB PREFETCHES SAME FILL-ORIGIN LEVEL: 0 DIFFERENT FILL-ORIGIN LEVEL: 0
STLB AVERAGE MISS LATENCY: 171.747 cycles
STLB RQ	ACCESS:      37687	FORWARD:          0	MERGED:          0	TO_CACHE:      37687

STLB Hit, L1D data hit: 0
STLB Hit, L2C data hit: 0
STLB Hit, LLC data hit: 0
STLB Hit, LLC data miss: 0
STLB STLB hints to L2: 0
L1D TOTAL     ACCESS:   18232378  HIT:   16985535  MISS:    1246843  HIT %:    93.1614  MISS %:    6.83862   MPKI: 12.4684
L1D LOAD      ACCESS:   13102990  HIT:   12372344  MISS:     730646  HIT %:    94.4238  MISS %:    5.57618   MPKI: 7.30646
L1D RFO       ACCESS:    5129388  HIT:    4613191  MISS:     516197  HIT %:    89.9365  MISS %:    10.0635   MPKI: 5.16197
L1D PREFETCH  REQUESTED:          0  ISSUED:          0  USEFUL:          0  USELESS:          0
L1D USEFUL LOAD PREFETCHES:          0 PREFETCH ISSUED TO LOWER LEVEL:          0  ACCURACY: -nan
L1D TIMELY PREFETCHES:          0 LATE PREFETCHES: 0 DROPPED PREFETCHES: 0
L1D PREFETCHES SAME FILL-ORIGIN LEVEL: 0 DIFFERENT FILL-ORIGIN LEVEL: 0
L1D AVERAGE MISS LATENCY: 61.6932 cycles
L1D RQ	ACCESS:   19390912	FORWARD:          0	MERGED:    5994494	TO_CACHE:   13364609
L1D WQ	ACCESS:    6299467	FORWARD:      31809	MERGED:     107000	TO_CACHE:    6192467

L1D UNIQUE REGIONS ACCESSED: 0
L1D REGIONS CONFLICTS: 0
L1D Cross Page Prefetch Requests: 0
L1D Same Page Prefetch Requests: 0
L1D ROI Sum of L1D PQ occupancy: 0
L1D PREFETCHES PUSHED FROM L2C: 0
L1I TOTAL     ACCESS:   19932743  HIT:   19906765  MISS:      25978  HIT %:    99.8697  MISS %:   0.130328   MPKI: 0.25978
L1I LOAD      ACCESS:   19932743  HIT:   19906765  MISS:      25978  HIT %:    99.8697  MISS %:   0.130328   MPKI: 0.25978
L1I PREFETCH  REQUESTED:          0  ISSUED:          0  USEFUL:          0  USELESS:          0
L1I USEFUL LOAD PREFETCHES:          0 PREFETCH ISSUED TO LOWER LEVEL:          0  ACCURACY: -nan
L1I TIMELY PREFETCHES:          0 LATE PREFETCHES: 0 DROPPED PREFETCHES: 0
L1I PREFETCHES SAME FILL-ORIGIN LEVEL: 0 DIFFERENT FILL-ORIGIN LEVEL: 0
L1I AVERAGE MISS LATENCY: 56.5793 cycles
L1I RQ	ACCESS:   30839937	FORWARD:          0	MERGED:   10896859	TO_CACHE:   19943078

BTB TOTAL     ACCESS:   15375964  HIT:   15356416  MISS:      19548  HIT %:    99.8729  MISS %:   0.127133   MPKI: 0.19548
BTB BRANCH_DIRECT_JUMP	ACCESS:     363450  HIT:     363248  MISS:        202
BTB BRANCH_INDIRECT	ACCESS:       3741  HIT:       3479  MISS:        262
BTB BRANCH_CONDITIONAL	ACCESS:   14789507  HIT:   14787581  MISS:       1926
BTB BRANCH_DIRECT_CALL	ACCESS:     109633  HIT:     108926  MISS:        707
BTB BRANCH_INDIRECT_CALL	ACCESS:          0  HIT:          0  MISS:          0
BTB BRANCH_RETURN	ACCESS:     109633  HIT:      93182  MISS:      16451
BTB BRANCH_OTHER ACCESS:          0  HIT:          0  MISS:          0

L2C TOTAL     ACCESS:    3260371  HIT:    2685453  MISS:     574918  HIT %:    82.3665  MISS %:    17.6335   MPKI: 5.74918
L2C LOAD      ACCESS:     756595  HIT:     533923  MISS:     222672  HIT %:    70.5692  MISS %:    29.4308   MPKI: 2.22672
L2C DATA LOAD MPKI: 1.97389
L2C INSTRUCTION LOAD MPKI: 0.25283
L2C RFO       ACCESS:     516169  HIT:     295998  MISS:     220171  HIT %:    57.3452  MISS %:    42.6548   MPKI: 2.20171
L2C PREFETCH  ACCESS:    1354819  HIT:    1231305  MISS:     123514  HIT %:    90.8834  MISS %:    9.11664   MPKI: 1.23514
L2C DATA PREFETCH MPKI: 1.23514
L2C INSTRUCTION PREFETCH MPKI: 0
L2C WRITEBACK ACCESS:     627566  HIT:     620805  MISS:       6761  HIT %:    98.9227  MISS %:    1.07734   MPKI: 0.06761
L2C LOAD TRANSLATION ACCESS:       5222  HIT:       3422  MISS:       1800  HIT %:    65.5304  MISS %:    34.4696   MPKI: 0.018
L2C PREFETCH  REQUESTED:    2997561  ISSUED:    2903190  USEFUL:     121636  USELESS:       1862
L2C USEFUL LOAD PREFETCHES:     121636 PREFETCH ISSUED TO LOWER LEVEL:    1571808  ACCURACY: 7.7386
L2C TIMELY PREFETCHES:     121636 LATE PREFETCHES: 19388 DROPPED PREFETCHES: 0
L2C PREFETCHES SAME FILL-ORIGIN LEVEL: 142902 DIFFERENT FILL-ORIGIN LEVEL: 1428906
L2C AVERAGE MISS LATENCY: 110.863 cycles
L2C RQ	ACCESS:    1278043	FORWARD:          0	MERGED:          0	TO_CACHE:    1277986
L2C WQ	ACCESS:     627566	FORWARD:         82	MERGED:          0	TO_CACHE:     627566
L2C PQ	ACCESS:    2903190	FORWARD:          0	MERGED:      86671	TO_CACHE:    2816494

L2C Instructions Evicting Data 21992
L2C Translations Evicting Data 1628
L2C Data Evicting Data 516988
L2C Instructions Evicting Instructions 3164
L2C Translations Evicting Instructions 163
L2C Data Evicting Instructions 22439
L2C Instructions Evicting Translations 127
L2C Translations Evicting Translations 9
L2C Data Evicting Translations 1647
L2C Dense regions hint from L2: 0
PSCL5 TOTAL     ACCESS:       4863  HIT:       4863  MISS:          0  HIT %:        100  MISS %:          0   MPKI: 0
PSCL5 LOAD TRANSLATION ACCESS:       4863  HIT:       4863  MISS:          0  HIT %:        100  MISS %:          0   MPKI: 0
PSCL5 PREFETCH  REQUESTED:          0  ISSUED:          0  USEFUL:          0  USELESS:          0
PSCL5 USEFUL LOAD PREFETCHES:          0 PREFETCH ISSUED TO LOWER LEVEL:          0  ACCURACY: -nan
PSCL5 TIMELY PREFETCHES:          0 LATE PREFETCHES: 0 DROPPED PREFETCHES: 0
PSCL5 PREFETCHES SAME FILL-ORIGIN LEVEL: 0 DIFFERENT FILL-ORIGIN LEVEL: 0

PSCL4 TOTAL     ACCESS:       4863  HIT:       4863  MISS:          0  HIT %:        100  MISS %:          0   MPKI: 0
PSCL4 LOAD TRANSLATION ACCESS:       4863  HIT:       4863  MISS:          0  HIT %:        100  MISS %:          0   MPKI: 0
PSCL4 PREFETCH  REQUESTED:          0  ISSUED:          0  USEFUL:          0  USELESS:          0
PSCL4 USEFUL LOAD PREFETCHES:          0 PREFETCH ISSUED TO LOWER LEVEL:          0  ACCURACY: -nan
PSCL4 TIMELY PREFETCHES:          0 LATE PREFETCHES: 0 DROPPED PREFETCHES: 0
PSCL4 PREFETCHES SAME FILL-ORIGIN LEVEL: 0 DIFFERENT FILL-ORIGIN LEVEL: 0

PSCL3 TOTAL     ACCESS:       4863  HIT:       4863  MISS:          0  HIT %:        100  MISS %:          0   MPKI: 0
PSCL3 LOAD TRANSLATION ACCESS:       4863  HIT:       4863  MISS:          0  HIT %:        100  MISS %:          0   MPKI: 0
PSCL3 PREFETCH  REQUESTED:          0  ISSUED:          0  USEFUL:          0  USELESS:          0
PSCL3 USEFUL LOAD PREFETCHES:          0 PREFETCH ISSUED TO LOWER LEVEL:          0  ACCURACY: -nan
PSCL3 TIMELY PREFETCHES:          0 LATE PREFETCHES: 0 DROPPED PREFETCHES: 0
PSCL3 PREFETCHES SAME FILL-ORIGIN LEVEL: 0 DIFFERENT FILL-ORIGIN LEVEL: 0

PSCL2 TOTAL     ACCESS:       4863  HIT:       4469  MISS:        394  HIT %:     91.898  MISS %:    8.10199   MPKI: 0.00394
PSCL2 LOAD TRANSLATION ACCESS:       4863  HIT:       4469  MISS:        394  HIT %:     91.898  MISS %:    8.10199   MPKI: 0.00394
PSCL2 PREFETCH  REQUESTED:          0  ISSUED:          0  USEFUL:          0  USELESS:          0
PSCL2 USEFUL LOAD PREFETCHES:          0 PREFETCH ISSUED TO LOWER LEVEL:          0  ACCURACY: -nan
PSCL2 TIMELY PREFETCHES:          0 LATE PREFETCHES: 0 DROPPED PREFETCHES: 0
PSCL2 PREFETCHES SAME FILL-ORIGIN LEVEL: 0 DIFFERENT FILL-ORIGIN LEVEL: 0

LLC TOTAL     ACCESS:    2105575  HIT:    1700178  MISS:     405397  HIT %:    80.7465  MISS %:    19.2535   MPKI: 4.05397
LLC LOAD      ACCESS:     203284  HIT:     170269  MISS:      33015  HIT %:    83.7592  MISS %:    16.2408   MPKI: 0.33015
LLC RFO       ACCESS:     220171  HIT:      41618  MISS:     178553  HIT %:    18.9026  MISS %:    81.0974   MPKI: 1.78553
LLC PREFETCH  ACCESS:    1389884  HIT:    1212345  MISS:     177539  HIT %:    87.2263  MISS %:    12.7737   MPKI: 1.77539
LLC WRITEBACK ACCESS:     290436  HIT:     275019  MISS:      15417  HIT %:    94.6918  MISS %:    5.30823   MPKI: 0.15417
LLC LOAD TRANSLATION ACCESS:       1800  HIT:        927  MISS:        873  HIT %:       51.5  MISS %:       48.5   MPKI: 0.00873
LLC PREFETCH  REQUESTED:          0  ISSUED:          0  USEFUL:      88755  USELESS:      81779
LLC USEFUL LOAD PREFETCHES:      88755 PREFETCH ISSUED TO LOWER LEVEL:     185836  ACCURACY: 47.7599
LLC TIMELY PREFETCHES:      88755 LATE PREFETCHES: 8297 DROPPED PREFETCHES: 0
LLC PREFETCHES SAME FILL-ORIGIN LEVEL: 181914 DIFFERENT FILL-ORIGIN LEVEL: 0
LLC AVERAGE MISS LATENCY: 188.004 cycles
LLC RQ	ACCESS:     425255	FORWARD:          0	MERGED:          0	TO_CACHE:     425255
LLC WQ	ACCESS:     290436	FORWARD:          0	MERGED:          0	TO_CACHE:     290436
LLC PQ	ACCESS:    1571808	FORWARD:          0	MERGED:      33437	TO_CACHE:    1538371

LLC Dense regions hint to LLC: 0

RAW hits: 141466
Loads Generated: 19532379
Loads sent to L1D: 19390912
Stores Generated: 6299455
Stores sent to L1D: 6299467
Major fault: 0 Minor fault: 7689
Allocated PAGES: 7689
 All Calls: 1472249
 Critical Calls: 574623
------------------
Depth Distribution
------------------
depth 0: 0
depth 1: 497252
depth 2: 465904
depth 3: 433360
depth 4: 394728
depth 5: 343663
depth 6: 284473
depth 7: 206928
depth 8: 136746
depth 9: 71397
depth 10: 32423
depth 11: 19038
depth 12: 10918
depth 13: 4816
depth 14: 912
depth 15: 894
depth 16: 1
depth 17: 0
depth 18: 0
depth 19: 0
depth 20: 0
depth 21: 0
depth 22: 0
depth 23: 0
depth 24: 0
depth 25: 0
depth 26: 0
depth 27: 0
depth 28: 0
depth 29: 0
Total: 2903453
-----------------------------
-----------------------------
	Captured at Filter
-----------------------------
depth 0: 0
depth 1: 52988
depth 2: 50304
depth 3: 46837
depth 4: 41942
depth 5: 35268
depth 6: 27859
depth 7: 18258
depth 8: 10807
depth 9: 4376
depth 10: 1458
depth 11: 506
depth 12: 63
depth 13: 27
depth 14: 1
depth 15: 0
depth 16: 0
depth 17: 0
depth 18: 0
depth 19: 0
depth 20: 0
depth 21: 0
depth 22: 0
depth 23: 0
depth 24: 0
depth 25: 0
depth 26: 0
depth 27: 0
depth 28: 0
depth 29: 0
-----------------------------
-----------------------------
		Lost at Page
-----------------------------
depth 0: 0
depth 1: 13934
depth 2: 18658
depth 3: 25105
depth 4: 29948
depth 5: 33640
depth 6: 34641
depth 7: 30082
depth 8: 23639
depth 9: 14307
depth 10: 7515
depth 11: 5004
depth 12: 3079
depth 13: 1505
depth 14: 346
depth 15: 358
depth 16: 0
depth 17: 0
depth 18: 0
depth 19: 0
depth 20: 0
depth 21: 0
depth 22: 0
depth 23: 0
depth 24: 0
depth 25: 0
depth 26: 0
depth 27: 0
depth 28: 0
depth 29: 0
-----------------------------
-----------------------------
	Lost due to PQ Size
-----------------------------
94371
-----------------------------
ST read accesses: 559335
ST write accesses: 9553
PT read accesses: 20631869
PT write accesses: 827528
FILTER read accesses: 4432058
FILTER write accesses: 1075339
GHR read accesses: 1537348
GHR write accesses: 241745
GHR counter read accesses: 17462020
GHR counter write accesses: 1076746
ST tag read accesses: 222139874
ST tag write accesses: 4772387

DRAM Statistics
 CHANNEL 0
 RQ ROW_BUFFER_HIT:     126162  ROW_BUFFER_MISS:     263763
 DBUS_CONGESTED:       1044
 WQ ROW_BUFFER_HIT:      40538  ROW_BUFFER_MISS:     178807  FULL:          0

 AVG_CONGESTED_CYCLE: 5
 All warmup complete: 2
Channel 0 Bank busy for read cycles: 0
Channel 0 Bank busy for write cycles: 0
Channel 0
Rank 0
0banks busy for read cycles: 100888820
0banks busy for write cycles: 15281
1banks busy for read cycles: 6847354
1banks busy for write cycles: 1667494
2banks busy for read cycles: 5335785
2banks busy for write cycles: 945601
3banks busy for read cycles: 2392807
3banks busy for write cycles: 648095
4banks busy for read cycles: 1404062
4banks busy for write cycles: 517952
5banks busy for read cycles: 759126
5banks busy for write cycles: 448454
6banks busy for read cycles: 537450
6banks busy for write cycles: 403508
7banks busy for read cycles: 425981
7banks busy for write cycles: 576304
8banks busy for read cycles: 780816
8banks busy for write cycles: 3248583

CPU 0 Branch Prediction Accuracy: 99.0212% MPKI: 1.53793 Average ROB Occupancy at Mispredict: 21.0515
Branch types
NOT_BRANCH: 84286909 84.2869%
BRANCH_DIRECT_JUMP: 363450 0.36345%
BRANCH_INDIRECT: 3741 0.003741%
BRANCH_CONDITIONAL: 15126375 15.1264%
BRANCH_DIRECT_CALL: 109633 0.109633%
BRANCH_INDIRECT_CALL: 0 0%
BRANCH_RETURN: 109633 0.109633%
BRANCH_OTHER: 0 0%

DRAM PAGES: 1048576
Allocated PAGES: 7689
