
*** ChampSim Multicore Out-of-Order Simulator ***

Warmup Instructions: 50000000
Simulation Instructions: 100000000
Number of CPUs: 1
LLC sets: 2048
LLC ways: 16
Off-chip DRAM Size: 4096 MB Channels: 1 Width: 64-bit Data Rate: 6400 MT/s
CPU 0 runs ../SPEC_2006_2017//628.pop2_s-17B.champsimtrace.xz
.xz
NUM_OF_IPS_IN_CRITICAL_IP_TRAINING: 64
NUM_OF_CRITICAL_IP_TRAINING_TABLE_WAYS: 2
NUM_OF_CRITICAL_IP_TRAINING_TABLE_SETS: 32
WOBBLY_CRITICAL_IP_CACHE_SETS: 32
WOBBLY_CRITICAL_IP_CACHE_WAYS: 4
BTB has LRU replacement policy
ITLB has LRU replacement policy
DTLB has LRU replacement policy
STLB has LRU replacement policy
L1I has LRU replacement policy
IP Table Entries: 64
L1D has LRU replacement policy
Initialize SRRIP state for L2C
Initialize DRRIP state for LLC
Heartbeat CPU 0 instructions: 10000003 cycles: 2998121 heartbeat IPC: 3.33542 cumulative IPC: 3.33542 (Simulation time: 0 hr 3 min 31 sec) 
Heartbeat CPU 0 instructions: 20000001 cycles: 5996242 heartbeat IPC: 3.33542 cumulative IPC: 3.33542 (Simulation time: 0 hr 6 min 57 sec) 
Heartbeat CPU 0 instructions: 30000003 cycles: 8994100 heartbeat IPC: 3.33572 cumulative IPC: 3.33552 (Simulation time: 0 hr 10 min 12 sec) 
Heartbeat CPU 0 instructions: 40000003 cycles: 11991784 heartbeat IPC: 3.33591 cumulative IPC: 3.33562 (Simulation time: 0 hr 13 min 27 sec) 
Heartbeat CPU 0 instructions: 50000003 cycles: 14991486 heartbeat IPC: 3.33366 cumulative IPC: 3.33523 (Simulation time: 0 hr 16 min 46 sec) 

Warmup complete CPU 0 instructions: 50000003 cycles: 14991486 (Simulation time: 0 hr 16 min 46 sec) 

% increase in all ip prefetch 273.661
% increase in all ip prefetch 4.9573
% increase in all ip prefetch -1.52724
Heartbeat CPU 0 instructions: 60000000 cycles: 27109554 heartbeat IPC: 0.825214 cumulative IPC: 0.825214 (Simulation time: 0 hr 19 min 48 sec) 
Heartbeat CPU 0 instructions: 70000002 cycles: 39077623 heartbeat IPC: 0.835557 cumulative IPC: 0.830353 (Simulation time: 0 hr 22 min 42 sec) 
Heartbeat CPU 0 instructions: 80000000 cycles: 50807494 heartbeat IPC: 0.852524 cumulative IPC: 0.837614 (Simulation time: 0 hr 25 min 25 sec) 
Heartbeat CPU 0 instructions: 90000003 cycles: 64570860 heartbeat IPC: 0.726567 cumulative IPC: 0.806787 (Simulation time: 0 hr 28 min 10 sec) 
Heartbeat CPU 0 instructions: 100000001 cycles: 76317500 heartbeat IPC: 0.851307 cumulative IPC: 0.815315 (Simulation time: 0 hr 31 min 6 sec) 
Heartbeat CPU 0 instructions: 110000000 cycles: 88916252 heartbeat IPC: 0.793729 cumulative IPC: 0.811636 (Simulation time: 0 hr 33 min 56 sec) 
Heartbeat CPU 0 instructions: 120000000 cycles: 102028960 heartbeat IPC: 0.762619 cumulative IPC: 0.804251 (Simulation time: 0 hr 36 min 28 sec) 
Heartbeat CPU 0 instructions: 130000000 cycles: 115632743 heartbeat IPC: 0.73509 cumulative IPC: 0.794903 (Simulation time: 0 hr 39 min 22 sec) 
Heartbeat CPU 0 instructions: 140000002 cycles: 130158105 heartbeat IPC: 0.688451 cumulative IPC: 0.781476 (Simulation time: 0 hr 41 min 55 sec) 
Heartbeat CPU 0 instructions: 150000000 cycles: 143365705 heartbeat IPC: 0.75714 cumulative IPC: 0.778973 (Simulation time: 0 hr 44 min 8 sec) 
Finished CPU 0 instructions: 100000003 cycles: 128374224 cumulative IPC: 0.778973 (Simulation time: 0 hr 44 min 8 sec) 

ChampSim completed all CPUs

Region of Interest Statistics

CPU 0 cumulative IPC: 0.778973 instructions: 100000003 cycles: 128374224

CPU 0 Average Load ROB stall cycles: 2.34425e+07
CPU 0 Fraction of times ROB stalled by Loads: 29.1742
CPU 0 Percentage of Load stall cycles in Total stall cycles: 5.0461e+08
Issued all: 63739213
Issued LT all: 50323240
rob_not_full_when_issued_lt_all: 45924120
Issued LT one: 43062239
rob_not_full_when_issued_lt_one: 39118433
 Total stall cycles: 103728437
 Total load stall cycles: 523423903430978
CPU 0 NUM of IPS identified critical: 0
CPU 0 Num of Load IPs stalling ROB: 5935
Threshold modification factor: -2
Max PIST entries: 64
Min PIST entries: 0
Avg PIST entries: 31.6933
Trouble in retire width: 0.92807
MaC = Marked as critical.
lt_50_percent_before_Mac: 0
gt_90_percent_before_Mac: 0
gt_75_percent_before_Mac: 0
gt_50_percent_before_Mac: 0
stall_proportion_bin_same_before_after: 0
stall_proportion_bin_lower_before_after: 0
stall_proportion_bin_upper_before_after: 0
average_stall_proportion_before: -nan
average_stall_proportion_after: -nan
Critical IP stalls, total frequency: 0
Non-critical IP stalls, total frequency: 6514021
Total Freq all stalling IPs: 6514021
stat_90_percent_critical_ip_stalls_freq: 5862640
stat_90_percent_non_critical_ip_stalls_freq: 651381
Critical_IP_ROB_Stalls_Bucket_0: 0
Non-critical_IP_ROB_Stalls_Bucket_0: 5719800
Critical_IP_ROB_Stalls_Bucket_1: 0
Non-critical_IP_ROB_Stalls_Bucket_1: 384920
Critical_IP_ROB_Stalls_Bucket_2: 0
Non-critical_IP_ROB_Stalls_Bucket_2: 95307
Critical_IP_ROB_Stalls_Bucket_3: 0
Non-critical_IP_ROB_Stalls_Bucket_3: 52431
Critical_IP_ROB_Stalls_Bucket_4: 0
Non-critical_IP_ROB_Stalls_Bucket_4: 34361
Critical_IP_ROB_Stalls_Bucket_5: 0
Non-critical_IP_ROB_Stalls_Bucket_5: 33923
Critical_IP_ROB_Stalls_Bucket_6: 0
Non-critical_IP_ROB_Stalls_Bucket_6: 193279
0 => IPs accounting for >50 percent of stalls, 1 => 55, 2 => 60, 3 => 65 and so on till 90.
percent50: 50.1257 num IPs:  102
percent55: 55.0491 num IPs: 125
percent60: 60.0418 num IPs: 150
percent65: 65.0778 num IPs: 177
percent70: 70.1019 num IPs: 210
percent75: 75.0196 num IPs: 250
percent80: 80.0362 num IPs: 304
percent85: 85.0004 num IPs: 383
percent90: 90.0004 num IPs: 500
Critical_ROB_Stalls_Percent_0_Bucket_0: 2998061
Non-critical_ROB_Stalls_Percent_0_Bucket_0: 2721739
Critical_ROB_Stalls_Percent_0_Bucket_1: 109286
Non-critical_ROB_Stalls_Percent_0_Bucket_1: 275634
Critical_ROB_Stalls_Percent_0_Bucket_2: 29225
Non-critical_ROB_Stalls_Percent_0_Bucket_2: 66082
Critical_ROB_Stalls_Percent_0_Bucket_3: 14875
Non-critical_ROB_Stalls_Percent_0_Bucket_3: 37556
Critical_ROB_Stalls_Percent_0_Bucket_4: 7927
Non-critical_ROB_Stalls_Percent_0_Bucket_4: 26434
Critical_ROB_Stalls_Percent_0_Bucket_5: 6217
Non-critical_ROB_Stalls_Percent_0_Bucket_5: 27706
Critical_ROB_Stalls_Percent_0_Bucket_6: 99609
Non-critical_ROB_Stalls_Percent_0_Bucket_6: 93670
Critical_ROB_Stalls_Percent_1_Bucket_0: 3286711
Non-critical_ROB_Stalls_Percent_1_Bucket_0: 2433089
Critical_ROB_Stalls_Percent_1_Bucket_1: 135451
Non-critical_ROB_Stalls_Percent_1_Bucket_1: 249469
Critical_ROB_Stalls_Percent_1_Bucket_2: 33234
Non-critical_ROB_Stalls_Percent_1_Bucket_2: 62073
Critical_ROB_Stalls_Percent_1_Bucket_3: 15576
Non-critical_ROB_Stalls_Percent_1_Bucket_3: 36855
Critical_ROB_Stalls_Percent_1_Bucket_4: 8529
Non-critical_ROB_Stalls_Percent_1_Bucket_4: 25832
Critical_ROB_Stalls_Percent_1_Bucket_5: 6588
Non-critical_ROB_Stalls_Percent_1_Bucket_5: 27335
Critical_ROB_Stalls_Percent_1_Bucket_6: 99821
Non-critical_ROB_Stalls_Percent_1_Bucket_6: 93458
Critical_ROB_Stalls_Percent_2_Bucket_0: 3592176
Non-critical_ROB_Stalls_Percent_2_Bucket_0: 2127624
Critical_ROB_Stalls_Percent_2_Bucket_1: 142643
Non-critical_ROB_Stalls_Percent_2_Bucket_1: 242277
Critical_ROB_Stalls_Percent_2_Bucket_2: 34659
Non-critical_ROB_Stalls_Percent_2_Bucket_2: 60648
Critical_ROB_Stalls_Percent_2_Bucket_3: 16686
Non-critical_ROB_Stalls_Percent_2_Bucket_3: 35745
Critical_ROB_Stalls_Percent_2_Bucket_4: 9499
Non-critical_ROB_Stalls_Percent_2_Bucket_4: 24862
Critical_ROB_Stalls_Percent_2_Bucket_5: 7818
Non-critical_ROB_Stalls_Percent_2_Bucket_5: 26105
Critical_ROB_Stalls_Percent_2_Bucket_6: 107657
Non-critical_ROB_Stalls_Percent_2_Bucket_6: 85622
Critical_ROB_Stalls_Percent_3_Bucket_0: 3878627
Non-critical_ROB_Stalls_Percent_3_Bucket_0: 1841173
Critical_ROB_Stalls_Percent_3_Bucket_1: 148256
Non-critical_ROB_Stalls_Percent_3_Bucket_1: 236664
Critical_ROB_Stalls_Percent_3_Bucket_2: 37852
Non-critical_ROB_Stalls_Percent_3_Bucket_2: 57455
Critical_ROB_Stalls_Percent_3_Bucket_3: 20475
Non-critical_ROB_Stalls_Percent_3_Bucket_3: 31956
Critical_ROB_Stalls_Percent_3_Bucket_4: 12738
Non-critical_ROB_Stalls_Percent_3_Bucket_4: 21623
Critical_ROB_Stalls_Percent_3_Bucket_5: 13058
Non-critical_ROB_Stalls_Percent_3_Bucket_5: 20865
Critical_ROB_Stalls_Percent_3_Bucket_6: 128174
Non-critical_ROB_Stalls_Percent_3_Bucket_6: 65105
Critical_ROB_Stalls_Percent_4_Bucket_0: 4191399
Non-critical_ROB_Stalls_Percent_4_Bucket_0: 1528401
Critical_ROB_Stalls_Percent_4_Bucket_1: 159832
Non-critical_ROB_Stalls_Percent_4_Bucket_1: 225088
Critical_ROB_Stalls_Percent_4_Bucket_2: 39434
Non-critical_ROB_Stalls_Percent_4_Bucket_2: 55873
Critical_ROB_Stalls_Percent_4_Bucket_3: 20908
Non-critical_ROB_Stalls_Percent_4_Bucket_3: 31523
Critical_ROB_Stalls_Percent_4_Bucket_4: 13072
Non-critical_ROB_Stalls_Percent_4_Bucket_4: 21289
Critical_ROB_Stalls_Percent_4_Bucket_5: 13353
Non-critical_ROB_Stalls_Percent_4_Bucket_5: 20570
Critical_ROB_Stalls_Percent_4_Bucket_6: 128455
Non-critical_ROB_Stalls_Percent_4_Bucket_6: 64824
Critical_ROB_Stalls_Percent_5_Bucket_0: 4471257
Non-critical_ROB_Stalls_Percent_5_Bucket_0: 1248543
Critical_ROB_Stalls_Percent_5_Bucket_1: 184296
Non-critical_ROB_Stalls_Percent_5_Bucket_1: 200624
Critical_ROB_Stalls_Percent_5_Bucket_2: 46764
Non-critical_ROB_Stalls_Percent_5_Bucket_2: 48543
Critical_ROB_Stalls_Percent_5_Bucket_3: 24621
Non-critical_ROB_Stalls_Percent_5_Bucket_3: 27810
Critical_ROB_Stalls_Percent_5_Bucket_4: 15383
Non-critical_ROB_Stalls_Percent_5_Bucket_4: 18978
Critical_ROB_Stalls_Percent_5_Bucket_5: 14604
Non-critical_ROB_Stalls_Percent_5_Bucket_5: 19319
Critical_ROB_Stalls_Percent_5_Bucket_6: 129866
Non-critical_ROB_Stalls_Percent_5_Bucket_6: 63413
Critical_ROB_Stalls_Percent_6_Bucket_0: 4739464
Non-critical_ROB_Stalls_Percent_6_Bucket_0: 980336
Critical_ROB_Stalls_Percent_6_Bucket_1: 224164
Non-critical_ROB_Stalls_Percent_6_Bucket_1: 160756
Critical_ROB_Stalls_Percent_6_Bucket_2: 52760
Non-critical_ROB_Stalls_Percent_6_Bucket_2: 42547
Critical_ROB_Stalls_Percent_6_Bucket_3: 29161
Non-critical_ROB_Stalls_Percent_6_Bucket_3: 23270
Critical_ROB_Stalls_Percent_6_Bucket_4: 18522
Non-critical_ROB_Stalls_Percent_6_Bucket_4: 15839
Critical_ROB_Stalls_Percent_6_Bucket_5: 16639
Non-critical_ROB_Stalls_Percent_6_Bucket_5: 17284
Critical_ROB_Stalls_Percent_6_Bucket_6: 132861
Non-critical_ROB_Stalls_Percent_6_Bucket_6: 60418
Critical_ROB_Stalls_Percent_7_Bucket_0: 5026317
Non-critical_ROB_Stalls_Percent_7_Bucket_0: 693483
Critical_ROB_Stalls_Percent_7_Bucket_1: 248747
Non-critical_ROB_Stalls_Percent_7_Bucket_1: 136173
Critical_ROB_Stalls_Percent_7_Bucket_2: 57448
Non-critical_ROB_Stalls_Percent_7_Bucket_2: 37859
Critical_ROB_Stalls_Percent_7_Bucket_3: 32236
Non-critical_ROB_Stalls_Percent_7_Bucket_3: 20195
Critical_ROB_Stalls_Percent_7_Bucket_4: 20388
Non-critical_ROB_Stalls_Percent_7_Bucket_4: 13973
Critical_ROB_Stalls_Percent_7_Bucket_5: 17947
Non-critical_ROB_Stalls_Percent_7_Bucket_5: 15976
Critical_ROB_Stalls_Percent_7_Bucket_6: 133863
Non-critical_ROB_Stalls_Percent_7_Bucket_6: 59416
Critical_ROB_Stalls_Percent_8_Bucket_0: 5283754
Non-critical_ROB_Stalls_Percent_8_Bucket_0: 436046
Critical_ROB_Stalls_Percent_8_Bucket_1: 280586
Non-critical_ROB_Stalls_Percent_8_Bucket_1: 104334
Critical_ROB_Stalls_Percent_8_Bucket_2: 67325
Non-critical_ROB_Stalls_Percent_8_Bucket_2: 27982
Critical_ROB_Stalls_Percent_8_Bucket_3: 36341
Non-critical_ROB_Stalls_Percent_8_Bucket_3: 16090
Critical_ROB_Stalls_Percent_8_Bucket_4: 22535
Non-critical_ROB_Stalls_Percent_8_Bucket_4: 11826
Critical_ROB_Stalls_Percent_8_Bucket_5: 20555
Non-critical_ROB_Stalls_Percent_8_Bucket_5: 13368
Critical_ROB_Stalls_Percent_8_Bucket_6: 151544
Non-critical_ROB_Stalls_Percent_8_Bucket_6: 41735
Average ROB occupancy Load Stall Begin: 32.1849
Average ROB occupancy Load Stall End: 37.8295
Min ROB occupancy Load Stall Begin: 1
Max ROB occupancy Load Stall Begin: 352
Min ROB occupancy Load Stall End: 1
Max ROB occupancy Load Stall End: 352
Average ROB occupancy Critical Load Stall Begin: -nan
Average ROB occupancy Critical Load Stall End: -nan
Min ROB occupancy Critical Load Stall Begin: 400
Max ROB occupancy Critical Load Stall Begin: 0
Min ROB occupancy Critical Load Stall End: 400
Max ROB occupancy Critical Load Stall End: 0
 ROB Load Stall Begin Bucket Count 0: 5863304
 ROB Load Stall End Bucket Count 0: 5719800
 ROB Critical Load Stall Begin Bucket Count 0: 0
 ROB Critical Load Stall End Bucket Count 0: 0
 ROB Load Stall Begin Bucket Count 1: 279808
 ROB Load Stall End Bucket Count 1: 384920
 ROB Critical Load Stall Begin Bucket Count 1: 0
 ROB Critical Load Stall End Bucket Count 1: 0
 ROB Load Stall Begin Bucket Count 2: 78901
 ROB Load Stall End Bucket Count 2: 95307
 ROB Critical Load Stall Begin Bucket Count 2: 0
 ROB Critical Load Stall End Bucket Count 2: 0
 ROB Load Stall Begin Bucket Count 3: 45482
 ROB Load Stall End Bucket Count 3: 52431
 ROB Critical Load Stall Begin Bucket Count 3: 0
 ROB Critical Load Stall End Bucket Count 3: 0
 ROB Load Stall Begin Bucket Count 4: 31413
 ROB Load Stall End Bucket Count 4: 34361
 ROB Critical Load Stall Begin Bucket Count 4: 0
 ROB Critical Load Stall End Bucket Count 4: 0
 ROB Load Stall Begin Bucket Count 5: 37589
 ROB Load Stall End Bucket Count 5: 33923
 ROB Critical Load Stall Begin Bucket Count 5: 0
 ROB Critical Load Stall End Bucket Count 5: 0
 ROB Load Stall Begin Bucket Count 6: 177524
 ROB Load Stall End Bucket Count 6: 193279
 ROB Critical Load Stall Begin Bucket Count 6: 0
 ROB Critical Load Stall End Bucket Count 6: 0
PIST Tag Read Accesses: 1274690
PIST Read Accesses: 637345
PIST Tag Write Accesses: 1274690
PIST Write Accesses: 637345
Criticality detector called times: 5062422
Max global_stall_cycles_count: 1556940
Threshold Modified: 2 times, factor: -2
Sturdy critical IP cache stats: 
 Unused entries: 0
CIC Tag Read Accesses: 0
CIC Read Accesses: 0
CIC Tag Write Accesses: 0
CIC Write Accesses: 0
Wobbly critical IP cache stats: 
 Unused entries: 0
CIC Tag Read Accesses: 137548584
CIC Read Accesses: 0
CIC Tag Write Accesses: 36723
CIC Write Accesses: 0
ITLB TOTAL     ACCESS:   17781930  HIT:   17780845  MISS:       1085  HIT %:    99.9939  MISS %:  0.0061017   MPKI: 0.01085
ITLB LOAD TRANSLATION ACCESS:   17781930  HIT:   17780845  MISS:       1085  HIT %:    99.9939  MISS %:  0.0061017   MPKI: 0.01085
ITLB PREFETCH  REQUESTED:          0  ISSUED:          0  USEFUL:          0  USELESS:          0
ITLB USEFUL LOAD PREFETCHES:          0 PREFETCH ISSUED TO LOWER LEVEL:          0  ACCURACY: -nan
ITLB TIMELY PREFETCHES:          0 LATE PREFETCHES: 0 DROPPED PREFETCHES: 0
ITLB PREFETCHES SAME FILL-ORIGIN LEVEL: 0 DIFFERENT FILL-ORIGIN LEVEL: 0
ITLB AVERAGE MISS LATENCY: 20.5724 cycles
ITLB RQ	ACCESS:   19947377	FORWARD:          0	MERGED:    2165146	TO_CACHE:   17782231

DTLB TOTAL     ACCESS:   18098251  HIT:   18061646  MISS:      36605  HIT %:    99.7977  MISS %:   0.202257   MPKI: 0.36605
DTLB LOAD TRANSLATION ACCESS:   18098251  HIT:   18061646  MISS:      36605  HIT %:    99.7977  MISS %:   0.202257   MPKI: 0.36605
DTLB PREFETCH  REQUESTED:          0  ISSUED:          0  USEFUL:          0  USELESS:          0
DTLB USEFUL LOAD PREFETCHES:          0 PREFETCH ISSUED TO LOWER LEVEL:          0  ACCURACY: -nan
DTLB TIMELY PREFETCHES:          0 LATE PREFETCHES: 0 DROPPED PREFETCHES: 0
DTLB PREFETCHES SAME FILL-ORIGIN LEVEL: 0 DIFFERENT FILL-ORIGIN LEVEL: 0
DTLB AVERAGE MISS LATENCY: 31.5554 cycles
DTLB RQ	ACCESS:   19615705	FORWARD:          0	MERGED:    1499802	TO_CACHE:   18115903

STLB TOTAL     ACCESS:     561289  HIT:     556424  MISS:       4865  HIT %:    99.1332  MISS %:   0.866755   MPKI: 0.04865
STLB LOAD TRANSLATION ACCESS:      37690  HIT:      32825  MISS:       4865  HIT %:    87.0921  MISS %:    12.9079   MPKI: 0.04865
STLB TRANSLATION FROM L1D PREFETCHER ACCESS:     523599  HIT:     523599  MISS:          0  HIT %:        100  MISS %:          0   MPKI: 0
STLB PREFETCH  REQUESTED:          0  ISSUED:          0  USEFUL:          0  USELESS:          0
STLB USEFUL LOAD PREFETCHES:          0 PREFETCH ISSUED TO LOWER LEVEL:          0  ACCURACY: -nan
STLB TIMELY PREFETCHES:          0 LATE PREFETCHES: 0 DROPPED PREFETCHES: 0
STLB PREFETCHES SAME FILL-ORIGIN LEVEL: 0 DIFFERENT FILL-ORIGIN LEVEL: 0
STLB AVERAGE MISS LATENCY: 171.232 cycles
STLB RQ	ACCESS:    1206607	FORWARD:          0	MERGED:     645318	TO_CACHE:     561289

STLB Hit, L1D data hit: 0
STLB Hit, L2C data hit: 0
STLB Hit, LLC data hit: 0
STLB Hit, LLC data miss: 0
STLB STLB hints to L2: 0
L1D TOTAL     ACCESS:   19571597  HIT:   18192862  MISS:    1378735  HIT %:    92.9554  MISS %:    7.04457   MPKI: 13.7873
L1D LOAD      ACCESS:   13273834  HIT:   12798867  MISS:     474967  HIT %:    96.4218  MISS %:    3.57822   MPKI: 4.74967
L1D RFO       ACCESS:    5135327  HIT:    4612710  MISS:     522617  HIT %:    89.8231  MISS %:    10.1769   MPKI: 5.22617
L1D PREFETCH  ACCESS:    1162436  HIT:     781285  MISS:     381151  HIT %:     67.211  MISS %:     32.789   MPKI: 3.81151
L1D PREFETCH  REQUESTED:    2404447  ISSUED:    2337845  USEFUL:     276285  USELESS:     104666
L1D USEFUL LOAD PREFETCHES:     276285 PREFETCH ISSUED TO LOWER LEVEL:     411767  ACCURACY: 67.0974
L1D TIMELY PREFETCHES:     276285 LATE PREFETCHES: 5326 DROPPED PREFETCHES: 0
L1D PREFETCHES SAME FILL-ORIGIN LEVEL: 411767 DIFFERENT FILL-ORIGIN LEVEL: 0
L1D AVERAGE MISS LATENCY: 319854 cycles
L1D RQ	ACCESS:   19397367	FORWARD:          0	MERGED:    5941704	TO_CACHE:   13421981
L1D WQ	ACCESS:    6299467	FORWARD:      33689	MERGED:     105743	TO_CACHE:    6193724
L1D PQ	ACCESS:    1168928	FORWARD:          0	MERGED:          4	TO_CACHE:    1168917

L1D UNIQUE REGIONS ACCESSED: 0
L1D REGIONS CONFLICTS: 0
L1D Cross Page Prefetch Requests: 0
L1D Same Page Prefetch Requests: 5415346
L1D ROI Sum of L1D PQ occupancy: 16837099
L1D PREFETCHES PUSHED FROM L2C: 0
L1I TOTAL     ACCESS:   19937069  HIT:   19911091  MISS:      25978  HIT %:    99.8697  MISS %:     0.1303   MPKI: 0.25978
L1I LOAD      ACCESS:   19937069  HIT:   19911091  MISS:      25978  HIT %:    99.8697  MISS %:     0.1303   MPKI: 0.25978
L1I PREFETCH  REQUESTED:          0  ISSUED:          0  USEFUL:          0  USELESS:          0
L1I USEFUL LOAD PREFETCHES:          0 PREFETCH ISSUED TO LOWER LEVEL:          0  ACCURACY: -nan
L1I TIMELY PREFETCHES:          0 LATE PREFETCHES: 0 DROPPED PREFETCHES: 0
L1I PREFETCHES SAME FILL-ORIGIN LEVEL: 0 DIFFERENT FILL-ORIGIN LEVEL: 0
L1I AVERAGE MISS LATENCY: 56.9662 cycles
L1I RQ	ACCESS:   30850505	FORWARD:          0	MERGED:   10903128	TO_CACHE:   19947377

BTB TOTAL     ACCESS:   15375966  HIT:   15356418  MISS:      19548  HIT %:    99.8729  MISS %:   0.127133   MPKI: 0.19548
BTB BRANCH_DIRECT_JUMP	ACCESS:     363450  HIT:     363248  MISS:        202
BTB BRANCH_INDIRECT	ACCESS:       3741  HIT:       3479  MISS:        262
BTB BRANCH_CONDITIONAL	ACCESS:   14789509  HIT:   14787583  MISS:       1926
BTB BRANCH_DIRECT_CALL	ACCESS:     109633  HIT:     108926  MISS:        707
BTB BRANCH_INDIRECT_CALL	ACCESS:          0  HIT:          0  MISS:          0
BTB BRANCH_RETURN	ACCESS:     109633  HIT:      93182  MISS:      16451
BTB BRANCH_OTHER ACCESS:          0  HIT:          0  MISS:          0

L2C TOTAL     ACCESS:    3253218  HIT:    2628822  MISS:     624396  HIT %:    80.8068  MISS %:    19.1932   MPKI: 6.24396
L2C LOAD      ACCESS:     495595  HIT:     354919  MISS:     140676  HIT %:    71.6147  MISS %:    28.3853   MPKI: 1.40676
L2C DATA LOAD MPKI: 1.14993
L2C INSTRUCTION LOAD MPKI: 0.25683
L2C RFO       ACCESS:     522594  HIT:     298632  MISS:     223962  HIT %:    57.1442  MISS %:    42.8558   MPKI: 2.23962
L2C PREFETCH  ACCESS:    1592508  HIT:    1341530  MISS:     250978  HIT %:    84.2401  MISS %:    15.7599   MPKI: 2.50978
L2C DATA PREFETCH MPKI: 2.50978
L2C INSTRUCTION PREFETCH MPKI: 0
L2C WRITEBACK ACCESS:     637297  HIT:     630339  MISS:       6958  HIT %:    98.9082  MISS %:     1.0918   MPKI: 0.06958
L2C LOAD TRANSLATION ACCESS:       5224  HIT:       3402  MISS:       1822  HIT %:    65.1225  MISS %:    34.8775   MPKI: 0.01822
L2C PREFETCH  REQUESTED:    1795843  ISSUED:    1716014  USEFUL:      27744  USELESS:     222702
L2C USEFUL LOAD PREFETCHES:      27744 PREFETCH ISSUED TO LOWER LEVEL:     251190  ACCURACY: 11.045
L2C TIMELY PREFETCHES:      27744 LATE PREFETCHES: 212 DROPPED PREFETCHES: 0
L2C PREFETCHES SAME FILL-ORIGIN LEVEL: 203266 DIFFERENT FILL-ORIGIN LEVEL: 0
L2C AVERAGE MISS LATENCY: 155.498 cycles
L2C RQ	ACCESS:    1023460	FORWARD:          0	MERGED:          0	TO_CACHE:    1023413
L2C WQ	ACCESS:     637297	FORWARD:         60	MERGED:          0	TO_CACHE:     637297
L2C PQ	ACCESS:    2102491	FORWARD:          0	MERGED:     405029	TO_CACHE:    1697449

L2C Instructions Evicting Data 22867
L2C Translations Evicting Data 1681
L2C Data Evicting Data 565009
L2C Instructions Evicting Instructions 2717
L2C Translations Evicting Instructions 132
L2C Data Evicting Instructions 23228
L2C Instructions Evicting Translations 99
L2C Translations Evicting Translations 9
L2C Data Evicting Translations 1696
L2C Dense regions hint from L2: 0
PSCL5 TOTAL     ACCESS:       4865  HIT:       4865  MISS:          0  HIT %:        100  MISS %:          0   MPKI: 0
PSCL5 LOAD TRANSLATION ACCESS:       4865  HIT:       4865  MISS:          0  HIT %:        100  MISS %:          0   MPKI: 0
PSCL5 PREFETCH  REQUESTED:          0  ISSUED:          0  USEFUL:          0  USELESS:          0
PSCL5 USEFUL LOAD PREFETCHES:          0 PREFETCH ISSUED TO LOWER LEVEL:          0  ACCURACY: -nan
PSCL5 TIMELY PREFETCHES:          0 LATE PREFETCHES: 0 DROPPED PREFETCHES: 0
PSCL5 PREFETCHES SAME FILL-ORIGIN LEVEL: 0 DIFFERENT FILL-ORIGIN LEVEL: 0

PSCL4 TOTAL     ACCESS:       4865  HIT:       4865  MISS:          0  HIT %:        100  MISS %:          0   MPKI: 0
PSCL4 LOAD TRANSLATION ACCESS:       4865  HIT:       4865  MISS:          0  HIT %:        100  MISS %:          0   MPKI: 0
PSCL4 PREFETCH  REQUESTED:          0  ISSUED:          0  USEFUL:          0  USELESS:          0
PSCL4 USEFUL LOAD PREFETCHES:          0 PREFETCH ISSUED TO LOWER LEVEL:          0  ACCURACY: -nan
PSCL4 TIMELY PREFETCHES:          0 LATE PREFETCHES: 0 DROPPED PREFETCHES: 0
PSCL4 PREFETCHES SAME FILL-ORIGIN LEVEL: 0 DIFFERENT FILL-ORIGIN LEVEL: 0

PSCL3 TOTAL     ACCESS:       4865  HIT:       4865  MISS:          0  HIT %:        100  MISS %:          0   MPKI: 0
PSCL3 LOAD TRANSLATION ACCESS:       4865  HIT:       4865  MISS:          0  HIT %:        100  MISS %:          0   MPKI: 0
PSCL3 PREFETCH  REQUESTED:          0  ISSUED:          0  USEFUL:          0  USELESS:          0
PSCL3 USEFUL LOAD PREFETCHES:          0 PREFETCH ISSUED TO LOWER LEVEL:          0  ACCURACY: -nan
PSCL3 TIMELY PREFETCHES:          0 LATE PREFETCHES: 0 DROPPED PREFETCHES: 0
PSCL3 PREFETCHES SAME FILL-ORIGIN LEVEL: 0 DIFFERENT FILL-ORIGIN LEVEL: 0

PSCL2 TOTAL     ACCESS:       4865  HIT:       4471  MISS:        394  HIT %:    91.9013  MISS %:    8.09866   MPKI: 0.00394
PSCL2 LOAD TRANSLATION ACCESS:       4865  HIT:       4471  MISS:        394  HIT %:    91.9013  MISS %:    8.09866   MPKI: 0.00394
PSCL2 PREFETCH  REQUESTED:          0  ISSUED:          0  USEFUL:          0  USELESS:          0
PSCL2 USEFUL LOAD PREFETCHES:          0 PREFETCH ISSUED TO LOWER LEVEL:          0  ACCURACY: -nan
PSCL2 TIMELY PREFETCHES:          0 LATE PREFETCHES: 0 DROPPED PREFETCHES: 0
PSCL2 PREFETCHES SAME FILL-ORIGIN LEVEL: 0 DIFFERENT FILL-ORIGIN LEVEL: 0

LLC TOTAL     ACCESS:     915779  HIT:     517498  MISS:     398281  HIT %:     56.509  MISS %:     43.491   MPKI: 3.98281
LLC LOAD      ACCESS:     140466  HIT:      88992  MISS:      51474  HIT %:    63.3548  MISS %:    36.6452   MPKI: 0.51474
LLC RFO       ACCESS:     223959  HIT:      44628  MISS:     179331  HIT %:    19.9269  MISS %:    80.0731   MPKI: 1.79331
LLC PREFETCH  ACCESS:     251189  HIT:      91580  MISS:     159609  HIT %:    36.4586  MISS %:    63.5414   MPKI: 1.59609
LLC WRITEBACK ACCESS:     298343  HIT:     291336  MISS:       7007  HIT %:    97.6514  MISS %:    2.34864   MPKI: 0.07007
LLC LOAD TRANSLATION ACCESS:       1822  HIT:        962  MISS:        860  HIT %:    52.7991  MISS %:    47.2009   MPKI: 0.0086
LLC PREFETCH  REQUESTED:          0  ISSUED:          0  USEFUL:      10009  USELESS:     156603
LLC USEFUL LOAD PREFETCHES:      10009 PREFETCH ISSUED TO LOWER LEVEL:     159609  ACCURACY: 6.27095
LLC TIMELY PREFETCHES:      10009 LATE PREFETCHES: 0 DROPPED PREFETCHES: 0
LLC PREFETCHES SAME FILL-ORIGIN LEVEL: 0 DIFFERENT FILL-ORIGIN LEVEL: 0
LLC AVERAGE MISS LATENCY: 196.285 cycles
LLC RQ	ACCESS:     366248	FORWARD:          0	MERGED:          0	TO_CACHE:     366247
LLC WQ	ACCESS:     298343	FORWARD:          2	MERGED:          0	TO_CACHE:     298343
LLC PQ	ACCESS:     251190	FORWARD:          0	MERGED:          0	TO_CACHE:     251189

LLC Dense regions hint to LLC: 0

RAW hits: 135011
Loads Generated: 19532379
Loads sent to L1D: 19397367
Stores Generated: 6299455
Stores sent to L1D: 6299467
Major fault: 0 Minor fault: 7689
Allocated PAGES: 7689

stream: 
stream:times selected: 2344120
stream:pref_filled: 1205324
stream:pref_useful: 936792
stream:pref_late: 6599
stream:misses: 4766
stream:misses_by_poll: 0

CS: 
CS:times selected: 2018368
CS:pref_filled: 11515
CS:pref_useful: 7539
CS:pref_late: 299
CS:misses: 40830
CS:misses_by_poll: 15

CPLX: 
CPLX:times selected: 325380
CPLX:pref_filled: 4500
CPLX:pref_useful: 1838
CPLX:pref_late: 70
CPLX:misses: 28930
CPLX:misses_by_poll: 1

NL_L1: 
NL:times selected: 565
NL:pref_filled: 115
NL:pref_useful: 36
NL:pref_late: 2
NL:misses: 167
NL:misses_by_poll: 0

total selections: 4688433
total_filled: 381151
total_useful: 276285
total_late: 7488
total_polluted: 16
total_misses_after_warmup: 51553
conflicts: 21229
Degree Incremented Times: 89363
Degree Decremented Times: 5292

L1 IP Table Write Accesses: 3161144
L1 IP Table Read Accesses: 3139915
L1 RST Write Accesses: 626834
L1 RST Read Accesses: 1253668
L1 CSPT Write Accesses: 626834
L1 CSPT Read Accesses: 708165
L1 RR Filter Tag Write Accesses: 1235530
L1 RR Filter Tag Read Accesses: 135149432
L1 IP Table Tag Write Accesses: 3253255
L1 IP Table Tag Read Accesses: 3253255
L1 RST Tag Write Accesses: 0
L1 RST Tag Read Accesses: 5673785
L1 RR Filter Write Accesses: 0
L1 RR Filter Read Accesses: 5161001
test: 114673
L2 IP Table Read Accesses: 659659
L2 IP Table Write Accesses: 637272
L2 IP Table Tag Read Accesses: 332979
L2 IP Table Tag Write Accesses: 332979

DRAM Statistics
 CHANNEL 0
 RQ ROW_BUFFER_HIT:     125139  ROW_BUFFER_MISS:     266080
 DBUS_CONGESTED:       1085
 WQ ROW_BUFFER_HIT:      46764  ROW_BUFFER_MISS:     167674  FULL:          0

 AVG_CONGESTED_CYCLE: 5
 All warmup complete: 2
Channel 0 Bank busy for read cycles: 0
Channel 0 Bank busy for write cycles: 0
Channel 0
Rank 0
0banks busy for read cycles: 101292263
0banks busy for write cycles: 12668
1banks busy for read cycles: 7652060
1banks busy for write cycles: 1529820
2banks busy for read cycles: 5238814
2banks busy for write cycles: 842913
3banks busy for read cycles: 1790644
3banks busy for write cycles: 559341
4banks busy for read cycles: 1151620
4banks busy for write cycles: 476085
5banks busy for read cycles: 704681
5banks busy for write cycles: 418815
6banks busy for read cycles: 637255
6banks busy for write cycles: 421733
7banks busy for read cycles: 717984
7banks busy for write cycles: 611616
8banks busy for read cycles: 789443
8banks busy for write cycles: 3526470

CPU 0 Branch Prediction Accuracy: 99.0212% MPKI: 1.53793 Average ROB Occupancy at Mispredict: 21.317
Branch types
NOT_BRANCH: 84286921 84.2869%
BRANCH_DIRECT_JUMP: 363450 0.36345%
BRANCH_INDIRECT: 3741 0.003741%
BRANCH_CONDITIONAL: 15126377 15.1264%
BRANCH_DIRECT_CALL: 109633 0.109633%
BRANCH_INDIRECT_CALL: 0 0%
BRANCH_RETURN: 109633 0.109633%
BRANCH_OTHER: 0 0%

DRAM PAGES: 1048576
Allocated PAGES: 7689
