
*** ChampSim Multicore Out-of-Order Simulator ***

Warmup Instructions: 50000000
Simulation Instructions: 100000000
Number of CPUs: 1
LLC sets: 2048
LLC ways: 16
Off-chip DRAM Size: 4096 MB Channels: 1 Width: 64-bit Data Rate: 6400 MT/s
CPU 0 runs ../SPEC2017//641.leela_s-1083B.champsimtrace.xz
.xz
NUM_OF_IPS_IN_CRITICAL_IP_TRAINING: 64
NUM_OF_CRITICAL_IP_TRAINING_TABLE_WAYS: 2
NUM_OF_CRITICAL_IP_TRAINING_TABLE_SETS: 32
WOBBLY_CRITICAL_IP_CACHE_SETS: 32
WOBBLY_CRITICAL_IP_CACHE_WAYS: 4
BTB has LRU replacement policy
ITLB has LRU replacement policy
DTLB has LRU replacement policy
STLB has LRU replacement policy
L1I has LRU replacement policy
IP Table Entries: 256
L1D has LRU replacement policy
Initialize SRRIP state for L2C
Initialize DRRIP state for LLC
Heartbeat CPU 0 instructions: 10000000 cycles: 3150143 heartbeat IPC: 3.17446 cumulative IPC: 3.17446 (Simulation time: 0 hr 5 min 58 sec) 
Heartbeat CPU 0 instructions: 20000000 cycles: 6309940 heartbeat IPC: 3.16476 cumulative IPC: 3.1696 (Simulation time: 0 hr 11 min 45 sec) 
Heartbeat CPU 0 instructions: 30000003 cycles: 9480863 heartbeat IPC: 3.15366 cumulative IPC: 3.16427 (Simulation time: 0 hr 16 min 32 sec) 
Heartbeat CPU 0 instructions: 40000003 cycles: 12637025 heartbeat IPC: 3.16841 cumulative IPC: 3.1653 (Simulation time: 0 hr 21 min 11 sec) 
Heartbeat CPU 0 instructions: 50000003 cycles: 15792187 heartbeat IPC: 3.16941 cumulative IPC: 3.16612 (Simulation time: 0 hr 25 min 30 sec) 

Warmup complete CPU 0 instructions: 50000003 cycles: 15792187 (Simulation time: 0 hr 25 min 30 sec) 

% increase in all ip prefetch 619.569
% increase in all ip prefetch -5.11396
Heartbeat CPU 0 instructions: 60000002 cycles: 42274346 heartbeat IPC: 0.377613 cumulative IPC: 0.377613 (Simulation time: 0 hr 29 min 19 sec) 
Heartbeat CPU 0 instructions: 70000002 cycles: 69019885 heartbeat IPC: 0.373894 cumulative IPC: 0.375744 (Simulation time: 0 hr 32 min 52 sec) 
Heartbeat CPU 0 instructions: 80000000 cycles: 95414163 heartbeat IPC: 0.37887 cumulative IPC: 0.37678 (Simulation time: 0 hr 36 min 13 sec) 
Heartbeat CPU 0 instructions: 90000003 cycles: 122533969 heartbeat IPC: 0.368734 cumulative IPC: 0.374736 (Simulation time: 0 hr 39 min 33 sec) 
Heartbeat CPU 0 instructions: 100000002 cycles: 149301118 heartbeat IPC: 0.373592 cumulative IPC: 0.374507 (Simulation time: 0 hr 42 min 37 sec) 
Heartbeat CPU 0 instructions: 110000000 cycles: 175549274 heartbeat IPC: 0.380979 cumulative IPC: 0.37557 (Simulation time: 0 hr 45 min 39 sec) 
Heartbeat CPU 0 instructions: 120000000 cycles: 201710520 heartbeat IPC: 0.382245 cumulative IPC: 0.376509 (Simulation time: 0 hr 48 min 30 sec) 
Heartbeat CPU 0 instructions: 130000001 cycles: 228283769 heartbeat IPC: 0.376318 cumulative IPC: 0.376485 (Simulation time: 0 hr 51 min 19 sec) 
Heartbeat CPU 0 instructions: 140000000 cycles: 254929133 heartbeat IPC: 0.3753 cumulative IPC: 0.376353 (Simulation time: 0 hr 55 min 46 sec) 
Heartbeat CPU 0 instructions: 150000000 cycles: 281318180 heartbeat IPC: 0.378945 cumulative IPC: 0.376611 (Simulation time: 1 hr 1 min 26 sec) 
Finished CPU 0 instructions: 100000002 cycles: 265525996 cumulative IPC: 0.376611 (Simulation time: 1 hr 1 min 26 sec) 

ChampSim completed all CPUs

Region of Interest Statistics

CPU 0 cumulative IPC: 0.376611 instructions: 100000002 cycles: 265525996

CPU 0 Average Load ROB stall cycles: 5.55643e+07
CPU 0 Fraction of times ROB stalled by Loads: 37.3901
CPU 0 Percentage of Load stall cycles in Total stall cycles: 8.09973e+08
Issued all: 54793352
Issued LT all: 43323382
rob_not_full_when_issued_lt_all: 40856729
Issued LT one: 32728140
rob_not_full_when_issued_lt_one: 30431459
 Total stall cycles: 214956628
 Total load stall cycles: 1741090120053888
CPU 0 NUM of IPS identified critical: 0
CPU 0 Num of Load IPs stalling ROB: 1139
Threshold modification factor: -1
Max PIST entries: 64
Min PIST entries: 0
Avg PIST entries: 42.6667
Trouble in retire width: 0.95481
MaC = Marked as critical.
lt_50_percent_before_Mac: 0
gt_90_percent_before_Mac: 0
gt_75_percent_before_Mac: 0
gt_50_percent_before_Mac: 0
stall_proportion_bin_same_before_after: 0
stall_proportion_bin_lower_before_after: 0
stall_proportion_bin_upper_before_after: 0
average_stall_proportion_before: -nan
average_stall_proportion_after: -nan
Critical IP stalls, total frequency: 0
Non-critical IP stalls, total frequency: 11716076
Total Freq all stalling IPs: 11716076
stat_90_percent_critical_ip_stalls_freq: 10556463
stat_90_percent_non_critical_ip_stalls_freq: 1159613
Critical_IP_ROB_Stalls_Bucket_0: 0
Non-critical_IP_ROB_Stalls_Bucket_0: 10038023
Critical_IP_ROB_Stalls_Bucket_1: 0
Non-critical_IP_ROB_Stalls_Bucket_1: 861605
Critical_IP_ROB_Stalls_Bucket_2: 0
Non-critical_IP_ROB_Stalls_Bucket_2: 444603
Critical_IP_ROB_Stalls_Bucket_3: 0
Non-critical_IP_ROB_Stalls_Bucket_3: 156549
Critical_IP_ROB_Stalls_Bucket_4: 0
Non-critical_IP_ROB_Stalls_Bucket_4: 43962
Critical_IP_ROB_Stalls_Bucket_5: 0
Non-critical_IP_ROB_Stalls_Bucket_5: 17256
Critical_IP_ROB_Stalls_Bucket_6: 0
Non-critical_IP_ROB_Stalls_Bucket_6: 154078
0 => IPs accounting for >50 percent of stalls, 1 => 55, 2 => 60, 3 => 65 and so on till 90.
percent50: 50.1038 num IPs:  41
percent55: 55.1645 num IPs: 51
percent60: 60.1409 num IPs: 63
percent65: 65.2153 num IPs: 79
percent70: 70.2493 num IPs: 96
percent75: 75.1537 num IPs: 113
percent80: 80.1585 num IPs: 134
percent85: 85.0062 num IPs: 158
percent90: 90.1024 num IPs: 192
Critical_ROB_Stalls_Percent_0_Bucket_0: 5406442
Non-critical_ROB_Stalls_Percent_0_Bucket_0: 4631581
Critical_ROB_Stalls_Percent_0_Bucket_1: 224482
Non-critical_ROB_Stalls_Percent_0_Bucket_1: 637123
Critical_ROB_Stalls_Percent_0_Bucket_2: 58341
Non-critical_ROB_Stalls_Percent_0_Bucket_2: 386262
Critical_ROB_Stalls_Percent_0_Bucket_3: 22053
Non-critical_ROB_Stalls_Percent_0_Bucket_3: 134496
Critical_ROB_Stalls_Percent_0_Bucket_4: 9749
Non-critical_ROB_Stalls_Percent_0_Bucket_4: 34213
Critical_ROB_Stalls_Percent_0_Bucket_5: 5899
Non-critical_ROB_Stalls_Percent_0_Bucket_5: 11357
Critical_ROB_Stalls_Percent_0_Bucket_6: 143233
Non-critical_ROB_Stalls_Percent_0_Bucket_6: 10845
Critical_ROB_Stalls_Percent_1_Bucket_0: 5886779
Non-critical_ROB_Stalls_Percent_1_Bucket_0: 4151244
Critical_ROB_Stalls_Percent_1_Bucket_1: 282641
Non-critical_ROB_Stalls_Percent_1_Bucket_1: 578964
Critical_ROB_Stalls_Percent_1_Bucket_2: 83942
Non-critical_ROB_Stalls_Percent_1_Bucket_2: 360661
Critical_ROB_Stalls_Percent_1_Bucket_3: 35641
Non-critical_ROB_Stalls_Percent_1_Bucket_3: 120908
Critical_ROB_Stalls_Percent_1_Bucket_4: 17803
Non-critical_ROB_Stalls_Percent_1_Bucket_4: 26159
Critical_ROB_Stalls_Percent_1_Bucket_5: 8915
Non-critical_ROB_Stalls_Percent_1_Bucket_5: 8341
Critical_ROB_Stalls_Percent_1_Bucket_6: 147387
Non-critical_ROB_Stalls_Percent_1_Bucket_6: 6691
Critical_ROB_Stalls_Percent_2_Bucket_0: 6432013
Non-critical_ROB_Stalls_Percent_2_Bucket_0: 3606010
Critical_ROB_Stalls_Percent_2_Bucket_1: 312249
Non-critical_ROB_Stalls_Percent_2_Bucket_1: 549356
Critical_ROB_Stalls_Percent_2_Bucket_2: 88032
Non-critical_ROB_Stalls_Percent_2_Bucket_2: 356571
Critical_ROB_Stalls_Percent_2_Bucket_3: 38777
Non-critical_ROB_Stalls_Percent_2_Bucket_3: 117772
Critical_ROB_Stalls_Percent_2_Bucket_4: 18413
Non-critical_ROB_Stalls_Percent_2_Bucket_4: 25549
Critical_ROB_Stalls_Percent_2_Bucket_5: 9056
Non-critical_ROB_Stalls_Percent_2_Bucket_5: 8200
Critical_ROB_Stalls_Percent_2_Bucket_6: 147608
Non-critical_ROB_Stalls_Percent_2_Bucket_6: 6470
Critical_ROB_Stalls_Percent_3_Bucket_0: 6766853
Non-critical_ROB_Stalls_Percent_3_Bucket_0: 3271170
Critical_ROB_Stalls_Percent_3_Bucket_1: 401676
Non-critical_ROB_Stalls_Percent_3_Bucket_1: 459929
Critical_ROB_Stalls_Percent_3_Bucket_2: 190004
Non-critical_ROB_Stalls_Percent_3_Bucket_2: 254599
Critical_ROB_Stalls_Percent_3_Bucket_3: 93206
Non-critical_ROB_Stalls_Percent_3_Bucket_3: 63343
Critical_ROB_Stalls_Percent_3_Bucket_4: 29781
Non-critical_ROB_Stalls_Percent_3_Bucket_4: 14181
Critical_ROB_Stalls_Percent_3_Bucket_5: 11466
Non-critical_ROB_Stalls_Percent_3_Bucket_5: 5790
Critical_ROB_Stalls_Percent_3_Bucket_6: 147680
Non-critical_ROB_Stalls_Percent_3_Bucket_6: 6398
Critical_ROB_Stalls_Percent_4_Bucket_0: 7148827
Non-critical_ROB_Stalls_Percent_4_Bucket_0: 2889196
Critical_ROB_Stalls_Percent_4_Bucket_1: 515087
Non-critical_ROB_Stalls_Percent_4_Bucket_1: 346518
Critical_ROB_Stalls_Percent_4_Bucket_2: 258733
Non-critical_ROB_Stalls_Percent_4_Bucket_2: 185870
Critical_ROB_Stalls_Percent_4_Bucket_3: 115315
Non-critical_ROB_Stalls_Percent_4_Bucket_3: 41234
Critical_ROB_Stalls_Percent_4_Bucket_4: 32732
Non-critical_ROB_Stalls_Percent_4_Bucket_4: 11230
Critical_ROB_Stalls_Percent_4_Bucket_5: 11943
Non-critical_ROB_Stalls_Percent_4_Bucket_5: 5313
Critical_ROB_Stalls_Percent_4_Bucket_6: 147817
Non-critical_ROB_Stalls_Percent_4_Bucket_6: 6261
Critical_ROB_Stalls_Percent_5_Bucket_0: 7507404
Non-critical_ROB_Stalls_Percent_5_Bucket_0: 2530619
Critical_ROB_Stalls_Percent_5_Bucket_1: 601071
Non-critical_ROB_Stalls_Percent_5_Bucket_1: 260534
Critical_ROB_Stalls_Percent_5_Bucket_2: 374823
Non-critical_ROB_Stalls_Percent_5_Bucket_2: 69780
Critical_ROB_Stalls_Percent_5_Bucket_3: 128686
Non-critical_ROB_Stalls_Percent_5_Bucket_3: 27863
Critical_ROB_Stalls_Percent_5_Bucket_4: 33286
Non-critical_ROB_Stalls_Percent_5_Bucket_4: 10676
Critical_ROB_Stalls_Percent_5_Bucket_5: 11961
Non-critical_ROB_Stalls_Percent_5_Bucket_5: 5295
Critical_ROB_Stalls_Percent_5_Bucket_6: 147824
Non-critical_ROB_Stalls_Percent_5_Bucket_6: 6254
Critical_ROB_Stalls_Percent_6_Bucket_0: 7973718
Non-critical_ROB_Stalls_Percent_6_Bucket_0: 2064305
Critical_ROB_Stalls_Percent_6_Bucket_1: 661893
Non-critical_ROB_Stalls_Percent_6_Bucket_1: 199712
Critical_ROB_Stalls_Percent_6_Bucket_2: 412781
Non-critical_ROB_Stalls_Percent_6_Bucket_2: 31822
Critical_ROB_Stalls_Percent_6_Bucket_3: 142964
Non-critical_ROB_Stalls_Percent_6_Bucket_3: 13585
Critical_ROB_Stalls_Percent_6_Bucket_4: 37809
Non-critical_ROB_Stalls_Percent_6_Bucket_4: 6153
Critical_ROB_Stalls_Percent_6_Bucket_5: 13693
Non-critical_ROB_Stalls_Percent_6_Bucket_5: 3563
Critical_ROB_Stalls_Percent_6_Bucket_6: 148562
Non-critical_ROB_Stalls_Percent_6_Bucket_6: 5516
Critical_ROB_Stalls_Percent_7_Bucket_0: 8506833
Non-critical_ROB_Stalls_Percent_7_Bucket_0: 1531190
Critical_ROB_Stalls_Percent_7_Bucket_1: 692364
Non-critical_ROB_Stalls_Percent_7_Bucket_1: 169241
Critical_ROB_Stalls_Percent_7_Bucket_2: 416282
Non-critical_ROB_Stalls_Percent_7_Bucket_2: 28321
Critical_ROB_Stalls_Percent_7_Bucket_3: 143380
Non-critical_ROB_Stalls_Percent_7_Bucket_3: 13169
Critical_ROB_Stalls_Percent_7_Bucket_4: 38224
Non-critical_ROB_Stalls_Percent_7_Bucket_4: 5738
Critical_ROB_Stalls_Percent_7_Bucket_5: 13724
Non-critical_ROB_Stalls_Percent_7_Bucket_5: 3532
Critical_ROB_Stalls_Percent_7_Bucket_6: 148580
Non-critical_ROB_Stalls_Percent_7_Bucket_6: 5498
Critical_ROB_Stalls_Percent_8_Bucket_0: 9050547
Non-critical_ROB_Stalls_Percent_8_Bucket_0: 987476
Critical_ROB_Stalls_Percent_8_Bucket_1: 737074
Non-critical_ROB_Stalls_Percent_8_Bucket_1: 124531
Critical_ROB_Stalls_Percent_8_Bucket_2: 419797
Non-critical_ROB_Stalls_Percent_8_Bucket_2: 24806
Critical_ROB_Stalls_Percent_8_Bucket_3: 145669
Non-critical_ROB_Stalls_Percent_8_Bucket_3: 10880
Critical_ROB_Stalls_Percent_8_Bucket_4: 39356
Non-critical_ROB_Stalls_Percent_8_Bucket_4: 4606
Critical_ROB_Stalls_Percent_8_Bucket_5: 14446
Non-critical_ROB_Stalls_Percent_8_Bucket_5: 2810
Critical_ROB_Stalls_Percent_8_Bucket_6: 149574
Non-critical_ROB_Stalls_Percent_8_Bucket_6: 4504
Average ROB occupancy Load Stall Begin: 27.8825
Average ROB occupancy Load Stall End: 31.562
Min ROB occupancy Load Stall Begin: 1
Max ROB occupancy Load Stall Begin: 352
Min ROB occupancy Load Stall End: 1
Max ROB occupancy Load Stall End: 352
Average ROB occupancy Critical Load Stall Begin: -nan
Average ROB occupancy Critical Load Stall End: -nan
Min ROB occupancy Critical Load Stall Begin: 400
Max ROB occupancy Critical Load Stall Begin: 0
Min ROB occupancy Critical Load Stall End: 400
Max ROB occupancy Critical Load Stall End: 0
 ROB Load Stall Begin Bucket Count 0: 10332246
 ROB Load Stall End Bucket Count 0: 10038023
 ROB Critical Load Stall Begin Bucket Count 0: 0
 ROB Critical Load Stall End Bucket Count 0: 0
 ROB Load Stall Begin Bucket Count 1: 632915
 ROB Load Stall End Bucket Count 1: 861605
 ROB Critical Load Stall Begin Bucket Count 1: 0
 ROB Critical Load Stall End Bucket Count 1: 0
 ROB Load Stall Begin Bucket Count 2: 407601
 ROB Load Stall End Bucket Count 2: 444603
 ROB Critical Load Stall Begin Bucket Count 2: 0
 ROB Critical Load Stall End Bucket Count 2: 0
 ROB Load Stall Begin Bucket Count 3: 136580
 ROB Load Stall End Bucket Count 3: 156549
 ROB Critical Load Stall Begin Bucket Count 3: 0
 ROB Critical Load Stall End Bucket Count 3: 0
 ROB Load Stall Begin Bucket Count 4: 38746
 ROB Load Stall End Bucket Count 4: 43962
 ROB Critical Load Stall Begin Bucket Count 4: 0
 ROB Critical Load Stall End Bucket Count 4: 0
 ROB Load Stall Begin Bucket Count 5: 15214
 ROB Load Stall End Bucket Count 5: 17256
 ROB Critical Load Stall Begin Bucket Count 5: 0
 ROB Critical Load Stall End Bucket Count 5: 0
 ROB Load Stall Begin Bucket Count 6: 152774
 ROB Load Stall End Bucket Count 6: 154078
 ROB Critical Load Stall Begin Bucket Count 6: 0
 ROB Critical Load Stall End Bucket Count 6: 0
PIST Tag Read Accesses: 3490014
PIST Read Accesses: 1745007
PIST Tag Write Accesses: 3490014
PIST Write Accesses: 1745007
Criticality detector called times: 10767631
Max global_stall_cycles_count: 2056146
Threshold Modified: 1 times, factor: -1
Sturdy critical IP cache stats: 
 Unused entries: 0
CIC Tag Read Accesses: 0
CIC Read Accesses: 0
CIC Tag Write Accesses: 0
CIC Write Accesses: 0
Wobbly critical IP cache stats: 
 Unused entries: 111
CIC Tag Read Accesses: 197045510
CIC Read Accesses: 0
CIC Tag Write Accesses: 250
CIC Write Accesses: 0
ITLB TOTAL     ACCESS:   16938445  HIT:   16938445  MISS:          0  HIT %:        100  MISS %:          0   MPKI: 0
ITLB LOAD TRANSLATION ACCESS:   16938445  HIT:   16938445  MISS:          0  HIT %:        100  MISS %:          0   MPKI: 0
ITLB PREFETCH  REQUESTED:          0  ISSUED:          0  USEFUL:          0  USELESS:          0
ITLB USEFUL LOAD PREFETCHES:          0 PREFETCH ISSUED TO LOWER LEVEL:          0  ACCURACY: -nan
ITLB TIMELY PREFETCHES:          0 LATE PREFETCHES: 0 DROPPED PREFETCHES: 0
ITLB PREFETCHES SAME FILL-ORIGIN LEVEL: 0 DIFFERENT FILL-ORIGIN LEVEL: 0
ITLB AVERAGE MISS LATENCY: -nan cycles
ITLB RQ	ACCESS:   19288407	FORWARD:          0	MERGED:    2349962	TO_CACHE:   16938445

DTLB TOTAL     ACCESS:   27923792  HIT:   27879624  MISS:      44168  HIT %:    99.8418  MISS %:   0.158173   MPKI: 0.44168
DTLB LOAD TRANSLATION ACCESS:   27923792  HIT:   27879624  MISS:      44168  HIT %:    99.8418  MISS %:   0.158173   MPKI: 0.44168
DTLB PREFETCH  REQUESTED:          0  ISSUED:          0  USEFUL:          0  USELESS:          0
DTLB USEFUL LOAD PREFETCHES:          0 PREFETCH ISSUED TO LOWER LEVEL:          0  ACCURACY: -nan
DTLB TIMELY PREFETCHES:          0 LATE PREFETCHES: 0 DROPPED PREFETCHES: 0
DTLB PREFETCHES SAME FILL-ORIGIN LEVEL: 0 DIFFERENT FILL-ORIGIN LEVEL: 0
DTLB AVERAGE MISS LATENCY: 9.47668 cycles
DTLB RQ	ACCESS:   31734863	FORWARD:          0	MERGED:    3810091	TO_CACHE:   27924772

STLB TOTAL     ACCESS:     248532  HIT:     248410  MISS:        122  HIT %:    99.9509  MISS %:  0.0490882   MPKI: 0.00122
STLB LOAD TRANSLATION ACCESS:      44168  HIT:      44046  MISS:        122  HIT %:    99.7238  MISS %:   0.276218   MPKI: 0.00122
STLB TRANSLATION FROM L1D PREFETCHER ACCESS:     204364  HIT:     204364  MISS:          0  HIT %:        100  MISS %:          0   MPKI: 0
STLB PREFETCH  REQUESTED:          0  ISSUED:          0  USEFUL:          0  USELESS:          0
STLB USEFUL LOAD PREFETCHES:          0 PREFETCH ISSUED TO LOWER LEVEL:          0  ACCURACY: -nan
STLB TIMELY PREFETCHES:          0 LATE PREFETCHES: 0 DROPPED PREFETCHES: 0
STLB PREFETCHES SAME FILL-ORIGIN LEVEL: 0 DIFFERENT FILL-ORIGIN LEVEL: 0
STLB AVERAGE MISS LATENCY: 171.582 cycles
STLB RQ	ACCESS:     289052	FORWARD:          0	MERGED:      40520	TO_CACHE:     248532

STLB Hit, L1D data hit: 0
STLB Hit, L2C data hit: 0
STLB Hit, LLC data hit: 0
STLB Hit, LLC data miss: 0
STLB STLB hints to L2: 0
L1D TOTAL     ACCESS:   31931252  HIT:   31638032  MISS:     293220  HIT %:    99.0817  MISS %:   0.918285   MPKI: 2.9322
L1D LOAD      ACCESS:   20314550  HIT:   20156807  MISS:     157743  HIT %:    99.2235  MISS %:   0.776503   MPKI: 1.57743
L1D RFO       ACCESS:   11377443  HIT:   11343264  MISS:      34179  HIT %:    99.6996  MISS %:    0.30041   MPKI: 0.34179
L1D PREFETCH  ACCESS:     239259  HIT:     137961  MISS:     101298  HIT %:    57.6618  MISS %:    42.3382   MPKI: 1.01298
L1D PREFETCH  REQUESTED:     489768  ISSUED:     489768  USEFUL:      84554  USELESS:      16896
L1D USEFUL LOAD PREFETCHES:      84554 PREFETCH ISSUED TO LOWER LEVEL:     105151  ACCURACY: 80.412
L1D TIMELY PREFETCHES:      84554 LATE PREFETCHES: 3852 DROPPED PREFETCHES: 0
L1D PREFETCHES SAME FILL-ORIGIN LEVEL: 105151 DIFFERENT FILL-ORIGIN LEVEL: 0
L1D AVERAGE MISS LATENCY: 1.95657e+06 cycles
L1D RQ	ACCESS:   26110060	FORWARD:          0	MERGED:    4595493	TO_CACHE:   20318101
L1D WQ	ACCESS:   11615694	FORWARD:    1196466	MERGED:     198932	TO_CACHE:   11416762
L1D PQ	ACCESS:     244884	FORWARD:          0	MERGED:          0	TO_CACHE:     244884

L1D UNIQUE REGIONS ACCESSED: 0
L1D REGIONS CONFLICTS: 0
L1D Cross Page Prefetch Requests: 0
L1D Same Page Prefetch Requests: 1269584
L1D ROI Sum of L1D PQ occupancy: 3183129
L1D PREFETCHES PUSHED FROM L2C: 0
L1I TOTAL     ACCESS:   19286047  HIT:   19279750  MISS:       6297  HIT %:    99.9673  MISS %:  0.0326505   MPKI: 0.06297
L1I LOAD      ACCESS:   19286047  HIT:   19279750  MISS:       6297  HIT %:    99.9673  MISS %:  0.0326505   MPKI: 0.06297
L1I PREFETCH  REQUESTED:          0  ISSUED:          0  USEFUL:          0  USELESS:          0
L1I USEFUL LOAD PREFETCHES:          0 PREFETCH ISSUED TO LOWER LEVEL:          0  ACCURACY: -nan
L1I TIMELY PREFETCHES:          0 LATE PREFETCHES: 0 DROPPED PREFETCHES: 0
L1I PREFETCHES SAME FILL-ORIGIN LEVEL: 0 DIFFERENT FILL-ORIGIN LEVEL: 0
L1I AVERAGE MISS LATENCY: 14.0794 cycles
L1I RQ	ACCESS:   27768249	FORWARD:          0	MERGED:    8479842	TO_CACHE:   19288407

BTB TOTAL     ACCESS:   15851744  HIT:   14674603  MISS:    1177141  HIT %:    92.5741  MISS %:    7.42594   MPKI: 11.7714
BTB BRANCH_DIRECT_JUMP	ACCESS:     546600  HIT:     546518  MISS:         82
BTB BRANCH_INDIRECT	ACCESS:        776  HIT:        703  MISS:         73
BTB BRANCH_CONDITIONAL	ACCESS:    9399016  HIT:    9398045  MISS:        971
BTB BRANCH_DIRECT_CALL	ACCESS:    2952676  HIT:    2952278  MISS:        398
BTB BRANCH_INDIRECT_CALL	ACCESS:          0  HIT:          0  MISS:          0
BTB BRANCH_RETURN	ACCESS:    2952676  HIT:    1777059  MISS:    1175617
BTB BRANCH_OTHER ACCESS:          0  HIT:          0  MISS:          0

L2C TOTAL     ACCESS:     507632  HIT:     504000  MISS:       3632  HIT %:    99.2845  MISS %:   0.715479   MPKI: 0.03632
L2C LOAD      ACCESS:     160186  HIT:     158566  MISS:       1620  HIT %:    98.9887  MISS %:    1.01132   MPKI: 0.0162
L2C DATA LOAD MPKI: 0.01609
L2C INSTRUCTION LOAD MPKI: 0.00011
L2C RFO       ACCESS:      34171  HIT:      33559  MISS:        612  HIT %:     98.209  MISS %:    1.79099   MPKI: 0.00612
L2C PREFETCH  ACCESS:     251304  HIT:     249973  MISS:       1331  HIT %:    99.4704  MISS %:   0.529637   MPKI: 0.01331
L2C DATA PREFETCH MPKI: 0.01331
L2C INSTRUCTION PREFETCH MPKI: 0
L2C WRITEBACK ACCESS:      61849  HIT:      61830  MISS:         19  HIT %:    99.9693  MISS %:    0.03072   MPKI: 0.00019
L2C LOAD TRANSLATION ACCESS:        122  HIT:         72  MISS:         50  HIT %:    59.0164  MISS %:    40.9836   MPKI: 0.0005
L2C PREFETCH  REQUESTED:     162312  ISSUED:     162312  USEFUL:        778  USELESS:       1769
L2C USEFUL LOAD PREFETCHES:        778 PREFETCH ISSUED TO LOWER LEVEL:       1332  ACCURACY: 58.4084
L2C TIMELY PREFETCHES:        778 LATE PREFETCHES: 1 DROPPED PREFETCHES: 0
L2C PREFETCHES SAME FILL-ORIGIN LEVEL: 892 DIFFERENT FILL-ORIGIN LEVEL: 0
L2C AVERAGE MISS LATENCY: 91.0124 cycles
L2C RQ	ACCESS:     194488	FORWARD:          0	MERGED:          0	TO_CACHE:     194479
L2C WQ	ACCESS:      61849	FORWARD:          9	MERGED:          0	TO_CACHE:      61849
L2C PQ	ACCESS:     267463	FORWARD:          0	MERGED:      15676	TO_CACHE:     251787

L2C Instructions Evicting Data 11
L2C Translations Evicting Data 37
L2C Data Evicting Data 3070
L2C Instructions Evicting Instructions 0
L2C Translations Evicting Instructions 5
L2C Data Evicting Instructions 80
L2C Instructions Evicting Translations 0
L2C Translations Evicting Translations 0
L2C Data Evicting Translations 47
L2C Dense regions hint from L2: 0
PSCL5 TOTAL     ACCESS:        122  HIT:        122  MISS:          0  HIT %:        100  MISS %:          0   MPKI: 0
PSCL5 LOAD TRANSLATION ACCESS:        122  HIT:        122  MISS:          0  HIT %:        100  MISS %:          0   MPKI: 0
PSCL5 PREFETCH  REQUESTED:          0  ISSUED:          0  USEFUL:          0  USELESS:          0
PSCL5 USEFUL LOAD PREFETCHES:          0 PREFETCH ISSUED TO LOWER LEVEL:          0  ACCURACY: -nan
PSCL5 TIMELY PREFETCHES:          0 LATE PREFETCHES: 0 DROPPED PREFETCHES: 0
PSCL5 PREFETCHES SAME FILL-ORIGIN LEVEL: 0 DIFFERENT FILL-ORIGIN LEVEL: 0

PSCL4 TOTAL     ACCESS:        122  HIT:        122  MISS:          0  HIT %:        100  MISS %:          0   MPKI: 0
PSCL4 LOAD TRANSLATION ACCESS:        122  HIT:        122  MISS:          0  HIT %:        100  MISS %:          0   MPKI: 0
PSCL4 PREFETCH  REQUESTED:          0  ISSUED:          0  USEFUL:          0  USELESS:          0
PSCL4 USEFUL LOAD PREFETCHES:          0 PREFETCH ISSUED TO LOWER LEVEL:          0  ACCURACY: -nan
PSCL4 TIMELY PREFETCHES:          0 LATE PREFETCHES: 0 DROPPED PREFETCHES: 0
PSCL4 PREFETCHES SAME FILL-ORIGIN LEVEL: 0 DIFFERENT FILL-ORIGIN LEVEL: 0

PSCL3 TOTAL     ACCESS:        122  HIT:        122  MISS:          0  HIT %:        100  MISS %:          0   MPKI: 0
PSCL3 LOAD TRANSLATION ACCESS:        122  HIT:        122  MISS:          0  HIT %:        100  MISS %:          0   MPKI: 0
PSCL3 PREFETCH  REQUESTED:          0  ISSUED:          0  USEFUL:          0  USELESS:          0
PSCL3 USEFUL LOAD PREFETCHES:          0 PREFETCH ISSUED TO LOWER LEVEL:          0  ACCURACY: -nan
PSCL3 TIMELY PREFETCHES:          0 LATE PREFETCHES: 0 DROPPED PREFETCHES: 0
PSCL3 PREFETCHES SAME FILL-ORIGIN LEVEL: 0 DIFFERENT FILL-ORIGIN LEVEL: 0

PSCL2 TOTAL     ACCESS:        122  HIT:        122  MISS:          0  HIT %:        100  MISS %:          0   MPKI: 0
PSCL2 LOAD TRANSLATION ACCESS:        122  HIT:        122  MISS:          0  HIT %:        100  MISS %:          0   MPKI: 0
PSCL2 PREFETCH  REQUESTED:          0  ISSUED:          0  USEFUL:          0  USELESS:          0
PSCL2 USEFUL LOAD PREFETCHES:          0 PREFETCH ISSUED TO LOWER LEVEL:          0  ACCURACY: -nan
PSCL2 TIMELY PREFETCHES:          0 LATE PREFETCHES: 0 DROPPED PREFETCHES: 0
PSCL2 PREFETCHES SAME FILL-ORIGIN LEVEL: 0 DIFFERENT FILL-ORIGIN LEVEL: 0

LLC TOTAL     ACCESS:       4034  HIT:       2159  MISS:       1875  HIT %:    53.5201  MISS %:    46.4799   MPKI: 0.01875
LLC LOAD      ACCESS:       1619  HIT:       1133  MISS:        486  HIT %:    69.9815  MISS %:    30.0185   MPKI: 0.00486
LLC RFO       ACCESS:        612  HIT:         12  MISS:        600  HIT %:    1.96078  MISS %:    98.0392   MPKI: 0.006
LLC PREFETCH  ACCESS:       1332  HIT:        578  MISS:        754  HIT %:    43.3934  MISS %:    56.6066   MPKI: 0.00754
LLC WRITEBACK ACCESS:        421  HIT:        418  MISS:          3  HIT %:    99.2874  MISS %:   0.712589   MPKI: 3e-05
LLC LOAD TRANSLATION ACCESS:         50  HIT:         18  MISS:         32  HIT %:         36  MISS %:         64   MPKI: 0.00032
LLC PREFETCH  REQUESTED:          0  ISSUED:          0  USEFUL:        275  USELESS:         19
LLC USEFUL LOAD PREFETCHES:        275 PREFETCH ISSUED TO LOWER LEVEL:        754  ACCURACY: 36.4721
LLC TIMELY PREFETCHES:        275 LATE PREFETCHES: 0 DROPPED PREFETCHES: 0
LLC PREFETCHES SAME FILL-ORIGIN LEVEL: 0 DIFFERENT FILL-ORIGIN LEVEL: 0
LLC AVERAGE MISS LATENCY: 118.311 cycles
LLC RQ	ACCESS:       2281	FORWARD:          0	MERGED:          0	TO_CACHE:       2281
LLC WQ	ACCESS:        421	FORWARD:          0	MERGED:          0	TO_CACHE:        421
LLC PQ	ACCESS:       1332	FORWARD:          0	MERGED:          0	TO_CACHE:       1332

LLC Dense regions hint to LLC: 0

RAW hits: 774164
Loads Generated: 26884224
Loads sent to L1D: 26110060
Stores Generated: 11615691
Stores sent to L1D: 11615694
Major fault: 0 Minor fault: 639
Allocated PAGES: 639

stream: 
stream:times selected: 7630226
stream:pref_filled: 86301
stream:pref_useful: 47399
stream:pref_late: 2696
stream:misses: 17472
stream:misses_by_poll: 0

CS: 
CS:times selected: 363536
CS:pref_filled: 102231
CS:pref_useful: 92780
CS:pref_late: 1200
CS:misses: 16100
CS:misses_by_poll: 524

CPLX: 
CPLX:times selected: 7262107
CPLX:pref_filled: 19095
CPLX:pref_useful: 7575
CPLX:pref_late: 58
CPLX:misses: 116081
CPLX:misses_by_poll: 7

NL_L1: 
NL:times selected: 68266
NL:pref_filled: 1395
NL:pref_useful: 258
NL:pref_late: 0
NL:misses: 1860
NL:misses_by_poll: 0

total selections: 15324135
total_filled: 101298
total_useful: 84554
total_late: 4453
total_polluted: 531
total_misses_after_warmup: 161293
conflicts: 2011404
Degree Incremented Times: 76798
Degree Decremented Times: 409276

L1 IP Table Write Accesses: 16754622
L1 IP Table Read Accesses: 14743218
L1 RST Write Accesses: 5197330
L1 RST Read Accesses: 10394660
L1 CSPT Write Accesses: 5197330
L1 CSPT Read Accesses: 10164694
L1 RR Filter Tag Write Accesses: 244884
L1 RR Filter Tag Read Accesses: 17384172
L1 IP Table Tag Write Accesses: 20318100
L1 IP Table Tag Read Accesses: 20318100
L1 RST Tag Write Accesses: 0
L1 RST Tag Read Accesses: 56315178
L1 RR Filter Write Accesses: 0
L1 RR Filter Read Accesses: 592630
test: 802962
L2 IP Table Read Accesses: 493827
L2 IP Table Write Accesses: 350216
L2 IP Table Tag Read Accesses: 250376
L2 IP Table Tag Write Accesses: 250376

DRAM Statistics
 CHANNEL 0
 RQ ROW_BUFFER_HIT:        998  ROW_BUFFER_MISS:        874
 DBUS_CONGESTED:          0
 WQ ROW_BUFFER_HIT:          0  ROW_BUFFER_MISS:          0  FULL:          0

 AVG_CONGESTED_CYCLE: -
 All warmup complete: 2
Channel 0 Bank busy for read cycles: 0
Channel 0 Bank busy for write cycles: 0
Channel 0
Rank 0
0banks busy for read cycles: 265387765
0banks busy for write cycles: 0
1banks busy for read cycles: 120943
1banks busy for write cycles: 0
2banks busy for read cycles: 5368
2banks busy for write cycles: 0
3banks busy for read cycles: 3731
3banks busy for write cycles: 0
4banks busy for read cycles: 5607
4banks busy for write cycles: 0
5banks busy for read cycles: 889
5banks busy for write cycles: 0
6banks busy for read cycles: 949
6banks busy for write cycles: 0
7banks busy for read cycles: 398
7banks busy for write cycles: 0
8banks busy for read cycles: 347
8banks busy for write cycles: 0

CPU 0 Branch Prediction Accuracy: 93.2052% MPKI: 11.3866 Average ROB Occupancy at Mispredict: 22.4864
Branch types
NOT_BRANCH: 83241771 83.2418%
BRANCH_DIRECT_JUMP: 546600 0.5466%
BRANCH_INDIRECT: 776 0.000776%
BRANCH_CONDITIONAL: 10305170 10.3052%
BRANCH_DIRECT_CALL: 2952676 2.95268%
BRANCH_INDIRECT_CALL: 0 0%
BRANCH_RETURN: 2952676 2.95268%
BRANCH_OTHER: 0 0%

DRAM PAGES: 1048576
Allocated PAGES: 639
