Initialize SIGNATURE TABLE
ST_SET: 1
ST_WAY: 256
ST_TAG_BIT: 16
ST_TAG_MASK: ffff

Initialize PATTERN TABLE
PT_SET: 512
PT_WAY: 4
SIG_DELTA_BIT: 7
C_SIG_BIT: 4
C_DELTA_BIT: 4

Initialize PREFETCH FILTER
FILTER_SET: 1024

*** ChampSim Multicore Out-of-Order Simulator ***

Warmup Instructions: 50000000
Simulation Instructions: 100000000
Number of CPUs: 1
LLC sets: 2048
LLC ways: 16
Off-chip DRAM Size: 4096 MB Channels: 1 Width: 64-bit Data Rate: 6400 MT/s
CPU 0 runs ../SPEC2017//641.leela_s-1083B.champsimtrace.xz
.xz
NUM_OF_IPS_IN_CRITICAL_IP_TRAINING: 128
NUM_OF_CRITICAL_IP_TRAINING_TABLE_WAYS: 8
NUM_OF_CRITICAL_IP_TRAINING_TABLE_SETS: 16
BTB has LRU replacement policy
ITLB has LRU replacement policy
DTLB has LRU replacement policy
STLB has LRU replacement policy
L1I has LRU replacement policy
L1D has LRU replacement policy
Initialize SRRIP state for L2C
Initialize DRRIP state for LLC
Heartbeat CPU 0 instructions: 10000000 cycles: 3152725 heartbeat IPC: 3.17186 cumulative IPC: 3.17186 (Simulation time: 0 hr 6 min 9 sec) 
Heartbeat CPU 0 instructions: 20000000 cycles: 6314499 heartbeat IPC: 3.16278 cumulative IPC: 3.16731 (Simulation time: 0 hr 11 min 55 sec) 
Heartbeat CPU 0 instructions: 30000003 cycles: 9487230 heartbeat IPC: 3.15186 cumulative IPC: 3.16215 (Simulation time: 0 hr 17 min 8 sec) 
Heartbeat CPU 0 instructions: 40000003 cycles: 12645106 heartbeat IPC: 3.16669 cumulative IPC: 3.16328 (Simulation time: 0 hr 21 min 50 sec) 
Heartbeat CPU 0 instructions: 50000003 cycles: 15802045 heartbeat IPC: 3.16763 cumulative IPC: 3.16415 (Simulation time: 0 hr 26 min 2 sec) 

Warmup complete CPU 0 instructions: 50000003 cycles: 15802045 (Simulation time: 0 hr 26 min 2 sec) 

% increase in all ip prefetch 620.561
% increase in all ip prefetch -5.14164
Heartbeat CPU 0 instructions: 60000002 cycles: 42342984 heartbeat IPC: 0.376776 cumulative IPC: 0.376776 (Simulation time: 0 hr 30 min 6 sec) 
Heartbeat CPU 0 instructions: 70000002 cycles: 69154937 heartbeat IPC: 0.372968 cumulative IPC: 0.374863 (Simulation time: 0 hr 33 min 57 sec) 
Heartbeat CPU 0 instructions: 80000000 cycles: 95623767 heartbeat IPC: 0.377803 cumulative IPC: 0.375838 (Simulation time: 0 hr 37 min 39 sec) 
Heartbeat CPU 0 instructions: 90000003 cycles: 122793310 heartbeat IPC: 0.368059 cumulative IPC: 0.373862 (Simulation time: 0 hr 40 min 53 sec) 
Heartbeat CPU 0 instructions: 100000002 cycles: 149628649 heartbeat IPC: 0.372643 cumulative IPC: 0.373618 (Simulation time: 0 hr 43 min 56 sec) 
Heartbeat CPU 0 instructions: 110000000 cycles: 175957902 heartbeat IPC: 0.379806 cumulative IPC: 0.374635 (Simulation time: 0 hr 46 min 59 sec) 
Heartbeat CPU 0 instructions: 120000000 cycles: 202198283 heartbeat IPC: 0.381092 cumulative IPC: 0.375544 (Simulation time: 0 hr 49 min 49 sec) 
Heartbeat CPU 0 instructions: 130000001 cycles: 228842450 heartbeat IPC: 0.375317 cumulative IPC: 0.375516 (Simulation time: 0 hr 52 min 26 sec) 
Heartbeat CPU 0 instructions: 140000000 cycles: 255551289 heartbeat IPC: 0.374408 cumulative IPC: 0.375392 (Simulation time: 0 hr 54 min 46 sec) 
Heartbeat CPU 0 instructions: 150000000 cycles: 282012497 heartbeat IPC: 0.377912 cumulative IPC: 0.375643 (Simulation time: 0 hr 56 min 46 sec) 
Finished CPU 0 instructions: 100000002 cycles: 266210455 cumulative IPC: 0.375643 (Simulation time: 0 hr 56 min 46 sec) 

ChampSim completed all CPUs

Region of Interest Statistics

CPU 0 cumulative IPC: 0.375643 instructions: 100000002 cycles: 266210455

CPU 0 Average Load ROB stall cycles: 1.11489e+07
CPU 0 Fraction of times ROB stalled by Loads: 7.47205
CPU 0 Percentage of Load stall cycles in Total stall cycles: 1.6156e+08
 Total stall cycles: 174251909
 Total load stall cycles: 281521671629303
CPU 0 NUM of IPS identified critical: 4

Threshold modification factor: -1
Max PIST entries: 119
Min PIST entries: 0
Avg PIST entries: 72.7067
Average ROB occupancy Load Stall Begin: 22.4414
Average ROB occupancy Load Stall End: 25.3224
Min ROB occupancy Load Stall Begin: 1
Max ROB occupancy Load Stall Begin: 351
Min ROB occupancy Load Stall End: 1
Max ROB occupancy Load Stall End: 352
Average ROB occupancy Critical Load Stall Begin: 133.055
Average ROB occupancy Critical Load Stall End: 135.572
Min ROB occupancy Critical Load Stall Begin: 4
Max ROB occupancy Critical Load Stall Begin: 351
Min ROB occupancy Critical Load Stall End: 4
Max ROB occupancy Critical Load Stall End: 352
 ROB Load Stall Begin Bucket Count 0: 1759316
 ROB Load Stall End Bucket Count 0: 1743044
 ROB Critical Load Stall Begin Bucket Count 0: 10558
 ROB Critical Load Stall End Bucket Count 0: 10391
 ROB Load Stall Begin Bucket Count 1: 76469
 ROB Load Stall End Bucket Count 1: 90322
 ROB Critical Load Stall Begin Bucket Count 1: 11706
 ROB Critical Load Stall End Bucket Count 1: 10708
 ROB Load Stall Begin Bucket Count 2: 21339
 ROB Load Stall End Bucket Count 2: 22488
 ROB Critical Load Stall Begin Bucket Count 2: 9005
 ROB Critical Load Stall End Bucket Count 2: 9457
 ROB Load Stall Begin Bucket Count 3: 13535
 ROB Load Stall End Bucket Count 3: 14105
 ROB Critical Load Stall Begin Bucket Count 3: 6870
 ROB Critical Load Stall End Bucket Count 3: 7149
 ROB Load Stall Begin Bucket Count 4: 6380
 ROB Load Stall End Bucket Count 4: 6663
 ROB Critical Load Stall Begin Bucket Count 4: 3778
 ROB Critical Load Stall End Bucket Count 4: 3932
 ROB Load Stall Begin Bucket Count 5: 3963
 ROB Load Stall End Bucket Count 5: 4098
 ROB Critical Load Stall Begin Bucket Count 5: 2755
 ROB Critical Load Stall End Bucket Count 5: 2850
 ROB Load Stall Begin Bucket Count 6: 5771
 ROB Load Stall End Bucket Count 6: 6053
 ROB Critical Load Stall Begin Bucket Count 6: 4105
 ROB Critical Load Stall End Bucket Count 6: 4290
Threshold Modified: 1 times, factor: -1
ITLB TOTAL     ACCESS:   16940375  HIT:   16940375  MISS:          0  HIT %:        100  MISS %:          0   MPKI: 0
ITLB LOAD TRANSLATION ACCESS:   16940375  HIT:   16940375  MISS:          0  HIT %:        100  MISS %:          0   MPKI: 0
ITLB AVERAGE MISS LATENCY: -nan cycles
ITLB RQ	ACCESS:   19290313	FORWARD:          0	MERGED:    2349938	TO_CACHE:   16940375

DTLB TOTAL     ACCESS:   27925200  HIT:   27881032  MISS:      44168  HIT %:    99.8418  MISS %:   0.158165   MPKI: 0.44168
DTLB LOAD TRANSLATION ACCESS:   27925200  HIT:   27881032  MISS:      44168  HIT %:    99.8418  MISS %:   0.158165   MPKI: 0.44168
DTLB AVERAGE MISS LATENCY: 9.47419 cycles
DTLB RQ	ACCESS:   31734921	FORWARD:          0	MERGED:    3808746	TO_CACHE:   27926175

STLB TOTAL     ACCESS:      44168  HIT:      44046  MISS:        122  HIT %:    99.7238  MISS %:   0.276218   MPKI: 0.00122
STLB LOAD TRANSLATION ACCESS:      44168  HIT:      44046  MISS:        122  HIT %:    99.7238  MISS %:   0.276218   MPKI: 0.00122
STLB AVERAGE MISS LATENCY: 170.68 cycles
STLB RQ	ACCESS:      44168	FORWARD:          0	MERGED:          0	TO_CACHE:      44168

STLB Hit, L1D data hit: 0
STLB Hit, L2C data hit: 0
STLB Hit, LLC data hit: 0
STLB Hit, LLC data miss: 0
STLB STLB hints to L2: 0
L1D TOTAL     ACCESS:   31691042  HIT:   31426936  MISS:     264106  HIT %:    99.1666  MISS %:   0.833377   MPKI: 2.64106
L1D LOAD      ACCESS:   20313390  HIT:   20080472  MISS:     232918  HIT %:    98.8534  MISS %:    1.14662   MPKI: 2.32918
L1D RFO       ACCESS:   11377652  HIT:   11346464  MISS:      31188  HIT %:    99.7259  MISS %:   0.274116   MPKI: 0.31188
L1D AVERAGE MISS LATENCY: 15.8319 cycles
L1D RQ	ACCESS:   26089725	FORWARD:          0	MERGED:    4595572	TO_CACHE:   20318139
L1D WQ	ACCESS:   11615694	FORWARD:    1176014	MERGED:     198912	TO_CACHE:   11416782

L1D UNIQUE REGIONS ACCESSED: 0
L1D REGIONS CONFLICTS: 0
L1D Cross Page Prefetch Requests: 0
L1D Same Page Prefetch Requests: 0
L1D ROI Sum of L1D PQ occupancy: 0
L1D PREFETCHES PUSHED FROM L2C: 0
L1I TOTAL     ACCESS:   19287955  HIT:   19281658  MISS:       6297  HIT %:    99.9674  MISS %:  0.0326473   MPKI: 0.06297
L1I LOAD      ACCESS:   19287955  HIT:   19281658  MISS:       6297  HIT %:    99.9674  MISS %:  0.0326473   MPKI: 0.06297
L1I AVERAGE MISS LATENCY: 14.0381 cycles
L1I RQ	ACCESS:   27769858	FORWARD:          0	MERGED:    8479545	TO_CACHE:   19290313

BTB TOTAL     ACCESS:   15851744  HIT:   14674603  MISS:    1177141  HIT %:    92.5741  MISS %:    7.42594   MPKI: 11.7714
BTB BRANCH_DIRECT_JUMP	ACCESS:     546600  HIT:     546518  MISS:         82
BTB BRANCH_INDIRECT	ACCESS:        776  HIT:        703  MISS:         73
BTB BRANCH_CONDITIONAL	ACCESS:    9399016  HIT:    9398045  MISS:        971
BTB BRANCH_DIRECT_CALL	ACCESS:    2952676  HIT:    2952278  MISS:        398
BTB BRANCH_INDIRECT_CALL	ACCESS:          0  HIT:          0  MISS:          0
BTB BRANCH_RETURN	ACCESS:    2952676  HIT:    1777059  MISS:    1175617
BTB BRANCH_OTHER ACCESS:          0  HIT:          0  MISS:          0

L2C TOTAL     ACCESS:     479799  HIT:     476794  MISS:       3005  HIT %:    99.3737  MISS %:   0.626304   MPKI: 0.03005
L2C LOAD      ACCESS:     239214  HIT:     237329  MISS:       1885  HIT %:     99.212  MISS %:   0.787997   MPKI: 0.01885
L2C DATA LOAD MPKI: 0.01877
L2C INSTRUCTION LOAD MPKI: 8e-05
L2C RFO       ACCESS:      31183  HIT:      30514  MISS:        669  HIT %:    97.8546  MISS %:     2.1454   MPKI: 0.00669
L2C PREFETCH  ACCESS:     151212  HIT:     150817  MISS:        395  HIT %:    99.7388  MISS %:   0.261223   MPKI: 0.00395
L2C DATA PREFETCH MPKI: 0.00395
L2C INSTRUCTION PREFETCH MPKI: 0
L2C WRITEBACK ACCESS:      58068  HIT:      58055  MISS:         13  HIT %:    99.9776  MISS %:  0.0223875   MPKI: 0.00013
L2C LOAD TRANSLATION ACCESS:        122  HIT:         79  MISS:         43  HIT %:    64.7541  MISS %:    35.2459   MPKI: 0.00043
L2C PREFETCH  REQUESTED:     191227  ISSUED:     191227  USEFUL:        354  USELESS:         27
L2C USEFUL LOAD PREFETCHES:        354 PREFETCH ISSUED TO LOWER LEVEL:      32850  ACCURACY: 1.07763
L2C TIMELY PREFETCHES:        354 LATE PREFETCHES: 123 DROPPED PREFETCHES: 0
L2C PREFETCHES SAME FILL-ORIGIN LEVEL: 518 DIFFERENT FILL-ORIGIN LEVEL: 32332
L2C AVERAGE MISS LATENCY: 79.5388 cycles
L2C RQ	ACCESS:     270525	FORWARD:          0	MERGED:          0	TO_CACHE:     270519
L2C WQ	ACCESS:      58068	FORWARD:          6	MERGED:          0	TO_CACHE:      58068
L2C PQ	ACCESS:     191227	FORWARD:          0	MERGED:       7528	TO_CACHE:     183699

L2C Instructions Evicting Data6
L2C Translations Evicting Data23
L2C Data Evicting Data1668
L2C Instructions Evicting Instructions2
L2C Translations Evicting Instructions2
L2C Data Evicting Instructions72
L2C Instructions Evicting Translations0
L2C Translations Evicting Translations0
L2C Data Evicting Translations43
L2C Dense regions hint from L2: 0
PSCL5 TOTAL     ACCESS:        122  HIT:        122  MISS:          0  HIT %:        100  MISS %:          0   MPKI: 0
PSCL5 LOAD TRANSLATION ACCESS:        122  HIT:        122  MISS:          0  HIT %:        100  MISS %:          0   MPKI: 0

PSCL4 TOTAL     ACCESS:        122  HIT:        122  MISS:          0  HIT %:        100  MISS %:          0   MPKI: 0
PSCL4 LOAD TRANSLATION ACCESS:        122  HIT:        122  MISS:          0  HIT %:        100  MISS %:          0   MPKI: 0

PSCL3 TOTAL     ACCESS:        122  HIT:        122  MISS:          0  HIT %:        100  MISS %:          0   MPKI: 0
PSCL3 LOAD TRANSLATION ACCESS:        122  HIT:        122  MISS:          0  HIT %:        100  MISS %:          0   MPKI: 0

PSCL2 TOTAL     ACCESS:        122  HIT:        122  MISS:          0  HIT %:        100  MISS %:          0   MPKI: 0
PSCL2 LOAD TRANSLATION ACCESS:        122  HIT:        122  MISS:          0  HIT %:        100  MISS %:          0   MPKI: 0

LLC TOTAL     ACCESS:      34102  HIT:      30377  MISS:       3725  HIT %:    89.0769  MISS %:    10.9231   MPKI: 0.03725
LLC LOAD      ACCESS:       1762  HIT:       1244  MISS:        518  HIT %:    70.6016  MISS %:    29.3984   MPKI: 0.00518
LLC RFO       ACCESS:        669  HIT:         55  MISS:        614  HIT %:    8.22123  MISS %:    91.7788   MPKI: 0.00614
LLC PREFETCH  ACCESS:      31288  HIT:      28727  MISS:       2561  HIT %:    91.8148  MISS %:    8.18525   MPKI: 0.02561
LLC WRITEBACK ACCESS:        340  HIT:        340  MISS:          0  HIT %:        100  MISS %:          0   MPKI: 0
LLC LOAD TRANSLATION ACCESS:         43  HIT:         11  MISS:         32  HIT %:    25.5814  MISS %:    74.4186   MPKI: 0.00032
LLC AVERAGE MISS LATENCY: 140.311 cycles
LLC RQ	ACCESS:       2474	FORWARD:          0	MERGED:          0	TO_CACHE:       2474
LLC WQ	ACCESS:        340	FORWARD:          0	MERGED:          0	TO_CACHE:        340
LLC PQ	ACCESS:      32850	FORWARD:          0	MERGED:       1044	TO_CACHE:      31806

LLC Dense regions hint to LLC: 0

RAW hits: 794499
Loads Generated: 26884224
Loads sent to L1D: 26089725
Stores Generated: 11615691
Stores sent to L1D: 11615694
Major fault: 0 Minor fault: 639
Allocated PAGES: 639
------------------
Depth Distribution
------------------
depth 0: 0
depth 1: 153703
depth 2: 32514
depth 3: 21473
depth 4: 17637
depth 5: 14922
depth 6: 13830
depth 7: 12424
depth 8: 9450
depth 9: 6266
depth 10: 2007
depth 11: 586
depth 12: 14
depth 13: 0
depth 14: 0
depth 15: 0
depth 16: 0
depth 17: 0
depth 18: 0
depth 19: 0
depth 20: 0
depth 21: 0
depth 22: 0
depth 23: 0
depth 24: 0
depth 25: 0
depth 26: 0
depth 27: 0
depth 28: 0
depth 29: 0
Total: 284826
-----------------------------
-----------------------------
	Captured at Filter
-----------------------------
depth 0: 0
depth 1: 52883
depth 2: 41663
depth 3: 38463
depth 4: 35967
depth 5: 32231
depth 6: 28528
depth 7: 23256
depth 8: 15976
depth 9: 9212
depth 10: 2416
depth 11: 620
depth 12: 0
depth 13: 0
depth 14: 0
depth 15: 0
depth 16: 0
depth 17: 0
depth 18: 0
depth 19: 0
depth 20: 0
depth 21: 0
depth 22: 0
depth 23: 0
depth 24: 0
depth 25: 0
depth 26: 0
depth 27: 0
depth 28: 0
depth 29: 0
-----------------------------
-----------------------------
		Lost at Page
-----------------------------
depth 0: 0
depth 1: 8029
depth 2: 2407
depth 3: 3325
depth 4: 4245
depth 5: 4947
depth 6: 5707
depth 7: 5810
depth 8: 4815
depth 9: 3312
depth 10: 1045
depth 11: 336
depth 12: 1
depth 13: 0
depth 14: 0
depth 15: 0
depth 16: 0
depth 17: 0
depth 18: 0
depth 19: 0
depth 20: 0
depth 21: 0
depth 22: 0
depth 23: 0
depth 24: 0
depth 25: 0
depth 26: 0
depth 27: 0
depth 28: 0
depth 29: 0
-----------------------------
-----------------------------
	Lost due to PQ Size
-----------------------------
49
-----------------------------
ST read accesses: 231404
ST write accesses: 1513
PT read accesses: 4017096
PT write accesses: 337546
FILTER read accesses: 625497
FILTER write accesses: 12995
GHR read accesses: 186287
GHR write accesses: 30503
GHR counter read accesses: 3045858
GHR counter write accesses: 242891
ST tag read accesses: 85073530
ST tag write accesses: 6053322

DRAM Statistics
 CHANNEL 0
 RQ ROW_BUFFER_HIT:       1177  ROW_BUFFER_MISS:       2548
 DBUS_CONGESTED:          0
 WQ ROW_BUFFER_HIT:          0  ROW_BUFFER_MISS:          0  FULL:          0

 AVG_CONGESTED_CYCLE: -
 All warmup complete: 2
Channel 0 Bank busy for read cycles: 0
Channel 0 Bank busy for write cycles: 0
Channel 0
Rank 0
0banks busy for read cycles: 265876922
0banks busy for write cycles: 0
1banks busy for read cycles: 279865
1banks busy for write cycles: 0
2banks busy for read cycles: 34153
2banks busy for write cycles: 0
3banks busy for read cycles: 7221
3banks busy for write cycles: 0
4banks busy for read cycles: 3659
4banks busy for write cycles: 0
5banks busy for read cycles: 2668
5banks busy for write cycles: 0
6banks busy for read cycles: 1428
6banks busy for write cycles: 0
7banks busy for read cycles: 1647
7banks busy for write cycles: 0
8banks busy for read cycles: 2893
8banks busy for write cycles: 0

CPU 0 Branch Prediction Accuracy: 93.2052% MPKI: 11.3866 Average ROB Occupancy at Mispredict: 22.5701
Branch types
NOT_BRANCH: 83241771 83.2418%
BRANCH_DIRECT_JUMP: 546600 0.5466%
BRANCH_INDIRECT: 776 0.000776%
BRANCH_CONDITIONAL: 10305170 10.3052%
BRANCH_DIRECT_CALL: 2952676 2.95268%
BRANCH_INDIRECT_CALL: 0 0%
BRANCH_RETURN: 2952676 2.95268%
BRANCH_OTHER: 0 0%

DRAM PAGES: 1048576
Allocated PAGES: 639
