Initialize SIGNATURE TABLE
ST_SET: 1
ST_WAY: 256
ST_TAG_BIT: 16
ST_TAG_MASK: ffff

Initialize PATTERN TABLE
PT_SET: 512
PT_WAY: 4
SIG_DELTA_BIT: 7
C_SIG_BIT: 4
C_DELTA_BIT: 4

Initialize PREFETCH FILTER
FILTER_SET: 1024

Initialize PERCEPTRON
PERC_ENTRIES: 4096
PERC_FEATURES: 9

*** ChampSim Multicore Out-of-Order Simulator ***

Warmup Instructions: 50000000
Simulation Instructions: 100000000
Number of CPUs: 1
LLC sets: 2048
LLC ways: 16
Off-chip DRAM Size: 4096 MB Channels: 1 Width: 64-bit Data Rate: 6400 MT/s
CPU 0 runs ../SPEC2017//641.leela_s-1083B.champsimtrace.xz
.xz
NUM_OF_IPS_IN_CRITICAL_IP_TRAINING: 64
NUM_OF_CRITICAL_IP_TRAINING_TABLE_WAYS: 2
NUM_OF_CRITICAL_IP_TRAINING_TABLE_SETS: 32
WOBBLY_CRITICAL_IP_CACHE_SETS: 32
WOBBLY_CRITICAL_IP_CACHE_WAYS: 4
BTB has LRU replacement policy
ITLB has LRU replacement policy
DTLB has LRU replacement policy
STLB has LRU replacement policy
L1I has LRU replacement policy
L1D has LRU replacement policy
Initialize SRRIP state for L2C
Initialize DRRIP state for LLC
Heartbeat CPU 0 instructions: 10000000 cycles: 3152555 heartbeat IPC: 3.17203 cumulative IPC: 3.17203 (Simulation time: 0 hr 4 min 56 sec) 
Heartbeat CPU 0 instructions: 20000000 cycles: 6314263 heartbeat IPC: 3.16285 cumulative IPC: 3.16743 (Simulation time: 0 hr 9 min 17 sec) 
Heartbeat CPU 0 instructions: 30000003 cycles: 9486966 heartbeat IPC: 3.15189 cumulative IPC: 3.16223 (Simulation time: 0 hr 13 min 26 sec) 
Heartbeat CPU 0 instructions: 40000003 cycles: 12644825 heartbeat IPC: 3.1667 cumulative IPC: 3.16335 (Simulation time: 0 hr 17 min 19 sec) 
Heartbeat CPU 0 instructions: 50000003 cycles: 15801785 heartbeat IPC: 3.1676 cumulative IPC: 3.1642 (Simulation time: 0 hr 20 min 58 sec) 

Warmup complete CPU 0 instructions: 50000003 cycles: 15801785 (Simulation time: 0 hr 20 min 58 sec) 

% increase in all ip prefetch 620.785
% increase in all ip prefetch -5.11564
Heartbeat CPU 0 instructions: 60000002 cycles: 42349024 heartbeat IPC: 0.376687 cumulative IPC: 0.376687 (Simulation time: 0 hr 24 min 58 sec) 
Heartbeat CPU 0 instructions: 70000002 cycles: 69162299 heartbeat IPC: 0.37295 cumulative IPC: 0.374809 (Simulation time: 0 hr 28 min 47 sec) 
Heartbeat CPU 0 instructions: 80000000 cycles: 95630884 heartbeat IPC: 0.377806 cumulative IPC: 0.375803 (Simulation time: 0 hr 32 min 23 sec) 
Heartbeat CPU 0 instructions: 90000003 cycles: 122800218 heartbeat IPC: 0.368062 cumulative IPC: 0.373837 (Simulation time: 0 hr 35 min 42 sec) 
Heartbeat CPU 0 instructions: 100000002 cycles: 149635132 heartbeat IPC: 0.372649 cumulative IPC: 0.373599 (Simulation time: 0 hr 38 min 48 sec) 
Heartbeat CPU 0 instructions: 110000000 cycles: 175963577 heartbeat IPC: 0.379817 cumulative IPC: 0.374621 (Simulation time: 0 hr 41 min 42 sec) 
Heartbeat CPU 0 instructions: 120000000 cycles: 202204235 heartbeat IPC: 0.381088 cumulative IPC: 0.375532 (Simulation time: 0 hr 44 min 32 sec) 
Heartbeat CPU 0 instructions: 130000001 cycles: 228847541 heartbeat IPC: 0.375329 cumulative IPC: 0.375506 (Simulation time: 0 hr 47 min 21 sec) 
Heartbeat CPU 0 instructions: 140000000 cycles: 255556549 heartbeat IPC: 0.374405 cumulative IPC: 0.375384 (Simulation time: 0 hr 51 min 58 sec) 
Heartbeat CPU 0 instructions: 150000000 cycles: 282017237 heartbeat IPC: 0.377919 cumulative IPC: 0.375636 (Simulation time: 0 hr 57 min 36 sec) 
Finished CPU 0 instructions: 100000002 cycles: 266215455 cumulative IPC: 0.375636 (Simulation time: 0 hr 57 min 36 sec) 

ChampSim completed all CPUs

Region of Interest Statistics

CPU 0 cumulative IPC: 0.375636 instructions: 100000002 cycles: 266215455

CPU 0 Average Load ROB stall cycles: 5.58117e+07
CPU 0 Fraction of times ROB stalled by Loads: 37.466
CPU 0 Percentage of Load stall cycles in Total stall cycles: 8.09811e+08
Issued all: 55075078
Issued LT all: 43607946
rob_not_full_when_issued_lt_all: 40843072
Issued LT one: 33002405
rob_not_full_when_issued_lt_one: 30424226
 Total stall cycles: 215712837
 Total load stall cycles: 1746867118139194
CPU 0 NUM of IPS identified critical: 0
CPU 0 Num of Load IPs stalling ROB: 1140
Threshold modification factor: -1
Max PIST entries: 64
Min PIST entries: 0
Avg PIST entries: 42.6667
Trouble in retire width: 0.955915
MaC = Marked as critical.
lt_50_percent_before_Mac: 0
gt_90_percent_before_Mac: 0
gt_75_percent_before_Mac: 0
gt_50_percent_before_Mac: 0
stall_proportion_bin_same_before_after: 0
stall_proportion_bin_lower_before_after: 0
stall_proportion_bin_upper_before_after: 0
average_stall_proportion_before: -nan
average_stall_proportion_after: -nan
Critical IP stalls, total frequency: 0
Non-critical IP stalls, total frequency: 11726603
Total Freq all stalling IPs: 11726603
stat_90_percent_critical_ip_stalls_freq: 10566437
stat_90_percent_non_critical_ip_stalls_freq: 1160166
Critical_IP_ROB_Stalls_Bucket_0: 0
Non-critical_IP_ROB_Stalls_Bucket_0: 10004598
Critical_IP_ROB_Stalls_Bucket_1: 0
Non-critical_IP_ROB_Stalls_Bucket_1: 888461
Critical_IP_ROB_Stalls_Bucket_2: 0
Non-critical_IP_ROB_Stalls_Bucket_2: 447084
Critical_IP_ROB_Stalls_Bucket_3: 0
Non-critical_IP_ROB_Stalls_Bucket_3: 160674
Critical_IP_ROB_Stalls_Bucket_4: 0
Non-critical_IP_ROB_Stalls_Bucket_4: 46964
Critical_IP_ROB_Stalls_Bucket_5: 0
Non-critical_IP_ROB_Stalls_Bucket_5: 19643
Critical_IP_ROB_Stalls_Bucket_6: 0
Non-critical_IP_ROB_Stalls_Bucket_6: 159179
0 => IPs accounting for >50 percent of stalls, 1 => 55, 2 => 60, 3 => 65 and so on till 90.
percent50: 50.1482 num IPs:  41
percent55: 55.2272 num IPs: 51
percent60: 60.1992 num IPs: 63
percent65: 65.2689 num IPs: 79
percent70: 70.0043 num IPs: 95
percent75: 75.1925 num IPs: 113
percent80: 80.0583 num IPs: 134
percent85: 85.033 num IPs: 159
percent90: 90.1065 num IPs: 193
Critical_ROB_Stalls_Percent_0_Bucket_0: 5369288
Non-critical_ROB_Stalls_Percent_0_Bucket_0: 4635310
Critical_ROB_Stalls_Percent_0_Bucket_1: 232728
Non-critical_ROB_Stalls_Percent_0_Bucket_1: 655733
Critical_ROB_Stalls_Percent_0_Bucket_2: 74368
Non-critical_ROB_Stalls_Percent_0_Bucket_2: 372716
Critical_ROB_Stalls_Percent_0_Bucket_3: 29640
Non-critical_ROB_Stalls_Percent_0_Bucket_3: 131034
Critical_ROB_Stalls_Percent_0_Bucket_4: 16336
Non-critical_ROB_Stalls_Percent_0_Bucket_4: 30628
Critical_ROB_Stalls_Percent_0_Bucket_5: 8999
Non-critical_ROB_Stalls_Percent_0_Bucket_5: 10644
Critical_ROB_Stalls_Percent_0_Bucket_6: 149321
Non-critical_ROB_Stalls_Percent_0_Bucket_6: 9858
Critical_ROB_Stalls_Percent_1_Bucket_0: 5889543
Non-critical_ROB_Stalls_Percent_1_Bucket_0: 4115055
Critical_ROB_Stalls_Percent_1_Bucket_1: 283830
Non-critical_ROB_Stalls_Percent_1_Bucket_1: 604631
Critical_ROB_Stalls_Percent_1_Bucket_2: 86919
Non-critical_ROB_Stalls_Percent_1_Bucket_2: 360165
Critical_ROB_Stalls_Percent_1_Bucket_3: 36925
Non-critical_ROB_Stalls_Percent_1_Bucket_3: 123749
Critical_ROB_Stalls_Percent_1_Bucket_4: 19301
Non-critical_ROB_Stalls_Percent_1_Bucket_4: 27663
Critical_ROB_Stalls_Percent_1_Bucket_5: 9761
Non-critical_ROB_Stalls_Percent_1_Bucket_5: 9882
Critical_ROB_Stalls_Percent_1_Bucket_6: 149990
Non-critical_ROB_Stalls_Percent_1_Bucket_6: 9189
Critical_ROB_Stalls_Percent_2_Bucket_0: 6422231
Non-critical_ROB_Stalls_Percent_2_Bucket_0: 3582367
Critical_ROB_Stalls_Percent_2_Bucket_1: 325759
Non-critical_ROB_Stalls_Percent_2_Bucket_1: 562702
Critical_ROB_Stalls_Percent_2_Bucket_2: 91065
Non-critical_ROB_Stalls_Percent_2_Bucket_2: 356019
Critical_ROB_Stalls_Percent_2_Bucket_3: 40091
Non-critical_ROB_Stalls_Percent_2_Bucket_3: 120583
Critical_ROB_Stalls_Percent_2_Bucket_4: 19931
Non-critical_ROB_Stalls_Percent_2_Bucket_4: 27033
Critical_ROB_Stalls_Percent_2_Bucket_5: 9948
Non-critical_ROB_Stalls_Percent_2_Bucket_5: 9695
Critical_ROB_Stalls_Percent_2_Bucket_6: 150290
Non-critical_ROB_Stalls_Percent_2_Bucket_6: 8889
Critical_ROB_Stalls_Percent_3_Bucket_0: 6746489
Non-critical_ROB_Stalls_Percent_3_Bucket_0: 3258109
Critical_ROB_Stalls_Percent_3_Bucket_1: 425570
Non-critical_ROB_Stalls_Percent_3_Bucket_1: 462891
Critical_ROB_Stalls_Percent_3_Bucket_2: 193093
Non-critical_ROB_Stalls_Percent_3_Bucket_2: 253991
Critical_ROB_Stalls_Percent_3_Bucket_3: 94536
Non-critical_ROB_Stalls_Percent_3_Bucket_3: 66138
Critical_ROB_Stalls_Percent_3_Bucket_4: 31322
Non-critical_ROB_Stalls_Percent_3_Bucket_4: 15642
Critical_ROB_Stalls_Percent_3_Bucket_5: 12380
Non-critical_ROB_Stalls_Percent_3_Bucket_5: 7263
Critical_ROB_Stalls_Percent_3_Bucket_6: 150430
Non-critical_ROB_Stalls_Percent_3_Bucket_6: 8749
Critical_ROB_Stalls_Percent_4_Bucket_0: 7100018
Non-critical_ROB_Stalls_Percent_4_Bucket_0: 2904580
Critical_ROB_Stalls_Percent_4_Bucket_1: 538571
Non-critical_ROB_Stalls_Percent_4_Bucket_1: 349890
Critical_ROB_Stalls_Percent_4_Bucket_2: 256225
Non-critical_ROB_Stalls_Percent_4_Bucket_2: 190859
Critical_ROB_Stalls_Percent_4_Bucket_3: 116619
Non-critical_ROB_Stalls_Percent_4_Bucket_3: 44055
Critical_ROB_Stalls_Percent_4_Bucket_4: 34272
Non-critical_ROB_Stalls_Percent_4_Bucket_4: 12692
Critical_ROB_Stalls_Percent_4_Bucket_5: 12855
Non-critical_ROB_Stalls_Percent_4_Bucket_5: 6788
Critical_ROB_Stalls_Percent_4_Bucket_6: 150565
Non-critical_ROB_Stalls_Percent_4_Bucket_6: 8614
Critical_ROB_Stalls_Percent_5_Bucket_0: 7485155
Non-critical_ROB_Stalls_Percent_5_Bucket_0: 2519443
Critical_ROB_Stalls_Percent_5_Bucket_1: 626115
Non-critical_ROB_Stalls_Percent_5_Bucket_1: 262346
Critical_ROB_Stalls_Percent_5_Bucket_2: 377957
Non-critical_ROB_Stalls_Percent_5_Bucket_2: 69127
Critical_ROB_Stalls_Percent_5_Bucket_3: 130016
Non-critical_ROB_Stalls_Percent_5_Bucket_3: 30658
Critical_ROB_Stalls_Percent_5_Bucket_4: 34827
Non-critical_ROB_Stalls_Percent_5_Bucket_4: 12137
Critical_ROB_Stalls_Percent_5_Bucket_5: 12875
Non-critical_ROB_Stalls_Percent_5_Bucket_5: 6768
Critical_ROB_Stalls_Percent_5_Bucket_6: 150574
Non-critical_ROB_Stalls_Percent_5_Bucket_6: 8605
Critical_ROB_Stalls_Percent_6_Bucket_0: 7955642
Non-critical_ROB_Stalls_Percent_6_Bucket_0: 2048956
Critical_ROB_Stalls_Percent_6_Bucket_1: 680020
Non-critical_ROB_Stalls_Percent_6_Bucket_1: 208441
Critical_ROB_Stalls_Percent_6_Bucket_2: 407466
Non-critical_ROB_Stalls_Percent_6_Bucket_2: 39618
Critical_ROB_Stalls_Percent_6_Bucket_3: 142207
Non-critical_ROB_Stalls_Percent_6_Bucket_3: 18467
Critical_ROB_Stalls_Percent_6_Bucket_4: 38083
Non-critical_ROB_Stalls_Percent_6_Bucket_4: 8881
Critical_ROB_Stalls_Percent_6_Bucket_5: 14079
Non-critical_ROB_Stalls_Percent_6_Bucket_5: 5564
Critical_ROB_Stalls_Percent_6_Bucket_6: 150622
Non-critical_ROB_Stalls_Percent_6_Bucket_6: 8557
Critical_ROB_Stalls_Percent_7_Bucket_0: 8486212
Non-critical_ROB_Stalls_Percent_7_Bucket_0: 1518386
Critical_ROB_Stalls_Percent_7_Bucket_1: 717437
Non-critical_ROB_Stalls_Percent_7_Bucket_1: 171024
Critical_ROB_Stalls_Percent_7_Bucket_2: 414364
Non-critical_ROB_Stalls_Percent_7_Bucket_2: 32720
Critical_ROB_Stalls_Percent_7_Bucket_3: 145666
Non-critical_ROB_Stalls_Percent_7_Bucket_3: 15008
Critical_ROB_Stalls_Percent_7_Bucket_4: 39966
Non-critical_ROB_Stalls_Percent_7_Bucket_4: 6998
Critical_ROB_Stalls_Percent_7_Bucket_5: 15314
Non-critical_ROB_Stalls_Percent_7_Bucket_5: 4329
Critical_ROB_Stalls_Percent_7_Bucket_6: 152524
Non-critical_ROB_Stalls_Percent_7_Bucket_6: 6655
Critical_ROB_Stalls_Percent_8_Bucket_0: 9022669
Non-critical_ROB_Stalls_Percent_8_Bucket_0: 981929
Critical_ROB_Stalls_Percent_8_Bucket_1: 762939
Non-critical_ROB_Stalls_Percent_8_Bucket_1: 125522
Critical_ROB_Stalls_Percent_8_Bucket_2: 419539
Non-critical_ROB_Stalls_Percent_8_Bucket_2: 27545
Critical_ROB_Stalls_Percent_8_Bucket_3: 149188
Non-critical_ROB_Stalls_Percent_8_Bucket_3: 11486
Critical_ROB_Stalls_Percent_8_Bucket_4: 41589
Non-critical_ROB_Stalls_Percent_8_Bucket_4: 5375
Critical_ROB_Stalls_Percent_8_Bucket_5: 16529
Non-critical_ROB_Stalls_Percent_8_Bucket_5: 3114
Critical_ROB_Stalls_Percent_8_Bucket_6: 153984
Non-critical_ROB_Stalls_Percent_8_Bucket_6: 5195
Average ROB occupancy Load Stall Begin: 28.2286
Average ROB occupancy Load Stall End: 31.9317
Min ROB occupancy Load Stall Begin: 1
Max ROB occupancy Load Stall Begin: 352
Min ROB occupancy Load Stall End: 1
Max ROB occupancy Load Stall End: 352
Average ROB occupancy Critical Load Stall Begin: -nan
Average ROB occupancy Critical Load Stall End: -nan
Min ROB occupancy Critical Load Stall Begin: 400
Max ROB occupancy Critical Load Stall Begin: 0
Min ROB occupancy Critical Load Stall End: 400
Max ROB occupancy Critical Load Stall End: 0
 ROB Load Stall Begin Bucket Count 0: 10320662
 ROB Load Stall End Bucket Count 0: 10004598
 ROB Critical Load Stall Begin Bucket Count 0: 0
 ROB Critical Load Stall End Bucket Count 0: 0
 ROB Load Stall Begin Bucket Count 1: 638948
 ROB Load Stall End Bucket Count 1: 888461
 ROB Critical Load Stall Begin Bucket Count 1: 0
 ROB Critical Load Stall End Bucket Count 1: 0
 ROB Load Stall Begin Bucket Count 2: 409945
 ROB Load Stall End Bucket Count 2: 447084
 ROB Critical Load Stall Begin Bucket Count 2: 0
 ROB Critical Load Stall End Bucket Count 2: 0
 ROB Load Stall Begin Bucket Count 3: 140394
 ROB Load Stall End Bucket Count 3: 160674
 ROB Critical Load Stall Begin Bucket Count 3: 0
 ROB Critical Load Stall End Bucket Count 3: 0
 ROB Load Stall Begin Bucket Count 4: 41631
 ROB Load Stall End Bucket Count 4: 46964
 ROB Critical Load Stall Begin Bucket Count 4: 0
 ROB Critical Load Stall End Bucket Count 4: 0
 ROB Load Stall Begin Bucket Count 5: 17474
 ROB Load Stall End Bucket Count 5: 19643
 ROB Critical Load Stall Begin Bucket Count 5: 0
 ROB Critical Load Stall End Bucket Count 5: 0
 ROB Load Stall Begin Bucket Count 6: 157549
 ROB Load Stall End Bucket Count 6: 159179
 ROB Critical Load Stall Begin Bucket Count 6: 0
 ROB Critical Load Stall End Bucket Count 6: 0
PIST Tag Read Accesses: 3501392
PIST Read Accesses: 1750696
PIST Tag Write Accesses: 3501392
PIST Write Accesses: 1750696
Criticality detector called times: 10733168
Max global_stall_cycles_count: 2036158
Threshold Modified: 1 times, factor: -1
Sturdy critical IP cache stats: 
 Unused entries: 0
CIC Tag Read Accesses: 0
CIC Read Accesses: 0
CIC Tag Write Accesses: 0
CIC Write Accesses: 0
Wobbly critical IP cache stats: 
 Unused entries: 110
CIC Tag Read Accesses: 197092838
CIC Read Accesses: 0
CIC Tag Write Accesses: 328
CIC Write Accesses: 0
ITLB TOTAL     ACCESS:   16940424  HIT:   16940424  MISS:          0  HIT %:        100  MISS %:          0   MPKI: 0
ITLB LOAD TRANSLATION ACCESS:   16940424  HIT:   16940424  MISS:          0  HIT %:        100  MISS %:          0   MPKI: 0
ITLB PREFETCH  REQUESTED:          0  ISSUED:          0  USEFUL:          0  USELESS:          0
ITLB USEFUL LOAD PREFETCHES:          0 PREFETCH ISSUED TO LOWER LEVEL:          0  ACCURACY: -nan
ITLB TIMELY PREFETCHES:          0 LATE PREFETCHES: 0 DROPPED PREFETCHES: 0
ITLB PREFETCHES SAME FILL-ORIGIN LEVEL: 0 DIFFERENT FILL-ORIGIN LEVEL: 0
ITLB AVERAGE MISS LATENCY: -nan cycles
ITLB RQ	ACCESS:   19290332	FORWARD:          0	MERGED:    2349908	TO_CACHE:   16940424

DTLB TOTAL     ACCESS:   27925219  HIT:   27881051  MISS:      44168  HIT %:    99.8418  MISS %:   0.158165   MPKI: 0.44168
DTLB LOAD TRANSLATION ACCESS:   27925219  HIT:   27881051  MISS:      44168  HIT %:    99.8418  MISS %:   0.158165   MPKI: 0.44168
DTLB PREFETCH  REQUESTED:          0  ISSUED:          0  USEFUL:          0  USELESS:          0
DTLB USEFUL LOAD PREFETCHES:          0 PREFETCH ISSUED TO LOWER LEVEL:          0  ACCURACY: -nan
DTLB TIMELY PREFETCHES:          0 LATE PREFETCHES: 0 DROPPED PREFETCHES: 0
DTLB PREFETCHES SAME FILL-ORIGIN LEVEL: 0 DIFFERENT FILL-ORIGIN LEVEL: 0
DTLB AVERAGE MISS LATENCY: 9.47849 cycles
DTLB RQ	ACCESS:   31734983	FORWARD:          0	MERGED:    3808788	TO_CACHE:   27926195

STLB TOTAL     ACCESS:      44168  HIT:      44046  MISS:        122  HIT %:    99.7238  MISS %:   0.276218   MPKI: 0.00122
STLB LOAD TRANSLATION ACCESS:      44168  HIT:      44046  MISS:        122  HIT %:    99.7238  MISS %:   0.276218   MPKI: 0.00122
STLB PREFETCH  REQUESTED:          0  ISSUED:          0  USEFUL:          0  USELESS:          0
STLB USEFUL LOAD PREFETCHES:          0 PREFETCH ISSUED TO LOWER LEVEL:          0  ACCURACY: -nan
STLB TIMELY PREFETCHES:          0 LATE PREFETCHES: 0 DROPPED PREFETCHES: 0
STLB PREFETCHES SAME FILL-ORIGIN LEVEL: 0 DIFFERENT FILL-ORIGIN LEVEL: 0
STLB AVERAGE MISS LATENCY: 172.238 cycles
STLB RQ	ACCESS:      44168	FORWARD:          0	MERGED:          0	TO_CACHE:      44168

STLB Hit, L1D data hit: 0
STLB Hit, L2C data hit: 0
STLB Hit, LLC data hit: 0
STLB Hit, LLC data miss: 0
STLB STLB hints to L2: 0
L1D TOTAL     ACCESS:   31691130  HIT:   31427024  MISS:     264106  HIT %:    99.1666  MISS %:   0.833375   MPKI: 2.64106
L1D LOAD      ACCESS:   20313476  HIT:   20080558  MISS:     232918  HIT %:    98.8534  MISS %:    1.14662   MPKI: 2.32918
L1D RFO       ACCESS:   11377654  HIT:   11346466  MISS:      31188  HIT %:    99.7259  MISS %:   0.274116   MPKI: 0.31188
L1D PREFETCH  REQUESTED:          0  ISSUED:          0  USEFUL:          0  USELESS:          0
L1D USEFUL LOAD PREFETCHES:          0 PREFETCH ISSUED TO LOWER LEVEL:          0  ACCURACY: -nan
L1D TIMELY PREFETCHES:          0 LATE PREFETCHES: 0 DROPPED PREFETCHES: 0
L1D PREFETCHES SAME FILL-ORIGIN LEVEL: 0 DIFFERENT FILL-ORIGIN LEVEL: 0
L1D AVERAGE MISS LATENCY: 15.8585 cycles
L1D RQ	ACCESS:   26089770	FORWARD:          0	MERGED:    4595539	TO_CACHE:   20318196
L1D WQ	ACCESS:   11615694	FORWARD:    1176035	MERGED:     198907	TO_CACHE:   11416787

L1D UNIQUE REGIONS ACCESSED: 0
L1D REGIONS CONFLICTS: 0
L1D Cross Page Prefetch Requests: 0
L1D Same Page Prefetch Requests: 0
L1D ROI Sum of L1D PQ occupancy: 0
L1D PREFETCHES PUSHED FROM L2C: 0
L1I TOTAL     ACCESS:   19287975  HIT:   19281678  MISS:       6297  HIT %:    99.9674  MISS %:  0.0326473   MPKI: 0.06297
L1I LOAD      ACCESS:   19287975  HIT:   19281678  MISS:       6297  HIT %:    99.9674  MISS %:  0.0326473   MPKI: 0.06297
L1I PREFETCH  REQUESTED:          0  ISSUED:          0  USEFUL:          0  USELESS:          0
L1I USEFUL LOAD PREFETCHES:          0 PREFETCH ISSUED TO LOWER LEVEL:          0  ACCURACY: -nan
L1I TIMELY PREFETCHES:          0 LATE PREFETCHES: 0 DROPPED PREFETCHES: 0
L1I PREFETCHES SAME FILL-ORIGIN LEVEL: 0 DIFFERENT FILL-ORIGIN LEVEL: 0
L1I AVERAGE MISS LATENCY: 14.0286 cycles
L1I RQ	ACCESS:   27769972	FORWARD:          0	MERGED:    8479640	TO_CACHE:   19290332

BTB TOTAL     ACCESS:   15851744  HIT:   14674603  MISS:    1177141  HIT %:    92.5741  MISS %:    7.42594   MPKI: 11.7714
BTB BRANCH_DIRECT_JUMP	ACCESS:     546600  HIT:     546518  MISS:         82
BTB BRANCH_INDIRECT	ACCESS:        776  HIT:        703  MISS:         73
BTB BRANCH_CONDITIONAL	ACCESS:    9399016  HIT:    9398045  MISS:        971
BTB BRANCH_DIRECT_CALL	ACCESS:    2952676  HIT:    2952278  MISS:        398
BTB BRANCH_INDIRECT_CALL	ACCESS:          0  HIT:          0  MISS:          0
BTB BRANCH_RETURN	ACCESS:    2952676  HIT:    1777059  MISS:    1175617
BTB BRANCH_OTHER ACCESS:          0  HIT:          0  MISS:          0

L2C TOTAL     ACCESS:     400021  HIT:     395380  MISS:       4641  HIT %:    98.8398  MISS %:    1.16019   MPKI: 0.04641
L2C LOAD      ACCESS:     239214  HIT:     237220  MISS:       1994  HIT %:    99.1664  MISS %:   0.833563   MPKI: 0.01994
L2C DATA LOAD MPKI: 0.01988
L2C INSTRUCTION LOAD MPKI: 6e-05
L2C RFO       ACCESS:      31183  HIT:      30547  MISS:        636  HIT %:    97.9604  MISS %:    2.03957   MPKI: 0.00636
L2C PREFETCH  ACCESS:      71434  HIT:      69503  MISS:       1931  HIT %:    97.2968  MISS %:    2.70319   MPKI: 0.01931
L2C DATA PREFETCH MPKI: 0.01931
L2C INSTRUCTION PREFETCH MPKI: 0
L2C WRITEBACK ACCESS:      58068  HIT:      58054  MISS:         14  HIT %:    99.9759  MISS %:  0.0241097   MPKI: 0.00014
L2C LOAD TRANSLATION ACCESS:        122  HIT:         56  MISS:         66  HIT %:    45.9016  MISS %:    54.0984   MPKI: 0.00066
L2C PREFETCH  REQUESTED:      71534  ISSUED:      71534  USEFUL:        956  USELESS:       1973
L2C USEFUL LOAD PREFETCHES:        956 PREFETCH ISSUED TO LOWER LEVEL:       2007  ACCURACY: 47.6333
L2C TIMELY PREFETCHES:        956 LATE PREFETCHES: 76 DROPPED PREFETCHES: 0
L2C PREFETCHES SAME FILL-ORIGIN LEVEL: 2007 DIFFERENT FILL-ORIGIN LEVEL: 0
L2C AVERAGE MISS LATENCY: 87.8089 cycles
L2C RQ	ACCESS:     270525	FORWARD:          0	MERGED:          0	TO_CACHE:     270519
L2C WQ	ACCESS:      58068	FORWARD:          6	MERGED:          0	TO_CACHE:      58068
L2C PQ	ACCESS:      71534	FORWARD:          0	MERGED:          0	TO_CACHE:      71534

L2C Instructions Evicting Data 6
L2C Translations Evicting Data 59
L2C Data Evicting Data 4274
L2C Instructions Evicting Instructions 0
L2C Translations Evicting Instructions 2
L2C Data Evicting Instructions 48
L2C Instructions Evicting Translations 0
L2C Translations Evicting Translations 0
L2C Data Evicting Translations 58
L2C Dense regions hint from L2: 0
PSCL5 TOTAL     ACCESS:        122  HIT:        122  MISS:          0  HIT %:        100  MISS %:          0   MPKI: 0
PSCL5 LOAD TRANSLATION ACCESS:        122  HIT:        122  MISS:          0  HIT %:        100  MISS %:          0   MPKI: 0
PSCL5 PREFETCH  REQUESTED:          0  ISSUED:          0  USEFUL:          0  USELESS:          0
PSCL5 USEFUL LOAD PREFETCHES:          0 PREFETCH ISSUED TO LOWER LEVEL:          0  ACCURACY: -nan
PSCL5 TIMELY PREFETCHES:          0 LATE PREFETCHES: 0 DROPPED PREFETCHES: 0
PSCL5 PREFETCHES SAME FILL-ORIGIN LEVEL: 0 DIFFERENT FILL-ORIGIN LEVEL: 0

PSCL4 TOTAL     ACCESS:        122  HIT:        122  MISS:          0  HIT %:        100  MISS %:          0   MPKI: 0
PSCL4 LOAD TRANSLATION ACCESS:        122  HIT:        122  MISS:          0  HIT %:        100  MISS %:          0   MPKI: 0
PSCL4 PREFETCH  REQUESTED:          0  ISSUED:          0  USEFUL:          0  USELESS:          0
PSCL4 USEFUL LOAD PREFETCHES:          0 PREFETCH ISSUED TO LOWER LEVEL:          0  ACCURACY: -nan
PSCL4 TIMELY PREFETCHES:          0 LATE PREFETCHES: 0 DROPPED PREFETCHES: 0
PSCL4 PREFETCHES SAME FILL-ORIGIN LEVEL: 0 DIFFERENT FILL-ORIGIN LEVEL: 0

PSCL3 TOTAL     ACCESS:        122  HIT:        122  MISS:          0  HIT %:        100  MISS %:          0   MPKI: 0
PSCL3 LOAD TRANSLATION ACCESS:        122  HIT:        122  MISS:          0  HIT %:        100  MISS %:          0   MPKI: 0
PSCL3 PREFETCH  REQUESTED:          0  ISSUED:          0  USEFUL:          0  USELESS:          0
PSCL3 USEFUL LOAD PREFETCHES:          0 PREFETCH ISSUED TO LOWER LEVEL:          0  ACCURACY: -nan
PSCL3 TIMELY PREFETCHES:          0 LATE PREFETCHES: 0 DROPPED PREFETCHES: 0
PSCL3 PREFETCHES SAME FILL-ORIGIN LEVEL: 0 DIFFERENT FILL-ORIGIN LEVEL: 0

PSCL2 TOTAL     ACCESS:        122  HIT:        122  MISS:          0  HIT %:        100  MISS %:          0   MPKI: 0
PSCL2 LOAD TRANSLATION ACCESS:        122  HIT:        122  MISS:          0  HIT %:        100  MISS %:          0   MPKI: 0
PSCL2 PREFETCH  REQUESTED:          0  ISSUED:          0  USEFUL:          0  USELESS:          0
PSCL2 USEFUL LOAD PREFETCHES:          0 PREFETCH ISSUED TO LOWER LEVEL:          0  ACCURACY: -nan
PSCL2 TIMELY PREFETCHES:          0 LATE PREFETCHES: 0 DROPPED PREFETCHES: 0
PSCL2 PREFETCHES SAME FILL-ORIGIN LEVEL: 0 DIFFERENT FILL-ORIGIN LEVEL: 0

LLC TOTAL     ACCESS:       5138  HIT:       2941  MISS:       2197  HIT %:    57.2402  MISS %:    42.7598   MPKI: 0.02197
LLC LOAD      ACCESS:       1918  HIT:       1375  MISS:        543  HIT %:    71.6893  MISS %:    28.3107   MPKI: 0.00543
LLC RFO       ACCESS:        636  HIT:         15  MISS:        621  HIT %:    2.35849  MISS %:    97.6415   MPKI: 0.00621
LLC PREFETCH  ACCESS:       2007  HIT:       1013  MISS:        994  HIT %:    50.4733  MISS %:    49.5267   MPKI: 0.00994
LLC WRITEBACK ACCESS:        511  HIT:        504  MISS:          7  HIT %:    98.6301  MISS %:    1.36986   MPKI: 7e-05
LLC LOAD TRANSLATION ACCESS:         66  HIT:         34  MISS:         32  HIT %:    51.5152  MISS %:    48.4848   MPKI: 0.00032
LLC PREFETCH  REQUESTED:          0  ISSUED:          0  USEFUL:        363  USELESS:         28
LLC USEFUL LOAD PREFETCHES:        363 PREFETCH ISSUED TO LOWER LEVEL:        994  ACCURACY: 36.5191
LLC TIMELY PREFETCHES:        363 LATE PREFETCHES: 0 DROPPED PREFETCHES: 0
LLC PREFETCHES SAME FILL-ORIGIN LEVEL: 0 DIFFERENT FILL-ORIGIN LEVEL: 0
LLC AVERAGE MISS LATENCY: 124.791 cycles
LLC RQ	ACCESS:       2620	FORWARD:          0	MERGED:          0	TO_CACHE:       2620
LLC WQ	ACCESS:        511	FORWARD:          0	MERGED:          0	TO_CACHE:        511
LLC PQ	ACCESS:       2007	FORWARD:          0	MERGED:          0	TO_CACHE:       2007

LLC Dense regions hint to LLC: 0

RAW hits: 794454
Loads Generated: 26884224
Loads sent to L1D: 26089770
Stores Generated: 11615691
Stores sent to L1D: 11615694
Major fault: 0 Minor fault: 639
Allocated PAGES: 639
------------------
Depth Distribution
------------------
depth 0: 39411
depth 1: 114338
depth 2: 116938
depth 3: 42595
depth 4: 13217
depth 5: 8421
depth 6: 2957
depth 7: 2265
depth 8: 260
depth 9: 91
depth 10: 3
depth 11: 2
depth 12: 0
depth 13: 0
depth 14: 0
depth 15: 0
depth 16: 0
depth 17: 0
depth 18: 0
depth 19: 0
depth 20: 0
depth 21: 0
depth 22: 0
depth 23: 0
depth 24: 0
depth 25: 0
depth 26: 0
depth 27: 0
depth 28: 0
depth 29: 0
Total: 340498
------------------
ST read accesses: 231404
ST write accesses: 1513
PT read accesses: 3828465
PT write accesses: 337578
FILTER read accesses: 843534
FILTER write accesses: 126085
GHR read accesses: 231574
GHR write accesses: 31994
PERC read accesses: 21885147
PERC write accesses: 442995
GHR counter read accesses: 465834
GHR counter write accesses: 531823
GHR ip read accesses: 913677
GHR ip write accesses: 931668
ST tag read accesses: 85077796
ST tag write accesses: 6053322

DRAM Statistics
 CHANNEL 0
 RQ ROW_BUFFER_HIT:       1010  ROW_BUFFER_MISS:       1180
 DBUS_CONGESTED:          0
 WQ ROW_BUFFER_HIT:          0  ROW_BUFFER_MISS:          0  FULL:          0

 AVG_CONGESTED_CYCLE: -
 All warmup complete: 2
Channel 0 Bank busy for read cycles: 0
Channel 0 Bank busy for write cycles: 0
Channel 0
Rank 0
0banks busy for read cycles: 266022404
0banks busy for write cycles: 0
1banks busy for read cycles: 175002
1banks busy for write cycles: 0
2banks busy for read cycles: 9891
2banks busy for write cycles: 0
3banks busy for read cycles: 4025
3banks busy for write cycles: 0
4banks busy for read cycles: 2081
4banks busy for write cycles: 0
5banks busy for read cycles: 808
5banks busy for write cycles: 0
6banks busy for read cycles: 687
6banks busy for write cycles: 0
7banks busy for read cycles: 308
7banks busy for write cycles: 0
8banks busy for read cycles: 250
8banks busy for write cycles: 0

CPU 0 Branch Prediction Accuracy: 93.2052% MPKI: 11.3866 Average ROB Occupancy at Mispredict: 22.5722
Branch types
NOT_BRANCH: 83241771 83.2418%
BRANCH_DIRECT_JUMP: 546600 0.5466%
BRANCH_INDIRECT: 776 0.000776%
BRANCH_CONDITIONAL: 10305170 10.3052%
BRANCH_DIRECT_CALL: 2952676 2.95268%
BRANCH_INDIRECT_CALL: 0 0%
BRANCH_RETURN: 2952676 2.95268%
BRANCH_OTHER: 0 0%

DRAM PAGES: 1048576
Allocated PAGES: 639
