
*** ChampSim Multicore Out-of-Order Simulator ***

Warmup Instructions: 50000000
Simulation Instructions: 100000000
Number of CPUs: 1
LLC sets: 2048
LLC ways: 16
Off-chip DRAM Size: 4096 MB Channels: 1 Width: 64-bit Data Rate: 6400 MT/s
CPU 0 runs ../SPEC2017//641.leela_s-1083B.champsimtrace.xz
.xz
NUM_OF_IPS_IN_CRITICAL_IP_TRAINING: 64
NUM_OF_CRITICAL_IP_TRAINING_TABLE_WAYS: 2
NUM_OF_CRITICAL_IP_TRAINING_TABLE_SETS: 32
WOBBLY_CRITICAL_IP_CACHE_SETS: 32
WOBBLY_CRITICAL_IP_CACHE_WAYS: 4
BTB has LRU replacement policy
ITLB has LRU replacement policy
DTLB has LRU replacement policy
STLB has LRU replacement policy
L1I has LRU replacement policy
IP Table Entries: 64
L1D has LRU replacement policy
IP_Table L2 entries: 64
Initialize SRRIP state for L2C
Initialize DRRIP state for LLC
Heartbeat CPU 0 instructions: 10000000 cycles: 3150237 heartbeat IPC: 3.17436 cumulative IPC: 3.17436 (Simulation time: 0 hr 7 min 15 sec) 
Heartbeat CPU 0 instructions: 20000000 cycles: 6310041 heartbeat IPC: 3.16475 cumulative IPC: 3.16955 (Simulation time: 0 hr 13 min 49 sec) 
Heartbeat CPU 0 instructions: 30000003 cycles: 9481003 heartbeat IPC: 3.15362 cumulative IPC: 3.16422 (Simulation time: 0 hr 19 min 12 sec) 
Heartbeat CPU 0 instructions: 40000003 cycles: 12637148 heartbeat IPC: 3.16842 cumulative IPC: 3.16527 (Simulation time: 0 hr 24 min 14 sec) 
Heartbeat CPU 0 instructions: 50000003 cycles: 15792373 heartbeat IPC: 3.16935 cumulative IPC: 3.16609 (Simulation time: 0 hr 29 min 7 sec) 

Warmup complete CPU 0 instructions: 50000003 cycles: 15792373 (Simulation time: 0 hr 29 min 7 sec) 

% increase in all ip prefetch 617.641
% increase in all ip prefetch -5.13718
Heartbeat CPU 0 instructions: 60000002 cycles: 42248307 heartbeat IPC: 0.377987 cumulative IPC: 0.377987 (Simulation time: 0 hr 33 min 2 sec) 
Heartbeat CPU 0 instructions: 70000002 cycles: 68980606 heartbeat IPC: 0.374079 cumulative IPC: 0.376023 (Simulation time: 0 hr 36 min 50 sec) 
Heartbeat CPU 0 instructions: 80000000 cycles: 95355908 heartbeat IPC: 0.379142 cumulative IPC: 0.377057 (Simulation time: 0 hr 40 min 18 sec) 
Heartbeat CPU 0 instructions: 90000003 cycles: 122466099 heartbeat IPC: 0.368865 cumulative IPC: 0.374975 (Simulation time: 0 hr 43 min 26 sec) 
Heartbeat CPU 0 instructions: 100000002 cycles: 149217553 heartbeat IPC: 0.373811 cumulative IPC: 0.374742 (Simulation time: 0 hr 46 min 30 sec) 
Heartbeat CPU 0 instructions: 110000000 cycles: 175444392 heartbeat IPC: 0.381289 cumulative IPC: 0.375817 (Simulation time: 0 hr 49 min 17 sec) 
Heartbeat CPU 0 instructions: 120000000 cycles: 201583427 heartbeat IPC: 0.38257 cumulative IPC: 0.376767 (Simulation time: 0 hr 52 min 2 sec) 
Heartbeat CPU 0 instructions: 130000001 cycles: 228138414 heartbeat IPC: 0.376577 cumulative IPC: 0.376744 (Simulation time: 0 hr 54 min 36 sec) 
Heartbeat CPU 0 instructions: 140000000 cycles: 254767767 heartbeat IPC: 0.375525 cumulative IPC: 0.376608 (Simulation time: 0 hr 58 min 32 sec) 
Heartbeat CPU 0 instructions: 150000000 cycles: 281138285 heartbeat IPC: 0.379211 cumulative IPC: 0.376867 (Simulation time: 1 hr 4 min 19 sec) 
Finished CPU 0 instructions: 100000002 cycles: 265345915 cumulative IPC: 0.376867 (Simulation time: 1 hr 4 min 19 sec) 

ChampSim completed all CPUs

Region of Interest Statistics

CPU 0 cumulative IPC: 0.376867 instructions: 100000002 cycles: 265345915

CPU 0 Average Load ROB stall cycles: 1.09199e+07
CPU 0 Fraction of times ROB stalled by Loads: 7.35033
CPU 0 Percentage of Load stall cycles in Total stall cycles: 1.5921e+08
 Total stall cycles: 173021566
 Total load stall cycles: 275467236952692
CPU 0 NUM of IPS identified critical: 2
CPU 0 Num of Load IPs stalling ROB: 561
Threshold modification factor: -1
Max PIST entries: 64
Min PIST entries: 0
Avg PIST entries: 41.4
Trouble in retire width: 0.802554
MaC = Marked as critical.
lt_50_percent_before_Mac: 1
gt_90_percent_before_Mac: 0
gt_75_percent_before_Mac: 1
gt_50_percent_before_Mac: 0
stall_proportion_bin_same_before_after: 0
stall_proportion_bin_lower_before_after: 0
stall_proportion_bin_upper_before_after: 0
average_stall_proportion_before: 0.186399
average_stall_proportion_after: 0.194983
Critical IP stalls, total frequency: 32755
Non-critical IP stalls, total frequency: 1808509
Critical_IP_ROB_Stalls_Bucket_0: 9212
Non-critical_IP_ROB_Stalls_Bucket_0: 1722865
Critical_IP_ROB_Stalls_Bucket_1: 6134
Non-critical_IP_ROB_Stalls_Bucket_1: 75779
Critical_IP_ROB_Stalls_Bucket_2: 6902
Non-critical_IP_ROB_Stalls_Bucket_2: 12019
Critical_IP_ROB_Stalls_Bucket_3: 4194
Non-critical_IP_ROB_Stalls_Bucket_3: 6502
Critical_IP_ROB_Stalls_Bucket_4: 2943
Non-critical_IP_ROB_Stalls_Bucket_4: 2221
Critical_IP_ROB_Stalls_Bucket_5: 1460
Non-critical_IP_ROB_Stalls_Bucket_5: 975
Critical_IP_ROB_Stalls_Bucket_6: 1910
Non-critical_IP_ROB_Stalls_Bucket_6: 1084
0 => IPs accounting for >50 percent of stalls, 1 => 55, 2 => 60, 3 => 65 and so on till 90.
percent50: 50.6224 num IPs:13
percent55: 55.8459 num IPs:17
percent60: 60.44 num IPs:21
percent65: 65.3615 num IPs:26
percent70: 70.6538 num IPs:33
percent75: 75.285 num IPs:41
percent80: 80.3327 num IPs:52
percent85: 85.2211 num IPs:66
percent90: 90.1399 num IPs:85
Critical_ROB_Stalls_Percent_0_Bucket_0: 901705
Non-critical_ROB_Stalls_Percent_0_Bucket_0: 830372
Critical_ROB_Stalls_Percent_0_Bucket_1: 15513
Non-critical_ROB_Stalls_Percent_0_Bucket_1: 66400
Critical_ROB_Stalls_Percent_0_Bucket_2: 6509
Non-critical_ROB_Stalls_Percent_0_Bucket_2: 12412
Critical_ROB_Stalls_Percent_0_Bucket_3: 3585
Non-critical_ROB_Stalls_Percent_0_Bucket_3: 7111
Critical_ROB_Stalls_Percent_0_Bucket_4: 2457
Non-critical_ROB_Stalls_Percent_0_Bucket_4: 2707
Critical_ROB_Stalls_Percent_0_Bucket_5: 1027
Non-critical_ROB_Stalls_Percent_0_Bucket_5: 1408
Critical_ROB_Stalls_Percent_0_Bucket_6: 1296
Non-critical_ROB_Stalls_Percent_0_Bucket_6: 1698
Critical_ROB_Stalls_Percent_1_Bucket_0: 981762
Non-critical_ROB_Stalls_Percent_1_Bucket_0: 750315
Critical_ROB_Stalls_Percent_1_Bucket_1: 29011
Non-critical_ROB_Stalls_Percent_1_Bucket_1: 52902
Critical_ROB_Stalls_Percent_1_Bucket_2: 8714
Non-critical_ROB_Stalls_Percent_1_Bucket_2: 10207
Critical_ROB_Stalls_Percent_1_Bucket_3: 3719
Non-critical_ROB_Stalls_Percent_1_Bucket_3: 6977
Critical_ROB_Stalls_Percent_1_Bucket_4: 2732
Non-critical_ROB_Stalls_Percent_1_Bucket_4: 2432
Critical_ROB_Stalls_Percent_1_Bucket_5: 1033
Non-critical_ROB_Stalls_Percent_1_Bucket_5: 1402
Critical_ROB_Stalls_Percent_1_Bucket_6: 1300
Non-critical_ROB_Stalls_Percent_1_Bucket_6: 1694
Critical_ROB_Stalls_Percent_2_Bucket_0: 1062126
Non-critical_ROB_Stalls_Percent_2_Bucket_0: 669951
Critical_ROB_Stalls_Percent_2_Bucket_1: 32803
Non-critical_ROB_Stalls_Percent_2_Bucket_1: 49110
Critical_ROB_Stalls_Percent_2_Bucket_2: 8942
Non-critical_ROB_Stalls_Percent_2_Bucket_2: 9979
Critical_ROB_Stalls_Percent_2_Bucket_3: 3826
Non-critical_ROB_Stalls_Percent_2_Bucket_3: 6870
Critical_ROB_Stalls_Percent_2_Bucket_4: 2809
Non-critical_ROB_Stalls_Percent_2_Bucket_4: 2355
Critical_ROB_Stalls_Percent_2_Bucket_5: 1043
Non-critical_ROB_Stalls_Percent_2_Bucket_5: 1392
Critical_ROB_Stalls_Percent_2_Bucket_6: 1311
Non-critical_ROB_Stalls_Percent_2_Bucket_6: 1683
Critical_ROB_Stalls_Percent_3_Bucket_0: 1152191
Non-critical_ROB_Stalls_Percent_3_Bucket_0: 579886
Critical_ROB_Stalls_Percent_3_Bucket_1: 33287
Non-critical_ROB_Stalls_Percent_3_Bucket_1: 48626
Critical_ROB_Stalls_Percent_3_Bucket_2: 9005
Non-critical_ROB_Stalls_Percent_3_Bucket_2: 9916
Critical_ROB_Stalls_Percent_3_Bucket_3: 3829
Non-critical_ROB_Stalls_Percent_3_Bucket_3: 6867
Critical_ROB_Stalls_Percent_3_Bucket_4: 2812
Non-critical_ROB_Stalls_Percent_3_Bucket_4: 2352
Critical_ROB_Stalls_Percent_3_Bucket_5: 1043
Non-critical_ROB_Stalls_Percent_3_Bucket_5: 1392
Critical_ROB_Stalls_Percent_3_Bucket_6: 1311
Non-critical_ROB_Stalls_Percent_3_Bucket_6: 1683
Critical_ROB_Stalls_Percent_4_Bucket_0: 1241922
Non-critical_ROB_Stalls_Percent_4_Bucket_0: 490155
Critical_ROB_Stalls_Percent_4_Bucket_1: 40735
Non-critical_ROB_Stalls_Percent_4_Bucket_1: 41178
Critical_ROB_Stalls_Percent_4_Bucket_2: 9145
Non-critical_ROB_Stalls_Percent_4_Bucket_2: 9776
Critical_ROB_Stalls_Percent_4_Bucket_3: 3881
Non-critical_ROB_Stalls_Percent_4_Bucket_3: 6815
Critical_ROB_Stalls_Percent_4_Bucket_4: 2868
Non-critical_ROB_Stalls_Percent_4_Bucket_4: 2296
Critical_ROB_Stalls_Percent_4_Bucket_5: 1052
Non-critical_ROB_Stalls_Percent_4_Bucket_5: 1383
Critical_ROB_Stalls_Percent_4_Bucket_6: 1320
Non-critical_ROB_Stalls_Percent_4_Bucket_6: 1674
Critical_ROB_Stalls_Percent_5_Bucket_0: 1316636
Non-critical_ROB_Stalls_Percent_5_Bucket_0: 415441
Critical_ROB_Stalls_Percent_5_Bucket_1: 46580
Non-critical_ROB_Stalls_Percent_5_Bucket_1: 35333
Critical_ROB_Stalls_Percent_5_Bucket_2: 11126
Non-critical_ROB_Stalls_Percent_5_Bucket_2: 7795
Critical_ROB_Stalls_Percent_5_Bucket_3: 6018
Non-critical_ROB_Stalls_Percent_5_Bucket_3: 4678
Critical_ROB_Stalls_Percent_5_Bucket_4: 3255
Non-critical_ROB_Stalls_Percent_5_Bucket_4: 1909
Critical_ROB_Stalls_Percent_5_Bucket_5: 1146
Non-critical_ROB_Stalls_Percent_5_Bucket_5: 1289
Critical_ROB_Stalls_Percent_5_Bucket_6: 1435
Non-critical_ROB_Stalls_Percent_5_Bucket_6: 1559
Critical_ROB_Stalls_Percent_6_Bucket_0: 1400989
Non-critical_ROB_Stalls_Percent_6_Bucket_0: 331088
Critical_ROB_Stalls_Percent_6_Bucket_1: 50476
Non-critical_ROB_Stalls_Percent_6_Bucket_1: 31437
Critical_ROB_Stalls_Percent_6_Bucket_2: 12821
Non-critical_ROB_Stalls_Percent_6_Bucket_2: 6100
Critical_ROB_Stalls_Percent_6_Bucket_3: 7267
Non-critical_ROB_Stalls_Percent_6_Bucket_3: 3429
Critical_ROB_Stalls_Percent_6_Bucket_4: 3861
Non-critical_ROB_Stalls_Percent_6_Bucket_4: 1303
Critical_ROB_Stalls_Percent_6_Bucket_5: 1619
Non-critical_ROB_Stalls_Percent_6_Bucket_5: 816
Critical_ROB_Stalls_Percent_6_Bucket_6: 2104
Non-critical_ROB_Stalls_Percent_6_Bucket_6: 890
Critical_ROB_Stalls_Percent_7_Bucket_0: 1489940
Non-critical_ROB_Stalls_Percent_7_Bucket_0: 242137
Critical_ROB_Stalls_Percent_7_Bucket_1: 51350
Non-critical_ROB_Stalls_Percent_7_Bucket_1: 30563
Critical_ROB_Stalls_Percent_7_Bucket_2: 12934
Non-critical_ROB_Stalls_Percent_7_Bucket_2: 5987
Critical_ROB_Stalls_Percent_7_Bucket_3: 7316
Non-critical_ROB_Stalls_Percent_7_Bucket_3: 3380
Critical_ROB_Stalls_Percent_7_Bucket_4: 3869
Non-critical_ROB_Stalls_Percent_7_Bucket_4: 1295
Critical_ROB_Stalls_Percent_7_Bucket_5: 1626
Non-critical_ROB_Stalls_Percent_7_Bucket_5: 809
Critical_ROB_Stalls_Percent_7_Bucket_6: 2110
Non-critical_ROB_Stalls_Percent_7_Bucket_6: 884
Critical_ROB_Stalls_Percent_8_Bucket_0: 1569605
Non-critical_ROB_Stalls_Percent_8_Bucket_0: 162472
Critical_ROB_Stalls_Percent_8_Bucket_1: 56937
Non-critical_ROB_Stalls_Percent_8_Bucket_1: 24976
Critical_ROB_Stalls_Percent_8_Bucket_2: 14943
Non-critical_ROB_Stalls_Percent_8_Bucket_2: 3978
Critical_ROB_Stalls_Percent_8_Bucket_3: 8873
Non-critical_ROB_Stalls_Percent_8_Bucket_3: 1823
Critical_ROB_Stalls_Percent_8_Bucket_4: 4555
Non-critical_ROB_Stalls_Percent_8_Bucket_4: 609
Critical_ROB_Stalls_Percent_8_Bucket_5: 2130
Non-critical_ROB_Stalls_Percent_8_Bucket_5: 305
Critical_ROB_Stalls_Percent_8_Bucket_6: 2670
Non-critical_ROB_Stalls_Percent_8_Bucket_6: 324
Average ROB occupancy Load Stall Begin: 20.8892
Average ROB occupancy Load Stall End: 23.689
Min ROB occupancy Load Stall Begin: 1
Max ROB occupancy Load Stall Begin: 351
Min ROB occupancy Load Stall End: 1
Max ROB occupancy Load Stall End: 352
Average ROB occupancy Critical Load Stall Begin: 116.606
Average ROB occupancy Critical Load Stall End: 117.871
Min ROB occupancy Critical Load Stall Begin: 4
Max ROB occupancy Critical Load Stall Begin: 351
Min ROB occupancy Critical Load Stall End: 4
Max ROB occupancy Critical Load Stall End: 352
 ROB Load Stall Begin Bucket Count 0: 1745315
 ROB Load Stall End Bucket Count 0: 1732077
 ROB Critical Load Stall Begin Bucket Count 0: 5665
 ROB Critical Load Stall End Bucket Count 0: 5663
 ROB Load Stall Begin Bucket Count 1: 70018
 ROB Load Stall End Bucket Count 1: 81913
 ROB Critical Load Stall Begin Bucket Count 1: 3443
 ROB Critical Load Stall End Bucket Count 1: 3352
 ROB Load Stall Begin Bucket Count 2: 18469
 ROB Load Stall End Bucket Count 2: 18921
 ROB Critical Load Stall Begin Bucket Count 2: 4285
 ROB Critical Load Stall End Bucket Count 2: 4207
 ROB Load Stall Begin Bucket Count 3: 10261
 ROB Load Stall End Bucket Count 3: 10696
 ROB Critical Load Stall Begin Bucket Count 3: 2307
 ROB Critical Load Stall End Bucket Count 3: 2399
 ROB Load Stall Begin Bucket Count 4: 4979
 ROB Load Stall End Bucket Count 4: 5164
 ROB Critical Load Stall Begin Bucket Count 4: 1749
 ROB Critical Load Stall End Bucket Count 4: 1761
 ROB Load Stall Begin Bucket Count 5: 2331
 ROB Load Stall End Bucket Count 5: 2435
 ROB Critical Load Stall Begin Bucket Count 5: 724
 ROB Critical Load Stall End Bucket Count 5: 754
 ROB Load Stall Begin Bucket Count 6: 2827
 ROB Load Stall End Bucket Count 6: 2994
 ROB Critical Load Stall Begin Bucket Count 6: 939
 ROB Critical Load Stall End Bucket Count 6: 976
PIST Tag Read Accesses: 148568
PIST Read Accesses: 74284
PIST Tag Write Accesses: 148568
PIST Write Accesses: 74284
Criticality detector called times: 614302
Max global_stall_cycles_count: 80803
Threshold Modified: 1 times, factor: -1
ITLB TOTAL     ACCESS:   16938023  HIT:   16938023  MISS:          0  HIT %:        100  MISS %:          0   MPKI: 0
ITLB LOAD TRANSLATION ACCESS:   16938023  HIT:   16938023  MISS:          0  HIT %:        100  MISS %:          0   MPKI: 0
ITLB PREFETCH  REQUESTED:          0  ISSUED:          0  USEFUL:          0  USELESS:          0
ITLB USEFUL LOAD PREFETCHES:          0 PREFETCH ISSUED TO LOWER LEVEL:          0  ACCURACY: -nan
ITLB TIMELY PREFETCHES:          0 LATE PREFETCHES: 0 DROPPED PREFETCHES: 0
ITLB PREFETCHES SAME FILL-ORIGIN LEVEL: 0 DIFFERENT FILL-ORIGIN LEVEL: 0
ITLB AVERAGE MISS LATENCY: -nan cycles
ITLB RQ	ACCESS:   19287985	FORWARD:          0	MERGED:    2349962	TO_CACHE:   16938023

DTLB TOTAL     ACCESS:   27924539  HIT:   27880371  MISS:      44168  HIT %:    99.8418  MISS %:   0.158169   MPKI: 0.44168
DTLB LOAD TRANSLATION ACCESS:   27924539  HIT:   27880371  MISS:      44168  HIT %:    99.8418  MISS %:   0.158169   MPKI: 0.44168
DTLB PREFETCH  REQUESTED:          0  ISSUED:          0  USEFUL:          0  USELESS:          0
DTLB USEFUL LOAD PREFETCHES:          0 PREFETCH ISSUED TO LOWER LEVEL:          0  ACCURACY: -nan
DTLB TIMELY PREFETCHES:          0 LATE PREFETCHES: 0 DROPPED PREFETCHES: 0
DTLB PREFETCHES SAME FILL-ORIGIN LEVEL: 0 DIFFERENT FILL-ORIGIN LEVEL: 0
DTLB AVERAGE MISS LATENCY: 9.48879 cycles
DTLB RQ	ACCESS:   31734980	FORWARD:          0	MERGED:    3809453	TO_CACHE:   27925527

STLB TOTAL     ACCESS:    1430298  HIT:    1430176  MISS:        122  HIT %:    99.9915  MISS %: 0.00852969   MPKI: 0.00122
STLB LOAD TRANSLATION ACCESS:      44168  HIT:      44046  MISS:        122  HIT %:    99.7238  MISS %:   0.276218   MPKI: 0.00122
STLB TRANSLATION FROM L1D PREFETCHER ACCESS:    1386130  HIT:    1386130  MISS:          0  HIT %:        100  MISS %:          0   MPKI: 0
STLB PREFETCH  REQUESTED:          0  ISSUED:          0  USEFUL:          0  USELESS:          0
STLB USEFUL LOAD PREFETCHES:          0 PREFETCH ISSUED TO LOWER LEVEL:          0  ACCURACY: -nan
STLB TIMELY PREFETCHES:          0 LATE PREFETCHES: 0 DROPPED PREFETCHES: 0
STLB PREFETCHES SAME FILL-ORIGIN LEVEL: 0 DIFFERENT FILL-ORIGIN LEVEL: 0
STLB AVERAGE MISS LATENCY: 176.008 cycles
STLB RQ	ACCESS:    3873750	FORWARD:          0	MERGED:    2443452	TO_CACHE:    1430298

STLB Hit, L1D data hit: 0
STLB Hit, L2C data hit: 0
STLB Hit, LLC data hit: 0
STLB Hit, LLC data miss: 0
STLB STLB hints to L2: 0
L1D TOTAL     ACCESS:   35519471  HIT:   35022537  MISS:     496934  HIT %:     98.601  MISS %:    1.39905   MPKI: 4.96934
L1D LOAD      ACCESS:   20316822  HIT:   20188288  MISS:     128534  HIT %:    99.3674  MISS %:   0.632648   MPKI: 1.28534
L1D RFO       ACCESS:   11380200  HIT:   11345985  MISS:      34215  HIT %:    99.6993  MISS %:   0.300654   MPKI: 0.34215
L1D PREFETCH  ACCESS:    3822449  HIT:    3488264  MISS:     334185  HIT %:    91.2573  MISS %:    8.74269   MPKI: 3.34185
L1D PREFETCH  REQUESTED:    7662673  ISSUED:    7659202  USEFUL:     164282  USELESS:     169823
L1D USEFUL LOAD PREFETCHES:     164282 PREFETCH ISSUED TO LOWER LEVEL:     337004  ACCURACY: 48.7478
L1D TIMELY PREFETCHES:     164282 LATE PREFETCHES: 2803 DROPPED PREFETCHES: 0
L1D PREFETCHES SAME FILL-ORIGIN LEVEL: 337004 DIFFERENT FILL-ORIGIN LEVEL: 0
L1D AVERAGE MISS LATENCY: 850666 cycles
L1D RQ	ACCESS:   26114043	FORWARD:          0	MERGED:    4595298	TO_CACHE:   20318382
L1D WQ	ACCESS:   11615694	FORWARD:    1200401	MERGED:     199096	TO_CACHE:   11416598
L1D PQ	ACCESS:    3829620	FORWARD:          0	MERGED:          0	TO_CACHE:    3829582

L1D UNIQUE REGIONS ACCESSED: 0
L1D REGIONS CONFLICTS: 0
L1D Cross Page Prefetch Requests: 0
L1D Same Page Prefetch Requests: 5699304
L1D ROI Sum of L1D PQ occupancy: 50854230
L1D PREFETCHES PUSHED FROM L2C: 0
L1I TOTAL     ACCESS:   19285626  HIT:   19279329  MISS:       6297  HIT %:    99.9673  MISS %:  0.0326513   MPKI: 0.06297
L1I LOAD      ACCESS:   19285626  HIT:   19279329  MISS:       6297  HIT %:    99.9673  MISS %:  0.0326513   MPKI: 0.06297
L1I PREFETCH  REQUESTED:          0  ISSUED:          0  USEFUL:          0  USELESS:          0
L1I USEFUL LOAD PREFETCHES:          0 PREFETCH ISSUED TO LOWER LEVEL:          0  ACCURACY: -nan
L1I TIMELY PREFETCHES:          0 LATE PREFETCHES: 0 DROPPED PREFETCHES: 0
L1I PREFETCHES SAME FILL-ORIGIN LEVEL: 0 DIFFERENT FILL-ORIGIN LEVEL: 0
L1I AVERAGE MISS LATENCY: 14.1143 cycles
L1I RQ	ACCESS:   27768054	FORWARD:          0	MERGED:    8480069	TO_CACHE:   19287985

BTB TOTAL     ACCESS:   15851744  HIT:   14674603  MISS:    1177141  HIT %:    92.5741  MISS %:    7.42594   MPKI: 11.7714
BTB BRANCH_DIRECT_JUMP	ACCESS:     546600  HIT:     546518  MISS:         82
BTB BRANCH_INDIRECT	ACCESS:        776  HIT:        703  MISS:         73
BTB BRANCH_CONDITIONAL	ACCESS:    9399016  HIT:    9398045  MISS:        971
BTB BRANCH_DIRECT_CALL	ACCESS:    2952676  HIT:    2952278  MISS:        398
BTB BRANCH_INDIRECT_CALL	ACCESS:          0  HIT:          0  MISS:          0
BTB BRANCH_RETURN	ACCESS:    2952676  HIT:    1777059  MISS:    1175617
BTB BRANCH_OTHER ACCESS:          0  HIT:          0  MISS:          0

L2C TOTAL     ACCESS:     634117  HIT:     624709  MISS:       9408  HIT %:    98.5164  MISS %:    1.48364   MPKI: 0.09408
L2C LOAD      ACCESS:     132026  HIT:     130004  MISS:       2022  HIT %:    98.4685  MISS %:    1.53152   MPKI: 0.02022
L2C DATA LOAD MPKI: 0.01998
L2C INSTRUCTION LOAD MPKI: 0.00024
L2C RFO       ACCESS:      34199  HIT:      33778  MISS:        421  HIT %:     98.769  MISS %:    1.23103   MPKI: 0.00421
L2C PREFETCH  ACCESS:     399072  HIT:     392204  MISS:       6868  HIT %:     98.279  MISS %:    1.72099   MPKI: 0.06868
L2C DATA PREFETCH MPKI: 0.06868
L2C INSTRUCTION PREFETCH MPKI: 0
L2C WRITEBACK ACCESS:      68698  HIT:      68669  MISS:         29  HIT %:    99.9578  MISS %:  0.0422137   MPKI: 0.00029
L2C LOAD TRANSLATION ACCESS:        122  HIT:         54  MISS:         68  HIT %:    44.2623  MISS %:    55.7377   MPKI: 0.00068
L2C PREFETCH  REQUESTED:      81525  ISSUED:      81525  USEFUL:        749  USELESS:       6418
L2C USEFUL LOAD PREFETCHES:        749 PREFETCH ISSUED TO LOWER LEVEL:       6868  ACCURACY: 10.9056
L2C TIMELY PREFETCHES:        749 LATE PREFETCHES: 0 DROPPED PREFETCHES: 0
L2C PREFETCHES SAME FILL-ORIGIN LEVEL: 473 DIFFERENT FILL-ORIGIN LEVEL: 0
L2C AVERAGE MISS LATENCY: 73.5838 cycles
L2C RQ	ACCESS:     166349	FORWARD:          0	MERGED:          0	TO_CACHE:     166347
L2C WQ	ACCESS:      68698	FORWARD:          6	MERGED:          0	TO_CACHE:      68698
L2C PQ	ACCESS:     418529	FORWARD:          0	MERGED:      19389	TO_CACHE:     399136

L2C Instructions Evicting Data 21
L2C Translations Evicting Data 58
L2C Data Evicting Data 8796
L2C Instructions Evicting Instructions 2
L2C Translations Evicting Instructions 2
L2C Data Evicting Instructions 93
L2C Instructions Evicting Translations 1
L2C Translations Evicting Translations 0
L2C Data Evicting Translations 115
L2C Dense regions hint from L2: 0
PSCL5 TOTAL     ACCESS:        122  HIT:        122  MISS:          0  HIT %:        100  MISS %:          0   MPKI: 0
PSCL5 LOAD TRANSLATION ACCESS:        122  HIT:        122  MISS:          0  HIT %:        100  MISS %:          0   MPKI: 0
PSCL5 PREFETCH  REQUESTED:          0  ISSUED:          0  USEFUL:          0  USELESS:          0
PSCL5 USEFUL LOAD PREFETCHES:          0 PREFETCH ISSUED TO LOWER LEVEL:          0  ACCURACY: -nan
PSCL5 TIMELY PREFETCHES:          0 LATE PREFETCHES: 0 DROPPED PREFETCHES: 0
PSCL5 PREFETCHES SAME FILL-ORIGIN LEVEL: 0 DIFFERENT FILL-ORIGIN LEVEL: 0

PSCL4 TOTAL     ACCESS:        122  HIT:        122  MISS:          0  HIT %:        100  MISS %:          0   MPKI: 0
PSCL4 LOAD TRANSLATION ACCESS:        122  HIT:        122  MISS:          0  HIT %:        100  MISS %:          0   MPKI: 0
PSCL4 PREFETCH  REQUESTED:          0  ISSUED:          0  USEFUL:          0  USELESS:          0
PSCL4 USEFUL LOAD PREFETCHES:          0 PREFETCH ISSUED TO LOWER LEVEL:          0  ACCURACY: -nan
PSCL4 TIMELY PREFETCHES:          0 LATE PREFETCHES: 0 DROPPED PREFETCHES: 0
PSCL4 PREFETCHES SAME FILL-ORIGIN LEVEL: 0 DIFFERENT FILL-ORIGIN LEVEL: 0

PSCL3 TOTAL     ACCESS:        122  HIT:        122  MISS:          0  HIT %:        100  MISS %:          0   MPKI: 0
PSCL3 LOAD TRANSLATION ACCESS:        122  HIT:        122  MISS:          0  HIT %:        100  MISS %:          0   MPKI: 0
PSCL3 PREFETCH  REQUESTED:          0  ISSUED:          0  USEFUL:          0  USELESS:          0
PSCL3 USEFUL LOAD PREFETCHES:          0 PREFETCH ISSUED TO LOWER LEVEL:          0  ACCURACY: -nan
PSCL3 TIMELY PREFETCHES:          0 LATE PREFETCHES: 0 DROPPED PREFETCHES: 0
PSCL3 PREFETCHES SAME FILL-ORIGIN LEVEL: 0 DIFFERENT FILL-ORIGIN LEVEL: 0

PSCL2 TOTAL     ACCESS:        122  HIT:        122  MISS:          0  HIT %:        100  MISS %:          0   MPKI: 0
PSCL2 LOAD TRANSLATION ACCESS:        122  HIT:        122  MISS:          0  HIT %:        100  MISS %:          0   MPKI: 0
PSCL2 PREFETCH  REQUESTED:          0  ISSUED:          0  USEFUL:          0  USELESS:          0
PSCL2 USEFUL LOAD PREFETCHES:          0 PREFETCH ISSUED TO LOWER LEVEL:          0  ACCURACY: -nan
PSCL2 TIMELY PREFETCHES:          0 LATE PREFETCHES: 0 DROPPED PREFETCHES: 0
PSCL2 PREFETCHES SAME FILL-ORIGIN LEVEL: 0 DIFFERENT FILL-ORIGIN LEVEL: 0

LLC TOTAL     ACCESS:      10487  HIT:       7463  MISS:       3024  HIT %:    71.1643  MISS %:    28.8357   MPKI: 0.03024
LLC LOAD      ACCESS:       2022  HIT:       1672  MISS:        350  HIT %:    82.6904  MISS %:    17.3096   MPKI: 0.0035
LLC RFO       ACCESS:        421  HIT:         14  MISS:        407  HIT %:    3.32542  MISS %:    96.6746   MPKI: 0.00407
LLC PREFETCH  ACCESS:       6868  HIT:       4646  MISS:       2222  HIT %:    67.6471  MISS %:    32.3529   MPKI: 0.02222
LLC WRITEBACK ACCESS:       1108  HIT:       1095  MISS:         13  HIT %:    98.8267  MISS %:    1.17329   MPKI: 0.00013
LLC LOAD TRANSLATION ACCESS:         68  HIT:         36  MISS:         32  HIT %:    52.9412  MISS %:    47.0588   MPKI: 0.00032
LLC PREFETCH  REQUESTED:          0  ISSUED:          0  USEFUL:        244  USELESS:         74
LLC USEFUL LOAD PREFETCHES:        244 PREFETCH ISSUED TO LOWER LEVEL:       2222  ACCURACY: 10.9811
LLC TIMELY PREFETCHES:        244 LATE PREFETCHES: 0 DROPPED PREFETCHES: 0
LLC PREFETCHES SAME FILL-ORIGIN LEVEL: 0 DIFFERENT FILL-ORIGIN LEVEL: 0
LLC AVERAGE MISS LATENCY: 135.639 cycles
LLC RQ	ACCESS:       2511	FORWARD:          0	MERGED:          0	TO_CACHE:       2511
LLC WQ	ACCESS:       1108	FORWARD:          0	MERGED:          0	TO_CACHE:       1108
LLC PQ	ACCESS:       6868	FORWARD:          0	MERGED:          0	TO_CACHE:       6868

LLC Dense regions hint to LLC: 0

RAW hits: 770181
Loads Generated: 26884224
Loads sent to L1D: 26114043
Stores Generated: 11615691
Stores sent to L1D: 11615694
Major fault: 0 Minor fault: 639
Allocated PAGES: 639

stream: 
stream:times selected: 4538395
stream:pref_filled: 443158
stream:pref_useful: 205746
stream:pref_late: 1880
stream:misses: 11099
stream:misses_by_poll: 0

CS: 
CS:times selected: 339255
CS:pref_filled: 34187
CS:pref_useful: 28376
CS:pref_late: 961
CS:misses: 5505
CS:misses_by_poll: 148

CPLX: 
CPLX:times selected: 4196052
CPLX:pref_filled: 20121
CPLX:pref_useful: 6612
CPLX:pref_late: 90
CPLX:misses: 64402
CPLX:misses_by_poll: 18

NL_L1: 
NL:times selected: 38088
NL:pref_filled: 1620
NL:pref_useful: 296
NL:pref_late: 2
NL:misses: 1117
NL:misses_by_poll: 0

total selections: 9111790
total_filled: 334185
total_useful: 164282
total_late: 3395
total_polluted: 166
total_misses_after_warmup: 130093
conflicts: 4657110
Degree Incremented Times: 153247
Degree Decremented Times: 176016

L1 IP Table Write Accesses: 13437999
L1 IP Table Read Accesses: 8780889
L1 RST Write Accesses: 3041192
L1 RST Read Accesses: 6082384
L1 CSPT Write Accesses: 3041192
L1 CSPT Read Accesses: 5870445
L1 RR Filter Tag Write Accesses: 3833091
L1 RR Filter Tag Read Accesses: 308703952
L1 IP Table Tag Write Accesses: 20318381
L1 IP Table Tag Read Accesses: 20318381
L1 RST Tag Write Accesses: 0
L1 RST Tag Read Accesses: 32346604
L1 RR Filter Write Accesses: 0
L1 RR Filter Read Accesses: 12888035
test: 497539
L2 IP Table Read Accesses: 888105
L2 IP Table Write Accesses: 794288
L2 IP Table Tag Read Accesses: 456241
L2 IP Table Tag Write Accesses: 456241

DRAM Statistics
 CHANNEL 0
 RQ ROW_BUFFER_HIT:       1056  ROW_BUFFER_MISS:       1955
 DBUS_CONGESTED:          0
 WQ ROW_BUFFER_HIT:          0  ROW_BUFFER_MISS:          0  FULL:          0

 AVG_CONGESTED_CYCLE: -
 All warmup complete: 2
Channel 0 Bank busy for read cycles: 0
Channel 0 Bank busy for write cycles: 0
Channel 0
Rank 0
0banks busy for read cycles: 265141937
0banks busy for write cycles: 0
1banks busy for read cycles: 141296
1banks busy for write cycles: 0
2banks busy for read cycles: 20544
2banks busy for write cycles: 0
3banks busy for read cycles: 17574
3banks busy for write cycles: 0
4banks busy for read cycles: 16668
4banks busy for write cycles: 0
5banks busy for read cycles: 5192
5banks busy for write cycles: 0
6banks busy for read cycles: 1110
6banks busy for write cycles: 0
7banks busy for read cycles: 1107
7banks busy for write cycles: 0
8banks busy for read cycles: 488
8banks busy for write cycles: 0

CPU 0 Branch Prediction Accuracy: 93.2052% MPKI: 11.3866 Average ROB Occupancy at Mispredict: 22.4522
Branch types
NOT_BRANCH: 83241771 83.2418%
BRANCH_DIRECT_JUMP: 546600 0.5466%
BRANCH_INDIRECT: 776 0.000776%
BRANCH_CONDITIONAL: 10305170 10.3052%
BRANCH_DIRECT_CALL: 2952676 2.95268%
BRANCH_INDIRECT_CALL: 0 0%
BRANCH_RETURN: 2952676 2.95268%
BRANCH_OTHER: 0 0%

DRAM PAGES: 1048576
Allocated PAGES: 639
