Initialize SIGNATURE TABLE
ST_SET: 1
ST_WAY: 16
ST_TAG_BIT: 16
ST_TAG_MASK: ffff

Initialize PATTERN TABLE
PT_SET: 16
PT_WAY: 4
SIG_DELTA_BIT: 7
C_SIG_BIT: 4
C_DELTA_BIT: 4

Initialize PREFETCH FILTER
FILTER_SET: 1024

Initialize PERCEPTRON
PERC_ENTRIES: 4096
PERC_FEATURES: 9

*** ChampSim Multicore Out-of-Order Simulator ***

Warmup Instructions: 50000000
Simulation Instructions: 100000000
Number of CPUs: 1
LLC sets: 2048
LLC ways: 16
Off-chip DRAM Size: 4096 MB Channels: 1 Width: 64-bit Data Rate: 6400 MT/s
CPU 0 runs ../SPEC2017//641.leela_s-1083B.champsimtrace.xz
.xz
BTB has LRU replacement policy
ITLB has LRU replacement policy
DTLB has LRU replacement policy
STLB has LRU replacement policy
L1I has LRU replacement policy
L1D has LRU replacement policy
Initialize SRRIP state for L2C
Initialize DRRIP state for LLC
Heartbeat CPU 0 instructions: 10000000 cycles: 3153005 heartbeat IPC: 3.17158 cumulative IPC: 3.17158 (Simulation time: 0 hr 6 min 30 sec) 
Heartbeat CPU 0 instructions: 20000000 cycles: 6314837 heartbeat IPC: 3.16272 cumulative IPC: 3.16714 (Simulation time: 0 hr 12 min 42 sec) 
Heartbeat CPU 0 instructions: 30000003 cycles: 9487620 heartbeat IPC: 3.15181 cumulative IPC: 3.16202 (Simulation time: 0 hr 18 min 2 sec) 
Heartbeat CPU 0 instructions: 40000003 cycles: 12645525 heartbeat IPC: 3.16666 cumulative IPC: 3.16317 (Simulation time: 0 hr 23 min 9 sec) 
Heartbeat CPU 0 instructions: 50000003 cycles: 15802517 heartbeat IPC: 3.16757 cumulative IPC: 3.16405 (Simulation time: 0 hr 27 min 54 sec) 

Warmup complete CPU 0 instructions: 50000003 cycles: 15802517 (Simulation time: 0 hr 27 min 54 sec) 

Heartbeat CPU 0 instructions: 60000002 cycles: 42342928 heartbeat IPC: 0.376784 cumulative IPC: 0.376784 (Simulation time: 0 hr 33 min 8 sec) 
Heartbeat CPU 0 instructions: 70000002 cycles: 69157104 heartbeat IPC: 0.372937 cumulative IPC: 0.374851 (Simulation time: 0 hr 38 min 11 sec) 
Heartbeat CPU 0 instructions: 80000000 cycles: 95629125 heartbeat IPC: 0.377757 cumulative IPC: 0.375814 (Simulation time: 0 hr 42 min 39 sec) 
Heartbeat CPU 0 instructions: 90000003 cycles: 122801178 heartbeat IPC: 0.368025 cumulative IPC: 0.373836 (Simulation time: 0 hr 47 min 2 sec) 
Heartbeat CPU 0 instructions: 100000002 cycles: 149635950 heartbeat IPC: 0.372651 cumulative IPC: 0.373599 (Simulation time: 0 hr 51 min 1 sec) 
Heartbeat CPU 0 instructions: 110000000 cycles: 175965948 heartbeat IPC: 0.379795 cumulative IPC: 0.374617 (Simulation time: 0 hr 54 min 32 sec) 
Heartbeat CPU 0 instructions: 120000000 cycles: 202207346 heartbeat IPC: 0.381077 cumulative IPC: 0.375527 (Simulation time: 0 hr 58 min 8 sec) 
Heartbeat CPU 0 instructions: 130000001 cycles: 228853005 heartbeat IPC: 0.375296 cumulative IPC: 0.375498 (Simulation time: 1 hr 1 min 52 sec) 
Heartbeat CPU 0 instructions: 140000000 cycles: 255563994 heartbeat IPC: 0.374378 cumulative IPC: 0.375373 (Simulation time: 1 hr 7 min 9 sec) 
Heartbeat CPU 0 instructions: 150000000 cycles: 282026203 heartbeat IPC: 0.377897 cumulative IPC: 0.375624 (Simulation time: 1 hr 15 min 18 sec) 
Finished CPU 0 instructions: 100000002 cycles: 266223689 cumulative IPC: 0.375624 (Simulation time: 1 hr 15 min 18 sec) 

ChampSim completed all CPUs

Region of Interest Statistics

CPU 0 cumulative IPC: 0.375624 instructions: 100000002 cycles: 266223689

CPU 0 Average Load ROB stall cycles: 5.58108e+07
CPU 0 Fraction of times ROB stalled by Loads: 37.4651
CPU 0 Percentage of Load stall cycles in Total stall cycles: 8.09763e+08
Issued all: 55070604
Issued LT all: 43603244
rob_not_full_when_issued_lt_all: 40843763
Issued LT one: 32998239
rob_not_full_when_issued_lt_one: 30424700
FVP critical_dynamic_instances_0: 9363267
FVP unique_critical_ips_0: 1058
 Total stall cycles: 215722401
 Total load stall cycles: 1746840518260884
Unique Load IPs: 1213
CPU 0 NUM of IPS identified critical: 0
CPU 0 Num of Load IPs stalling ROB: 0
Threshold modification factor: 0
Trouble in retire width: -nan
MaC = Marked as critical.
lt_50_percent_before_Mac: 0
gt_90_percent_before_Mac: 0
gt_75_percent_before_Mac: 0
gt_50_percent_before_Mac: 0
stall_proportion_bin_same_before_after: 0
stall_proportion_bin_lower_before_after: 0
stall_proportion_bin_upper_before_after: 0
average_stall_proportion_before: -nan
average_stall_proportion_after: -nan
Critical IP stalls, total frequency: 0
Non-critical IP stalls, total frequency: 0
Total Freq all stalling IPs: 0
Critical_IP_Detector_Accuracy_70: 0.00094518
Critical_IP_Detector_Accuracy_80: 0.00094518
Critical_IP_Detector_Accuracy_90: 0.00094518
Critical_IP_Detector_Coverage_70: 1
Critical_IP_Detector_Coverage_80: 1
Critical_IP_Detector_Coverage_90: 1
stat_90_percent_critical_ip_stalls_freq: 242469
stat_90_percent_non_critical_ip_stalls_freq: 18446744073709309147
AVERAGE_ROB_Occupancy_90_Percent_Critical_IP_Stalls: 6.13142
AVERAGE_ROB_Occupancy_90_Percent_Non_Critical_IP_Stalls: 2.02131e-11
Critical_IP_ROB_Stalls_Bucket_0: 0
Non-critical_IP_ROB_Stalls_Bucket_0: 10004543
Critical_IP_ROB_Stalls_Bucket_1: 0
Non-critical_IP_ROB_Stalls_Bucket_1: 888615
Critical_IP_ROB_Stalls_Bucket_2: 0
Non-critical_IP_ROB_Stalls_Bucket_2: 447077
Critical_IP_ROB_Stalls_Bucket_3: 0
Non-critical_IP_ROB_Stalls_Bucket_3: 160628
Critical_IP_ROB_Stalls_Bucket_4: 0
Non-critical_IP_ROB_Stalls_Bucket_4: 46907
Critical_IP_ROB_Stalls_Bucket_5: 0
Non-critical_IP_ROB_Stalls_Bucket_5: 19597
Critical_IP_ROB_Stalls_Bucket_6: 0
Non-critical_IP_ROB_Stalls_Bucket_6: 158948
0 => IPs accounting for >50 percent of stalls, 1 => 55, 2 => 60, 3 => 65 and so on till 90.
percent50: inf num IPs:  1
percent55: inf num IPs: 1
percent60: inf num IPs: 1
percent65: inf num IPs: 1
percent70: inf num IPs: 1
percent75: inf num IPs: 1
percent80: inf num IPs: 1
percent85: inf num IPs: 1
percent90: inf num IPs: 1
Critical_ROB_Stalls_Percent_0_Bucket_0: 240116
Non-critical_ROB_Stalls_Percent_0_Bucket_0: 9764427
Critical_ROB_Stalls_Percent_0_Bucket_1: 2169
Non-critical_ROB_Stalls_Percent_0_Bucket_1: 886446
Critical_ROB_Stalls_Percent_0_Bucket_2: 127
Non-critical_ROB_Stalls_Percent_0_Bucket_2: 446950
Critical_ROB_Stalls_Percent_0_Bucket_3: 49
Non-critical_ROB_Stalls_Percent_0_Bucket_3: 160579
Critical_ROB_Stalls_Percent_0_Bucket_4: 7
Non-critical_ROB_Stalls_Percent_0_Bucket_4: 46900
Critical_ROB_Stalls_Percent_0_Bucket_5: 0
Non-critical_ROB_Stalls_Percent_0_Bucket_5: 19597
Critical_ROB_Stalls_Percent_0_Bucket_6: 1
Non-critical_ROB_Stalls_Percent_0_Bucket_6: 158947
Critical_ROB_Stalls_Percent_1_Bucket_0: 240116
Non-critical_ROB_Stalls_Percent_1_Bucket_0: 9764427
Critical_ROB_Stalls_Percent_1_Bucket_1: 2169
Non-critical_ROB_Stalls_Percent_1_Bucket_1: 886446
Critical_ROB_Stalls_Percent_1_Bucket_2: 127
Non-critical_ROB_Stalls_Percent_1_Bucket_2: 446950
Critical_ROB_Stalls_Percent_1_Bucket_3: 49
Non-critical_ROB_Stalls_Percent_1_Bucket_3: 160579
Critical_ROB_Stalls_Percent_1_Bucket_4: 7
Non-critical_ROB_Stalls_Percent_1_Bucket_4: 46900
Critical_ROB_Stalls_Percent_1_Bucket_5: 0
Non-critical_ROB_Stalls_Percent_1_Bucket_5: 19597
Critical_ROB_Stalls_Percent_1_Bucket_6: 1
Non-critical_ROB_Stalls_Percent_1_Bucket_6: 158947
Critical_ROB_Stalls_Percent_2_Bucket_0: 240116
Non-critical_ROB_Stalls_Percent_2_Bucket_0: 9764427
Critical_ROB_Stalls_Percent_2_Bucket_1: 2169
Non-critical_ROB_Stalls_Percent_2_Bucket_1: 886446
Critical_ROB_Stalls_Percent_2_Bucket_2: 127
Non-critical_ROB_Stalls_Percent_2_Bucket_2: 446950
Critical_ROB_Stalls_Percent_2_Bucket_3: 49
Non-critical_ROB_Stalls_Percent_2_Bucket_3: 160579
Critical_ROB_Stalls_Percent_2_Bucket_4: 7
Non-critical_ROB_Stalls_Percent_2_Bucket_4: 46900
Critical_ROB_Stalls_Percent_2_Bucket_5: 0
Non-critical_ROB_Stalls_Percent_2_Bucket_5: 19597
Critical_ROB_Stalls_Percent_2_Bucket_6: 1
Non-critical_ROB_Stalls_Percent_2_Bucket_6: 158947
Critical_ROB_Stalls_Percent_3_Bucket_0: 240116
Non-critical_ROB_Stalls_Percent_3_Bucket_0: 9764427
Critical_ROB_Stalls_Percent_3_Bucket_1: 2169
Non-critical_ROB_Stalls_Percent_3_Bucket_1: 886446
Critical_ROB_Stalls_Percent_3_Bucket_2: 127
Non-critical_ROB_Stalls_Percent_3_Bucket_2: 446950
Critical_ROB_Stalls_Percent_3_Bucket_3: 49
Non-critical_ROB_Stalls_Percent_3_Bucket_3: 160579
Critical_ROB_Stalls_Percent_3_Bucket_4: 7
Non-critical_ROB_Stalls_Percent_3_Bucket_4: 46900
Critical_ROB_Stalls_Percent_3_Bucket_5: 0
Non-critical_ROB_Stalls_Percent_3_Bucket_5: 19597
Critical_ROB_Stalls_Percent_3_Bucket_6: 1
Non-critical_ROB_Stalls_Percent_3_Bucket_6: 158947
Critical_ROB_Stalls_Percent_4_Bucket_0: 240116
Non-critical_ROB_Stalls_Percent_4_Bucket_0: 9764427
Critical_ROB_Stalls_Percent_4_Bucket_1: 2169
Non-critical_ROB_Stalls_Percent_4_Bucket_1: 886446
Critical_ROB_Stalls_Percent_4_Bucket_2: 127
Non-critical_ROB_Stalls_Percent_4_Bucket_2: 446950
Critical_ROB_Stalls_Percent_4_Bucket_3: 49
Non-critical_ROB_Stalls_Percent_4_Bucket_3: 160579
Critical_ROB_Stalls_Percent_4_Bucket_4: 7
Non-critical_ROB_Stalls_Percent_4_Bucket_4: 46900
Critical_ROB_Stalls_Percent_4_Bucket_5: 0
Non-critical_ROB_Stalls_Percent_4_Bucket_5: 19597
Critical_ROB_Stalls_Percent_4_Bucket_6: 1
Non-critical_ROB_Stalls_Percent_4_Bucket_6: 158947
Critical_ROB_Stalls_Percent_5_Bucket_0: 240116
Non-critical_ROB_Stalls_Percent_5_Bucket_0: 9764427
Critical_ROB_Stalls_Percent_5_Bucket_1: 2169
Non-critical_ROB_Stalls_Percent_5_Bucket_1: 886446
Critical_ROB_Stalls_Percent_5_Bucket_2: 127
Non-critical_ROB_Stalls_Percent_5_Bucket_2: 446950
Critical_ROB_Stalls_Percent_5_Bucket_3: 49
Non-critical_ROB_Stalls_Percent_5_Bucket_3: 160579
Critical_ROB_Stalls_Percent_5_Bucket_4: 7
Non-critical_ROB_Stalls_Percent_5_Bucket_4: 46900
Critical_ROB_Stalls_Percent_5_Bucket_5: 0
Non-critical_ROB_Stalls_Percent_5_Bucket_5: 19597
Critical_ROB_Stalls_Percent_5_Bucket_6: 1
Non-critical_ROB_Stalls_Percent_5_Bucket_6: 158947
Critical_ROB_Stalls_Percent_6_Bucket_0: 240116
Non-critical_ROB_Stalls_Percent_6_Bucket_0: 9764427
Critical_ROB_Stalls_Percent_6_Bucket_1: 2169
Non-critical_ROB_Stalls_Percent_6_Bucket_1: 886446
Critical_ROB_Stalls_Percent_6_Bucket_2: 127
Non-critical_ROB_Stalls_Percent_6_Bucket_2: 446950
Critical_ROB_Stalls_Percent_6_Bucket_3: 49
Non-critical_ROB_Stalls_Percent_6_Bucket_3: 160579
Critical_ROB_Stalls_Percent_6_Bucket_4: 7
Non-critical_ROB_Stalls_Percent_6_Bucket_4: 46900
Critical_ROB_Stalls_Percent_6_Bucket_5: 0
Non-critical_ROB_Stalls_Percent_6_Bucket_5: 19597
Critical_ROB_Stalls_Percent_6_Bucket_6: 1
Non-critical_ROB_Stalls_Percent_6_Bucket_6: 158947
Critical_ROB_Stalls_Percent_7_Bucket_0: 240116
Non-critical_ROB_Stalls_Percent_7_Bucket_0: 9764427
Critical_ROB_Stalls_Percent_7_Bucket_1: 2169
Non-critical_ROB_Stalls_Percent_7_Bucket_1: 886446
Critical_ROB_Stalls_Percent_7_Bucket_2: 127
Non-critical_ROB_Stalls_Percent_7_Bucket_2: 446950
Critical_ROB_Stalls_Percent_7_Bucket_3: 49
Non-critical_ROB_Stalls_Percent_7_Bucket_3: 160579
Critical_ROB_Stalls_Percent_7_Bucket_4: 7
Non-critical_ROB_Stalls_Percent_7_Bucket_4: 46900
Critical_ROB_Stalls_Percent_7_Bucket_5: 0
Non-critical_ROB_Stalls_Percent_7_Bucket_5: 19597
Critical_ROB_Stalls_Percent_7_Bucket_6: 1
Non-critical_ROB_Stalls_Percent_7_Bucket_6: 158947
Critical_ROB_Stalls_Percent_8_Bucket_0: 240116
Non-critical_ROB_Stalls_Percent_8_Bucket_0: 9764427
Critical_ROB_Stalls_Percent_8_Bucket_1: 2169
Non-critical_ROB_Stalls_Percent_8_Bucket_1: 886446
Critical_ROB_Stalls_Percent_8_Bucket_2: 127
Non-critical_ROB_Stalls_Percent_8_Bucket_2: 446950
Critical_ROB_Stalls_Percent_8_Bucket_3: 49
Non-critical_ROB_Stalls_Percent_8_Bucket_3: 160579
Critical_ROB_Stalls_Percent_8_Bucket_4: 7
Non-critical_ROB_Stalls_Percent_8_Bucket_4: 46900
Critical_ROB_Stalls_Percent_8_Bucket_5: 0
Non-critical_ROB_Stalls_Percent_8_Bucket_5: 19597
Critical_ROB_Stalls_Percent_8_Bucket_6: 1
Non-critical_ROB_Stalls_Percent_8_Bucket_6: 158947
Average ROB occupancy Load Stall Begin: 28.2208
Average ROB occupancy Load Stall End: 31.9242
Min ROB occupancy Load Stall Begin: 1
Max ROB occupancy Load Stall Begin: 352
Min ROB occupancy Load Stall End: 1
Max ROB occupancy Load Stall End: 352
Average ROB occupancy Critical Load Stall Begin: -nan
Average ROB occupancy Critical Load Stall End: -nan
Min ROB occupancy Critical Load Stall Begin: 400
Max ROB occupancy Critical Load Stall Begin: 0
Min ROB occupancy Critical Load Stall End: 400
Max ROB occupancy Critical Load Stall End: 0
 ROB Load Stall Begin Bucket Count 0: 10320794
 ROB Load Stall End Bucket Count 0: 10004543
 ROB Critical Load Stall Begin Bucket Count 0: 0
 ROB Critical Load Stall End Bucket Count 0: 0
 ROB Load Stall Begin Bucket Count 1: 638949
 ROB Load Stall End Bucket Count 1: 888615
 ROB Critical Load Stall Begin Bucket Count 1: 0
 ROB Critical Load Stall End Bucket Count 1: 0
 ROB Load Stall Begin Bucket Count 2: 409888
 ROB Load Stall End Bucket Count 2: 447077
 ROB Critical Load Stall Begin Bucket Count 2: 0
 ROB Critical Load Stall End Bucket Count 2: 0
 ROB Load Stall Begin Bucket Count 3: 140356
 ROB Load Stall End Bucket Count 3: 160628
 ROB Critical Load Stall Begin Bucket Count 3: 0
 ROB Critical Load Stall End Bucket Count 3: 0
 ROB Load Stall Begin Bucket Count 4: 41573
 ROB Load Stall End Bucket Count 4: 46907
 ROB Critical Load Stall Begin Bucket Count 4: 0
 ROB Critical Load Stall End Bucket Count 4: 0
 ROB Load Stall Begin Bucket Count 5: 17403
 ROB Load Stall End Bucket Count 5: 19597
 ROB Critical Load Stall Begin Bucket Count 5: 0
 ROB Critical Load Stall End Bucket Count 5: 0
 ROB Load Stall Begin Bucket Count 6: 157352
 ROB Load Stall End Bucket Count 6: 158948
 ROB Critical Load Stall Begin Bucket Count 6: 0
 ROB Critical Load Stall End Bucket Count 6: 0
PIST Tag Read Accesses: 0
PIST Read Accesses: 0
PIST Tag Write Accesses: 0
PIST Write Accesses: 0
Criticality detector called times: 0
Max global_stall_cycles_count: 0
Threshold Modified: 0 times, factor: 0
ITLB TOTAL     ACCESS:   16940384  HIT:   16940384  MISS:          0  HIT %:        100  MISS %:          0   MPKI: 0
ITLB LOAD TRANSLATION ACCESS:   16940384  HIT:   16940384  MISS:          0  HIT %:        100  MISS %:          0   MPKI: 0
ITLB PREFETCH  REQUESTED:          0  ISSUED:          0  USEFUL:          0  USELESS:          0
ITLB USEFUL LOAD PREFETCHES:          0 PREFETCH ISSUED TO LOWER LEVEL:          0  ACCURACY: -nan
ITLB TIMELY PREFETCHES:          0 LATE PREFETCHES: 0 DROPPED PREFETCHES: 0
ITLB PREFETCHES SAME FILL-ORIGIN LEVEL: 0 DIFFERENT FILL-ORIGIN LEVEL: 0
ITLB AVERAGE MISS LATENCY: -nan cycles
ITLB RQ	ACCESS:   19290322	FORWARD:          0	MERGED:    2349938	TO_CACHE:   16940384

DTLB TOTAL     ACCESS:   27925136  HIT:   27880968  MISS:      44168  HIT %:    99.8418  MISS %:   0.158166   MPKI: 0.44168
DTLB LOAD TRANSLATION ACCESS:   27925136  HIT:   27880968  MISS:      44168  HIT %:    99.8418  MISS %:   0.158166   MPKI: 0.44168
DTLB PREFETCH  REQUESTED:          0  ISSUED:          0  USEFUL:          0  USELESS:          0
DTLB USEFUL LOAD PREFETCHES:          0 PREFETCH ISSUED TO LOWER LEVEL:          0  ACCURACY: -nan
DTLB TIMELY PREFETCHES:          0 LATE PREFETCHES: 0 DROPPED PREFETCHES: 0
DTLB PREFETCHES SAME FILL-ORIGIN LEVEL: 0 DIFFERENT FILL-ORIGIN LEVEL: 0
DTLB AVERAGE MISS LATENCY: 9.47804 cycles
DTLB RQ	ACCESS:   31734822	FORWARD:          0	MERGED:    3808711	TO_CACHE:   27926111

STLB TOTAL     ACCESS:      44168  HIT:      44046  MISS:        122  HIT %:    99.7238  MISS %:   0.276218   MPKI: 0.00122
STLB LOAD TRANSLATION ACCESS:      44168  HIT:      44046  MISS:        122  HIT %:    99.7238  MISS %:   0.276218   MPKI: 0.00122
STLB PREFETCH  REQUESTED:          0  ISSUED:          0  USEFUL:          0  USELESS:          0
STLB USEFUL LOAD PREFETCHES:          0 PREFETCH ISSUED TO LOWER LEVEL:          0  ACCURACY: -nan
STLB TIMELY PREFETCHES:          0 LATE PREFETCHES: 0 DROPPED PREFETCHES: 0
STLB PREFETCHES SAME FILL-ORIGIN LEVEL: 0 DIFFERENT FILL-ORIGIN LEVEL: 0
STLB AVERAGE MISS LATENCY: 172.074 cycles
STLB RQ	ACCESS:      44168	FORWARD:          0	MERGED:          0	TO_CACHE:      44168

STLB Hit, L1D data hit: 0
STLB Hit, L2C data hit: 0
STLB Hit, LLC data hit: 0
STLB Hit, LLC data miss: 0
STLB STLB hints to L2: 0
L1D TOTAL     ACCESS:   31691036  HIT:   31426930  MISS:     264106  HIT %:    99.1666  MISS %:   0.833378   MPKI: 2.64106
L1D LOAD      ACCESS:   20313404  HIT:   20080486  MISS:     232918  HIT %:    98.8534  MISS %:    1.14662   MPKI: 2.32918
L1D RFO       ACCESS:   11377632  HIT:   11346444  MISS:      31188  HIT %:    99.7259  MISS %:   0.274117   MPKI: 0.31188
L1D PREFETCH  REQUESTED:          0  ISSUED:          0  USEFUL:          0  USELESS:          0
L1D USEFUL LOAD PREFETCHES:          0 PREFETCH ISSUED TO LOWER LEVEL:          0  ACCURACY: -nan
L1D TIMELY PREFETCHES:          0 LATE PREFETCHES: 0 DROPPED PREFETCHES: 0
L1D PREFETCHES SAME FILL-ORIGIN LEVEL: 0 DIFFERENT FILL-ORIGIN LEVEL: 0
L1D AVERAGE MISS LATENCY: 15.9102 cycles
L1D RQ	ACCESS:   26089471	FORWARD:          0	MERGED:    4595402	TO_CACHE:   20318067
L1D WQ	ACCESS:   11615694	FORWARD:    1176002	MERGED:     198939	TO_CACHE:   11416755

L1D UNIQUE REGIONS ACCESSED: 0
L1D REGIONS CONFLICTS: 0
L1D Cross Page Prefetch Requests: 0
L1D Same Page Prefetch Requests: 0
L1D ROI Sum of L1D PQ occupancy: 0
L1D PREFETCHES PUSHED FROM L2C: 0
L1I TOTAL     ACCESS:   19287960  HIT:   19281663  MISS:       6297  HIT %:    99.9674  MISS %:  0.0326473   MPKI: 0.06297
L1I LOAD      ACCESS:   19287960  HIT:   19281663  MISS:       6297  HIT %:    99.9674  MISS %:  0.0326473   MPKI: 0.06297
L1I PREFETCH  REQUESTED:          0  ISSUED:          0  USEFUL:          0  USELESS:          0
L1I USEFUL LOAD PREFETCHES:          0 PREFETCH ISSUED TO LOWER LEVEL:          0  ACCURACY: -nan
L1I TIMELY PREFETCHES:          0 LATE PREFETCHES: 0 DROPPED PREFETCHES: 0
L1I PREFETCHES SAME FILL-ORIGIN LEVEL: 0 DIFFERENT FILL-ORIGIN LEVEL: 0
L1I AVERAGE MISS LATENCY: 14.0969 cycles
L1I RQ	ACCESS:   27769868	FORWARD:          0	MERGED:    8479546	TO_CACHE:   19290322

BTB TOTAL     ACCESS:   15851744  HIT:   14674603  MISS:    1177141  HIT %:    92.5741  MISS %:    7.42594   MPKI: 11.7714
BTB BRANCH_DIRECT_JUMP	ACCESS:     546600  HIT:     546518  MISS:         82
BTB BRANCH_INDIRECT	ACCESS:        776  HIT:        703  MISS:         73
BTB BRANCH_CONDITIONAL	ACCESS:    9399016  HIT:    9398045  MISS:        971
BTB BRANCH_DIRECT_CALL	ACCESS:    2952676  HIT:    2952278  MISS:        398
BTB BRANCH_INDIRECT_CALL	ACCESS:          0  HIT:          0  MISS:          0
BTB BRANCH_RETURN	ACCESS:    2952676  HIT:    1777059  MISS:    1175617
BTB BRANCH_OTHER ACCESS:          0  HIT:          0  MISS:          0

L2C TOTAL     ACCESS:     444729  HIT:     439109  MISS:       5620  HIT %:    98.7363  MISS %:    1.26369   MPKI: 0.0562
L2C LOAD      ACCESS:     239214  HIT:     237443  MISS:       1771  HIT %:    99.2597  MISS %:   0.740341   MPKI: 0.01771
L2C DATA LOAD MPKI: 0.01753
L2C INSTRUCTION LOAD MPKI: 0.00018
L2C RFO       ACCESS:      31183  HIT:      30544  MISS:        639  HIT %:    97.9508  MISS %:    2.04919   MPKI: 0.00639
L2C PREFETCH  ACCESS:     116142  HIT:     113003  MISS:       3139  HIT %:    97.2973  MISS %:    2.70273   MPKI: 0.03139
L2C DATA PREFETCH MPKI: 0.03139
L2C INSTRUCTION PREFETCH MPKI: 0
L2C WRITEBACK ACCESS:      58068  HIT:      58048  MISS:         20  HIT %:    99.9656  MISS %:  0.0344424   MPKI: 0.0002
L2C LOAD TRANSLATION ACCESS:        122  HIT:         71  MISS:         51  HIT %:    58.1967  MISS %:    41.8033   MPKI: 0.00051
L2C PREFETCH  REQUESTED:     116223  ISSUED:     116223  USEFUL:       1009  USELESS:        649
L2C USEFUL LOAD PREFETCHES:       1009 PREFETCH ISSUED TO LOWER LEVEL:       3179  ACCURACY: 31.7395
L2C TIMELY PREFETCHES:       1009 LATE PREFETCHES: 39 DROPPED PREFETCHES: 0
L2C PREFETCHES SAME FILL-ORIGIN LEVEL: 3178 DIFFERENT FILL-ORIGIN LEVEL: 1
L2C AVERAGE MISS LATENCY: 121.826 cycles
L2C RQ	ACCESS:     270525	FORWARD:          0	MERGED:          0	TO_CACHE:     270519
L2C WQ	ACCESS:      58068	FORWARD:          6	MERGED:          0	TO_CACHE:      58068
L2C PQ	ACCESS:     116223	FORWARD:          0	MERGED:         12	TO_CACHE:     116211

L2C Instructions Evicting Data 15
L2C Translations Evicting Data 34
L2C Data Evicting Data 3297
L2C Instructions Evicting Instructions 3
L2C Translations Evicting Instructions 4
L2C Data Evicting Instructions 179
L2C Instructions Evicting Translations 0
L2C Translations Evicting Translations 0
L2C Data Evicting Translations 73
L2C Dense regions hint from L2: 0
PSCL5 TOTAL     ACCESS:        122  HIT:        122  MISS:          0  HIT %:        100  MISS %:          0   MPKI: 0
PSCL5 LOAD TRANSLATION ACCESS:        122  HIT:        122  MISS:          0  HIT %:        100  MISS %:          0   MPKI: 0
PSCL5 PREFETCH  REQUESTED:          0  ISSUED:          0  USEFUL:          0  USELESS:          0
PSCL5 USEFUL LOAD PREFETCHES:          0 PREFETCH ISSUED TO LOWER LEVEL:          0  ACCURACY: -nan
PSCL5 TIMELY PREFETCHES:          0 LATE PREFETCHES: 0 DROPPED PREFETCHES: 0
PSCL5 PREFETCHES SAME FILL-ORIGIN LEVEL: 0 DIFFERENT FILL-ORIGIN LEVEL: 0

PSCL4 TOTAL     ACCESS:        122  HIT:        122  MISS:          0  HIT %:        100  MISS %:          0   MPKI: 0
PSCL4 LOAD TRANSLATION ACCESS:        122  HIT:        122  MISS:          0  HIT %:        100  MISS %:          0   MPKI: 0
PSCL4 PREFETCH  REQUESTED:          0  ISSUED:          0  USEFUL:          0  USELESS:          0
PSCL4 USEFUL LOAD PREFETCHES:          0 PREFETCH ISSUED TO LOWER LEVEL:          0  ACCURACY: -nan
PSCL4 TIMELY PREFETCHES:          0 LATE PREFETCHES: 0 DROPPED PREFETCHES: 0
PSCL4 PREFETCHES SAME FILL-ORIGIN LEVEL: 0 DIFFERENT FILL-ORIGIN LEVEL: 0

PSCL3 TOTAL     ACCESS:        122  HIT:        122  MISS:          0  HIT %:        100  MISS %:          0   MPKI: 0
PSCL3 LOAD TRANSLATION ACCESS:        122  HIT:        122  MISS:          0  HIT %:        100  MISS %:          0   MPKI: 0
PSCL3 PREFETCH  REQUESTED:          0  ISSUED:          0  USEFUL:          0  USELESS:          0
PSCL3 USEFUL LOAD PREFETCHES:          0 PREFETCH ISSUED TO LOWER LEVEL:          0  ACCURACY: -nan
PSCL3 TIMELY PREFETCHES:          0 LATE PREFETCHES: 0 DROPPED PREFETCHES: 0
PSCL3 PREFETCHES SAME FILL-ORIGIN LEVEL: 0 DIFFERENT FILL-ORIGIN LEVEL: 0

PSCL2 TOTAL     ACCESS:        122  HIT:        122  MISS:          0  HIT %:        100  MISS %:          0   MPKI: 0
PSCL2 LOAD TRANSLATION ACCESS:        122  HIT:        122  MISS:          0  HIT %:        100  MISS %:          0   MPKI: 0
PSCL2 PREFETCH  REQUESTED:          0  ISSUED:          0  USEFUL:          0  USELESS:          0
PSCL2 USEFUL LOAD PREFETCHES:          0 PREFETCH ISSUED TO LOWER LEVEL:          0  ACCURACY: -nan
PSCL2 TIMELY PREFETCHES:          0 LATE PREFETCHES: 0 DROPPED PREFETCHES: 0
PSCL2 PREFETCHES SAME FILL-ORIGIN LEVEL: 0 DIFFERENT FILL-ORIGIN LEVEL: 0

LLC TOTAL     ACCESS:       6160  HIT:       2345  MISS:       3815  HIT %:    38.0682  MISS %:    61.9318   MPKI: 0.03815
LLC LOAD      ACCESS:       1732  HIT:       1108  MISS:        624  HIT %:    63.9723  MISS %:    36.0277   MPKI: 0.00624
LLC RFO       ACCESS:        639  HIT:          7  MISS:        632  HIT %:    1.09546  MISS %:    98.9045   MPKI: 0.00632
LLC PREFETCH  ACCESS:       3179  HIT:        661  MISS:       2518  HIT %:    20.7927  MISS %:    79.2073   MPKI: 0.02518
LLC WRITEBACK ACCESS:        559  HIT:        550  MISS:          9  HIT %:      98.39  MISS %:    1.61002   MPKI: 9e-05
LLC LOAD TRANSLATION ACCESS:         51  HIT:         19  MISS:         32  HIT %:    37.2549  MISS %:    62.7451   MPKI: 0.00032
LLC PREFETCH  REQUESTED:          0  ISSUED:          0  USEFUL:         10  USELESS:         21
LLC USEFUL LOAD PREFETCHES:         10 PREFETCH ISSUED TO LOWER LEVEL:       2518  ACCURACY: 0.397141
LLC TIMELY PREFETCHES:         10 LATE PREFETCHES: 0 DROPPED PREFETCHES: 0
LLC PREFETCHES SAME FILL-ORIGIN LEVEL: 1 DIFFERENT FILL-ORIGIN LEVEL: 0
LLC AVERAGE MISS LATENCY: 136.127 cycles
LLC RQ	ACCESS:       2422	FORWARD:          0	MERGED:          0	TO_CACHE:       2422
LLC WQ	ACCESS:        559	FORWARD:          0	MERGED:          0	TO_CACHE:        559
LLC PQ	ACCESS:       3179	FORWARD:          0	MERGED:          0	TO_CACHE:       3179

LLC Dense regions hint to LLC: 0

RAW hits: 794753
Loads Generated: 26884224
Loads sent to L1D: 26089471
Stores Generated: 11615691
Stores sent to L1D: 11615694
Major fault: 0 Minor fault: 639
Allocated PAGES: 639
------------------
Depth Distribution
------------------
depth 0: 1302
depth 1: 8825
depth 2: 61656
depth 3: 32271
depth 4: 7016
depth 5: 7777
depth 6: 14011
depth 7: 7632
depth 8: 205
depth 9: 0
depth 10: 0
depth 11: 0
depth 12: 0
depth 13: 0
depth 14: 0
depth 15: 0
depth 16: 0
depth 17: 0
depth 18: 0
depth 19: 0
depth 20: 0
depth 21: 0
depth 22: 0
depth 23: 0
depth 24: 0
depth 25: 0
depth 26: 0
depth 27: 0
depth 28: 0
depth 29: 0
Total: 140695
------------------
ST read accesses: 118595
ST write accesses: 21992
PT read accesses: 3185156
PT write accesses: 161171
FILTER read accesses: 727093
FILTER write accesses: 186165
GHR read accesses: 316415
GHR write accesses: 27455
PERC read accesses: 20779857
PERC write accesses: 589393
GHR counter read accesses: 281174
GHR counter write accesses: 317392
GHR ip read accesses: 770496
GHR ip write accesses: 562348
ST tag read accesses: 4141215
ST tag write accesses: 594839

DRAM Statistics
 CHANNEL 0
 RQ ROW_BUFFER_HIT:       1340  ROW_BUFFER_MISS:       2466
 DBUS_CONGESTED:          0
 WQ ROW_BUFFER_HIT:          0  ROW_BUFFER_MISS:          0  FULL:          0

 AVG_CONGESTED_CYCLE: -
 All warmup complete: 2
Channel 0 Bank busy for read cycles: 0
Channel 0 Bank busy for write cycles: 0
Channel 0
Rank 0
0banks busy for read cycles: 265883456
0banks busy for write cycles: 0
1banks busy for read cycles: 280057
1banks busy for write cycles: 0
2banks busy for read cycles: 41347
2banks busy for write cycles: 0
3banks busy for read cycles: 11244
3banks busy for write cycles: 0
4banks busy for read cycles: 2739
4banks busy for write cycles: 0
5banks busy for read cycles: 2036
5banks busy for write cycles: 0
6banks busy for read cycles: 970
6banks busy for write cycles: 0
7banks busy for read cycles: 1263
7banks busy for write cycles: 0
8banks busy for read cycles: 578
8banks busy for write cycles: 0

CPU 0 Branch Prediction Accuracy: 93.2052% MPKI: 11.3866 Average ROB Occupancy at Mispredict: 22.5709
Branch types
NOT_BRANCH: 83241771 83.2418%
BRANCH_DIRECT_JUMP: 546600 0.5466%
BRANCH_INDIRECT: 776 0.000776%
BRANCH_CONDITIONAL: 10305170 10.3052%
BRANCH_DIRECT_CALL: 2952676 2.95268%
BRANCH_INDIRECT_CALL: 0 0%
BRANCH_RETURN: 2952676 2.95268%
BRANCH_OTHER: 0 0%

DRAM PAGES: 1048576
Allocated PAGES: 639
