Initialize SIGNATURE TABLE
ST_SET: 1
ST_WAY: 256
ST_TAG_BIT: 16
ST_TAG_MASK: ffff

Initialize PATTERN TABLE
PT_SET: 512
PT_WAY: 4
SIG_DELTA_BIT: 7
C_SIG_BIT: 4
C_DELTA_BIT: 4

Initialize PREFETCH FILTER
FILTER_SET: 1024

*** ChampSim Multicore Out-of-Order Simulator ***

Warmup Instructions: 50000000
Simulation Instructions: 100000000
Number of CPUs: 1
LLC sets: 2048
LLC ways: 16
Off-chip DRAM Size: 4096 MB Channels: 1 Width: 64-bit Data Rate: 6400 MT/s
CPU 0 runs ../SPEC2017//641.leela_s-1083B.champsimtrace.xz
.xz
NUM_OF_IPS_IN_CRITICAL_IP_TRAINING: 64
NUM_OF_CRITICAL_IP_TRAINING_TABLE_WAYS: 2
NUM_OF_CRITICAL_IP_TRAINING_TABLE_SETS: 32
WOBBLY_CRITICAL_IP_CACHE_SETS: 32
WOBBLY_CRITICAL_IP_CACHE_WAYS: 4
BTB has LRU replacement policy
ITLB has LRU replacement policy
DTLB has LRU replacement policy
STLB has LRU replacement policy
L1I has LRU replacement policy
L1D has LRU replacement policy
Initialize SRRIP state for L2C
Initialize DRRIP state for LLC
Heartbeat CPU 0 instructions: 10000000 cycles: 3152725 heartbeat IPC: 3.17186 cumulative IPC: 3.17186 (Simulation time: 0 hr 5 min 4 sec) 
Heartbeat CPU 0 instructions: 20000000 cycles: 6314499 heartbeat IPC: 3.16278 cumulative IPC: 3.16731 (Simulation time: 0 hr 9 min 42 sec) 
Heartbeat CPU 0 instructions: 30000003 cycles: 9487230 heartbeat IPC: 3.15186 cumulative IPC: 3.16215 (Simulation time: 0 hr 14 min 4 sec) 
Heartbeat CPU 0 instructions: 40000003 cycles: 12645106 heartbeat IPC: 3.16669 cumulative IPC: 3.16328 (Simulation time: 0 hr 18 min 3 sec) 
Heartbeat CPU 0 instructions: 50000003 cycles: 15802045 heartbeat IPC: 3.16763 cumulative IPC: 3.16415 (Simulation time: 0 hr 21 min 49 sec) 

Warmup complete CPU 0 instructions: 50000003 cycles: 15802045 (Simulation time: 0 hr 21 min 49 sec) 

% increase in all ip prefetch 620.6
% increase in all ip prefetch -5.14768
Heartbeat CPU 0 instructions: 60000002 cycles: 42349714 heartbeat IPC: 0.376681 cumulative IPC: 0.376681 (Simulation time: 0 hr 25 min 48 sec) 
Heartbeat CPU 0 instructions: 70000002 cycles: 69161801 heartbeat IPC: 0.372966 cumulative IPC: 0.374814 (Simulation time: 0 hr 29 min 35 sec) 
Heartbeat CPU 0 instructions: 80000000 cycles: 95631107 heartbeat IPC: 0.377796 cumulative IPC: 0.375803 (Simulation time: 0 hr 33 min 11 sec) 
Heartbeat CPU 0 instructions: 90000003 cycles: 122801111 heartbeat IPC: 0.368053 cumulative IPC: 0.373835 (Simulation time: 0 hr 36 min 39 sec) 
Heartbeat CPU 0 instructions: 100000002 cycles: 149638052 heartbeat IPC: 0.372621 cumulative IPC: 0.373592 (Simulation time: 0 hr 39 min 59 sec) 
Heartbeat CPU 0 instructions: 110000000 cycles: 175967294 heartbeat IPC: 0.379806 cumulative IPC: 0.374613 (Simulation time: 0 hr 43 min 0 sec) 
Heartbeat CPU 0 instructions: 120000000 cycles: 202207879 heartbeat IPC: 0.381089 cumulative IPC: 0.375525 (Simulation time: 0 hr 45 min 48 sec) 
Heartbeat CPU 0 instructions: 130000001 cycles: 228852158 heartbeat IPC: 0.375315 cumulative IPC: 0.375499 (Simulation time: 0 hr 48 min 31 sec) 
Heartbeat CPU 0 instructions: 140000000 cycles: 255561632 heartbeat IPC: 0.374399 cumulative IPC: 0.375376 (Simulation time: 0 hr 53 min 37 sec) 
Heartbeat CPU 0 instructions: 150000000 cycles: 282023118 heartbeat IPC: 0.377908 cumulative IPC: 0.375628 (Simulation time: 0 hr 59 min 46 sec) 
Finished CPU 0 instructions: 100000002 cycles: 266221076 cumulative IPC: 0.375628 (Simulation time: 0 hr 59 min 46 sec) 

ChampSim completed all CPUs

Region of Interest Statistics

CPU 0 cumulative IPC: 0.375628 instructions: 100000002 cycles: 266221076

CPU 0 Average Load ROB stall cycles: 5.58127e+07
CPU 0 Fraction of times ROB stalled by Loads: 37.4661
CPU 0 Percentage of Load stall cycles in Total stall cycles: 8.09802e+08
Issued all: 55074614
Issued LT all: 43607396
rob_not_full_when_issued_lt_all: 40843172
Issued LT one: 33001989
rob_not_full_when_issued_lt_one: 30424289
 Total stall cycles: 215718045
 Total load stall cycles: 1746888909494576
CPU 0 NUM of IPS identified critical: 0
CPU 0 Num of Load IPs stalling ROB: 1140
Threshold modification factor: -1
Max PIST entries: 64
Min PIST entries: 0
Avg PIST entries: 42.6667
Trouble in retire width: 0.955919
MaC = Marked as critical.
lt_50_percent_before_Mac: 0
gt_90_percent_before_Mac: 0
gt_75_percent_before_Mac: 0
gt_50_percent_before_Mac: 0
stall_proportion_bin_same_before_after: 0
stall_proportion_bin_lower_before_after: 0
stall_proportion_bin_upper_before_after: 0
average_stall_proportion_before: -nan
average_stall_proportion_after: -nan
Critical IP stalls, total frequency: 0
Non-critical IP stalls, total frequency: 11726570
Total Freq all stalling IPs: 11726570
stat_90_percent_critical_ip_stalls_freq: 10566369
stat_90_percent_non_critical_ip_stalls_freq: 1160201
Critical_IP_ROB_Stalls_Bucket_0: 0
Non-critical_IP_ROB_Stalls_Bucket_0: 10004477
Critical_IP_ROB_Stalls_Bucket_1: 0
Non-critical_IP_ROB_Stalls_Bucket_1: 888479
Critical_IP_ROB_Stalls_Bucket_2: 0
Non-critical_IP_ROB_Stalls_Bucket_2: 447127
Critical_IP_ROB_Stalls_Bucket_3: 0
Non-critical_IP_ROB_Stalls_Bucket_3: 160690
Critical_IP_ROB_Stalls_Bucket_4: 0
Non-critical_IP_ROB_Stalls_Bucket_4: 46979
Critical_IP_ROB_Stalls_Bucket_5: 0
Non-critical_IP_ROB_Stalls_Bucket_5: 19679
Critical_IP_ROB_Stalls_Bucket_6: 0
Non-critical_IP_ROB_Stalls_Bucket_6: 159139
0 => IPs accounting for >50 percent of stalls, 1 => 55, 2 => 60, 3 => 65 and so on till 90.
percent50: 50.1476 num IPs:  41
percent55: 55.2269 num IPs: 51
percent60: 60.1989 num IPs: 63
percent65: 65.2686 num IPs: 79
percent70: 70.004 num IPs: 95
percent75: 75.1921 num IPs: 113
percent80: 80.0578 num IPs: 134
percent85: 85.0327 num IPs: 159
percent90: 90.1062 num IPs: 193
Critical_ROB_Stalls_Percent_0_Bucket_0: 5369220
Non-critical_ROB_Stalls_Percent_0_Bucket_0: 4635257
Critical_ROB_Stalls_Percent_0_Bucket_1: 232696
Non-critical_ROB_Stalls_Percent_0_Bucket_1: 655783
Critical_ROB_Stalls_Percent_0_Bucket_2: 74365
Non-critical_ROB_Stalls_Percent_0_Bucket_2: 372762
Critical_ROB_Stalls_Percent_0_Bucket_3: 29643
Non-critical_ROB_Stalls_Percent_0_Bucket_3: 131047
Critical_ROB_Stalls_Percent_0_Bucket_4: 16333
Non-critical_ROB_Stalls_Percent_0_Bucket_4: 30646
Critical_ROB_Stalls_Percent_0_Bucket_5: 9000
Non-critical_ROB_Stalls_Percent_0_Bucket_5: 10679
Critical_ROB_Stalls_Percent_0_Bucket_6: 149334
Non-critical_ROB_Stalls_Percent_0_Bucket_6: 9805
Critical_ROB_Stalls_Percent_1_Bucket_0: 5889517
Non-critical_ROB_Stalls_Percent_1_Bucket_0: 4114960
Critical_ROB_Stalls_Percent_1_Bucket_1: 283804
Non-critical_ROB_Stalls_Percent_1_Bucket_1: 604675
Critical_ROB_Stalls_Percent_1_Bucket_2: 86904
Non-critical_ROB_Stalls_Percent_1_Bucket_2: 360223
Critical_ROB_Stalls_Percent_1_Bucket_3: 36930
Non-critical_ROB_Stalls_Percent_1_Bucket_3: 123760
Critical_ROB_Stalls_Percent_1_Bucket_4: 19297
Non-critical_ROB_Stalls_Percent_1_Bucket_4: 27682
Critical_ROB_Stalls_Percent_1_Bucket_5: 9762
Non-critical_ROB_Stalls_Percent_1_Bucket_5: 9917
Critical_ROB_Stalls_Percent_1_Bucket_6: 150006
Non-critical_ROB_Stalls_Percent_1_Bucket_6: 9133
Critical_ROB_Stalls_Percent_2_Bucket_0: 6422214
Non-critical_ROB_Stalls_Percent_2_Bucket_0: 3582263
Critical_ROB_Stalls_Percent_2_Bucket_1: 325731
Non-critical_ROB_Stalls_Percent_2_Bucket_1: 562748
Critical_ROB_Stalls_Percent_2_Bucket_2: 91064
Non-critical_ROB_Stalls_Percent_2_Bucket_2: 356063
Critical_ROB_Stalls_Percent_2_Bucket_3: 40091
Non-critical_ROB_Stalls_Percent_2_Bucket_3: 120599
Critical_ROB_Stalls_Percent_2_Bucket_4: 19948
Non-critical_ROB_Stalls_Percent_2_Bucket_4: 27031
Critical_ROB_Stalls_Percent_2_Bucket_5: 9972
Non-critical_ROB_Stalls_Percent_2_Bucket_5: 9707
Critical_ROB_Stalls_Percent_2_Bucket_6: 150246
Non-critical_ROB_Stalls_Percent_2_Bucket_6: 8893
Critical_ROB_Stalls_Percent_3_Bucket_0: 6746447
Non-critical_ROB_Stalls_Percent_3_Bucket_0: 3258030
Critical_ROB_Stalls_Percent_3_Bucket_1: 425520
Non-critical_ROB_Stalls_Percent_3_Bucket_1: 462959
Critical_ROB_Stalls_Percent_3_Bucket_2: 193122
Non-critical_ROB_Stalls_Percent_3_Bucket_2: 254005
Critical_ROB_Stalls_Percent_3_Bucket_3: 94539
Non-critical_ROB_Stalls_Percent_3_Bucket_3: 66151
Critical_ROB_Stalls_Percent_3_Bucket_4: 31335
Non-critical_ROB_Stalls_Percent_3_Bucket_4: 15644
Critical_ROB_Stalls_Percent_3_Bucket_5: 12406
Non-critical_ROB_Stalls_Percent_3_Bucket_5: 7273
Critical_ROB_Stalls_Percent_3_Bucket_6: 150394
Non-critical_ROB_Stalls_Percent_3_Bucket_6: 8745
Critical_ROB_Stalls_Percent_4_Bucket_0: 7099976
Non-critical_ROB_Stalls_Percent_4_Bucket_0: 2904501
Critical_ROB_Stalls_Percent_4_Bucket_1: 538521
Non-critical_ROB_Stalls_Percent_4_Bucket_1: 349958
Critical_ROB_Stalls_Percent_4_Bucket_2: 256254
Non-critical_ROB_Stalls_Percent_4_Bucket_2: 190873
Critical_ROB_Stalls_Percent_4_Bucket_3: 116622
Non-critical_ROB_Stalls_Percent_4_Bucket_3: 44068
Critical_ROB_Stalls_Percent_4_Bucket_4: 34285
Non-critical_ROB_Stalls_Percent_4_Bucket_4: 12694
Critical_ROB_Stalls_Percent_4_Bucket_5: 12881
Non-critical_ROB_Stalls_Percent_4_Bucket_5: 6798
Critical_ROB_Stalls_Percent_4_Bucket_6: 150529
Non-critical_ROB_Stalls_Percent_4_Bucket_6: 8610
Critical_ROB_Stalls_Percent_5_Bucket_0: 7485105
Non-critical_ROB_Stalls_Percent_5_Bucket_0: 2519372
Critical_ROB_Stalls_Percent_5_Bucket_1: 626065
Non-critical_ROB_Stalls_Percent_5_Bucket_1: 262414
Critical_ROB_Stalls_Percent_5_Bucket_2: 377986
Non-critical_ROB_Stalls_Percent_5_Bucket_2: 69141
Critical_ROB_Stalls_Percent_5_Bucket_3: 130019
Non-critical_ROB_Stalls_Percent_5_Bucket_3: 30671
Critical_ROB_Stalls_Percent_5_Bucket_4: 34840
Non-critical_ROB_Stalls_Percent_5_Bucket_4: 12139
Critical_ROB_Stalls_Percent_5_Bucket_5: 12901
Non-critical_ROB_Stalls_Percent_5_Bucket_5: 6778
Critical_ROB_Stalls_Percent_5_Bucket_6: 150538
Non-critical_ROB_Stalls_Percent_5_Bucket_6: 8601
Critical_ROB_Stalls_Percent_6_Bucket_0: 7955575
Non-critical_ROB_Stalls_Percent_6_Bucket_0: 2048902
Critical_ROB_Stalls_Percent_6_Bucket_1: 679968
Non-critical_ROB_Stalls_Percent_6_Bucket_1: 208511
Critical_ROB_Stalls_Percent_6_Bucket_2: 407495
Non-critical_ROB_Stalls_Percent_6_Bucket_2: 39632
Critical_ROB_Stalls_Percent_6_Bucket_3: 142210
Non-critical_ROB_Stalls_Percent_6_Bucket_3: 18480
Critical_ROB_Stalls_Percent_6_Bucket_4: 38096
Non-critical_ROB_Stalls_Percent_6_Bucket_4: 8883
Critical_ROB_Stalls_Percent_6_Bucket_5: 14105
Non-critical_ROB_Stalls_Percent_6_Bucket_5: 5574
Critical_ROB_Stalls_Percent_6_Bucket_6: 150586
Non-critical_ROB_Stalls_Percent_6_Bucket_6: 8553
Critical_ROB_Stalls_Percent_7_Bucket_0: 8486116
Non-critical_ROB_Stalls_Percent_7_Bucket_0: 1518361
Critical_ROB_Stalls_Percent_7_Bucket_1: 717401
Non-critical_ROB_Stalls_Percent_7_Bucket_1: 171078
Critical_ROB_Stalls_Percent_7_Bucket_2: 414392
Non-critical_ROB_Stalls_Percent_7_Bucket_2: 32735
Critical_ROB_Stalls_Percent_7_Bucket_3: 145678
Non-critical_ROB_Stalls_Percent_7_Bucket_3: 15012
Critical_ROB_Stalls_Percent_7_Bucket_4: 39991
Non-critical_ROB_Stalls_Percent_7_Bucket_4: 6988
Critical_ROB_Stalls_Percent_7_Bucket_5: 15344
Non-critical_ROB_Stalls_Percent_7_Bucket_5: 4335
Critical_ROB_Stalls_Percent_7_Bucket_6: 152500
Non-critical_ROB_Stalls_Percent_7_Bucket_6: 6639
Critical_ROB_Stalls_Percent_8_Bucket_0: 9022562
Non-critical_ROB_Stalls_Percent_8_Bucket_0: 981915
Critical_ROB_Stalls_Percent_8_Bucket_1: 762907
Non-critical_ROB_Stalls_Percent_8_Bucket_1: 125572
Critical_ROB_Stalls_Percent_8_Bucket_2: 419567
Non-critical_ROB_Stalls_Percent_8_Bucket_2: 27560
Critical_ROB_Stalls_Percent_8_Bucket_3: 149197
Non-critical_ROB_Stalls_Percent_8_Bucket_3: 11493
Critical_ROB_Stalls_Percent_8_Bucket_4: 41613
Non-critical_ROB_Stalls_Percent_8_Bucket_4: 5366
Critical_ROB_Stalls_Percent_8_Bucket_5: 16561
Non-critical_ROB_Stalls_Percent_8_Bucket_5: 3118
Critical_ROB_Stalls_Percent_8_Bucket_6: 153962
Non-critical_ROB_Stalls_Percent_8_Bucket_6: 5177
Average ROB occupancy Load Stall Begin: 28.2292
Average ROB occupancy Load Stall End: 31.9324
Min ROB occupancy Load Stall Begin: 1
Max ROB occupancy Load Stall Begin: 352
Min ROB occupancy Load Stall End: 1
Max ROB occupancy Load Stall End: 352
Average ROB occupancy Critical Load Stall Begin: -nan
Average ROB occupancy Critical Load Stall End: -nan
Min ROB occupancy Critical Load Stall Begin: 400
Max ROB occupancy Critical Load Stall Begin: 0
Min ROB occupancy Critical Load Stall End: 400
Max ROB occupancy Critical Load Stall End: 0
 ROB Load Stall Begin Bucket Count 0: 10320474
 ROB Load Stall End Bucket Count 0: 10004477
 ROB Critical Load Stall Begin Bucket Count 0: 0
 ROB Critical Load Stall End Bucket Count 0: 0
 ROB Load Stall Begin Bucket Count 1: 639066
 ROB Load Stall End Bucket Count 1: 888479
 ROB Critical Load Stall Begin Bucket Count 1: 0
 ROB Critical Load Stall End Bucket Count 1: 0
 ROB Load Stall Begin Bucket Count 2: 409957
 ROB Load Stall End Bucket Count 2: 447127
 ROB Critical Load Stall Begin Bucket Count 2: 0
 ROB Critical Load Stall End Bucket Count 2: 0
 ROB Load Stall Begin Bucket Count 3: 140429
 ROB Load Stall End Bucket Count 3: 160690
 ROB Critical Load Stall Begin Bucket Count 3: 0
 ROB Critical Load Stall End Bucket Count 3: 0
 ROB Load Stall Begin Bucket Count 4: 41640
 ROB Load Stall End Bucket Count 4: 46979
 ROB Critical Load Stall Begin Bucket Count 4: 0
 ROB Critical Load Stall End Bucket Count 4: 0
 ROB Load Stall Begin Bucket Count 5: 17488
 ROB Load Stall End Bucket Count 5: 19679
 ROB Critical Load Stall Begin Bucket Count 5: 0
 ROB Critical Load Stall End Bucket Count 5: 0
 ROB Load Stall Begin Bucket Count 6: 157516
 ROB Load Stall End Bucket Count 6: 159139
 ROB Critical Load Stall Begin Bucket Count 6: 0
 ROB Critical Load Stall End Bucket Count 6: 0
PIST Tag Read Accesses: 3489486
PIST Read Accesses: 1744743
PIST Tag Write Accesses: 3489486
PIST Write Accesses: 1744743
Criticality detector called times: 10726070
Max global_stall_cycles_count: 2035743
Threshold Modified: 1 times, factor: -1
Sturdy critical IP cache stats: 
 Unused entries: 0
CIC Tag Read Accesses: 0
CIC Read Accesses: 0
CIC Tag Write Accesses: 0
CIC Write Accesses: 0
Wobbly critical IP cache stats: 
 Unused entries: 110
CIC Tag Read Accesses: 197099143
CIC Read Accesses: 0
CIC Tag Write Accesses: 328
CIC Write Accesses: 0
ITLB TOTAL     ACCESS:   16940412  HIT:   16940412  MISS:          0  HIT %:        100  MISS %:          0   MPKI: 0
ITLB LOAD TRANSLATION ACCESS:   16940412  HIT:   16940412  MISS:          0  HIT %:        100  MISS %:          0   MPKI: 0
ITLB PREFETCH  REQUESTED:          0  ISSUED:          0  USEFUL:          0  USELESS:          0
ITLB USEFUL LOAD PREFETCHES:          0 PREFETCH ISSUED TO LOWER LEVEL:          0  ACCURACY: -nan
ITLB TIMELY PREFETCHES:          0 LATE PREFETCHES: 0 DROPPED PREFETCHES: 0
ITLB PREFETCHES SAME FILL-ORIGIN LEVEL: 0 DIFFERENT FILL-ORIGIN LEVEL: 0
ITLB AVERAGE MISS LATENCY: -nan cycles
ITLB RQ	ACCESS:   19290316	FORWARD:          0	MERGED:    2349904	TO_CACHE:   16940412

DTLB TOTAL     ACCESS:   27925128  HIT:   27880960  MISS:      44168  HIT %:    99.8418  MISS %:   0.158166   MPKI: 0.44168
DTLB LOAD TRANSLATION ACCESS:   27925128  HIT:   27880960  MISS:      44168  HIT %:    99.8418  MISS %:   0.158166   MPKI: 0.44168
DTLB PREFETCH  REQUESTED:          0  ISSUED:          0  USEFUL:          0  USELESS:          0
DTLB USEFUL LOAD PREFETCHES:          0 PREFETCH ISSUED TO LOWER LEVEL:          0  ACCURACY: -nan
DTLB TIMELY PREFETCHES:          0 LATE PREFETCHES: 0 DROPPED PREFETCHES: 0
DTLB PREFETCHES SAME FILL-ORIGIN LEVEL: 0 DIFFERENT FILL-ORIGIN LEVEL: 0
DTLB AVERAGE MISS LATENCY: 9.47351 cycles
DTLB RQ	ACCESS:   31734880	FORWARD:          0	MERGED:    3808777	TO_CACHE:   27926103

STLB TOTAL     ACCESS:      44168  HIT:      44046  MISS:        122  HIT %:    99.7238  MISS %:   0.276218   MPKI: 0.00122
STLB LOAD TRANSLATION ACCESS:      44168  HIT:      44046  MISS:        122  HIT %:    99.7238  MISS %:   0.276218   MPKI: 0.00122
STLB PREFETCH  REQUESTED:          0  ISSUED:          0  USEFUL:          0  USELESS:          0
STLB USEFUL LOAD PREFETCHES:          0 PREFETCH ISSUED TO LOWER LEVEL:          0  ACCURACY: -nan
STLB TIMELY PREFETCHES:          0 LATE PREFETCHES: 0 DROPPED PREFETCHES: 0
STLB PREFETCHES SAME FILL-ORIGIN LEVEL: 0 DIFFERENT FILL-ORIGIN LEVEL: 0
STLB AVERAGE MISS LATENCY: 170.434 cycles
STLB RQ	ACCESS:      44168	FORWARD:          0	MERGED:          0	TO_CACHE:      44168

STLB Hit, L1D data hit: 0
STLB Hit, L2C data hit: 0
STLB Hit, LLC data hit: 0
STLB Hit, LLC data miss: 0
STLB STLB hints to L2: 0
L1D TOTAL     ACCESS:   31690992  HIT:   31426886  MISS:     264106  HIT %:    99.1666  MISS %:   0.833379   MPKI: 2.64106
L1D LOAD      ACCESS:   20313357  HIT:   20080439  MISS:     232918  HIT %:    98.8534  MISS %:    1.14662   MPKI: 2.32918
L1D RFO       ACCESS:   11377635  HIT:   11346447  MISS:      31188  HIT %:    99.7259  MISS %:   0.274117   MPKI: 0.31188
L1D PREFETCH  REQUESTED:          0  ISSUED:          0  USEFUL:          0  USELESS:          0
L1D USEFUL LOAD PREFETCHES:          0 PREFETCH ISSUED TO LOWER LEVEL:          0  ACCURACY: -nan
L1D TIMELY PREFETCHES:          0 LATE PREFETCHES: 0 DROPPED PREFETCHES: 0
L1D PREFETCHES SAME FILL-ORIGIN LEVEL: 0 DIFFERENT FILL-ORIGIN LEVEL: 0
L1D AVERAGE MISS LATENCY: 15.8901 cycles
L1D RQ	ACCESS:   26089682	FORWARD:          0	MERGED:    4595569	TO_CACHE:   20318101
L1D WQ	ACCESS:   11615694	FORWARD:    1176012	MERGED:     198915	TO_CACHE:   11416779

L1D UNIQUE REGIONS ACCESSED: 0
L1D REGIONS CONFLICTS: 0
L1D Cross Page Prefetch Requests: 0
L1D Same Page Prefetch Requests: 0
L1D ROI Sum of L1D PQ occupancy: 0
L1D PREFETCHES PUSHED FROM L2C: 0
L1I TOTAL     ACCESS:   19287958  HIT:   19281661  MISS:       6297  HIT %:    99.9674  MISS %:  0.0326473   MPKI: 0.06297
L1I LOAD      ACCESS:   19287958  HIT:   19281661  MISS:       6297  HIT %:    99.9674  MISS %:  0.0326473   MPKI: 0.06297
L1I PREFETCH  REQUESTED:          0  ISSUED:          0  USEFUL:          0  USELESS:          0
L1I USEFUL LOAD PREFETCHES:          0 PREFETCH ISSUED TO LOWER LEVEL:          0  ACCURACY: -nan
L1I TIMELY PREFETCHES:          0 LATE PREFETCHES: 0 DROPPED PREFETCHES: 0
L1I PREFETCHES SAME FILL-ORIGIN LEVEL: 0 DIFFERENT FILL-ORIGIN LEVEL: 0
L1I AVERAGE MISS LATENCY: 14.0381 cycles
L1I RQ	ACCESS:   27769940	FORWARD:          0	MERGED:    8479624	TO_CACHE:   19290316

BTB TOTAL     ACCESS:   15851744  HIT:   14674603  MISS:    1177141  HIT %:    92.5741  MISS %:    7.42594   MPKI: 11.7714
BTB BRANCH_DIRECT_JUMP	ACCESS:     546600  HIT:     546518  MISS:         82
BTB BRANCH_INDIRECT	ACCESS:        776  HIT:        703  MISS:         73
BTB BRANCH_CONDITIONAL	ACCESS:    9399016  HIT:    9398045  MISS:        971
BTB BRANCH_DIRECT_CALL	ACCESS:    2952676  HIT:    2952278  MISS:        398
BTB BRANCH_INDIRECT_CALL	ACCESS:          0  HIT:          0  MISS:          0
BTB BRANCH_RETURN	ACCESS:    2952676  HIT:    1777059  MISS:    1175617
BTB BRANCH_OTHER ACCESS:          0  HIT:          0  MISS:          0

L2C TOTAL     ACCESS:     396084  HIT:     393116  MISS:       2968  HIT %:    99.2507  MISS %:   0.749336   MPKI: 0.02968
L2C LOAD      ACCESS:     239214  HIT:     237305  MISS:       1909  HIT %:     99.202  MISS %:    0.79803   MPKI: 0.01909
L2C DATA LOAD MPKI: 0.01901
L2C INSTRUCTION LOAD MPKI: 8e-05
L2C RFO       ACCESS:      31183  HIT:      30512  MISS:        671  HIT %:    97.8482  MISS %:    2.15181   MPKI: 0.00671
L2C PREFETCH  ACCESS:      67497  HIT:      67165  MISS:        332  HIT %:    99.5081  MISS %:   0.491874   MPKI: 0.00332
L2C DATA PREFETCH MPKI: 0.00332
L2C INSTRUCTION PREFETCH MPKI: 0
L2C WRITEBACK ACCESS:      58068  HIT:      58054  MISS:         14  HIT %:    99.9759  MISS %:  0.0241097   MPKI: 0.00014
L2C LOAD TRANSLATION ACCESS:        122  HIT:         80  MISS:         42  HIT %:    65.5738  MISS %:    34.4262   MPKI: 0.00042
L2C PREFETCH  REQUESTED:      74328  ISSUED:      74328  USEFUL:        314  USELESS:         21
L2C USEFUL LOAD PREFETCHES:        314 PREFETCH ISSUED TO LOWER LEVEL:       7051  ACCURACY: 4.45327
L2C TIMELY PREFETCHES:        314 LATE PREFETCHES: 109 DROPPED PREFETCHES: 0
L2C PREFETCHES SAME FILL-ORIGIN LEVEL: 441 DIFFERENT FILL-ORIGIN LEVEL: 6610
L2C AVERAGE MISS LATENCY: 84.8868 cycles
L2C RQ	ACCESS:     270525	FORWARD:          0	MERGED:          0	TO_CACHE:     270519
L2C WQ	ACCESS:      58068	FORWARD:          6	MERGED:          0	TO_CACHE:      58068
L2C PQ	ACCESS:      74328	FORWARD:          0	MERGED:         95	TO_CACHE:      74233

L2C Instructions Evicting Data 6
L2C Translations Evicting Data 22
L2C Data Evicting Data 1642
L2C Instructions Evicting Instructions 2
L2C Translations Evicting Instructions 2
L2C Data Evicting Instructions 72
L2C Instructions Evicting Translations 0
L2C Translations Evicting Translations 0
L2C Data Evicting Translations 41
L2C Dense regions hint from L2: 0
PSCL5 TOTAL     ACCESS:        122  HIT:        122  MISS:          0  HIT %:        100  MISS %:          0   MPKI: 0
PSCL5 LOAD TRANSLATION ACCESS:        122  HIT:        122  MISS:          0  HIT %:        100  MISS %:          0   MPKI: 0
PSCL5 PREFETCH  REQUESTED:          0  ISSUED:          0  USEFUL:          0  USELESS:          0
PSCL5 USEFUL LOAD PREFETCHES:          0 PREFETCH ISSUED TO LOWER LEVEL:          0  ACCURACY: -nan
PSCL5 TIMELY PREFETCHES:          0 LATE PREFETCHES: 0 DROPPED PREFETCHES: 0
PSCL5 PREFETCHES SAME FILL-ORIGIN LEVEL: 0 DIFFERENT FILL-ORIGIN LEVEL: 0

PSCL4 TOTAL     ACCESS:        122  HIT:        122  MISS:          0  HIT %:        100  MISS %:          0   MPKI: 0
PSCL4 LOAD TRANSLATION ACCESS:        122  HIT:        122  MISS:          0  HIT %:        100  MISS %:          0   MPKI: 0
PSCL4 PREFETCH  REQUESTED:          0  ISSUED:          0  USEFUL:          0  USELESS:          0
PSCL4 USEFUL LOAD PREFETCHES:          0 PREFETCH ISSUED TO LOWER LEVEL:          0  ACCURACY: -nan
PSCL4 TIMELY PREFETCHES:          0 LATE PREFETCHES: 0 DROPPED PREFETCHES: 0
PSCL4 PREFETCHES SAME FILL-ORIGIN LEVEL: 0 DIFFERENT FILL-ORIGIN LEVEL: 0

PSCL3 TOTAL     ACCESS:        122  HIT:        122  MISS:          0  HIT %:        100  MISS %:          0   MPKI: 0
PSCL3 LOAD TRANSLATION ACCESS:        122  HIT:        122  MISS:          0  HIT %:        100  MISS %:          0   MPKI: 0
PSCL3 PREFETCH  REQUESTED:          0  ISSUED:          0  USEFUL:          0  USELESS:          0
PSCL3 USEFUL LOAD PREFETCHES:          0 PREFETCH ISSUED TO LOWER LEVEL:          0  ACCURACY: -nan
PSCL3 TIMELY PREFETCHES:          0 LATE PREFETCHES: 0 DROPPED PREFETCHES: 0
PSCL3 PREFETCHES SAME FILL-ORIGIN LEVEL: 0 DIFFERENT FILL-ORIGIN LEVEL: 0

PSCL2 TOTAL     ACCESS:        122  HIT:        122  MISS:          0  HIT %:        100  MISS %:          0   MPKI: 0
PSCL2 LOAD TRANSLATION ACCESS:        122  HIT:        122  MISS:          0  HIT %:        100  MISS %:          0   MPKI: 0
PSCL2 PREFETCH  REQUESTED:          0  ISSUED:          0  USEFUL:          0  USELESS:          0
PSCL2 USEFUL LOAD PREFETCHES:          0 PREFETCH ISSUED TO LOWER LEVEL:          0  ACCURACY: -nan
PSCL2 TIMELY PREFETCHES:          0 LATE PREFETCHES: 0 DROPPED PREFETCHES: 0
PSCL2 PREFETCHES SAME FILL-ORIGIN LEVEL: 0 DIFFERENT FILL-ORIGIN LEVEL: 0

LLC TOTAL     ACCESS:       9427  HIT:       7356  MISS:       2071  HIT %:    78.0312  MISS %:    21.9688   MPKI: 0.02071
LLC LOAD      ACCESS:       1800  HIT:       1180  MISS:        620  HIT %:    65.5556  MISS %:    34.4444   MPKI: 0.0062
LLC RFO       ACCESS:        671  HIT:         31  MISS:        640  HIT %:    4.61997  MISS %:      95.38   MPKI: 0.0064
LLC PREFETCH  ACCESS:       6589  HIT:       5810  MISS:        779  HIT %:    88.1773  MISS %:    11.8227   MPKI: 0.00779
LLC WRITEBACK ACCESS:        325  HIT:        325  MISS:          0  HIT %:        100  MISS %:          0   MPKI: 0
LLC LOAD TRANSLATION ACCESS:         42  HIT:         10  MISS:         32  HIT %:    23.8095  MISS %:    76.1905   MPKI: 0.00032
LLC PREFETCH  REQUESTED:          0  ISSUED:          0  USEFUL:        374  USELESS:          7
LLC USEFUL LOAD PREFETCHES:        374 PREFETCH ISSUED TO LOWER LEVEL:        792  ACCURACY: 47.2222
LLC TIMELY PREFETCHES:        374 LATE PREFETCHES: 13 DROPPED PREFETCHES: 0
LLC PREFETCHES SAME FILL-ORIGIN LEVEL: 779 DIFFERENT FILL-ORIGIN LEVEL: 0
LLC AVERAGE MISS LATENCY: 120.395 cycles
LLC RQ	ACCESS:       2513	FORWARD:          0	MERGED:          0	TO_CACHE:       2513
LLC WQ	ACCESS:        325	FORWARD:          0	MERGED:          0	TO_CACHE:        325
LLC PQ	ACCESS:       7051	FORWARD:          0	MERGED:          3	TO_CACHE:       7048

LLC Dense regions hint to LLC: 0

RAW hits: 794542
Loads Generated: 26884224
Loads sent to L1D: 26089682
Stores Generated: 11615691
Stores sent to L1D: 11615694
Major fault: 0 Minor fault: 639
Allocated PAGES: 639
 All Calls: 340498
 Critical Calls: 340498
------------------
Depth Distribution
------------------
depth 0: 0
depth 1: 105606
depth 2: 20401
depth 3: 11668
depth 4: 7873
depth 5: 5879
depth 6: 5118
depth 7: 4582
depth 8: 3460
depth 9: 2526
depth 10: 718
depth 11: 82
depth 12: 14
depth 13: 0
depth 14: 0
depth 15: 0
depth 16: 0
depth 17: 0
depth 18: 0
depth 19: 0
depth 20: 0
depth 21: 0
depth 22: 0
depth 23: 0
depth 24: 0
depth 25: 0
depth 26: 0
depth 27: 0
depth 28: 0
depth 29: 0
Total: 167927
-----------------------------
-----------------------------
	Captured at Filter
-----------------------------
depth 0: 0
depth 1: 47447
depth 2: 36069
depth 3: 18742
depth 4: 11904
depth 5: 9691
depth 6: 8184
depth 7: 6758
depth 8: 4559
depth 9: 2988
depth 10: 750
depth 11: 44
depth 12: 0
depth 13: 0
depth 14: 0
depth 15: 0
depth 16: 0
depth 17: 0
depth 18: 0
depth 19: 0
depth 20: 0
depth 21: 0
depth 22: 0
depth 23: 0
depth 24: 0
depth 25: 0
depth 26: 0
depth 27: 0
depth 28: 0
depth 29: 0
-----------------------------
-----------------------------
		Lost at Page
-----------------------------
depth 0: 0
depth 1: 8008
depth 2: 2165
depth 3: 1923
depth 4: 1742
depth 5: 1761
depth 6: 1833
depth 7: 1792
depth 8: 1428
depth 9: 1106
depth 10: 288
depth 11: 29
depth 12: 1
depth 13: 0
depth 14: 0
depth 15: 0
depth 16: 0
depth 17: 0
depth 18: 0
depth 19: 0
depth 20: 0
depth 21: 0
depth 22: 0
depth 23: 0
depth 24: 0
depth 25: 0
depth 26: 0
depth 27: 0
depth 28: 0
depth 29: 0
-----------------------------
-----------------------------
	Lost due to PQ Size
-----------------------------
65662
-----------------------------
ST read accesses: 231404
ST write accesses: 1513
PT read accesses: 2980211
PT write accesses: 337583
FILTER read accesses: 440095
FILTER write accesses: 10675
GHR read accesses: 65074
GHR write accesses: 8600
GHR counter read accesses: 2216862
GHR counter write accesses: 243564
ST tag read accesses: 85073530
ST tag write accesses: 6053322

DRAM Statistics
 CHANNEL 0
 RQ ROW_BUFFER_HIT:       1045  ROW_BUFFER_MISS:       1026
 DBUS_CONGESTED:          0
 WQ ROW_BUFFER_HIT:          0  ROW_BUFFER_MISS:          0  FULL:          0

 AVG_CONGESTED_CYCLE: -
 All warmup complete: 2
Channel 0 Bank busy for read cycles: 0
Channel 0 Bank busy for write cycles: 0
Channel 0
Rank 0
0banks busy for read cycles: 266048578
0banks busy for write cycles: 0
1banks busy for read cycles: 156732
1banks busy for write cycles: 0
2banks busy for read cycles: 7921
2banks busy for write cycles: 0
3banks busy for read cycles: 3594
3banks busy for write cycles: 0
4banks busy for read cycles: 1706
4banks busy for write cycles: 0
5banks busy for read cycles: 865
5banks busy for write cycles: 0
6banks busy for read cycles: 768
6banks busy for write cycles: 0
7banks busy for read cycles: 265
7banks busy for write cycles: 0
8banks busy for read cycles: 648
8banks busy for write cycles: 0

CPU 0 Branch Prediction Accuracy: 93.2052% MPKI: 11.3866 Average ROB Occupancy at Mispredict: 22.5716
Branch types
NOT_BRANCH: 83241771 83.2418%
BRANCH_DIRECT_JUMP: 546600 0.5466%
BRANCH_INDIRECT: 776 0.000776%
BRANCH_CONDITIONAL: 10305170 10.3052%
BRANCH_DIRECT_CALL: 2952676 2.95268%
BRANCH_INDIRECT_CALL: 0 0%
BRANCH_RETURN: 2952676 2.95268%
BRANCH_OTHER: 0 0%

DRAM PAGES: 1048576
Allocated PAGES: 639
