
*** ChampSim Multicore Out-of-Order Simulator ***

Warmup Instructions: 50000000
Simulation Instructions: 100000000
Number of CPUs: 1
LLC sets: 2048
LLC ways: 16
Off-chip DRAM Size: 4096 MB Channels: 1 Width: 64-bit Data Rate: 6400 MT/s
CPU 0 runs ../SPEC2017//641.leela_s-1083B.champsimtrace.xz
.xz
BTB has LRU replacement policy
ITLB has LRU replacement policy
DTLB has LRU replacement policy
STLB has LRU replacement policy
L1I has LRU replacement policy
IP Table Entries: 64
L1D has LRU replacement policy
Initialize SRRIP state for L2C
Initialize DRRIP state for LLC
Heartbeat CPU 0 instructions: 10000000 cycles: 3153005 heartbeat IPC: 3.17158 cumulative IPC: 3.17158 (Simulation time: 0 hr 4 min 20 sec) 
Heartbeat CPU 0 instructions: 20000000 cycles: 6314837 heartbeat IPC: 3.16272 cumulative IPC: 3.16714 (Simulation time: 0 hr 7 min 55 sec) 
Heartbeat CPU 0 instructions: 30000003 cycles: 9487614 heartbeat IPC: 3.15181 cumulative IPC: 3.16202 (Simulation time: 0 hr 11 min 24 sec) 
Heartbeat CPU 0 instructions: 40000003 cycles: 12645520 heartbeat IPC: 3.16666 cumulative IPC: 3.16318 (Simulation time: 0 hr 14 min 56 sec) 
Heartbeat CPU 0 instructions: 50000003 cycles: 15802506 heartbeat IPC: 3.16758 cumulative IPC: 3.16406 (Simulation time: 0 hr 18 min 22 sec) 

Warmup complete CPU 0 instructions: 50000003 cycles: 15802506 (Simulation time: 0 hr 18 min 22 sec) 

Heartbeat CPU 0 instructions: 60000002 cycles: 42395857 heartbeat IPC: 0.376034 cumulative IPC: 0.376034 (Simulation time: 0 hr 21 min 36 sec) 
Heartbeat CPU 0 instructions: 70000002 cycles: 69212875 heartbeat IPC: 0.372898 cumulative IPC: 0.374459 (Simulation time: 0 hr 24 min 47 sec) 
Heartbeat CPU 0 instructions: 80000000 cycles: 95684035 heartbeat IPC: 0.37777 cumulative IPC: 0.375556 (Simulation time: 0 hr 27 min 57 sec) 
Heartbeat CPU 0 instructions: 90000003 cycles: 122855666 heartbeat IPC: 0.368031 cumulative IPC: 0.373646 (Simulation time: 0 hr 31 min 8 sec) 
Heartbeat CPU 0 instructions: 100000002 cycles: 149708929 heartbeat IPC: 0.372394 cumulative IPC: 0.373395 (Simulation time: 0 hr 34 min 23 sec) 
Heartbeat CPU 0 instructions: 110000000 cycles: 176038590 heartbeat IPC: 0.3798 cumulative IPC: 0.374447 (Simulation time: 0 hr 37 min 42 sec) 
Heartbeat CPU 0 instructions: 120000000 cycles: 202280016 heartbeat IPC: 0.381077 cumulative IPC: 0.37538 (Simulation time: 0 hr 40 min 57 sec) 
Heartbeat CPU 0 instructions: 130000001 cycles: 228926060 heartbeat IPC: 0.37529 cumulative IPC: 0.375369 (Simulation time: 0 hr 44 min 8 sec) 
Heartbeat CPU 0 instructions: 140000000 cycles: 255636454 heartbeat IPC: 0.374386 cumulative IPC: 0.37526 (Simulation time: 0 hr 47 min 20 sec) 
Heartbeat CPU 0 instructions: 150000000 cycles: 282097995 heartbeat IPC: 0.377907 cumulative IPC: 0.375523 (Simulation time: 0 hr 50 min 26 sec) 
Finished CPU 0 instructions: 100000002 cycles: 266295492 cumulative IPC: 0.375523 (Simulation time: 0 hr 50 min 26 sec) 

ChampSim completed all CPUs

Region of Interest Statistics

CPU 0 cumulative IPC: 0.375523 instructions: 100000002 cycles: 266295492

CPU 0 Average Load ROB stall cycles: 5.5838e+07
CPU 0 Fraction of times ROB stalled by Loads: 37.4674
CPU 0 Percentage of Load stall cycles in Total stall cycles: 8.09881e+08
Issued all: 55101689
Issued LT all: 43635232
rob_not_full_when_issued_lt_all: 40840514
Issued LT one: 33027911
rob_not_full_when_issued_lt_one: 30422491
HPCA_2009 critical_dynamic_instances_0: 4799894
HPCA_2009 unique_critical_ips_0: 1398
multiple_destinations_0: 0
load_to_same_dest_0: 0
low_issue_rate_0: 33691650
total_issue_rate_checked_count_0: 37704991
 Total stall cycles: 215792650
 Total load stall cycles: 1747664150181001
Unique Load IPs: 1213
CPU 0 NUM of IPS identified critical: 0
CPU 0 Num of Load IPs stalling ROB: 0
Threshold modification factor: 0
Trouble in retire width: -nan
MaC = Marked as critical.
lt_50_percent_before_Mac: 0
gt_90_percent_before_Mac: 0
gt_75_percent_before_Mac: 0
gt_50_percent_before_Mac: 0
stall_proportion_bin_same_before_after: 0
stall_proportion_bin_lower_before_after: 0
stall_proportion_bin_upper_before_after: 0
average_stall_proportion_before: -nan
average_stall_proportion_after: -nan
Critical IP stalls, total frequency: 0
Non-critical IP stalls, total frequency: 0
Total Freq all stalling IPs: 0
Critical_IP_Detector_Accuracy_70: 0.000715308
Critical_IP_Detector_Accuracy_80: 0.000715308
Critical_IP_Detector_Accuracy_90: 0.000715308
Critical_IP_Detector_Coverage_70: 1
Critical_IP_Detector_Coverage_80: 1
Critical_IP_Detector_Coverage_90: 1
stat_90_percent_critical_ip_stalls_freq: 242474
stat_90_percent_non_critical_ip_stalls_freq: 18446744073709309142
AVERAGE_ROB_Occupancy_90_Percent_Critical_IP_Stalls: 6.13152
AVERAGE_ROB_Occupancy_90_Percent_Non_Critical_IP_Stalls: 2.02314e-11
Critical_IP_ROB_Stalls_Bucket_0: 0
Non-critical_IP_ROB_Stalls_Bucket_0: 10003914
Critical_IP_ROB_Stalls_Bucket_1: 0
Non-critical_IP_ROB_Stalls_Bucket_1: 888490
Critical_IP_ROB_Stalls_Bucket_2: 0
Non-critical_IP_ROB_Stalls_Bucket_2: 447266
Critical_IP_ROB_Stalls_Bucket_3: 0
Non-critical_IP_ROB_Stalls_Bucket_3: 160799
Critical_IP_ROB_Stalls_Bucket_4: 0
Non-critical_IP_ROB_Stalls_Bucket_4: 46988
Critical_IP_ROB_Stalls_Bucket_5: 0
Non-critical_IP_ROB_Stalls_Bucket_5: 19692
Critical_IP_ROB_Stalls_Bucket_6: 0
Non-critical_IP_ROB_Stalls_Bucket_6: 159728
0 => IPs accounting for >50 percent of stalls, 1 => 55, 2 => 60, 3 => 65 and so on till 90.
percent50: inf num IPs:  1
percent55: inf num IPs: 1
percent60: inf num IPs: 1
percent65: inf num IPs: 1
percent70: inf num IPs: 1
percent75: inf num IPs: 1
percent80: inf num IPs: 1
percent85: inf num IPs: 1
percent90: inf num IPs: 1
Critical_ROB_Stalls_Percent_0_Bucket_0: 240121
Non-critical_ROB_Stalls_Percent_0_Bucket_0: 9763793
Critical_ROB_Stalls_Percent_0_Bucket_1: 2169
Non-critical_ROB_Stalls_Percent_0_Bucket_1: 886321
Critical_ROB_Stalls_Percent_0_Bucket_2: 127
Non-critical_ROB_Stalls_Percent_0_Bucket_2: 447139
Critical_ROB_Stalls_Percent_0_Bucket_3: 49
Non-critical_ROB_Stalls_Percent_0_Bucket_3: 160750
Critical_ROB_Stalls_Percent_0_Bucket_4: 7
Non-critical_ROB_Stalls_Percent_0_Bucket_4: 46981
Critical_ROB_Stalls_Percent_0_Bucket_5: 0
Non-critical_ROB_Stalls_Percent_0_Bucket_5: 19692
Critical_ROB_Stalls_Percent_0_Bucket_6: 1
Non-critical_ROB_Stalls_Percent_0_Bucket_6: 159727
Critical_ROB_Stalls_Percent_1_Bucket_0: 240121
Non-critical_ROB_Stalls_Percent_1_Bucket_0: 9763793
Critical_ROB_Stalls_Percent_1_Bucket_1: 2169
Non-critical_ROB_Stalls_Percent_1_Bucket_1: 886321
Critical_ROB_Stalls_Percent_1_Bucket_2: 127
Non-critical_ROB_Stalls_Percent_1_Bucket_2: 447139
Critical_ROB_Stalls_Percent_1_Bucket_3: 49
Non-critical_ROB_Stalls_Percent_1_Bucket_3: 160750
Critical_ROB_Stalls_Percent_1_Bucket_4: 7
Non-critical_ROB_Stalls_Percent_1_Bucket_4: 46981
Critical_ROB_Stalls_Percent_1_Bucket_5: 0
Non-critical_ROB_Stalls_Percent_1_Bucket_5: 19692
Critical_ROB_Stalls_Percent_1_Bucket_6: 1
Non-critical_ROB_Stalls_Percent_1_Bucket_6: 159727
Critical_ROB_Stalls_Percent_2_Bucket_0: 240121
Non-critical_ROB_Stalls_Percent_2_Bucket_0: 9763793
Critical_ROB_Stalls_Percent_2_Bucket_1: 2169
Non-critical_ROB_Stalls_Percent_2_Bucket_1: 886321
Critical_ROB_Stalls_Percent_2_Bucket_2: 127
Non-critical_ROB_Stalls_Percent_2_Bucket_2: 447139
Critical_ROB_Stalls_Percent_2_Bucket_3: 49
Non-critical_ROB_Stalls_Percent_2_Bucket_3: 160750
Critical_ROB_Stalls_Percent_2_Bucket_4: 7
Non-critical_ROB_Stalls_Percent_2_Bucket_4: 46981
Critical_ROB_Stalls_Percent_2_Bucket_5: 0
Non-critical_ROB_Stalls_Percent_2_Bucket_5: 19692
Critical_ROB_Stalls_Percent_2_Bucket_6: 1
Non-critical_ROB_Stalls_Percent_2_Bucket_6: 159727
Critical_ROB_Stalls_Percent_3_Bucket_0: 240121
Non-critical_ROB_Stalls_Percent_3_Bucket_0: 9763793
Critical_ROB_Stalls_Percent_3_Bucket_1: 2169
Non-critical_ROB_Stalls_Percent_3_Bucket_1: 886321
Critical_ROB_Stalls_Percent_3_Bucket_2: 127
Non-critical_ROB_Stalls_Percent_3_Bucket_2: 447139
Critical_ROB_Stalls_Percent_3_Bucket_3: 49
Non-critical_ROB_Stalls_Percent_3_Bucket_3: 160750
Critical_ROB_Stalls_Percent_3_Bucket_4: 7
Non-critical_ROB_Stalls_Percent_3_Bucket_4: 46981
Critical_ROB_Stalls_Percent_3_Bucket_5: 0
Non-critical_ROB_Stalls_Percent_3_Bucket_5: 19692
Critical_ROB_Stalls_Percent_3_Bucket_6: 1
Non-critical_ROB_Stalls_Percent_3_Bucket_6: 159727
Critical_ROB_Stalls_Percent_4_Bucket_0: 240121
Non-critical_ROB_Stalls_Percent_4_Bucket_0: 9763793
Critical_ROB_Stalls_Percent_4_Bucket_1: 2169
Non-critical_ROB_Stalls_Percent_4_Bucket_1: 886321
Critical_ROB_Stalls_Percent_4_Bucket_2: 127
Non-critical_ROB_Stalls_Percent_4_Bucket_2: 447139
Critical_ROB_Stalls_Percent_4_Bucket_3: 49
Non-critical_ROB_Stalls_Percent_4_Bucket_3: 160750
Critical_ROB_Stalls_Percent_4_Bucket_4: 7
Non-critical_ROB_Stalls_Percent_4_Bucket_4: 46981
Critical_ROB_Stalls_Percent_4_Bucket_5: 0
Non-critical_ROB_Stalls_Percent_4_Bucket_5: 19692
Critical_ROB_Stalls_Percent_4_Bucket_6: 1
Non-critical_ROB_Stalls_Percent_4_Bucket_6: 159727
Critical_ROB_Stalls_Percent_5_Bucket_0: 240121
Non-critical_ROB_Stalls_Percent_5_Bucket_0: 9763793
Critical_ROB_Stalls_Percent_5_Bucket_1: 2169
Non-critical_ROB_Stalls_Percent_5_Bucket_1: 886321
Critical_ROB_Stalls_Percent_5_Bucket_2: 127
Non-critical_ROB_Stalls_Percent_5_Bucket_2: 447139
Critical_ROB_Stalls_Percent_5_Bucket_3: 49
Non-critical_ROB_Stalls_Percent_5_Bucket_3: 160750
Critical_ROB_Stalls_Percent_5_Bucket_4: 7
Non-critical_ROB_Stalls_Percent_5_Bucket_4: 46981
Critical_ROB_Stalls_Percent_5_Bucket_5: 0
Non-critical_ROB_Stalls_Percent_5_Bucket_5: 19692
Critical_ROB_Stalls_Percent_5_Bucket_6: 1
Non-critical_ROB_Stalls_Percent_5_Bucket_6: 159727
Critical_ROB_Stalls_Percent_6_Bucket_0: 240121
Non-critical_ROB_Stalls_Percent_6_Bucket_0: 9763793
Critical_ROB_Stalls_Percent_6_Bucket_1: 2169
Non-critical_ROB_Stalls_Percent_6_Bucket_1: 886321
Critical_ROB_Stalls_Percent_6_Bucket_2: 127
Non-critical_ROB_Stalls_Percent_6_Bucket_2: 447139
Critical_ROB_Stalls_Percent_6_Bucket_3: 49
Non-critical_ROB_Stalls_Percent_6_Bucket_3: 160750
Critical_ROB_Stalls_Percent_6_Bucket_4: 7
Non-critical_ROB_Stalls_Percent_6_Bucket_4: 46981
Critical_ROB_Stalls_Percent_6_Bucket_5: 0
Non-critical_ROB_Stalls_Percent_6_Bucket_5: 19692
Critical_ROB_Stalls_Percent_6_Bucket_6: 1
Non-critical_ROB_Stalls_Percent_6_Bucket_6: 159727
Critical_ROB_Stalls_Percent_7_Bucket_0: 240121
Non-critical_ROB_Stalls_Percent_7_Bucket_0: 9763793
Critical_ROB_Stalls_Percent_7_Bucket_1: 2169
Non-critical_ROB_Stalls_Percent_7_Bucket_1: 886321
Critical_ROB_Stalls_Percent_7_Bucket_2: 127
Non-critical_ROB_Stalls_Percent_7_Bucket_2: 447139
Critical_ROB_Stalls_Percent_7_Bucket_3: 49
Non-critical_ROB_Stalls_Percent_7_Bucket_3: 160750
Critical_ROB_Stalls_Percent_7_Bucket_4: 7
Non-critical_ROB_Stalls_Percent_7_Bucket_4: 46981
Critical_ROB_Stalls_Percent_7_Bucket_5: 0
Non-critical_ROB_Stalls_Percent_7_Bucket_5: 19692
Critical_ROB_Stalls_Percent_7_Bucket_6: 1
Non-critical_ROB_Stalls_Percent_7_Bucket_6: 159727
Critical_ROB_Stalls_Percent_8_Bucket_0: 240121
Non-critical_ROB_Stalls_Percent_8_Bucket_0: 9763793
Critical_ROB_Stalls_Percent_8_Bucket_1: 2169
Non-critical_ROB_Stalls_Percent_8_Bucket_1: 886321
Critical_ROB_Stalls_Percent_8_Bucket_2: 127
Non-critical_ROB_Stalls_Percent_8_Bucket_2: 447139
Critical_ROB_Stalls_Percent_8_Bucket_3: 49
Non-critical_ROB_Stalls_Percent_8_Bucket_3: 160750
Critical_ROB_Stalls_Percent_8_Bucket_4: 7
Non-critical_ROB_Stalls_Percent_8_Bucket_4: 46981
Critical_ROB_Stalls_Percent_8_Bucket_5: 0
Non-critical_ROB_Stalls_Percent_8_Bucket_5: 19692
Critical_ROB_Stalls_Percent_8_Bucket_6: 1
Non-critical_ROB_Stalls_Percent_8_Bucket_6: 159727
Average ROB occupancy Load Stall Begin: 28.2481
Average ROB occupancy Load Stall End: 31.9514
Min ROB occupancy Load Stall Begin: 1
Max ROB occupancy Load Stall Begin: 352
Min ROB occupancy Load Stall End: 1
Max ROB occupancy Load Stall End: 352
Average ROB occupancy Critical Load Stall Begin: -nan
Average ROB occupancy Critical Load Stall End: -nan
Min ROB occupancy Critical Load Stall Begin: 400
Max ROB occupancy Critical Load Stall Begin: 0
Min ROB occupancy Critical Load Stall End: 400
Max ROB occupancy Critical Load Stall End: 0
 ROB Load Stall Begin Bucket Count 0: 10319922
 ROB Load Stall End Bucket Count 0: 10003914
 ROB Critical Load Stall Begin Bucket Count 0: 0
 ROB Critical Load Stall End Bucket Count 0: 0
 ROB Load Stall Begin Bucket Count 1: 639136
 ROB Load Stall End Bucket Count 1: 888490
 ROB Critical Load Stall Begin Bucket Count 1: 0
 ROB Critical Load Stall End Bucket Count 1: 0
 ROB Load Stall Begin Bucket Count 2: 410033
 ROB Load Stall End Bucket Count 2: 447266
 ROB Critical Load Stall Begin Bucket Count 2: 0
 ROB Critical Load Stall End Bucket Count 2: 0
 ROB Load Stall Begin Bucket Count 3: 140527
 ROB Load Stall End Bucket Count 3: 160799
 ROB Critical Load Stall Begin Bucket Count 3: 0
 ROB Critical Load Stall End Bucket Count 3: 0
 ROB Load Stall Begin Bucket Count 4: 41683
 ROB Load Stall End Bucket Count 4: 46988
 ROB Critical Load Stall Begin Bucket Count 4: 0
 ROB Critical Load Stall End Bucket Count 4: 0
 ROB Load Stall Begin Bucket Count 5: 17503
 ROB Load Stall End Bucket Count 5: 19692
 ROB Critical Load Stall Begin Bucket Count 5: 0
 ROB Critical Load Stall End Bucket Count 5: 0
 ROB Load Stall Begin Bucket Count 6: 158073
 ROB Load Stall End Bucket Count 6: 159728
 ROB Critical Load Stall Begin Bucket Count 6: 0
 ROB Critical Load Stall End Bucket Count 6: 0
PIST Tag Read Accesses: 0
PIST Read Accesses: 0
PIST Tag Write Accesses: 0
PIST Write Accesses: 0
Criticality detector called times: 0
Max global_stall_cycles_count: 0
Threshold Modified: 0 times, factor: 0
ITLB TOTAL     ACCESS:   16940649  HIT:   16940649  MISS:          0  HIT %:        100  MISS %:          0   MPKI: 0
ITLB LOAD TRANSLATION ACCESS:   16940649  HIT:   16940649  MISS:          0  HIT %:        100  MISS %:          0   MPKI: 0
ITLB PREFETCH  REQUESTED:          0  ISSUED:          0  USEFUL:          0  USELESS:          0
ITLB USEFUL LOAD PREFETCHES:          0 PREFETCH ISSUED TO LOWER LEVEL:          0  ACCURACY: -nan
ITLB TIMELY PREFETCHES:          0 LATE PREFETCHES: 0 DROPPED PREFETCHES: 0
ITLB PREFETCHES SAME FILL-ORIGIN LEVEL: 0 DIFFERENT FILL-ORIGIN LEVEL: 0
ITLB AVERAGE MISS LATENCY: -nan cycles
ITLB RQ	ACCESS:   19290458	FORWARD:          0	MERGED:    2349809	TO_CACHE:   16940649

DTLB TOTAL     ACCESS:   27925230  HIT:   27881062  MISS:      44168  HIT %:    99.8418  MISS %:   0.158165   MPKI: 0.44168
DTLB LOAD TRANSLATION ACCESS:   27925230  HIT:   27881062  MISS:      44168  HIT %:    99.8418  MISS %:   0.158165   MPKI: 0.44168
DTLB PREFETCH  REQUESTED:          0  ISSUED:          0  USEFUL:          0  USELESS:          0
DTLB USEFUL LOAD PREFETCHES:          0 PREFETCH ISSUED TO LOWER LEVEL:          0  ACCURACY: -nan
DTLB TIMELY PREFETCHES:          0 LATE PREFETCHES: 0 DROPPED PREFETCHES: 0
DTLB PREFETCHES SAME FILL-ORIGIN LEVEL: 0 DIFFERENT FILL-ORIGIN LEVEL: 0
DTLB AVERAGE MISS LATENCY: 9.47057 cycles
DTLB RQ	ACCESS:   31734678	FORWARD:          0	MERGED:    3808473	TO_CACHE:   27926205

STLB TOTAL     ACCESS:     111426  HIT:     111304  MISS:        122  HIT %:    99.8905  MISS %:    0.10949   MPKI: 0.00122
STLB LOAD TRANSLATION ACCESS:      44168  HIT:      44046  MISS:        122  HIT %:    99.7238  MISS %:   0.276218   MPKI: 0.00122
STLB TRANSLATION FROM L1D PREFETCHER ACCESS:      67258  HIT:      67258  MISS:          0  HIT %:        100  MISS %:          0   MPKI: 0
STLB PREFETCH  REQUESTED:          0  ISSUED:          0  USEFUL:          0  USELESS:          0
STLB USEFUL LOAD PREFETCHES:          0 PREFETCH ISSUED TO LOWER LEVEL:          0  ACCURACY: -nan
STLB TIMELY PREFETCHES:          0 LATE PREFETCHES: 0 DROPPED PREFETCHES: 0
STLB PREFETCHES SAME FILL-ORIGIN LEVEL: 0 DIFFERENT FILL-ORIGIN LEVEL: 0
STLB AVERAGE MISS LATENCY: 169.369 cycles
STLB RQ	ACCESS:     141804	FORWARD:          0	MERGED:      30378	TO_CACHE:     111426

STLB Hit, L1D data hit: 0
STLB Hit, L2C data hit: 0
STLB Hit, LLC data hit: 0
STLB Hit, LLC data miss: 0
STLB STLB hints to L2: 0
L1D TOTAL     ACCESS:   31788069  HIT:   31517838  MISS:     270231  HIT %:    99.1499  MISS %:   0.850102   MPKI: 2.70231
L1D LOAD      ACCESS:   20313168  HIT:   20080099  MISS:     233069  HIT %:    98.8526  MISS %:    1.14738   MPKI: 2.33069
L1D RFO       ACCESS:   11377625  HIT:   11346605  MISS:      31020  HIT %:    99.7274  MISS %:    0.27264   MPKI: 0.3102
L1D PREFETCH  ACCESS:      97276  HIT:      91134  MISS:       6142  HIT %:     93.686  MISS %:    6.31399   MPKI: 0.06142
L1D PREFETCH  REQUESTED:     195414  ISSUED:     195272  USEFUL:       2328  USELESS:       3808
L1D USEFUL LOAD PREFETCHES:       2328 PREFETCH ISSUED TO LOWER LEVEL:       6278  ACCURACY: 37.0819
L1D TIMELY PREFETCHES:       2328 LATE PREFETCHES: 135 DROPPED PREFETCHES: 0
L1D PREFETCHES SAME FILL-ORIGIN LEVEL: 6278 DIFFERENT FILL-ORIGIN LEVEL: 0
L1D AVERAGE MISS LATENCY: 72894.3 cycles
L1D RQ	ACCESS:   26089297	FORWARD:          0	MERGED:    4595689	TO_CACHE:   20317911
L1D WQ	ACCESS:   11615694	FORWARD:    1175697	MERGED:     198927	TO_CACHE:   11416767
L1D PQ	ACCESS:      97636	FORWARD:          0	MERGED:          0	TO_CACHE:      97636

L1D UNIQUE REGIONS ACCESSED: 0
L1D REGIONS CONFLICTS: 0
L1D Cross Page Prefetch Requests: 0
L1D Same Page Prefetch Requests: 97863
L1D ROI Sum of L1D PQ occupancy: 1279709
L1D PREFETCHES PUSHED FROM L2C: 0
L1I TOTAL     ACCESS:   19288100  HIT:   19281803  MISS:       6297  HIT %:    99.9674  MISS %:  0.0326471   MPKI: 0.06297
L1I LOAD      ACCESS:   19288100  HIT:   19281803  MISS:       6297  HIT %:    99.9674  MISS %:  0.0326471   MPKI: 0.06297
L1I PREFETCH  REQUESTED:          0  ISSUED:          0  USEFUL:          0  USELESS:          0
L1I USEFUL LOAD PREFETCHES:          0 PREFETCH ISSUED TO LOWER LEVEL:          0  ACCURACY: -nan
L1I TIMELY PREFETCHES:          0 LATE PREFETCHES: 0 DROPPED PREFETCHES: 0
L1I PREFETCHES SAME FILL-ORIGIN LEVEL: 0 DIFFERENT FILL-ORIGIN LEVEL: 0
L1I AVERAGE MISS LATENCY: 14.0191 cycles
L1I RQ	ACCESS:   27770547	FORWARD:          0	MERGED:    8480089	TO_CACHE:   19290458

BTB TOTAL     ACCESS:   15851744  HIT:   14674603  MISS:    1177141  HIT %:    92.5741  MISS %:    7.42594   MPKI: 11.7714
BTB BRANCH_DIRECT_JUMP	ACCESS:     546600  HIT:     546518  MISS:         82
BTB BRANCH_INDIRECT	ACCESS:        776  HIT:        703  MISS:         73
BTB BRANCH_CONDITIONAL	ACCESS:    9399016  HIT:    9398045  MISS:        971
BTB BRANCH_DIRECT_CALL	ACCESS:    2952676  HIT:    2952278  MISS:        398
BTB BRANCH_INDIRECT_CALL	ACCESS:          0  HIT:          0  MISS:          0
BTB BRANCH_RETURN	ACCESS:    2952676  HIT:    1777059  MISS:    1175617
BTB BRANCH_OTHER ACCESS:          0  HIT:          0  MISS:          0

L2C TOTAL     ACCESS:     334895  HIT:     331127  MISS:       3768  HIT %:    98.8749  MISS %:    1.12513   MPKI: 0.03768
L2C LOAD      ACCESS:     239230  HIT:     236968  MISS:       2262  HIT %:    99.0545  MISS %:   0.945534   MPKI: 0.02262
L2C DATA LOAD MPKI: 0.02258
L2C INSTRUCTION LOAD MPKI: 4e-05
L2C RFO       ACCESS:      31014  HIT:      30385  MISS:        629  HIT %:    97.9719  MISS %:    2.02812   MPKI: 0.00629
L2C PREFETCH  ACCESS:       6278  HIT:       5460  MISS:        818  HIT %:    86.9704  MISS %:    13.0296   MPKI: 0.00818
L2C DATA PREFETCH MPKI: 0.00818
L2C INSTRUCTION PREFETCH MPKI: 0
L2C WRITEBACK ACCESS:      58251  HIT:      58233  MISS:         18  HIT %:    99.9691  MISS %:  0.0309008   MPKI: 0.00018
L2C LOAD TRANSLATION ACCESS:        122  HIT:         81  MISS:         41  HIT %:    66.3934  MISS %:    33.6066   MPKI: 0.00041
L2C PREFETCH  REQUESTED:          0  ISSUED:          0  USEFUL:         94  USELESS:        196
L2C USEFUL LOAD PREFETCHES:         94 PREFETCH ISSUED TO LOWER LEVEL:        818  ACCURACY: 11.4914
L2C TIMELY PREFETCHES:         94 LATE PREFETCHES: 0 DROPPED PREFETCHES: 0
L2C PREFETCHES SAME FILL-ORIGIN LEVEL: 0 DIFFERENT FILL-ORIGIN LEVEL: 0
L2C AVERAGE MISS LATENCY: 120.452 cycles
L2C RQ	ACCESS:     270372	FORWARD:          0	MERGED:          0	TO_CACHE:     270366
L2C WQ	ACCESS:      58251	FORWARD:          6	MERGED:          0	TO_CACHE:      58251
L2C PQ	ACCESS:       6278	FORWARD:          0	MERGED:          0	TO_CACHE:       6278

L2C Instructions Evicting Data 4
L2C Translations Evicting Data 21
L2C Data Evicting Data 2027
L2C Instructions Evicting Instructions 0
L2C Translations Evicting Instructions 2
L2C Data Evicting Instructions 111
L2C Instructions Evicting Translations 0
L2C Translations Evicting Translations 0
L2C Data Evicting Translations 44
L2C Dense regions hint from L2: 0
PSCL5 TOTAL     ACCESS:        122  HIT:        122  MISS:          0  HIT %:        100  MISS %:          0   MPKI: 0
PSCL5 LOAD TRANSLATION ACCESS:        122  HIT:        122  MISS:          0  HIT %:        100  MISS %:          0   MPKI: 0
PSCL5 PREFETCH  REQUESTED:          0  ISSUED:          0  USEFUL:          0  USELESS:          0
PSCL5 USEFUL LOAD PREFETCHES:          0 PREFETCH ISSUED TO LOWER LEVEL:          0  ACCURACY: -nan
PSCL5 TIMELY PREFETCHES:          0 LATE PREFETCHES: 0 DROPPED PREFETCHES: 0
PSCL5 PREFETCHES SAME FILL-ORIGIN LEVEL: 0 DIFFERENT FILL-ORIGIN LEVEL: 0

PSCL4 TOTAL     ACCESS:        122  HIT:        122  MISS:          0  HIT %:        100  MISS %:          0   MPKI: 0
PSCL4 LOAD TRANSLATION ACCESS:        122  HIT:        122  MISS:          0  HIT %:        100  MISS %:          0   MPKI: 0
PSCL4 PREFETCH  REQUESTED:          0  ISSUED:          0  USEFUL:          0  USELESS:          0
PSCL4 USEFUL LOAD PREFETCHES:          0 PREFETCH ISSUED TO LOWER LEVEL:          0  ACCURACY: -nan
PSCL4 TIMELY PREFETCHES:          0 LATE PREFETCHES: 0 DROPPED PREFETCHES: 0
PSCL4 PREFETCHES SAME FILL-ORIGIN LEVEL: 0 DIFFERENT FILL-ORIGIN LEVEL: 0

PSCL3 TOTAL     ACCESS:        122  HIT:        122  MISS:          0  HIT %:        100  MISS %:          0   MPKI: 0
PSCL3 LOAD TRANSLATION ACCESS:        122  HIT:        122  MISS:          0  HIT %:        100  MISS %:          0   MPKI: 0
PSCL3 PREFETCH  REQUESTED:          0  ISSUED:          0  USEFUL:          0  USELESS:          0
PSCL3 USEFUL LOAD PREFETCHES:          0 PREFETCH ISSUED TO LOWER LEVEL:          0  ACCURACY: -nan
PSCL3 TIMELY PREFETCHES:          0 LATE PREFETCHES: 0 DROPPED PREFETCHES: 0
PSCL3 PREFETCHES SAME FILL-ORIGIN LEVEL: 0 DIFFERENT FILL-ORIGIN LEVEL: 0

PSCL2 TOTAL     ACCESS:        122  HIT:        122  MISS:          0  HIT %:        100  MISS %:          0   MPKI: 0
PSCL2 LOAD TRANSLATION ACCESS:        122  HIT:        122  MISS:          0  HIT %:        100  MISS %:          0   MPKI: 0
PSCL2 PREFETCH  REQUESTED:          0  ISSUED:          0  USEFUL:          0  USELESS:          0
PSCL2 USEFUL LOAD PREFETCHES:          0 PREFETCH ISSUED TO LOWER LEVEL:          0  ACCURACY: -nan
PSCL2 TIMELY PREFETCHES:          0 LATE PREFETCHES: 0 DROPPED PREFETCHES: 0
PSCL2 PREFETCHES SAME FILL-ORIGIN LEVEL: 0 DIFFERENT FILL-ORIGIN LEVEL: 0

LLC TOTAL     ACCESS:       4103  HIT:       1473  MISS:       2630  HIT %:    35.9006  MISS %:    64.0994   MPKI: 0.0263
LLC LOAD      ACCESS:       2262  HIT:       1032  MISS:       1230  HIT %:    45.6233  MISS %:    54.3767   MPKI: 0.0123
LLC RFO       ACCESS:        629  HIT:          9  MISS:        620  HIT %:    1.43084  MISS %:    98.5692   MPKI: 0.0062
LLC PREFETCH  ACCESS:        818  HIT:         74  MISS:        744  HIT %:    9.04645  MISS %:    90.9535   MPKI: 0.00744
LLC WRITEBACK ACCESS:        353  HIT:        349  MISS:          4  HIT %:    98.8669  MISS %:    1.13314   MPKI: 4e-05
LLC LOAD TRANSLATION ACCESS:         41  HIT:          9  MISS:         32  HIT %:    21.9512  MISS %:    78.0488   MPKI: 0.00032
LLC PREFETCH  REQUESTED:          0  ISSUED:          0  USEFUL:         11  USELESS:          9
LLC USEFUL LOAD PREFETCHES:         11 PREFETCH ISSUED TO LOWER LEVEL:        744  ACCURACY: 1.47849
LLC TIMELY PREFETCHES:         11 LATE PREFETCHES: 0 DROPPED PREFETCHES: 0
LLC PREFETCHES SAME FILL-ORIGIN LEVEL: 0 DIFFERENT FILL-ORIGIN LEVEL: 0
LLC AVERAGE MISS LATENCY: 129.669 cycles
LLC RQ	ACCESS:       2932	FORWARD:          0	MERGED:          0	TO_CACHE:       2932
LLC WQ	ACCESS:        353	FORWARD:          0	MERGED:          0	TO_CACHE:        353
LLC PQ	ACCESS:        818	FORWARD:          0	MERGED:          0	TO_CACHE:        818

LLC Dense regions hint to LLC: 0

RAW hits: 794927
Loads Generated: 26884224
Loads sent to L1D: 26089297
Stores Generated: 11615691
Stores sent to L1D: 11615694
Major fault: 0 Minor fault: 639
Allocated PAGES: 639

stream: 
stream:times selected: 185669
stream:pref_filled: 4620
stream:pref_useful: 1676
stream:pref_late: 108
stream:misses: 217
stream:misses_by_poll: 0

CS: 
CS:times selected: 2777
CS:pref_filled: 686
CS:pref_useful: 516
CS:pref_late: 20
CS:misses: 128
CS:misses_by_poll: 0

CPLX: 
CPLX:times selected: 182662
CPLX:pref_filled: 897
CPLX:pref_useful: 223
CPLX:pref_late: 5
CPLX:misses: 1670
CPLX:misses_by_poll: 2

NL_L1: 
NL:times selected: 1868
NL:pref_filled: 77
NL:pref_useful: 12
NL:pref_late: 0
NL:misses: 26
NL:misses_by_poll: 0

total selections: 372976
total_filled: 6142
total_useful: 2328
total_late: 135
total_polluted: 2
total_misses_after_warmup: 7607
conflicts: 302495
Degree Incremented Times: 0
Degree Decremented Times: 4810

L1 IP Table Write Accesses: 909225
L1 IP Table Read Accesses: 606730
L1 RST Write Accesses: 185578
L1 RST Read Accesses: 371153
L1 CSPT Write Accesses: 185578
L1 CSPT Read Accesses: 428468
L1 RR Filter Tag Write Accesses: 97778
L1 RR Filter Tag Read Accesses: 8122687
L1 IP Table Tag Write Accesses: 1362608
L1 IP Table Tag Read Accesses: 1362608
L1 RST Tag Write Accesses: 16
L1 RST Tag Read Accesses: 1759525
L1 RR Filter Write Accesses: 0
L1 RR Filter Read Accesses: 353472
test: 14612

DRAM Statistics
 CHANNEL 0
 RQ ROW_BUFFER_HIT:       1099  ROW_BUFFER_MISS:       1527
 DBUS_CONGESTED:          0
 WQ ROW_BUFFER_HIT:          0  ROW_BUFFER_MISS:          0  FULL:          0

 AVG_CONGESTED_CYCLE: -
 All warmup complete: 2
Channel 0 Bank busy for read cycles: 0
Channel 0 Bank busy for write cycles: 0
Channel 0
Rank 0
0banks busy for read cycles: 266058462
0banks busy for write cycles: 0
1banks busy for read cycles: 217321
1banks busy for write cycles: 0
2banks busy for read cycles: 8745
2banks busy for write cycles: 0
3banks busy for read cycles: 3209
3banks busy for write cycles: 0
4banks busy for read cycles: 3181
4banks busy for write cycles: 0
5banks busy for read cycles: 1780
5banks busy for write cycles: 0
6banks busy for read cycles: 2006
6banks busy for write cycles: 0
7banks busy for read cycles: 407
7banks busy for write cycles: 0
8banks busy for read cycles: 382
8banks busy for write cycles: 0

CPU 0 Branch Prediction Accuracy: 93.2052% MPKI: 11.3866 Average ROB Occupancy at Mispredict: 22.5782
Branch types
NOT_BRANCH: 83241771 83.2418%
BRANCH_DIRECT_JUMP: 546600 0.5466%
BRANCH_INDIRECT: 776 0.000776%
BRANCH_CONDITIONAL: 10305170 10.3052%
BRANCH_DIRECT_CALL: 2952676 2.95268%
BRANCH_INDIRECT_CALL: 0 0%
BRANCH_RETURN: 2952676 2.95268%
BRANCH_OTHER: 0 0%

DRAM PAGES: 1048576
Allocated PAGES: 639
