Initialize SIGNATURE TABLE
ST_SET: 1
ST_WAY: 256
ST_TAG_BIT: 16
ST_TAG_MASK: ffff

Initialize PATTERN TABLE
PT_SET: 512
PT_WAY: 4
SIG_DELTA_BIT: 7
C_SIG_BIT: 4
C_DELTA_BIT: 4

Initialize PREFETCH FILTER
FILTER_SET: 1024

Initialize PERCEPTRON
PERC_ENTRIES: 4096
PERC_FEATURES: 9

*** ChampSim Multicore Out-of-Order Simulator ***

Warmup Instructions: 50000000
Simulation Instructions: 100000000
Number of CPUs: 1
LLC sets: 2048
LLC ways: 16
Off-chip DRAM Size: 4096 MB Channels: 1 Width: 64-bit Data Rate: 6400 MT/s
CPU 0 runs ../SPEC2017//649.fotonik3d_s-10881B.champsimtrace.xz
.xz
NUM_OF_IPS_IN_CRITICAL_IP_TRAINING: 64
NUM_OF_CRITICAL_IP_TRAINING_TABLE_WAYS: 2
NUM_OF_CRITICAL_IP_TRAINING_TABLE_SETS: 32
WOBBLY_CRITICAL_IP_CACHE_SETS: 32
WOBBLY_CRITICAL_IP_CACHE_WAYS: 4
BTB has LRU replacement policy
ITLB has LRU replacement policy
DTLB has LRU replacement policy
STLB has LRU replacement policy
L1I has LRU replacement policy
L1D has LRU replacement policy
Initialize SRRIP state for L2C
Initialize DRRIP state for LLC
Heartbeat CPU 0 instructions: 10000002 cycles: 5057693 heartbeat IPC: 1.97719 cumulative IPC: 1.97719 (Simulation time: 0 hr 6 min 33 sec) 
Heartbeat CPU 0 instructions: 20000000 cycles: 10125894 heartbeat IPC: 1.97309 cumulative IPC: 1.97513 (Simulation time: 0 hr 12 min 19 sec) 
Heartbeat CPU 0 instructions: 30000000 cycles: 15200057 heartbeat IPC: 1.97077 cumulative IPC: 1.97368 (Simulation time: 0 hr 17 min 38 sec) 
Heartbeat CPU 0 instructions: 40000002 cycles: 20265381 heartbeat IPC: 1.97421 cumulative IPC: 1.97381 (Simulation time: 0 hr 22 min 36 sec) 
Heartbeat CPU 0 instructions: 50000002 cycles: 25327161 heartbeat IPC: 1.97559 cumulative IPC: 1.97417 (Simulation time: 0 hr 27 min 3 sec) 

Warmup complete CPU 0 instructions: 50000002 cycles: 25327161 (Simulation time: 0 hr 27 min 3 sec) 

% increase in all ip prefetch 223.357
% increase in all ip prefetch 1.20482
Heartbeat CPU 0 instructions: 60000000 cycles: 42304575 heartbeat IPC: 0.589018 cumulative IPC: 0.589018 (Simulation time: 0 hr 32 min 57 sec) 
Heartbeat CPU 0 instructions: 70000000 cycles: 59294424 heartbeat IPC: 0.588587 cumulative IPC: 0.588802 (Simulation time: 0 hr 38 min 9 sec) 
Heartbeat CPU 0 instructions: 80000003 cycles: 76019762 heartbeat IPC: 0.597895 cumulative IPC: 0.591802 (Simulation time: 0 hr 42 min 54 sec) 
Heartbeat CPU 0 instructions: 90000003 cycles: 91314258 heartbeat IPC: 0.65383 cumulative IPC: 0.606179 (Simulation time: 0 hr 47 min 21 sec) 
Heartbeat CPU 0 instructions: 100000003 cycles: 106499980 heartbeat IPC: 0.658513 cumulative IPC: 0.61597 (Simulation time: 0 hr 55 min 22 sec) 
Heartbeat CPU 0 instructions: 110000000 cycles: 121629362 heartbeat IPC: 0.660965 cumulative IPC: 0.623039 (Simulation time: 1 hr 3 min 23 sec) 
Heartbeat CPU 0 instructions: 120000003 cycles: 136849358 heartbeat IPC: 0.657031 cumulative IPC: 0.627678 (Simulation time: 1 hr 10 min 37 sec) 
Heartbeat CPU 0 instructions: 130000000 cycles: 152015695 heartbeat IPC: 0.659355 cumulative IPC: 0.63147 (Simulation time: 1 hr 16 min 59 sec) 
Heartbeat CPU 0 instructions: 140000002 cycles: 167195834 heartbeat IPC: 0.658756 cumulative IPC: 0.63439 (Simulation time: 1 hr 22 min 48 sec) 
Heartbeat CPU 0 instructions: 150000001 cycles: 182327580 heartbeat IPC: 0.660862 cumulative IPC: 0.636941 (Simulation time: 1 hr 28 min 12 sec) 
Finished CPU 0 instructions: 100000003 cycles: 157000420 cumulative IPC: 0.636941 (Simulation time: 1 hr 28 min 12 sec) 

ChampSim completed all CPUs

Region of Interest Statistics

CPU 0 cumulative IPC: 0.636941 instructions: 100000003 cycles: 157000420

CPU 0 Average Load ROB stall cycles: 3.49536e+07
CPU 0 Fraction of times ROB stalled by Loads: 33.2268
CPU 0 Percentage of Load stall cycles in Total stall cycles: 3.288e+08
Issued all: 123117786
Issued LT all: 117513486
rob_not_full_when_issued_lt_all: 16651548
Issued LT one: 94734953
rob_not_full_when_issued_lt_one: 11669081
 Total stall cycles: 130536470
 Total load stall cycles: 429204109060302
CPU 0 NUM of IPS identified critical: 0
CPU 0 Num of Load IPs stalling ROB: 128
Threshold modification factor: -1
Max PIST entries: 34
Min PIST entries: 0
Avg PIST entries: 4.54667
Trouble in retire width: 0.909608
MaC = Marked as critical.
lt_50_percent_before_Mac: 0
gt_90_percent_before_Mac: 0
gt_75_percent_before_Mac: 0
gt_50_percent_before_Mac: 0
stall_proportion_bin_same_before_after: 0
stall_proportion_bin_lower_before_after: 0
stall_proportion_bin_upper_before_after: 0
average_stall_proportion_before: -nan
average_stall_proportion_after: -nan
Critical IP stalls, total frequency: 0
Non-critical IP stalls, total frequency: 4080004
Total Freq all stalling IPs: 4080004
stat_90_percent_critical_ip_stalls_freq: 3677462
stat_90_percent_non_critical_ip_stalls_freq: 402542
Critical_IP_ROB_Stalls_Bucket_0: 0
Non-critical_IP_ROB_Stalls_Bucket_0: 24
Critical_IP_ROB_Stalls_Bucket_1: 0
Non-critical_IP_ROB_Stalls_Bucket_1: 327
Critical_IP_ROB_Stalls_Bucket_2: 0
Non-critical_IP_ROB_Stalls_Bucket_2: 373
Critical_IP_ROB_Stalls_Bucket_3: 0
Non-critical_IP_ROB_Stalls_Bucket_3: 230
Critical_IP_ROB_Stalls_Bucket_4: 0
Non-critical_IP_ROB_Stalls_Bucket_4: 163
Critical_IP_ROB_Stalls_Bucket_5: 0
Non-critical_IP_ROB_Stalls_Bucket_5: 73966
Critical_IP_ROB_Stalls_Bucket_6: 0
Non-critical_IP_ROB_Stalls_Bucket_6: 4004921
0 => IPs accounting for >50 percent of stalls, 1 => 55, 2 => 60, 3 => 65 and so on till 90.
percent50: 50.3331 num IPs:  5
percent55: 56.583 num IPs: 6
percent60: 62.2564 num IPs: 7
percent65: 66.4262 num IPs: 8
percent70: 70.2503 num IPs: 9
percent75: 76.3259 num IPs: 11
percent80: 81.3764 num IPs: 14
percent85: 85.3554 num IPs: 18
percent90: 90.1338 num IPs: 26
Critical_ROB_Stalls_Percent_0_Bucket_0: 3
Non-critical_ROB_Stalls_Percent_0_Bucket_0: 21
Critical_ROB_Stalls_Percent_0_Bucket_1: 91
Non-critical_ROB_Stalls_Percent_0_Bucket_1: 236
Critical_ROB_Stalls_Percent_0_Bucket_2: 164
Non-critical_ROB_Stalls_Percent_0_Bucket_2: 209
Critical_ROB_Stalls_Percent_0_Bucket_3: 106
Non-critical_ROB_Stalls_Percent_0_Bucket_3: 124
Critical_ROB_Stalls_Percent_0_Bucket_4: 91
Non-critical_ROB_Stalls_Percent_0_Bucket_4: 72
Critical_ROB_Stalls_Percent_0_Bucket_5: 44205
Non-critical_ROB_Stalls_Percent_0_Bucket_5: 29761
Critical_ROB_Stalls_Percent_0_Bucket_6: 2008934
Non-critical_ROB_Stalls_Percent_0_Bucket_6: 1995987
Critical_ROB_Stalls_Percent_1_Bucket_0: 3
Non-critical_ROB_Stalls_Percent_1_Bucket_0: 21
Critical_ROB_Stalls_Percent_1_Bucket_1: 101
Non-critical_ROB_Stalls_Percent_1_Bucket_1: 226
Critical_ROB_Stalls_Percent_1_Bucket_2: 172
Non-critical_ROB_Stalls_Percent_1_Bucket_2: 201
Critical_ROB_Stalls_Percent_1_Bucket_3: 128
Non-critical_ROB_Stalls_Percent_1_Bucket_3: 102
Critical_ROB_Stalls_Percent_1_Bucket_4: 107
Non-critical_ROB_Stalls_Percent_1_Bucket_4: 56
Critical_ROB_Stalls_Percent_1_Bucket_5: 47579
Non-critical_ROB_Stalls_Percent_1_Bucket_5: 26387
Critical_ROB_Stalls_Percent_1_Bucket_6: 2260500
Non-critical_ROB_Stalls_Percent_1_Bucket_6: 1744421
Critical_ROB_Stalls_Percent_2_Bucket_0: 3
Non-critical_ROB_Stalls_Percent_2_Bucket_0: 21
Critical_ROB_Stalls_Percent_2_Bucket_1: 118
Non-critical_ROB_Stalls_Percent_2_Bucket_1: 209
Critical_ROB_Stalls_Percent_2_Bucket_2: 189
Non-critical_ROB_Stalls_Percent_2_Bucket_2: 184
Critical_ROB_Stalls_Percent_2_Bucket_3: 146
Non-critical_ROB_Stalls_Percent_2_Bucket_3: 84
Critical_ROB_Stalls_Percent_2_Bucket_4: 108
Non-critical_ROB_Stalls_Percent_2_Bucket_4: 55
Critical_ROB_Stalls_Percent_2_Bucket_5: 50480
Non-critical_ROB_Stalls_Percent_2_Bucket_5: 23486
Critical_ROB_Stalls_Percent_2_Bucket_6: 2489019
Non-critical_ROB_Stalls_Percent_2_Bucket_6: 1515902
Critical_ROB_Stalls_Percent_3_Bucket_0: 3
Non-critical_ROB_Stalls_Percent_3_Bucket_0: 21
Critical_ROB_Stalls_Percent_3_Bucket_1: 131
Non-critical_ROB_Stalls_Percent_3_Bucket_1: 196
Critical_ROB_Stalls_Percent_3_Bucket_2: 203
Non-critical_ROB_Stalls_Percent_3_Bucket_2: 170
Critical_ROB_Stalls_Percent_3_Bucket_3: 156
Non-critical_ROB_Stalls_Percent_3_Bucket_3: 74
Critical_ROB_Stalls_Percent_3_Bucket_4: 109
Non-critical_ROB_Stalls_Percent_3_Bucket_4: 54
Critical_ROB_Stalls_Percent_3_Bucket_5: 53841
Non-critical_ROB_Stalls_Percent_3_Bucket_5: 20125
Critical_ROB_Stalls_Percent_3_Bucket_6: 2655750
Non-critical_ROB_Stalls_Percent_3_Bucket_6: 1349171
Critical_ROB_Stalls_Percent_4_Bucket_0: 6
Non-critical_ROB_Stalls_Percent_4_Bucket_0: 18
Critical_ROB_Stalls_Percent_4_Bucket_1: 142
Non-critical_ROB_Stalls_Percent_4_Bucket_1: 185
Critical_ROB_Stalls_Percent_4_Bucket_2: 225
Non-critical_ROB_Stalls_Percent_4_Bucket_2: 148
Critical_ROB_Stalls_Percent_4_Bucket_3: 156
Non-critical_ROB_Stalls_Percent_4_Bucket_3: 74
Critical_ROB_Stalls_Percent_4_Bucket_4: 123
Non-critical_ROB_Stalls_Percent_4_Bucket_4: 40
Critical_ROB_Stalls_Percent_4_Bucket_5: 54955
Non-critical_ROB_Stalls_Percent_4_Bucket_5: 19011
Critical_ROB_Stalls_Percent_4_Bucket_6: 2810610
Non-critical_ROB_Stalls_Percent_4_Bucket_6: 1194311
Critical_ROB_Stalls_Percent_5_Bucket_0: 6
Non-critical_ROB_Stalls_Percent_5_Bucket_0: 18
Critical_ROB_Stalls_Percent_5_Bucket_1: 146
Non-critical_ROB_Stalls_Percent_5_Bucket_1: 181
Critical_ROB_Stalls_Percent_5_Bucket_2: 234
Non-critical_ROB_Stalls_Percent_5_Bucket_2: 139
Critical_ROB_Stalls_Percent_5_Bucket_3: 170
Non-critical_ROB_Stalls_Percent_5_Bucket_3: 60
Critical_ROB_Stalls_Percent_5_Bucket_4: 131
Non-critical_ROB_Stalls_Percent_5_Bucket_4: 32
Critical_ROB_Stalls_Percent_5_Bucket_5: 58048
Non-critical_ROB_Stalls_Percent_5_Bucket_5: 15918
Critical_ROB_Stalls_Percent_5_Bucket_6: 3055364
Non-critical_ROB_Stalls_Percent_5_Bucket_6: 949557
Critical_ROB_Stalls_Percent_6_Bucket_0: 7
Non-critical_ROB_Stalls_Percent_6_Bucket_0: 17
Critical_ROB_Stalls_Percent_6_Bucket_1: 153
Non-critical_ROB_Stalls_Percent_6_Bucket_1: 174
Critical_ROB_Stalls_Percent_6_Bucket_2: 244
Non-critical_ROB_Stalls_Percent_6_Bucket_2: 129
Critical_ROB_Stalls_Percent_6_Bucket_3: 180
Non-critical_ROB_Stalls_Percent_6_Bucket_3: 50
Critical_ROB_Stalls_Percent_6_Bucket_4: 137
Non-critical_ROB_Stalls_Percent_6_Bucket_4: 26
Critical_ROB_Stalls_Percent_6_Bucket_5: 62413
Non-critical_ROB_Stalls_Percent_6_Bucket_5: 11553
Critical_ROB_Stalls_Percent_6_Bucket_6: 3257025
Non-critical_ROB_Stalls_Percent_6_Bucket_6: 747896
Critical_ROB_Stalls_Percent_7_Bucket_0: 8
Non-critical_ROB_Stalls_Percent_7_Bucket_0: 16
Critical_ROB_Stalls_Percent_7_Bucket_1: 154
Non-critical_ROB_Stalls_Percent_7_Bucket_1: 173
Critical_ROB_Stalls_Percent_7_Bucket_2: 263
Non-critical_ROB_Stalls_Percent_7_Bucket_2: 110
Critical_ROB_Stalls_Percent_7_Bucket_3: 184
Non-critical_ROB_Stalls_Percent_7_Bucket_3: 46
Critical_ROB_Stalls_Percent_7_Bucket_4: 146
Non-critical_ROB_Stalls_Percent_7_Bucket_4: 17
Critical_ROB_Stalls_Percent_7_Bucket_5: 62873
Non-critical_ROB_Stalls_Percent_7_Bucket_5: 11093
Critical_ROB_Stalls_Percent_7_Bucket_6: 3418874
Non-critical_ROB_Stalls_Percent_7_Bucket_6: 586047
Critical_ROB_Stalls_Percent_8_Bucket_0: 10
Non-critical_ROB_Stalls_Percent_8_Bucket_0: 14
Critical_ROB_Stalls_Percent_8_Bucket_1: 160
Non-critical_ROB_Stalls_Percent_8_Bucket_1: 167
Critical_ROB_Stalls_Percent_8_Bucket_2: 271
Non-critical_ROB_Stalls_Percent_8_Bucket_2: 102
Critical_ROB_Stalls_Percent_8_Bucket_3: 196
Non-critical_ROB_Stalls_Percent_8_Bucket_3: 34
Critical_ROB_Stalls_Percent_8_Bucket_4: 150
Non-critical_ROB_Stalls_Percent_8_Bucket_4: 13
Critical_ROB_Stalls_Percent_8_Bucket_5: 64700
Non-critical_ROB_Stalls_Percent_8_Bucket_5: 9266
Critical_ROB_Stalls_Percent_8_Bucket_6: 3611975
Non-critical_ROB_Stalls_Percent_8_Bucket_6: 392946
IP: 4546126
ROB Occupancy: 304 ccc: 25384693
ROB Occupancy: 304 ccc: 25484644
ROB Occupancy: 304 ccc: 25487286
ROB Occupancy: 304 ccc: 25503696
ROB Occupancy: 304 ccc: 25546550
ROB Occupancy: 307 ccc: 25566809
ROB Occupancy: 304 ccc: 25570493
ROB Occupancy: 304 ccc: 25618288
ROB Occupancy: 304 ccc: 25621992
ROB Occupancy: 304 ccc: 25639600
ROB Occupancy: 307 ccc: 25667146
ROB Occupancy: 304 ccc: 25686799
ROB Occupancy: 307 ccc: 25709089
ROB Occupancy: 304 ccc: 25723377
ROB Occupancy: 304 ccc: 25728261
ROB Occupancy: 304 ccc: 25731642
ROB Occupancy: 304 ccc: 25753480
ROB Occupancy: 304 ccc: 25757020
ROB Occupancy: 304 ccc: 25772968
ROB Occupancy: 307 ccc: 25777888
ROB Occupancy: 304 ccc: 25808981
ROB Occupancy: 304 ccc: 25814009
ROB Occupancy: 304 ccc: 25814356
ROB Occupancy: 307 ccc: 25818632
ROB Occupancy: 304 ccc: 25822348
ROB Occupancy: 304 ccc: 25846056
ROB Occupancy: 304 ccc: 25849274
ROB Occupancy: 304 ccc: 25862549
ROB Occupancy: 304 ccc: 25869596
ROB Occupancy: 304 ccc: 25873268
ROB Occupancy: 304 ccc: 25876917
ROB Occupancy: 307 ccc: 25892958
ROB Occupancy: 304 ccc: 25913265
ROB Occupancy: 304 ccc: 25929822
ROB Occupancy: 304 ccc: 25939762
ROB Occupancy: 304 ccc: 25964942
ROB Occupancy: 304 ccc: 25969003
ROB Occupancy: 304 ccc: 25977748
ROB Occupancy: 307 ccc: 25985244
ROB Occupancy: 304 ccc: 25988341
ROB Occupancy: 304 ccc: 26028805
ROB Occupancy: 304 ccc: 26029239
ROB Occupancy: 304 ccc: 26036753
ROB Occupancy: 304 ccc: 26048276
ROB Occupancy: 304 ccc: 26056176
ROB Occupancy: 304 ccc: 26080605
ROB Occupancy: 304 ccc: 26120029
ROB Occupancy: 304 ccc: 26137875
ROB Occupancy: 304 ccc: 26144746
ROB Occupancy: 304 ccc: 26173310
ROB Occupancy: 304 ccc: 26213564
ROB Occupancy: 304 ccc: 26221448
ROB Occupancy: 304 ccc: 26237917
ROB Occupancy: 304 ccc: 26260225
ROB Occupancy: 304 ccc: 26268448
ROB Occupancy: 304 ccc: 26272354
ROB Occupancy: 304 ccc: 26276658
ROB Occupancy: 304 ccc: 26303167
ROB Occupancy: 304 ccc: 26327251
ROB Occupancy: 304 ccc: 26338862
ROB Occupancy: 304 ccc: 26357148
ROB Occupancy: 304 ccc: 26394467
ROB Occupancy: 304 ccc: 26417443
ROB Occupancy: 304 ccc: 26430610
ROB Occupancy: 304 ccc: 26450749
ROB Occupancy: 304 ccc: 26460111
ROB Occupancy: 304 ccc: 26462147
ROB Occupancy: 304 ccc: 26474409
ROB Occupancy: 304 ccc: 26487030
ROB Occupancy: 304 ccc: 26536116
ROB Occupancy: 304 ccc: 26552374
ROB Occupancy: 304 ccc: 26579397
ROB Occupancy: 304 ccc: 26604571
ROB Occupancy: 304 ccc: 26627512
ROB Occupancy: 307 ccc: 26632117
ROB Occupancy: 307 ccc: 26666685
ROB Occupancy: 304 ccc: 26669978
ROB Occupancy: 304 ccc: 26676401
ROB Occupancy: 304 ccc: 26683638
ROB Occupancy: 304 ccc: 26688138
ROB Occupancy: 304 ccc: 26721546
ROB Occupancy: 307 ccc: 26732455
ROB Occupancy: 304 ccc: 26759981
ROB Occupancy: 304 ccc: 26808426
ROB Occupancy: 304 ccc: 26817418
ROB Occupancy: 307 ccc: 26849033
ROB Occupancy: 307 ccc: 26857528
ROB Occupancy: 304 ccc: 26865625
ROB Occupancy: 304 ccc: 26919079
ROB Occupancy: 304 ccc: 26922678
ROB Occupancy: 304 ccc: 26934781
ROB Occupancy: 304 ccc: 26954618
ROB Occupancy: 304 ccc: 26963592
ROB Occupancy: 304 ccc: 26997585
ROB Occupancy: 304 ccc: 26998702
ROB Occupancy: 304 ccc: 27003666
ROB Occupancy: 307 ccc: 27009116
ROB Occupancy: 304 ccc: 27015946
ROB Occupancy: 304 ccc: 27036646
ROB Occupancy: 304 ccc: 27040725
ROB Occupancy: 304 ccc: 27043310
ROB Occupancy: 304 ccc: 27045381
ROB Occupancy: 304 ccc: 27056662
ROB Occupancy: 304 ccc: 27060353
ROB Occupancy: 304 ccc: 27061163
ROB Occupancy: 304 ccc: 27063453
ROB Occupancy: 307 ccc: 27068901
ROB Occupancy: 304 ccc: 27075068
ROB Occupancy: 304 ccc: 27096750
ROB Occupancy: 304 ccc: 27103253
ROB Occupancy: 304 ccc: 27105482
ROB Occupancy: 304 ccc: 27107105
ROB Occupancy: 304 ccc: 27117349
ROB Occupancy: 304 ccc: 27122419
ROB Occupancy: 304 ccc: 27151037
ROB Occupancy: 304 ccc: 27236926
ROB Occupancy: 304 ccc: 27254813
ROB Occupancy: 307 ccc: 27291246
ROB Occupancy: 304 ccc: 27347334
ROB Occupancy: 304 ccc: 27371432
ROB Occupancy: 304 ccc: 27396146
ROB Occupancy: 304 ccc: 27419291
ROB Occupancy: 304 ccc: 27421686
ROB Occupancy: 307 ccc: 27434383
ROB Occupancy: 304 ccc: 27464692
ROB Occupancy: 304 ccc: 27490101
ROB Occupancy: 304 ccc: 27511698
ROB Occupancy: 304 ccc: 27529150
ROB Occupancy: 304 ccc: 27555547
ROB Occupancy: 304 ccc: 27557336
ROB Occupancy: 307 ccc: 27609018
ROB Occupancy: 304 ccc: 27621612
ROB Occupancy: 304 ccc: 27638264
ROB Occupancy: 304 ccc: 27647969
ROB Occupancy: 304 ccc: 27664897
ROB Occupancy: 304 ccc: 27709349
ROB Occupancy: 304 ccc: 27744967
ROB Occupancy: 307 ccc: 27745714
ROB Occupancy: 304 ccc: 27748876
ROB Occupancy: 352 ccc: 27752547
ROB Occupancy: 304 ccc: 27766640
ROB Occupancy: 304 ccc: 27794402
ROB Occupancy: 304 ccc: 27802354
ROB Occupancy: 304 ccc: 27810950
ROB Occupancy: 307 ccc: 27830674
ROB Occupancy: 304 ccc: 27845540
ROB Occupancy: 304 ccc: 27846307
ROB Occupancy: 304 ccc: 27851033
ROB Occupancy: 304 ccc: 27859236
ROB Occupancy: 304 ccc: 27871592
ROB Occupancy: 304 ccc: 27887365
ROB Occupancy: 304 ccc: 27924587
ROB Occupancy: 304 ccc: 27928169
ROB Occupancy: 304 ccc: 27934636
ROB Occupancy: 304 ccc: 27951565
ROB Occupancy: 307 ccc: 27972553
ROB Occupancy: 304 ccc: 27987599
ROB Occupancy: 304 ccc: 28088160
ROB Occupancy: 304 ccc: 28115834
ROB Occupancy: 304 ccc: 28141864
ROB Occupancy: 304 ccc: 28164246
ROB Occupancy: 304 ccc: 28209132
ROB Occupancy: 304 ccc: 28224192
ROB Occupancy: 304 ccc: 28237190
ROB Occupancy: 304 ccc: 28259840
ROB Occupancy: 304 ccc: 28263549
ROB Occupancy: 304 ccc: 28278888
ROB Occupancy: 304 ccc: 28313778
ROB Occupancy: 307 ccc: 28404394
ROB Occupancy: 304 ccc: 28416729
ROB Occupancy: 307 ccc: 28487803
ROB Occupancy: 304 ccc: 28491368
ROB Occupancy: 307 ccc: 28512953
ROB Occupancy: 304 ccc: 28516157
ROB Occupancy: 304 ccc: 28535403
ROB Occupancy: 304 ccc: 28559721
ROB Occupancy: 304 ccc: 28583643
ROB Occupancy: 307 ccc: 28693448
ROB Occupancy: 304 ccc: 28790187
ROB Occupancy: 304 ccc: 28809413
ROB Occupancy: 304 ccc: 28814166
ROB Occupancy: 307 ccc: 28818451
ROB Occupancy: 304 ccc: 28825713
ROB Occupancy: 307 ccc: 28826347
ROB Occupancy: 307 ccc: 28852410
ROB Occupancy: 304 ccc: 28858290
ROB Occupancy: 304 ccc: 28880317
ROB Occupancy: 304 ccc: 28925104
ROB Occupancy: 304 ccc: 28950528
ROB Occupancy: 304 ccc: 29003888
ROB Occupancy: 304 ccc: 29013370
ROB Occupancy: 304 ccc: 29020350
ROB Occupancy: 307 ccc: 29041877
ROB Occupancy: 304 ccc: 29045952
ROB Occupancy: 307 ccc: 29050946
ROB Occupancy: 304 ccc: 29054270
ROB Occupancy: 304 ccc: 29062905
ROB Occupancy: 307 ccc: 29067870
ROB Occupancy: 304 ccc: 29071588
ROB Occupancy: 304 ccc: 29117072
ROB Occupancy: 304 ccc: 29140173
ROB Occupancy: 304 ccc: 29149360
ROB Occupancy: 304 ccc: 29157729
ROB Occupancy: 304 ccc: 29166513
ROB Occupancy: 304 ccc: 29194659
ROB Occupancy: 304 ccc: 29203128
ROB Occupancy: 304 ccc: 29238060
ROB Occupancy: 304 ccc: 29277749
ROB Occupancy: 304 ccc: 29286513
ROB Occupancy: 304 ccc: 29290334
ROB Occupancy: 304 ccc: 29294603
ROB Occupancy: 304 ccc: 29320453
ROB Occupancy: 304 ccc: 29376989
ROB Occupancy: 304 ccc: 29385969
ROB Occupancy: 304 ccc: 29429055
ROB Occupancy: 304 ccc: 29460985
ROB Occupancy: 304 ccc: 29477536
ROB Occupancy: 307 ccc: 29499685
ROB Occupancy: 304 ccc: 29502993
ROB Occupancy: 304 ccc: 29516927
ROB Occupancy: 304 ccc: 29529395
ROB Occupancy: 307 ccc: 29591918
ROB Occupancy: 304 ccc: 29607896
ROB Occupancy: 307 ccc: 29608972
ROB Occupancy: 304 ccc: 29612756
ROB Occupancy: 304 ccc: 29615667
ROB Occupancy: 304 ccc: 29623695
ROB Occupancy: 304 ccc: 29657417
ROB Occupancy: 304 ccc: 29665924
ROB Occupancy: 304 ccc: 29696734
ROB Occupancy: 304 ccc: 29705317
ROB Occupancy: 304 ccc: 29714016
ROB Occupancy: 304 ccc: 29741484
ROB Occupancy: 304 ccc: 29781724
ROB Occupancy: 304 ccc: 29790027
ROB Occupancy: 304 ccc: 29798840
ROB Occupancy: 307 ccc: 29886001
ROB Occupancy: 304 ccc: 29897597
ROB Occupancy: 304 ccc: 29931703
ROB Occupancy: 304 ccc: 29937710
ROB Occupancy: 304 ccc: 30016064
ROB Occupancy: 304 ccc: 30024434
ROB Occupancy: 304 ccc: 30032483
ROB Occupancy: 304 ccc: 30057130
ROB Occupancy: 304 ccc: 30074712
ROB Occupancy: 304 ccc: 30111010
ROB Occupancy: 307 ccc: 30115419
ROB Occupancy: 307 ccc: 30124152
ROB Occupancy: 304 ccc: 30127420
ROB Occupancy: 304 ccc: 30148571
ROB Occupancy: 304 ccc: 30156214
ROB Occupancy: 304 ccc: 30163865
ROB Occupancy: 304 ccc: 30166995
ROB Occupancy: 304 ccc: 30179979
ROB Occupancy: 304 ccc: 30204736
ROB Occupancy: 304 ccc: 30213250
ROB Occupancy: 304 ccc: 30219547
ROB Occupancy: 320 ccc: 30244798
ROB Occupancy: 304 ccc: 30248264
ROB Occupancy: 304 ccc: 30251919
ROB Occupancy: 304 ccc: 30252295
ROB Occupancy: 304 ccc: 30256358
ROB Occupancy: 304 ccc: 30260688
ROB Occupancy: 304 ccc: 30271027
ROB Occupancy: 304 ccc: 30296488
ROB Occupancy: 304 ccc: 30308889
ROB Occupancy: 304 ccc: 30335328
ROB Occupancy: 304 ccc: 30351197
ROB Occupancy: 304 ccc: 30351543
ROB Occupancy: 304 ccc: 30359938
ROB Occupancy: 304 ccc: 30372482
ROB Occupancy: 307 ccc: 30421695
ROB Occupancy: 304 ccc: 30433668
ROB Occupancy: 304 ccc: 30449039
ROB Occupancy: 304 ccc: 30474912
ROB Occupancy: 304 ccc: 30496133
ROB Occupancy: 304 ccc: 30519955
ROB Occupancy: 304 ccc: 30535347
ROB Occupancy: 304 ccc: 30568538
ROB Occupancy: 304 ccc: 30585890
ROB Occupancy: 304 ccc: 30611392
ROB Occupancy: 310 ccc: 30636289
ROB Occupancy: 304 ccc: 30648571
ROB Occupancy: 307 ccc: 30665916
ROB Occupancy: 304 ccc: 30669700
ROB Occupancy: 304 ccc: 30706641
ROB Occupancy: 304 ccc: 30718258
ROB Occupancy: 304 ccc: 30755426
ROB Occupancy: 304 ccc: 30771857
ROB Occupancy: 304 ccc: 30799955
ROB Occupancy: 304 ccc: 30816210
ROB Occupancy: 304 ccc: 30825424
ROB Occupancy: 304 ccc: 30857670
ROB Occupancy: 304 ccc: 30866315
ROB Occupancy: 304 ccc: 30892172
ROB Occupancy: 304 ccc: 30943489
ROB Occupancy: 304 ccc: 30992340
ROB Occupancy: 304 ccc: 31007678
ROB Occupancy: 304 ccc: 31034367
ROB Occupancy: 304 ccc: 31048064
ROB Occupancy: 307 ccc: 31069101
ROB Occupancy: 304 ccc: 31081053
ROB Occupancy: 304 ccc: 31090591
ROB Occupancy: 304 ccc: 31098688
ROB Occupancy: 304 ccc: 31143002
ROB Occupancy: 304 ccc: 31174933
ROB Occupancy: 307 ccc: 31188993
ROB Occupancy: 304 ccc: 31192610
ROB Occupancy: 304 ccc: 31222423
ROB Occupancy: 307 ccc: 31223109
ROB Occupancy: 304 ccc: 31226964
ROB Occupancy: 304 ccc: 31230381
ROB Occupancy: 304 ccc: 31249959
ROB Occupancy: 304 ccc: 31271725
ROB Occupancy: 304 ccc: 31287441
ROB Occupancy: 304 ccc: 31296311
ROB Occupancy: 304 ccc: 31360771
ROB Occupancy: 304 ccc: 31396468
ROB Occupancy: 304 ccc: 31411767
ROB Occupancy: 304 ccc: 31446623
ROB Occupancy: 304 ccc: 31465600
ROB Occupancy: 304 ccc: 31492339
ROB Occupancy: 304 ccc: 31509030
ROB Occupancy: 304 ccc: 31587769
ROB Occupancy: 304 ccc: 31604899
ROB Occupancy: 304 ccc: 31683625
ROB Occupancy: 304 ccc: 31709437
ROB Occupancy: 304 ccc: 31770221
ROB Occupancy: 304 ccc: 31776908
ROB Occupancy: 304 ccc: 31788263
ROB Occupancy: 304 ccc: 31884966
ROB Occupancy: 304 ccc: 31923328
ROB Occupancy: 304 ccc: 31939930
ROB Occupancy: 304 ccc: 31956107
ROB Occupancy: 304 ccc: 31972773
ROB Occupancy: 304 ccc: 31977313
ROB Occupancy: 304 ccc: 32018773
ROB Occupancy: 304 ccc: 32062771
ROB Occupancy: 307 ccc: 32073741
ROB Occupancy: 304 ccc: 32077287
ROB Occupancy: 304 ccc: 32097825
ROB Occupancy: 304 ccc: 32110194
ROB Occupancy: 304 ccc: 32117180
ROB Occupancy: 304 ccc: 32131770
ROB Occupancy: 304 ccc: 32140714
ROB Occupancy: 304 ccc: 32150355
ROB Occupancy: 304 ccc: 32154026
ROB Occupancy: 304 ccc: 32158473
ROB Occupancy: 304 ccc: 32161946
ROB Occupancy: 304 ccc: 32166498
ROB Occupancy: 304 ccc: 32167282
ROB Occupancy: 304 ccc: 32176709
ROB Occupancy: 304 ccc: 32197831
ROB Occupancy: 304 ccc: 32248753
ROB Occupancy: 304 ccc: 32261361
ROB Occupancy: 304 ccc: 32275140
ROB Occupancy: 304 ccc: 32339770
ROB Occupancy: 304 ccc: 32347867
ROB Occupancy: 304 ccc: 32372450
ROB Occupancy: 307 ccc: 32438194
ROB Occupancy: 304 ccc: 32441988
ROB Occupancy: 304 ccc: 32456967
ROB Occupancy: 304 ccc: 32461441
ROB Occupancy: 304 ccc: 32470353
ROB Occupancy: 307 ccc: 32509262
ROB Occupancy: 304 ccc: 32593010
ROB Occupancy: 304 ccc: 32609617
ROB Occupancy: 304 ccc: 32625880
ROB Occupancy: 304 ccc: 32688699
ROB Occupancy: 304 ccc: 32693642
ROB Occupancy: 304 ccc: 32728019
ROB Occupancy: 307 ccc: 32734208
ROB Occupancy: 304 ccc: 32737702
ROB Occupancy: 304 ccc: 32746328
ROB Occupancy: 304 ccc: 32825489
ROB Occupancy: 304 ccc: 32839139
ROB Occupancy: 304 ccc: 32841301
ROB Occupancy: 304 ccc: 32892703
ROB Occupancy: 304 ccc: 32937154
ROB Occupancy: 304 ccc: 32945218
ROB Occupancy: 304 ccc: 33030417
ROB Occupancy: 304 ccc: 33078288
ROB Occupancy: 304 ccc: 33134721
ROB Occupancy: 304 ccc: 33188895
ROB Occupancy: 304 ccc: 33198172
ROB Occupancy: 310 ccc: 33239291
ROB Occupancy: 304 ccc: 33256374
ROB Occupancy: 304 ccc: 33264909
ROB Occupancy: 307 ccc: 33288487
ROB Occupancy: 304 ccc: 33292380
ROB Occupancy: 352 ccc: 33343459
ROB Occupancy: 352 ccc: 33345516
ROB Occupancy: 352 ccc: 33347244
ROB Occupancy: 352 ccc: 33348767
ROB Occupancy: 304 ccc: 33351716
ROB Occupancy: 352 ccc: 33352093
ROB Occupancy: 352 ccc: 33354182
ROB Occupancy: 304 ccc: 33355854
ROB Occupancy: 352 ccc: 33356253
ROB Occupancy: 352 ccc: 33358228
ROB Occupancy: 352 ccc: 33359940
ROB Occupancy: 352 ccc: 33361828
ROB Occupancy: 352 ccc: 33363347
ROB Occupancy: 352 ccc: 33365325
ROB Occupancy: 352 ccc: 33366920
ROB Occupancy: 352 ccc: 33368605
ROB Occupancy: 352 ccc: 33370883
ROB Occupancy: 352 ccc: 33372832
ROB Occupancy: 352 ccc: 33375845
ROB Occupancy: 352 ccc: 33378036
ROB Occupancy: 352 ccc: 33379772
ROB Occupancy: 304 ccc: 33381377
ROB Occupancy: 352 ccc: 33381570
ROB Occupancy: 352 ccc: 33383408
ROB Occupancy: 352 ccc: 33385166
ROB Occupancy: 352 ccc: 33386644
ROB Occupancy: 352 ccc: 33388484
ROB Occupancy: 352 ccc: 33390758
ROB Occupancy: 352 ccc: 33392325
ROB Occupancy: 352 ccc: 33394588
ROB Occupancy: 352 ccc: 33396288
ROB Occupancy: 352 ccc: 33399210
ROB Occupancy: 352 ccc: 33401368
ROB Occupancy: 352 ccc: 33402906
ROB Occupancy: 352 ccc: 33404790
ROB Occupancy: 352 ccc: 33406226
ROB Occupancy: 352 ccc: 33409582
ROB Occupancy: 342 ccc: 33411591
ROB Occupancy: 352 ccc: 33413401
ROB Occupancy: 352 ccc: 33415443
ROB Occupancy: 352 ccc: 33417541
ROB Occupancy: 352 ccc: 33419385
ROB Occupancy: 304 ccc: 33421716
ROB Occupancy: 352 ccc: 33422287
ROB Occupancy: 352 ccc: 33424387
ROB Occupancy: 352 ccc: 33425878
ROB Occupancy: 352 ccc: 33427417
ROB Occupancy: 352 ccc: 33429309
ROB Occupancy: 352 ccc: 33432529
ROB Occupancy: 304 ccc: 33433147
ROB Occupancy: 342 ccc: 33434079
ROB Occupancy: 352 ccc: 33436706
ROB Occupancy: 352 ccc: 33438251
ROB Occupancy: 352 ccc: 33440522
ROB Occupancy: 304 ccc: 33441734
ROB Occupancy: 352 ccc: 33442688
ROB Occupancy: 304 ccc: 33445329
ROB Occupancy: 352 ccc: 33445706
ROB Occupancy: 352 ccc: 33447556
ROB Occupancy: 352 ccc: 33449417
ROB Occupancy: 352 ccc: 33451267
ROB Occupancy: 352 ccc: 33453397
ROB Occupancy: 352 ccc: 33455690
ROB Occupancy: 352 ccc: 33457013
ROB Occupancy: 352 ccc: 33458617
ROB Occupancy: 352 ccc: 33460676
ROB Occupancy: 352 ccc: 33462510
ROB Occupancy: 352 ccc: 33464409
ROB Occupancy: 352 ccc: 33466476
ROB Occupancy: 352 ccc: 33470083
ROB Occupancy: 352 ccc: 33471569
ROB Occupancy: 352 ccc: 33473264
ROB Occupancy: 304 ccc: 33474751
ROB Occupancy: 352 ccc: 33474943
ROB Occupancy: 352 ccc: 33476637
ROB Occupancy: 352 ccc: 33479555
ROB Occupancy: 352 ccc: 33481605
ROB Occupancy: 304 ccc: 33482711
ROB Occupancy: 352 ccc: 33483388
ROB Occupancy: 352 ccc: 33485850
ROB Occupancy: 352 ccc: 33487386
ROB Occupancy: 352 ccc: 33489412
ROB Occupancy: 352 ccc: 33491949
ROB Occupancy: 352 ccc: 33493891
ROB Occupancy: 352 ccc: 33495271
ROB Occupancy: 352 ccc: 33497092
ROB Occupancy: 352 ccc: 33498760
ROB Occupancy: 352 ccc: 33502339
ROB Occupancy: 352 ccc: 33503922
ROB Occupancy: 352 ccc: 33506391
ROB Occupancy: 352 ccc: 33508079
ROB Occupancy: 352 ccc: 33510249
ROB Occupancy: 352 ccc: 33511470
ROB Occupancy: 304 ccc: 33514014
ROB Occupancy: 352 ccc: 33514576
ROB Occupancy: 352 ccc: 33516519
ROB Occupancy: 352 ccc: 33518159
ROB Occupancy: 352 ccc: 33520144
ROB Occupancy: 352 ccc: 33522058
ROB Occupancy: 352 ccc: 33523626
ROB Occupancy: 352 ccc: 33524983
ROB Occupancy: 352 ccc: 33526395
ROB Occupancy: 352 ccc: 33528594
ROB Occupancy: 304 ccc: 33529476
ROB Occupancy: 352 ccc: 33530087
ROB Occupancy: 352 ccc: 33532224
ROB Occupancy: 352 ccc: 33533661
ROB Occupancy: 352 ccc: 33536661
ROB Occupancy: 352 ccc: 33538345
ROB Occupancy: 352 ccc: 33540464
ROB Occupancy: 352 ccc: 33542009
ROB Occupancy: 352 ccc: 33545965
ROB Occupancy: 352 ccc: 33547008
ROB Occupancy: 352 ccc: 33549592
ROB Occupancy: 352 ccc: 33550947
ROB Occupancy: 352 ccc: 33553340
ROB Occupancy: 352 ccc: 33555065
ROB Occupancy: 352 ccc: 33556886
ROB Occupancy: 352 ccc: 33559394
ROB Occupancy: 352 ccc: 33561744
ROB Occupancy: 352 ccc: 33563056
ROB Occupancy: 304 ccc: 33564645
ROB Occupancy: 352 ccc: 33567062
ROB Occupancy: 352 ccc: 33570236
ROB Occupancy: 352 ccc: 33572266
ROB Occupancy: 352 ccc: 33574391
ROB Occupancy: 304 ccc: 33578033
ROB Occupancy: 352 ccc: 33578243
ROB Occupancy: 352 ccc: 33581091
ROB Occupancy: 352 ccc: 33583747
ROB Occupancy: 352 ccc: 33586199
ROB Occupancy: 352 ccc: 33587510
ROB Occupancy: 352 ccc: 33589102
ROB Occupancy: 352 ccc: 33590638
ROB Occupancy: 352 ccc: 33593571
ROB Occupancy: 304 ccc: 33594093
ROB Occupancy: 352 ccc: 33595201
ROB Occupancy: 352 ccc: 33597994
ROB Occupancy: 352 ccc: 33599695
ROB Occupancy: 352 ccc: 33601725
ROB Occupancy: 307 ccc: 33602447
ROB Occupancy: 352 ccc: 33603439
ROB Occupancy: 304 ccc: 33605948
ROB Occupancy: 352 ccc: 33606754
ROB Occupancy: 352 ccc: 33607898
ROB Occupancy: 352 ccc: 33610352
ROB Occupancy: 352 ccc: 33611504
ROB Occupancy: 352 ccc: 33614075
ROB Occupancy: 352 ccc: 33615612
ROB Occupancy: 352 ccc: 33616555
ROB Occupancy: 342 ccc: 33619192
ROB Occupancy: 352 ccc: 33620543
ROB Occupancy: 304 ccc: 33622235
ROB Occupancy: 352 ccc: 33622584
ROB Occupancy: 352 ccc: 33624096
ROB Occupancy: 352 ccc: 33626070
ROB Occupancy: 352 ccc: 33629938
ROB Occupancy: 352 ccc: 33631606
ROB Occupancy: 352 ccc: 33633390
ROB Occupancy: 352 ccc: 33635056
ROB Occupancy: 352 ccc: 33637087
ROB Occupancy: 352 ccc: 33638650
ROB Occupancy: 352 ccc: 33639992
ROB Occupancy: 352 ccc: 33642203
ROB Occupancy: 304 ccc: 33643311
ROB Occupancy: 352 ccc: 33643980
ROB Occupancy: 352 ccc: 33646387
ROB Occupancy: 352 ccc: 33648090
ROB Occupancy: 352 ccc: 33650266
ROB Occupancy: 304 ccc: 33652141
ROB Occupancy: 352 ccc: 33653064
ROB Occupancy: 352 ccc: 33654824
ROB Occupancy: 304 ccc: 33655733
ROB Occupancy: 352 ccc: 33656360
ROB Occupancy: 352 ccc: 33658009
ROB Occupancy: 352 ccc: 33659288
ROB Occupancy: 352 ccc: 33662923
ROB Occupancy: 352 ccc: 33664077
ROB Occupancy: 352 ccc: 33666334
ROB Occupancy: 352 ccc: 33667838
ROB Occupancy: 352 ccc: 33670096
ROB Occupancy: 352 ccc: 33671363
ROB Occupancy: 304 ccc: 33673667
ROB Occupancy: 352 ccc: 33674797
ROB Occupancy: 352 ccc: 33676240
ROB Occupancy: 352 ccc: 33678352
ROB Occupancy: 352 ccc: 33679645
ROB Occupancy: 352 ccc: 33681794
ROB Occupancy: 352 ccc: 33685336
ROB Occupancy: 352 ccc: 33687053
ROB Occupancy: 352 ccc: 33688696
ROB Occupancy: 352 ccc: 33690228
ROB Occupancy: 352 ccc: 33692568
ROB Occupancy: 352 ccc: 33694234
ROB Occupancy: 352 ccc: 33696918
ROB Occupancy: 352 ccc: 33698742
ROB Occupancy: 352 ccc: 33700877
ROB Occupancy: 352 ccc: 33702230
ROB Occupancy: 352 ccc: 33704054
ROB Occupancy: 352 ccc: 33705665
ROB Occupancy: 352 ccc: 33706699
ROB Occupancy: 352 ccc: 33709493
ROB Occupancy: 352 ccc: 33711038
ROB Occupancy: 352 ccc: 33713837
ROB Occupancy: 352 ccc: 33715245
ROB Occupancy: 352 ccc: 33716997
ROB Occupancy: 352 ccc: 33719628
ROB Occupancy: 304 ccc: 33721135
ROB Occupancy: 352 ccc: 33721539
ROB Occupancy: 352 ccc: 33722911
ROB Occupancy: 352 ccc: 33724946
ROB Occupancy: 352 ccc: 33726301
ROB Occupancy: 352 ccc: 33727919
ROB Occupancy: 352 ccc: 33729393
ROB Occupancy: 352 ccc: 33731129
ROB Occupancy: 352 ccc: 33733278
ROB Occupancy: 352 ccc: 33734712
ROB Occupancy: 352 ccc: 33736791
ROB Occupancy: 352 ccc: 33738447
ROB Occupancy: 352 ccc: 33741343
ROB Occupancy: 352 ccc: 33744479
ROB Occupancy: 352 ccc: 33746262
ROB Occupancy: 352 ccc: 33748146
ROB Occupancy: 352 ccc: 33750023
ROB Occupancy: 352 ccc: 33753056
ROB Occupancy: 304 ccc: 33754042
ROB Occupancy: 330 ccc: 33754669
ROB Occupancy: 352 ccc: 33756834
ROB Occupancy: 352 ccc: 33758256
ROB Occupancy: 352 ccc: 33760373
ROB Occupancy: 352 ccc: 33762292
ROB Occupancy: 304 ccc: 33764628
ROB Occupancy: 352 ccc: 33765751
ROB Occupancy: 352 ccc: 33767666
ROB Occupancy: 352 ccc: 33770022
ROB Occupancy: 352 ccc: 33771469
ROB Occupancy: 352 ccc: 33773503
ROB Occupancy: 352 ccc: 33776516
ROB Occupancy: 352 ccc: 33779111
ROB Occupancy: 352 ccc: 33782234
ROB Occupancy: 352 ccc: 33783935
ROB Occupancy: 352 ccc: 33785806
ROB Occupancy: 352 ccc: 33788980
ROB Occupancy: 310 ccc: 33789823
ROB Occupancy: 352 ccc: 33790613
ROB Occupancy: 352 ccc: 33791978
ROB Occupancy: 352 ccc: 33793623
ROB Occupancy: 352 ccc: 33795566
ROB Occupancy: 352 ccc: 33797418
ROB Occupancy: 304 ccc: 33797669
ROB Occupancy: 352 ccc: 33798884
ROB Occupancy: 352 ccc: 33800535
ROB Occupancy: 352 ccc: 33802950
ROB Occupancy: 352 ccc: 33804636
ROB Occupancy: 352 ccc: 33806688
ROB Occupancy: 352 ccc: 33808796
ROB Occupancy: 352 ccc: 33811744
ROB Occupancy: 352 ccc: 33813435
ROB Occupancy: 352 ccc: 33815158
ROB Occupancy: 352 ccc: 33816835
ROB Occupancy: 352 ccc: 33818480
ROB Occupancy: 352 ccc: 33820555
ROB Occupancy: 352 ccc: 33821690
ROB Occupancy: 352 ccc: 33823271
ROB Occupancy: 304 ccc: 33824753
ROB Occupancy: 352 ccc: 33825649
ROB Occupancy: 352 ccc: 33827337
ROB Occupancy: 352 ccc: 33829668
ROB Occupancy: 352 ccc: 33831283
ROB Occupancy: 307 ccc: 33834409
ROB Occupancy: 352 ccc: 33834609
ROB Occupancy: 352 ccc: 33836180
ROB Occupancy: 304 ccc: 33837954
ROB Occupancy: 352 ccc: 33838385
ROB Occupancy: 352 ccc: 33839873
ROB Occupancy: 352 ccc: 33842103
ROB Occupancy: 352 ccc: 33845817
ROB Occupancy: 352 ccc: 33847707
ROB Occupancy: 352 ccc: 33849427
ROB Occupancy: 352 ccc: 33851078
ROB Occupancy: 352 ccc: 33853137
ROB Occupancy: 352 ccc: 33854697
ROB Occupancy: 352 ccc: 33857443
ROB Occupancy: 352 ccc: 33858998
ROB Occupancy: 352 ccc: 33861004
ROB Occupancy: 352 ccc: 33862934
ROB Occupancy: 352 ccc: 33864371
ROB Occupancy: 352 ccc: 33867748
ROB Occupancy: 352 ccc: 33869565
ROB Occupancy: 352 ccc: 33871794
ROB Occupancy: 352 ccc: 33873979
ROB Occupancy: 352 ccc: 33875895
ROB Occupancy: 352 ccc: 33877548
ROB Occupancy: 352 ccc: 33880952
ROB Occupancy: 304 ccc: 33882007
ROB Occupancy: 352 ccc: 33882964
ROB Occupancy: 352 ccc: 33884595
ROB Occupancy: 352 ccc: 33886488
ROB Occupancy: 304 ccc: 33886739
ROB Occupancy: 352 ccc: 33888048
ROB Occupancy: 352 ccc: 33889618
ROB Occupancy: 352 ccc: 33890953
ROB Occupancy: 342 ccc: 33892766
ROB Occupancy: 304 ccc: 33894154
ROB Occupancy: 352 ccc: 33895049
ROB Occupancy: 352 ccc: 33896642
ROB Occupancy: 304 ccc: 33898614
ROB Occupancy: 352 ccc: 33899011
ROB Occupancy: 352 ccc: 33903960
ROB Occupancy: 352 ccc: 33905544
ROB Occupancy: 304 ccc: 33906905
ROB Occupancy: 352 ccc: 33907557
ROB Occupancy: 352 ccc: 33909436
ROB Occupancy: 352 ccc: 33911035
ROB Occupancy: 352 ccc: 33914253
ROB Occupancy: 352 ccc: 33916145
ROB Occupancy: 352 ccc: 33917776
ROB Occupancy: 352 ccc: 33919398
ROB Occupancy: 352 ccc: 33921703
ROB Occupancy: 352 ccc: 33923279
ROB Occupancy: 352 ccc: 33925993
ROB Occupancy: 352 ccc: 33928074
ROB Occupancy: 352 ccc: 33930145
ROB Occupancy: 352 ccc: 33931608
ROB Occupancy: 352 ccc: 33933400
ROB Occupancy: 352 ccc: 33936609
ROB Occupancy: 352 ccc: 33938425
ROB Occupancy: 352 ccc: 33940625
ROB Occupancy: 352 ccc: 33942130
ROB Occupancy: 352 ccc: 33943884
ROB Occupancy: 352 ccc: 33945355
ROB Occupancy: 304 ccc: 33945567
ROB Occupancy: 352 ccc: 33948289
ROB Occupancy: 352 ccc: 33949772
ROB Occupancy: 352 ccc: 33952906
ROB Occupancy: 352 ccc: 33954812
ROB Occupancy: 352 ccc: 33956952
ROB Occupancy: 352 ccc: 33957871
ROB Occupancy: 342 ccc: 33959805
ROB Occupancy: 352 ccc: 33963334
ROB Occupancy: 352 ccc: 33965865
ROB Occupancy: 352 ccc: 33967172
ROB Occupancy: 304 ccc: 33969561
ROB Occupancy: 352 ccc: 33970132
ROB Occupancy: 352 ccc: 33971674
ROB Occupancy: 304 ccc: 33972043
ROB Occupancy: 352 ccc: 33973728
ROB Occupancy: 352 ccc: 33975159
ROB Occupancy: 304 ccc: 33975409
ROB Occupancy: 352 ccc: 33976640
ROB Occupancy: 352 ccc: 33978733
ROB Occupancy: 304 ccc: 33978984
ROB Occupancy: 352 ccc: 33979964
ROB Occupancy: 352 ccc: 33981583
ROB Occupancy: 352 ccc: 33983746
ROB Occupancy: 352 ccc: 33985113
ROB Occupancy: 352 ccc: 33988077
ROB Occupancy: 352 ccc: 33990012
ROB Occupancy: 352 ccc: 33993721
ROB Occupancy: 352 ccc: 33995531
ROB Occupancy: 304 ccc: 33996750
ROB Occupancy: 352 ccc: 33997163
ROB Occupancy: 352 ccc: 33999017
ROB Occupancy: 352 ccc: 34000877
ROB Occupancy: 352 ccc: 34004734
ROB Occupancy: 352 ccc: 34006571
ROB Occupancy: 352 ccc: 34008237
ROB Occupancy: 352 ccc: 34010229
ROB Occupancy: 352 ccc: 34012124
ROB Occupancy: 352 ccc: 34013839
ROB Occupancy: 352 ccc: 34016760
ROB Occupancy: 352 ccc: 34018727
ROB Occupancy: 352 ccc: 34020889
ROB Occupancy: 304 ccc: 34022456
ROB Occupancy: 352 ccc: 34022833
ROB Occupancy: 352 ccc: 34024385
ROB Occupancy: 352 ccc: 34027545
ROB Occupancy: 352 ccc: 34029465
ROB Occupancy: 352 ccc: 34031741
ROB Occupancy: 352 ccc: 34033451
ROB Occupancy: 307 ccc: 34033876
ROB Occupancy: 352 ccc: 34035799
ROB Occupancy: 352 ccc: 34037787
ROB Occupancy: 352 ccc: 34041254
ROB Occupancy: 352 ccc: 34042809
ROB Occupancy: 352 ccc: 34044620
ROB Occupancy: 352 ccc: 34046418
ROB Occupancy: 352 ccc: 34047846
ROB Occupancy: 352 ccc: 34049914
ROB Occupancy: 352 ccc: 34050965
ROB Occupancy: 352 ccc: 34053018
ROB Occupancy: 304 ccc: 34054700
ROB Occupancy: 352 ccc: 34055528
ROB Occupancy: 352 ccc: 34056993
ROB Occupancy: 304 ccc: 34058795
ROB Occupancy: 352 ccc: 34059172
ROB Occupancy: 352 ccc: 34061063
ROB Occupancy: 352 ccc: 34064006
ROB Occupancy: 352 ccc: 34065995
ROB Occupancy: 352 ccc: 34067701
ROB Occupancy: 352 ccc: 34069378
ROB Occupancy: 352 ccc: 34071048
ROB Occupancy: 304 ccc: 34071299
ROB Occupancy: 352 ccc: 34073402
ROB Occupancy: 352 ccc: 34074633
ROB Occupancy: 352 ccc: 34076381
ROB Occupancy: 352 ccc: 34078340
ROB Occupancy: 352 ccc: 34080017
ROB Occupancy: 352 ccc: 34082014
ROB Occupancy: 352 ccc: 34087077
ROB Occupancy: 352 ccc: 34088722
ROB Occupancy: 304 ccc: 34090186
ROB Occupancy: 352 ccc: 34090785
ROB Occupancy: 352 ccc: 34092656
ROB Occupancy: 352 ccc: 34094467
ROB Occupancy: 352 ccc: 34097938
ROB Occupancy: 352 ccc: 34100269
ROB Occupancy: 352 ccc: 34101972
ROB Occupancy: 352 ccc: 34103894
ROB Occupancy: 352 ccc: 34107839
ROB Occupancy: 352 ccc: 34111114
ROB Occupancy: 352 ccc: 34112751
ROB Occupancy: 352 ccc: 34114442
ROB Occupancy: 304 ccc: 34115810
ROB Occupancy: 352 ccc: 34117934
ROB Occupancy: 352 ccc: 34121278
ROB Occupancy: 352 ccc: 34123133
ROB Occupancy: 352 ccc: 34125455
ROB Occupancy: 352 ccc: 34126930
ROB Occupancy: 352 ccc: 34129200
ROB Occupancy: 352 ccc: 34131010
ROB Occupancy: 304 ccc: 34133516
ROB Occupancy: 352 ccc: 34134461
ROB Occupancy: 352 ccc: 34136285
ROB Occupancy: 352 ccc: 34137864
ROB Occupancy: 352 ccc: 34139660
ROB Occupancy: 352 ccc: 34141347
ROB Occupancy: 352 ccc: 34143163
ROB Occupancy: 352 ccc: 34144317
ROB Occupancy: 352 ccc: 34145919
ROB Occupancy: 352 ccc: 34147788
ROB Occupancy: 352 ccc: 34149449
ROB Occupancy: 352 ccc: 34151443
ROB Occupancy: 352 ccc: 34153273
ROB Occupancy: 352 ccc: 34156480
ROB Occupancy: 352 ccc: 34158326
ROB Occupancy: 352 ccc: 34160128
ROB Occupancy: 307 ccc: 34160379
ROB Occupancy: 352 ccc: 34161916
ROB Occupancy: 352 ccc: 34164139
ROB Occupancy: 352 ccc: 34165693
ROB Occupancy: 352 ccc: 34166941
ROB Occupancy: 342 ccc: 34169162
ROB Occupancy: 352 ccc: 34171101
ROB Occupancy: 352 ccc: 34172700
ROB Occupancy: 352 ccc: 34174791
ROB Occupancy: 352 ccc: 34176301
ROB Occupancy: 307 ccc: 34176966
ROB Occupancy: 352 ccc: 34179016
ROB Occupancy: 352 ccc: 34181079
ROB Occupancy: 352 ccc: 34182717
ROB Occupancy: 352 ccc: 34184559
ROB Occupancy: 352 ccc: 34186151
ROB Occupancy: 352 ccc: 34189472
ROB Occupancy: 352 ccc: 34191197
ROB Occupancy: 352 ccc: 34193160
ROB Occupancy: 352 ccc: 34194971
ROB Occupancy: 352 ccc: 34197092
ROB Occupancy: 352 ccc: 34199031
ROB Occupancy: 352 ccc: 34201836
ROB Occupancy: 352 ccc: 34203483
ROB Occupancy: 352 ccc: 34204927
ROB Occupancy: 352 ccc: 34207055
ROB Occupancy: 352 ccc: 34208626
ROB Occupancy: 352 ccc: 34211492
ROB Occupancy: 352 ccc: 34213032
ROB Occupancy: 352 ccc: 34214936
ROB Occupancy: 352 ccc: 34217129
ROB Occupancy: 352 ccc: 34219200
ROB Occupancy: 352 ccc: 34220766
ROB Occupancy: 352 ccc: 34223794
ROB Occupancy: 352 ccc: 34225199
ROB Occupancy: 352 ccc: 34227804
ROB Occupancy: 352 ccc: 34229247
ROB Occupancy: 352 ccc: 34231208
ROB Occupancy: 352 ccc: 34233250
ROB Occupancy: 352 ccc: 34234346
ROB Occupancy: 342 ccc: 34237106
ROB Occupancy: 352 ccc: 34238762
ROB Occupancy: 352 ccc: 34240771
ROB Occupancy: 352 ccc: 34242950
ROB Occupancy: 352 ccc: 34244527
ROB Occupancy: 304 ccc: 34247319
ROB Occupancy: 352 ccc: 34248081
ROB Occupancy: 352 ccc: 34249773
ROB Occupancy: 352 ccc: 34251811
ROB Occupancy: 352 ccc: 34253681
ROB Occupancy: 352 ccc: 34255417
ROB Occupancy: 352 ccc: 34257275
ROB Occupancy: 352 ccc: 34258237
ROB Occupancy: 352 ccc: 34260486
ROB Occupancy: 352 ccc: 34262377
ROB Occupancy: 304 ccc: 34264115
ROB Occupancy: 352 ccc: 34264242
ROB Occupancy: 352 ccc: 34265781
ROB Occupancy: 352 ccc: 34267345
ROB Occupancy: 352 ccc: 34270145
ROB Occupancy: 352 ccc: 34271998
ROB Occupancy: 352 ccc: 34273316
ROB Occupancy: 352 ccc: 34274951
ROB Occupancy: 352 ccc: 34276727
ROB Occupancy: 352 ccc: 34280046
ROB Occupancy: 352 ccc: 34281828
ROB Occupancy: 352 ccc: 34284470
ROB Occupancy: 352 ccc: 34285721
ROB Occupancy: 352 ccc: 34287841
ROB Occupancy: 352 ccc: 34289091
ROB Occupancy: 307 ccc: 34292583
ROB Occupancy: 352 ccc: 34292780
ROB Occupancy: 304 ccc: 34294199
ROB Occupancy: 352 ccc: 34294391
ROB Occupancy: 352 ccc: 34296008
ROB Occupancy: 352 ccc: 34297503
ROB Occupancy: 352 ccc: 34299174
ROB Occupancy: 352 ccc: 34302527
ROB Occupancy: 352 ccc: 34304049
ROB Occupancy: 352 ccc: 34306183
ROB Occupancy: 352 ccc: 34307939
ROB Occupancy: 352 ccc: 34310290
ROB Occupancy: 352 ccc: 34311773
ROB Occupancy: 304 ccc: 34314326
ROB Occupancy: 352 ccc: 34315258
ROB Occupancy: 352 ccc: 34317195
ROB Occupancy: 352 ccc: 34319303
ROB Occupancy: 352 ccc: 34320801
ROB Occupancy: 352 ccc: 34322838
ROB Occupancy: 352 ccc: 34324580
ROB Occupancy: 352 ccc: 34325877
ROB Occupancy: 342 ccc: 34328316
ROB Occupancy: 352 ccc: 34330006
ROB Occupancy: 352 ccc: 34331491
ROB Occupancy: 352 ccc: 34333247
ROB Occupancy: 352 ccc: 34334819
ROB Occupancy: 352 ccc: 34337210
ROB Occupancy: 352 ccc: 34339058
ROB Occupancy: 352 ccc: 34340735
ROB Occupancy: 352 ccc: 34343047
ROB Occupancy: 352 ccc: 34344459
ROB Occupancy: 352 ccc: 34348238
ROB Occupancy: 307 ccc: 34349960
ROB Occupancy: 352 ccc: 34350087
ROB Occupancy: 352 ccc: 34351862
ROB Occupancy: 304 ccc: 34353280
ROB Occupancy: 352 ccc: 34353411
ROB Occupancy: 352 ccc: 34355653
ROB Occupancy: 352 ccc: 34357640
ROB Occupancy: 307 ccc: 34358448
ROB Occupancy: 352 ccc: 34360713
ROB Occupancy: 352 ccc: 34362483
ROB Occupancy: 352 ccc: 34363984
ROB Occupancy: 352 ccc: 34366199
ROB Occupancy: 352 ccc: 34367843
ROB Occupancy: 352 ccc: 34370904
ROB Occupancy: 352 ccc: 34372575
ROB Occupancy: 352 ccc: 34374609
ROB Occupancy: 352 ccc: 34376550
ROB Occupancy: 352 ccc: 34378692
ROB Occupancy: 352 ccc: 34380071
ROB Occupancy: 352 ccc: 34382917
ROB Occupancy: 352 ccc: 34384573
ROB Occupancy: 352 ccc: 34386825
ROB Occupancy: 352 ccc: 34388708
ROB Occupancy: 352 ccc: 34390580
ROB Occupancy: 352 ccc: 34392479
ROB Occupancy: 352 ccc: 34393861
ROB Occupancy: 352 ccc: 34395855
ROB Occupancy: 352 ccc: 34397958
ROB Occupancy: 352 ccc: 34400064
ROB Occupancy: 352 ccc: 34402230
ROB Occupancy: 352 ccc: 34403915
ROB Occupancy: 352 ccc: 34407364
ROB Occupancy: 352 ccc: 34409034
ROB Occupancy: 352 ccc: 34411308
ROB Occupancy: 352 ccc: 34412909
ROB Occupancy: 352 ccc: 34414742
ROB Occupancy: 352 ccc: 34416289
ROB Occupancy: 352 ccc: 34417506
ROB Occupancy: 352 ccc: 34418967
ROB Occupancy: 352 ccc: 34421375
ROB Occupancy: 352 ccc: 34423120
ROB Occupancy: 352 ccc: 34425523
ROB Occupancy: 352 ccc: 34427248
ROB Occupancy: 352 ccc: 34430940
ROB Occupancy: 352 ccc: 34432587
ROB Occupancy: 352 ccc: 34433941
ROB Occupancy: 352 ccc: 34435554
ROB Occupancy: 352 ccc: 34437212
ROB Occupancy: 352 ccc: 34440716
ROB Occupancy: 348 ccc: 34442771
ROB Occupancy: 352 ccc: 34445350
ROB Occupancy: 352 ccc: 34446967
ROB Occupancy: 352 ccc: 34448721
ROB Occupancy: 352 ccc: 34453590
ROB Occupancy: 310 ccc: 34454908
ROB Occupancy: 352 ccc: 34455416
ROB Occupancy: 352 ccc: 34457173
ROB Occupancy: 352 ccc: 34459005
ROB Occupancy: 352 ccc: 34460939
ROB Occupancy: 352 ccc: 34464652
ROB Occupancy: 352 ccc: 34466607
ROB Occupancy: 352 ccc: 34468512
ROB Occupancy: 352 ccc: 34470053
ROB Occupancy: 352 ccc: 34472288
ROB Occupancy: 352 ccc: 34473844
ROB Occupancy: 307 ccc: 34476899
ROB Occupancy: 352 ccc: 34477095
ROB Occupancy: 352 ccc: 34478734
ROB Occupancy: 352 ccc: 34480431
ROB Occupancy: 352 ccc: 34482383
ROB Occupancy: 352 ccc: 34483974
ROB Occupancy: 352 ccc: 34485849
ROB Occupancy: 352 ccc: 34486779
ROB Occupancy: 304 ccc: 34487669
ROB Occupancy: 352 ccc: 34488129
ROB Occupancy: 352 ccc: 34490313
ROB Occupancy: 352 ccc: 34491739
ROB Occupancy: 352 ccc: 34494052
ROB Occupancy: 352 ccc: 34495642
ROB Occupancy: 304 ccc: 34495862
ROB Occupancy: 352 ccc: 34498766
ROB Occupancy: 352 ccc: 34500234
ROB Occupancy: 352 ccc: 34503964
ROB Occupancy: 352 ccc: 34506209
ROB Occupancy: 352 ccc: 34508216
ROB Occupancy: 352 ccc: 34509441
ROB Occupancy: 352 ccc: 34511249
ROB Occupancy: 352 ccc: 34513021
ROB Occupancy: 352 ccc: 34514836
ROB Occupancy: 352 ccc: 34517036
ROB Occupancy: 352 ccc: 34518770
ROB Occupancy: 304 ccc: 34519306
ROB Occupancy: 352 ccc: 34521755
ROB Occupancy: 304 ccc: 34522643
ROB Occupancy: 352 ccc: 34523188
ROB Occupancy: 352 ccc: 34524827
ROB Occupancy: 352 ccc: 34526855
ROB Occupancy: 352 ccc: 34528733
ROB Occupancy: 352 ccc: 34532107
ROB Occupancy: 352 ccc: 34534009
ROB Occupancy: 352 ccc: 34536087
ROB Occupancy: 352 ccc: 34537836
ROB Occupancy: 352 ccc: 34539958
ROB Occupancy: 352 ccc: 34541441
ROB Occupancy: 352 ccc: 34544433
ROB Occupancy: 350 ccc: 34546201
ROB Occupancy: 352 ccc: 34547432
ROB Occupancy: 352 ccc: 34549805
ROB Occupancy: 352 ccc: 34551067
ROB Occupancy: 352 ccc: 34554335
ROB Occupancy: 352 ccc: 34555768
ROB Occupancy: 352 ccc: 34557990
ROB Occupancy: 304 ccc: 34558886
ROB Occupancy: 352 ccc: 34559283
ROB Occupancy: 352 ccc: 34561581
ROB Occupancy: 352 ccc: 34563273
ROB Occupancy: 352 ccc: 34566633
ROB Occupancy: 352 ccc: 34568244
ROB Occupancy: 352 ccc: 34571065
ROB Occupancy: 352 ccc: 34572705
ROB Occupancy: 352 ccc: 34574428
ROB Occupancy: 352 ccc: 34576007
ROB Occupancy: 352 ccc: 34577535
ROB Occupancy: 352 ccc: 34579138
ROB Occupancy: 352 ccc: 34581496
ROB Occupancy: 352 ccc: 34583096
ROB Occupancy: 307 ccc: 34583427
ROB Occupancy: 352 ccc: 34585455
ROB Occupancy: 352 ccc: 34587402
ROB Occupancy: 352 ccc: 34590383
ROB Occupancy: 352 ccc: 34591739
ROB Occupancy: 352 ccc: 34593822
ROB Occupancy: 352 ccc: 34595261
ROB Occupancy: 352 ccc: 34596866
ROB Occupancy: 352 ccc: 34599006
ROB Occupancy: 352 ccc: 34599940
ROB Occupancy: 352 ccc: 34602552
ROB Occupancy: 304 ccc: 34603661
ROB Occupancy: 352 ccc: 34604278
ROB Occupancy: 352 ccc: 34605851
ROB Occupancy: 304 ccc: 34607451
ROB Occupancy: 352 ccc: 34607643
ROB Occupancy: 307 ccc: 34608172
ROB Occupancy: 352 ccc: 34609367
ROB Occupancy: 304 ccc: 34611693
ROB Occupancy: 352 ccc: 34612256
ROB Occupancy: 304 ccc: 34613943
ROB Occupancy: 352 ccc: 34614859
ROB Occupancy: 352 ccc: 34616121
ROB Occupancy: 352 ccc: 34618400
ROB Occupancy: 352 ccc: 34619851
ROB Occupancy: 352 ccc: 34623254
ROB Occupancy: 342 ccc: 34624580
ROB Occupancy: 352 ccc: 34627034
ROB Occupancy: 352 ccc: 34628227
ROB Occupancy: 352 ccc: 34630117
ROB Occupancy: 352 ccc: 34631974
ROB Occupancy: 352 ccc: 34635969
ROB Occupancy: 352 ccc: 34637949
ROB Occupancy: 304 ccc: 34639036
ROB Occupancy: 352 ccc: 34639638
ROB Occupancy: 352 ccc: 34641920
ROB Occupancy: 304 ccc: 34643327
ROB Occupancy: 352 ccc: 34643482
ROB Occupancy: 352 ccc: 34647626
ROB Occupancy: 352 ccc: 34649210
ROB Occupancy: 352 ccc: 34651276
ROB Occupancy: 304 ccc: 34652158
ROB Occupancy: 352 ccc: 34652531
ROB Occupancy: 352 ccc: 34654645
ROB Occupancy: 352 ccc: 34656158
ROB Occupancy: 352 ccc: 34659005
ROB Occupancy: 352 ccc: 34660718
ROB Occupancy: 352 ccc: 34662526
ROB Occupancy: 304 ccc: 34663989
ROB Occupancy: 352 ccc: 34664182
ROB Occupancy: 352 ccc: 34666296
ROB Occupancy: 307 ccc: 34667337
ROB Occupancy: 352 ccc: 34668004
ROB Occupancy: 352 ccc: 34669081
ROB Occupancy: 304 ccc: 34670313
ROB Occupancy: 348 ccc: 34671169
ROB Occupancy: 352 ccc: 34672360
ROB Occupancy: 352 ccc: 34674483
ROB Occupancy: 352 ccc: 34675936
ROB Occupancy: 352 ccc: 34677998
ROB Occupancy: 352 ccc: 34680601
ROB Occupancy: 352 ccc: 34683612
ROB Occupancy: 352 ccc: 34684828
ROB Occupancy: 352 ccc: 34686935
ROB Occupancy: 352 ccc: 34688426
ROB Occupancy: 352 ccc: 34689915
ROB Occupancy: 352 ccc: 34691072
ROB Occupancy: 352 ccc: 34693215
ROB Occupancy: 352 ccc: 34695365
ROB Occupancy: 352 ccc: 34697612
ROB Occupancy: 352 ccc: 34699647
ROB Occupancy: 352 ccc: 34701408
ROB Occupancy: 304 ccc: 34702779
ROB Occupancy: 352 ccc: 34703830
ROB Occupancy: 352 ccc: 34705911
ROB Occupancy: 352 ccc: 34707386
ROB Occupancy: 352 ccc: 34709577
ROB Occupancy: 320 ccc: 34710925
ROB Occupancy: 352 ccc: 34711044
ROB Occupancy: 352 ccc: 34714670
ROB Occupancy: 304 ccc: 34715194
ROB Occupancy: 352 ccc: 34716032
ROB Occupancy: 352 ccc: 34718271
ROB Occupancy: 304 ccc: 34719154
ROB Occupancy: 352 ccc: 34719635
ROB Occupancy: 352 ccc: 34721686
ROB Occupancy: 352 ccc: 34723533
ROB Occupancy: 352 ccc: 34727400
ROB Occupancy: 352 ccc: 34728765
ROB Occupancy: 304 ccc: 34730750
ROB Occupancy: 352 ccc: 34731406
ROB Occupancy: 352 ccc: 34732728
ROB Occupancy: 352 ccc: 34734640
ROB Occupancy: 352 ccc: 34736225
ROB Occupancy: 352 ccc: 34737376
ROB Occupancy: 352 ccc: 34739175
ROB Occupancy: 352 ccc: 34740586
ROB Occupancy: 352 ccc: 34743114
ROB Occupancy: 352 ccc: 34744662
ROB Occupancy: 352 ccc: 34746520
ROB Occupancy: 352 ccc: 34749694
ROB Occupancy: 352 ccc: 34751284
ROB Occupancy: 352 ccc: 34752841
ROB Occupancy: 352 ccc: 34754382
ROB Occupancy: 352 ccc: 34756050
ROB Occupancy: 352 ccc: 34757672
ROB Occupancy: 352 ccc: 34758810
ROB Occupancy: 352 ccc: 34761219
ROB Occupancy: 352 ccc: 34763312
ROB Occupancy: 352 ccc: 34765326
ROB Occupancy: 352 ccc: 34766649
ROB Occupancy: 352 ccc: 34768277
ROB Occupancy: 304 ccc: 34769801
ROB Occupancy: 352 ccc: 34770590
ROB Occupancy: 352 ccc: 34773407
ROB Occupancy: 352 ccc: 34774690
ROB Occupancy: 352 ccc: 34776663
ROB Occupancy: 352 ccc: 34777715
ROB Occupancy: 352 ccc: 34781269
ROB Occupancy: 342 ccc: 34782722
ROB Occupancy: 352 ccc: 34784646
ROB Occupancy: 352 ccc: 34786210
ROB Occupancy: 352 ccc: 34788089
ROB Occupancy: 307 ccc: 34788627
ROB Occupancy: 352 ccc: 34789863
ROB Occupancy: 352 ccc: 34793240
ROB Occupancy: 352 ccc: 34794723
ROB Occupancy: 352 ccc: 34796528
ROB Occupancy: 307 ccc: 34796779
ROB Occupancy: 352 ccc: 34798060
ROB Occupancy: 352 ccc: 34799526
ROB Occupancy: 352 ccc: 34802294
ROB Occupancy: 352 ccc: 34804535
ROB Occupancy: 352 ccc: 34806648
ROB Occupancy: 352 ccc: 34808590
ROB Occupancy: 352 ccc: 34810950
ROB Occupancy: 352 ccc: 34812613
ROB Occupancy: 352 ccc: 34815768
ROB Occupancy: 304 ccc: 34816828
ROB Occupancy: 352 ccc: 34817442
ROB Occupancy: 352 ccc: 34819191
ROB Occupancy: 352 ccc: 34821166
ROB Occupancy: 352 ccc: 34825330
ROB Occupancy: 352 ccc: 34826476
ROB Occupancy: 352 ccc: 34829089
ROB Occupancy: 352 ccc: 34830566
ROB Occupancy: 352 ccc: 34832906
ROB Occupancy: 352 ccc: 34834455
ROB Occupancy: 352 ccc: 34836500
ROB Occupancy: 352 ccc: 34839034
ROB Occupancy: 352 ccc: 34841168
ROB Occupancy: 352 ccc: 34842411
ROB Occupancy: 304 ccc: 34844375
ROB Occupancy: 352 ccc: 34844735
ROB Occupancy: 352 ccc: 34846618
ROB Occupancy: 352 ccc: 34848270
ROB Occupancy: 352 ccc: 34849716
ROB Occupancy: 352 ccc: 34851180
ROB Occupancy: 352 ccc: 34853365
ROB Occupancy: 352 ccc: 34857851
ROB Occupancy: 352 ccc: 34859537
ROB Occupancy: 352 ccc: 34862229
ROB Occupancy: 352 ccc: 34863615
ROB Occupancy: 352 ccc: 34865321
ROB Occupancy: 352 ccc: 34867232
ROB Occupancy: 352 ccc: 34869359
ROB Occupancy: 352 ccc: 34872545
ROB Occupancy: 352 ccc: 34873965
ROB Occupancy: 352 ccc: 34877987
ROB Occupancy: 352 ccc: 34880169
ROB Occupancy: 307 ccc: 34880626
ROB Occupancy: 352 ccc: 34881600
ROB Occupancy: 304 ccc: 34883871
ROB Occupancy: 352 ccc: 34884448
ROB Occupancy: 352 ccc: 34889340
ROB Occupancy: 352 ccc: 34890766
ROB Occupancy: 352 ccc: 34892791
ROB Occupancy: 304 ccc: 34893042
ROB Occupancy: 352 ccc: 34895848
ROB Occupancy: 352 ccc: 34897678
ROB Occupancy: 352 ccc: 34899275
ROB Occupancy: 320 ccc: 34901388
ROB Occupancy: 352 ccc: 34901630
ROB Occupancy: 352 ccc: 34903126
ROB Occupancy: 352 ccc: 34905022
ROB Occupancy: 307 ccc: 34905701
ROB Occupancy: 352 ccc: 34908165
ROB Occupancy: 352 ccc: 34910032
ROB Occupancy: 352 ccc: 34911414
ROB Occupancy: 352 ccc: 34913244
ROB Occupancy: 352 ccc: 34914703
ROB Occupancy: 352 ccc: 34916393
ROB Occupancy: 352 ccc: 34917475
ROB Occupancy: 352 ccc: 34919503
ROB Occupancy: 352 ccc: 34921845
ROB Occupancy: 352 ccc: 34923445
ROB Occupancy: 352 ccc: 34925560
ROB Occupancy: 352 ccc: 34927112
ROB Occupancy: 307 ccc: 34929995
ROB Occupancy: 352 ccc: 34930236
ROB Occupancy: 352 ccc: 34932460
ROB Occupancy: 352 ccc: 34934311
ROB Occupancy: 352 ccc: 34935846
ROB Occupancy: 304 ccc: 34936558
ROB Occupancy: 352 ccc: 34937671
ROB Occupancy: 352 ccc: 34939773
ROB Occupancy: 352 ccc: 34941048
ROB Occupancy: 352 ccc: 34942840
ROB Occupancy: 304 ccc: 34944187
ROB Occupancy: 352 ccc: 34945203
ROB Occupancy: 352 ccc: 34946849
ROB Occupancy: 304 ccc: 34948695
ROB Occupancy: 352 ccc: 34949184
ROB Occupancy: 352 ccc: 34951119
ROB Occupancy: 352 ccc: 34954253
ROB Occupancy: 352 ccc: 34955828
ROB Occupancy: 352 ccc: 34957574
ROB Occupancy: 352 ccc: 34959518
ROB Occupancy: 352 ccc: 34961164
ROB Occupancy: 352 ccc: 34964119
ROB Occupancy: 352 ccc: 34966015
ROB Occupancy: 352 ccc: 34967823
ROB Occupancy: 352 ccc: 34969489
ROB Occupancy: 352 ccc: 34972259
ROB Occupancy: 352 ccc: 34973901
ROB Occupancy: 352 ccc: 34977354
ROB Occupancy: 352 ccc: 34979131
ROB Occupancy: 352 ccc: 34980488
ROB Occupancy: 352 ccc: 34982523
ROB Occupancy: 352 ccc: 34984247
ROB Occupancy: 352 ccc: 34987852
ROB Occupancy: 348 ccc: 34989696
ROB Occupancy: 352 ccc: 34991824
ROB Occupancy: 304 ccc: 34993584
ROB Occupancy: 352 ccc: 34993716
ROB Occupancy: 352 ccc: 34995166
ROB Occupancy: 352 ccc: 34996830
ROB Occupancy: 307 ccc: 34997551
ROB Occupancy: 352 ccc: 34999816
ROB Occupancy: 352 ccc: 35001400
ROB Occupancy: 352 ccc: 35003213
ROB Occupancy: 352 ccc: 35005212
ROB Occupancy: 352 ccc: 35008727
ROB Occupancy: 352 ccc: 35010097
ROB Occupancy: 352 ccc: 35012062
ROB Occupancy: 304 ccc: 35013282
ROB Occupancy: 352 ccc: 35014006
ROB Occupancy: 352 ccc: 35016110
ROB Occupancy: 304 ccc: 35018074
ROB Occupancy: 352 ccc: 35018418
ROB Occupancy: 352 ccc: 35019876
ROB Occupancy: 352 ccc: 35022886
ROB Occupancy: 352 ccc: 35024974
ROB Occupancy: 352 ccc: 35026586
ROB Occupancy: 352 ccc: 35028228
ROB Occupancy: 352 ccc: 35030454
ROB Occupancy: 352 ccc: 35031775
ROB Occupancy: 352 ccc: 35032901
ROB Occupancy: 352 ccc: 35034613
ROB Occupancy: 352 ccc: 35036790
ROB Occupancy: 304 ccc: 35037218
ROB Occupancy: 352 ccc: 35038513
ROB Occupancy: 352 ccc: 35040151
ROB Occupancy: 304 ccc: 35040463
ROB Occupancy: 352 ccc: 35041720
ROB Occupancy: 304 ccc: 35043822
ROB Occupancy: 352 ccc: 35044860
ROB Occupancy: 352 ccc: 35046840
ROB Occupancy: 352 ccc: 35049233
ROB Occupancy: 352 ccc: 35050487
ROB Occupancy: 352 ccc: 35052788
ROB Occupancy: 352 ccc: 35056224
ROB Occupancy: 352 ccc: 35058405
ROB Occupancy: 352 ccc: 35060319
ROB Occupancy: 352 ccc: 35062180
ROB Occupancy: 352 ccc: 35064092
ROB Occupancy: 352 ccc: 35066112
ROB Occupancy: 352 ccc: 35069482
ROB Occupancy: 304 ccc: 35070339
ROB Occupancy: 352 ccc: 35071042
ROB Occupancy: 352 ccc: 35072809
ROB Occupancy: 352 ccc: 35074364
ROB Occupancy: 352 ccc: 35076021
ROB Occupancy: 352 ccc: 35079898
ROB Occupancy: 342 ccc: 35081720
ROB Occupancy: 304 ccc: 35083960
ROB Occupancy: 352 ccc: 35084087
ROB Occupancy: 352 ccc: 35085625
ROB Occupancy: 352 ccc: 35087770
ROB Occupancy: 352 ccc: 35089577
ROB Occupancy: 352 ccc: 35092888
ROB Occupancy: 304 ccc: 35094088
ROB Occupancy: 352 ccc: 35094666
ROB Occupancy: 352 ccc: 35096998
ROB Occupancy: 352 ccc: 35098569
ROB Occupancy: 352 ccc: 35100556
ROB Occupancy: 352 ccc: 35102689
ROB Occupancy: 352 ccc: 35103884
ROB Occupancy: 352 ccc: 35105800
ROB Occupancy: 304 ccc: 35107056
ROB Occupancy: 352 ccc: 35107761
ROB Occupancy: 352 ccc: 35109767
ROB Occupancy: 352 ccc: 35111966
ROB Occupancy: 352 ccc: 35113714
ROB Occupancy: 352 ccc: 35117423
ROB Occupancy: 352 ccc: 35119279
ROB Occupancy: 304 ccc: 35121064
ROB Occupancy: 352 ccc: 35121495
ROB Occupancy: 352 ccc: 35123085
ROB Occupancy: 352 ccc: 35124461
ROB Occupancy: 352 ccc: 35126559
ROB Occupancy: 352 ccc: 35127760
ROB Occupancy: 352 ccc: 35129669
ROB Occupancy: 352 ccc: 35131793
ROB Occupancy: 352 ccc: 35133398
ROB Occupancy: 352 ccc: 35136077
ROB Occupancy: 352 ccc: 35137809
ROB Occupancy: 304 ccc: 35138121
ROB Occupancy: 352 ccc: 35141506
ROB Occupancy: 352 ccc: 35143486
ROB Occupancy: 352 ccc: 35145208
ROB Occupancy: 352 ccc: 35147122
ROB Occupancy: 352 ccc: 35149148
ROB Occupancy: 352 ccc: 35152411
ROB Occupancy: 352 ccc: 35154383
ROB Occupancy: 352 ccc: 35156350
ROB Occupancy: 352 ccc: 35158193
ROB Occupancy: 352 ccc: 35160390
ROB Occupancy: 352 ccc: 35162065
ROB Occupancy: 302 ccc: 35165566
ROB Occupancy: 304 ccc: 35166818
ROB Occupancy: 352 ccc: 35167686
ROB Occupancy: 352 ccc: 35169078
ROB Occupancy: 352 ccc: 35171332
ROB Occupancy: 352 ccc: 35172750
ROB Occupancy: 352 ccc: 35174713
ROB Occupancy: 352 ccc: 35176382
ROB Occupancy: 352 ccc: 35177979
ROB Occupancy: 352 ccc: 35180123
ROB Occupancy: 352 ccc: 35181786
ROB Occupancy: 352 ccc: 35184493
ROB Occupancy: 352 ccc: 35186045
ROB Occupancy: 352 ccc: 35189008
ROB Occupancy: 352 ccc: 35190930
ROB Occupancy: 304 ccc: 35192254
ROB Occupancy: 352 ccc: 35192815
ROB Occupancy: 352 ccc: 35194574
ROB Occupancy: 352 ccc: 35198730
ROB Occupancy: 352 ccc: 35200067
ROB Occupancy: 352 ccc: 35201849
ROB Occupancy: 352 ccc: 35204371
ROB Occupancy: 352 ccc: 35205837
ROB Occupancy: 352 ccc: 35208062
ROB Occupancy: 352 ccc: 35209642
ROB Occupancy: 352 ccc: 35212635
ROB Occupancy: 352 ccc: 35214728
ROB Occupancy: 352 ccc: 35216941
ROB Occupancy: 352 ccc: 35220492
ROB Occupancy: 352 ccc: 35224189
ROB Occupancy: 304 ccc: 35225385
ROB Occupancy: 352 ccc: 35226342
ROB Occupancy: 352 ccc: 35228484
ROB Occupancy: 352 ccc: 35230589
ROB Occupancy: 352 ccc: 35232390
ROB Occupancy: 352 ccc: 35234147
ROB Occupancy: 352 ccc: 35237557
ROB Occupancy: 352 ccc: 35239941
ROB Occupancy: 352 ccc: 35241674
ROB Occupancy: 352 ccc: 35243401
ROB Occupancy: 352 ccc: 35245170
ROB Occupancy: 352 ccc: 35248433
ROB Occupancy: 352 ccc: 35250475
ROB Occupancy: 352 ccc: 35253047
ROB Occupancy: 352 ccc: 35254531
ROB Occupancy: 304 ccc: 35256357
ROB Occupancy: 352 ccc: 35256550
ROB Occupancy: 352 ccc: 35258018
ROB Occupancy: 304 ccc: 35260423
ROB Occupancy: 352 ccc: 35261101
ROB Occupancy: 352 ccc: 35262950
ROB Occupancy: 352 ccc: 35264698
ROB Occupancy: 352 ccc: 35266576
ROB Occupancy: 352 ccc: 35268329
ROB Occupancy: 352 ccc: 35270270
ROB Occupancy: 352 ccc: 35271409
ROB Occupancy: 352 ccc: 35272744
ROB Occupancy: 352 ccc: 35274650
ROB Occupancy: 352 ccc: 35276172
ROB Occupancy: 352 ccc: 35278402
ROB Occupancy: 352 ccc: 35280064
ROB Occupancy: 352 ccc: 35283332
ROB Occupancy: 352 ccc: 35284969
ROB Occupancy: 352 ccc: 35286944
ROB Occupancy: 352 ccc: 35288472
ROB Occupancy: 352 ccc: 35290265
ROB Occupancy: 352 ccc: 35292135
ROB Occupancy: 352 ccc: 35293267
ROB Occupancy: 352 ccc: 35295680
ROB Occupancy: 352 ccc: 35296968
ROB Occupancy: 352 ccc: 35299261
ROB Occupancy: 352 ccc: 35301171
ROB Occupancy: 352 ccc: 35303038
ROB Occupancy: 352 ccc: 35305832
ROB Occupancy: 352 ccc: 35307793
ROB Occupancy: 352 ccc: 35309514
ROB Occupancy: 304 ccc: 35311088
ROB Occupancy: 352 ccc: 35311465
ROB Occupancy: 352 ccc: 35313583
ROB Occupancy: 352 ccc: 35316813
ROB Occupancy: 304 ccc: 35318004
ROB Occupancy: 352 ccc: 35318709
ROB Occupancy: 352 ccc: 35320398
ROB Occupancy: 352 ccc: 35322066
ROB Occupancy: 352 ccc: 35323976
ROB Occupancy: 352 ccc: 35325791
ROB Occupancy: 352 ccc: 35329386
ROB Occupancy: 352 ccc: 35331471
ROB Occupancy: 352 ccc: 35333167
ROB Occupancy: 352 ccc: 35335420
ROB Occupancy: 352 ccc: 35336830
ROB Occupancy: 352 ccc: 35339837
ROB Occupancy: 352 ccc: 35341750
ROB Occupancy: 352 ccc: 35343939
ROB Occupancy: 352 ccc: 35345547
ROB Occupancy: 352 ccc: 35347961
ROB Occupancy: 352 ccc: 35349853
ROB Occupancy: 352 ccc: 35353151
ROB Occupancy: 352 ccc: 35354411
ROB Occupancy: 352 ccc: 35356403
ROB Occupancy: 304 ccc: 35361168
ROB Occupancy: 304 ccc: 35384334
ROB Occupancy: 304 ccc: 35397722
ROB Occupancy: 304 ccc: 35402034
ROB Occupancy: 304 ccc: 35410342
ROB Occupancy: 304 ccc: 35441807
ROB Occupancy: 304 ccc: 35446277
ROB Occupancy: 307 ccc: 35460279
ROB Occupancy: 304 ccc: 35464584
ROB Occupancy: 304 ccc: 35491732
ROB Occupancy: 304 ccc: 35533251
ROB Occupancy: 304 ccc: 35541960
ROB Occupancy: 304 ccc: 35551395
ROB Occupancy: 304 ccc: 35559418
ROB Occupancy: 304 ccc: 35588833
ROB Occupancy: 304 ccc: 35629681
ROB Occupancy: 304 ccc: 35679832
ROB Occupancy: 304 ccc: 35696680
ROB Occupancy: 304 ccc: 35698297
ROB Occupancy: 304 ccc: 35724727
ROB Occupancy: 304 ccc: 35761571
ROB Occupancy: 304 ccc: 35774256
ROB Occupancy: 304 ccc: 35791779
ROB Occupancy: 304 ccc: 35846497
ROB Occupancy: 304 ccc: 35879964
ROB Occupancy: 307 ccc: 35884732
ROB Occupancy: 304 ccc: 35914811
ROB Occupancy: 304 ccc: 35941283
ROB Occupancy: 307 ccc: 36002469
ROB Occupancy: 304 ccc: 36013512
ROB Occupancy: 304 ccc: 36032667
ROB Occupancy: 307 ccc: 36094015
ROB Occupancy: 307 ccc: 36109010
ROB Occupancy: 304 ccc: 36112130
ROB Occupancy: 304 ccc: 36119947
ROB Occupancy: 304 ccc: 36132226
ROB Occupancy: 304 ccc: 36146434
ROB Occupancy: 304 ccc: 36235110
ROB Occupancy: 304 ccc: 36236925
ROB Occupancy: 304 ccc: 36278453
ROB Occupancy: 307 ccc: 36289439
ROB Occupancy: 304 ccc: 36300828
ROB Occupancy: 304 ccc: 36312890
ROB Occupancy: 304 ccc: 36326367
ROB Occupancy: 304 ccc: 36342272
ROB Occupancy: 304 ccc: 36343919
ROB Occupancy: 304 ccc: 36382704
ROB Occupancy: 304 ccc: 36396667
ROB Occupancy: 304 ccc: 36410175
ROB Occupancy: 304 ccc: 36414721
ROB Occupancy: 307 ccc: 36415461
ROB Occupancy: 304 ccc: 36419284
ROB Occupancy: 307 ccc: 36424367
ROB Occupancy: 304 ccc: 36454513
ROB Occupancy: 304 ccc: 36461731
ROB Occupancy: 304 ccc: 36466450
ROB Occupancy: 304 ccc: 36490671
ROB Occupancy: 304 ccc: 36513867
ROB Occupancy: 304 ccc: 36527035
ROB Occupancy: 307 ccc: 36527964
ROB Occupancy: 304 ccc: 36531610
ROB Occupancy: 304 ccc: 36549642
ROB Occupancy: 307 ccc: 36554411
ROB Occupancy: 304 ccc: 36612222
ROB Occupancy: 304 ccc: 36619381
ROB Occupancy: 304 ccc: 36627806
ROB Occupancy: 307 ccc: 36649752
ROB Occupancy: 304 ccc: 36671188
ROB Occupancy: 304 ccc: 36674038
ROB Occupancy: 304 ccc: 36707379
ROB Occupancy: 304 ccc: 36724858
ROB Occupancy: 304 ccc: 36821230
ROB Occupancy: 307 ccc: 36842148
ROB Occupancy: 304 ccc: 36845805
ROB Occupancy: 304 ccc: 36870370
ROB Occupancy: 304 ccc: 36895831
ROB Occupancy: 304 ccc: 36898114
ROB Occupancy: 304 ccc: 36941545
ROB Occupancy: 304 ccc: 36957072
ROB Occupancy: 304 ccc: 36992519
ROB Occupancy: 304 ccc: 37000802
ROB Occupancy: 304 ccc: 37011025
ROB Occupancy: 304 ccc: 37037197
ROB Occupancy: 304 ccc: 37130772
ROB Occupancy: 304 ccc: 37157654
ROB Occupancy: 304 ccc: 37197324
ROB Occupancy: 304 ccc: 37224998
ROB Occupancy: 304 ccc: 37249749
ROB Occupancy: 304 ccc: 37287771
ROB Occupancy: 304 ccc: 37329692
ROB Occupancy: 304 ccc: 37333915
ROB Occupancy: 304 ccc: 37334419
ROB Occupancy: 304 ccc: 37337999
ROB Occupancy: 304 ccc: 37364084
ROB Occupancy: 304 ccc: 37380138
ROB Occupancy: 304 ccc: 37402291
ROB Occupancy: 304 ccc: 37412708
ROB Occupancy: 307 ccc: 37435759
ROB Occupancy: 304 ccc: 37439064
ROB Occupancy: 304 ccc: 37505637
ROB Occupancy: 304 ccc: 37553443
ROB Occupancy: 304 ccc: 37557209
ROB Occupancy: 304 ccc: 37582550
ROB Occupancy: 304 ccc: 37586996
ROB Occupancy: 304 ccc: 37623344
ROB Occupancy: 304 ccc: 37673317
ROB Occupancy: 307 ccc: 37721826
ROB Occupancy: 307 ccc: 37729231
ROB Occupancy: 307 ccc: 37738322
ROB Occupancy: 304 ccc: 37754124
ROB Occupancy: 304 ccc: 37761432
ROB Occupancy: 304 ccc: 37796689
ROB Occupancy: 304 ccc: 37801497
ROB Occupancy: 307 ccc: 37829183
ROB Occupancy: 304 ccc: 37844838
ROB Occupancy: 304 ccc: 37852965
ROB Occupancy: 304 ccc: 37857488
ROB Occupancy: 304 ccc: 37860933
ROB Occupancy: 304 ccc: 37865100
ROB Occupancy: 304 ccc: 37865473
ROB Occupancy: 304 ccc: 37902268
ROB Occupancy: 304 ccc: 37914532
ROB Occupancy: 304 ccc: 37924764
ROB Occupancy: 304 ccc: 37961670
ROB Occupancy: 304 ccc: 37982984
ROB Occupancy: 304 ccc: 37993056
ROB Occupancy: 304 ccc: 38001323
ROB Occupancy: 304 ccc: 38026073
ROB Occupancy: 304 ccc: 38041793
ROB Occupancy: 304 ccc: 38049559
ROB Occupancy: 304 ccc: 38058013
ROB Occupancy: 304 ccc: 38075716
ROB Occupancy: 307 ccc: 38080966
ROB Occupancy: 304 ccc: 38094473
ROB Occupancy: 304 ccc: 38111666
ROB Occupancy: 307 ccc: 38139951
ROB Occupancy: 304 ccc: 38143569
ROB Occupancy: 304 ccc: 38152041
ROB Occupancy: 307 ccc: 38175373
ROB Occupancy: 307 ccc: 38183840
ROB Occupancy: 304 ccc: 38207101
ROB Occupancy: 304 ccc: 38232609
ROB Occupancy: 304 ccc: 38250194
ROB Occupancy: 304 ccc: 38266787
ROB Occupancy: 307 ccc: 38280328
ROB Occupancy: 304 ccc: 38301406
ROB Occupancy: 304 ccc: 38329474
ROB Occupancy: 304 ccc: 38338208
ROB Occupancy: 304 ccc: 38370187
ROB Occupancy: 304 ccc: 38378481
ROB Occupancy: 304 ccc: 38421642
ROB Occupancy: 307 ccc: 38466426
ROB Occupancy: 304 ccc: 38470113
ROB Occupancy: 304 ccc: 38487035
ROB Occupancy: 304 ccc: 38521606
ROB Occupancy: 304 ccc: 38581772
ROB Occupancy: 304 ccc: 38608326
ROB Occupancy: 304 ccc: 38616749
ROB Occupancy: 304 ccc: 38625395
ROB Occupancy: 304 ccc: 38653296
ROB Occupancy: 304 ccc: 38709767
ROB Occupancy: 307 ccc: 38740859
ROB Occupancy: 304 ccc: 38742516
ROB Occupancy: 304 ccc: 38758982
ROB Occupancy: 304 ccc: 38759513
ROB Occupancy: 304 ccc: 38795227
ROB Occupancy: 304 ccc: 38804003
ROB Occupancy: 304 ccc: 38811861
ROB Occupancy: 307 ccc: 38833752
ROB Occupancy: 304 ccc: 38848759
ROB Occupancy: 304 ccc: 38886516
ROB Occupancy: 304 ccc: 38890338
ROB Occupancy: 304 ccc: 38898687
ROB Occupancy: 304 ccc: 38930506
ROB Occupancy: 304 ccc: 38938028
ROB Occupancy: 304 ccc: 38942298
ROB Occupancy: 304 ccc: 38947071
ROB Occupancy: 304 ccc: 38947443
ROB Occupancy: 304 ccc: 38955991
ROB Occupancy: 304 ccc: 38958172
ROB Occupancy: 304 ccc: 38991237
ROB Occupancy: 304 ccc: 39031092
ROB Occupancy: 304 ccc: 39039129
ROB Occupancy: 304 ccc: 39047812
ROB Occupancy: 304 ccc: 39060566
ROB Occupancy: 304 ccc: 39073921
ROB Occupancy: 304 ccc: 39091276
ROB Occupancy: 304 ccc: 39116824
ROB Occupancy: 304 ccc: 39132198
ROB Occupancy: 307 ccc: 39163004
ROB Occupancy: 304 ccc: 39211321
ROB Occupancy: 304 ccc: 39219833
ROB Occupancy: 307 ccc: 39230470
ROB Occupancy: 304 ccc: 39233998
ROB Occupancy: 307 ccc: 39258208
ROB Occupancy: 307 ccc: 39274119
ROB Occupancy: 304 ccc: 39313946
ROB Occupancy: 304 ccc: 39390673
ROB Occupancy: 304 ccc: 39410553
ROB Occupancy: 304 ccc: 39415392
ROB Occupancy: 304 ccc: 39447035
ROB Occupancy: 304 ccc: 39482942
ROB Occupancy: 304 ccc: 39490828
ROB Occupancy: 304 ccc: 39550883
ROB Occupancy: 304 ccc: 39567757
ROB Occupancy: 304 ccc: 39572230
ROB Occupancy: 304 ccc: 39624926
ROB Occupancy: 304 ccc: 39642105
ROB Occupancy: 307 ccc: 39661999
ROB Occupancy: 304 ccc: 39669157
ROB Occupancy: 304 ccc: 39673165
ROB Occupancy: 304 ccc: 39673542
ROB Occupancy: 304 ccc: 39677522
ROB Occupancy: 307 ccc: 39686289
ROB Occupancy: 304 ccc: 39702205
ROB Occupancy: 307 ccc: 39712097
ROB Occupancy: 304 ccc: 39724642
ROB Occupancy: 304 ccc: 39758581
ROB Occupancy: 304 ccc: 39794349
ROB Occupancy: 304 ccc: 39863631
ROB Occupancy: 304 ccc: 39873849
ROB Occupancy: 304 ccc: 39989398
ROB Occupancy: 304 ccc: 40032514
ROB Occupancy: 304 ccc: 40057638
ROB Occupancy: 307 ccc: 40087202
ROB Occupancy: 304 ccc: 40090865
ROB Occupancy: 304 ccc: 40099997
ROB Occupancy: 304 ccc: 40141893
ROB Occupancy: 304 ccc: 40143879
ROB Occupancy: 304 ccc: 40152261
ROB Occupancy: 304 ccc: 40193708
ROB Occupancy: 307 ccc: 40222582
ROB Occupancy: 304 ccc: 40281253
ROB Occupancy: 304 ccc: 40288197
ROB Occupancy: 307 ccc: 40307585
ROB Occupancy: 307 ccc: 40315249
ROB Occupancy: 304 ccc: 40363416
ROB Occupancy: 304 ccc: 40379990
ROB Occupancy: 304 ccc: 40405603
ROB Occupancy: 304 ccc: 40410334
ROB Occupancy: 304 ccc: 40463717
ROB Occupancy: 304 ccc: 40494974
ROB Occupancy: 304 ccc: 40641097
ROB Occupancy: 304 ccc: 40646467
ROB Occupancy: 304 ccc: 40682380
ROB Occupancy: 304 ccc: 40696057
ROB Occupancy: 304 ccc: 40707941
ROB Occupancy: 304 ccc: 40743853
ROB Occupancy: 307 ccc: 40744575
ROB Occupancy: 304 ccc: 40748024
ROB Occupancy: 304 ccc: 40764218
ROB Occupancy: 307 ccc: 40768663
ROB Occupancy: 304 ccc: 40772286
ROB Occupancy: 307 ccc: 40776790
ROB Occupancy: 304 ccc: 40787446
ROB Occupancy: 304 ccc: 40790520
ROB Occupancy: 304 ccc: 40801755
ROB Occupancy: 304 ccc: 40816352
ROB Occupancy: 304 ccc: 40854268
ROB Occupancy: 304 ccc: 40858613
ROB Occupancy: 304 ccc: 40863448
ROB Occupancy: 304 ccc: 40931544
ROB Occupancy: 304 ccc: 40935164
ROB Occupancy: 304 ccc: 40958606
ROB Occupancy: 304 ccc: 40966088
ROB Occupancy: 307 ccc: 40979364
ROB Occupancy: 304 ccc: 41001410
ROB Occupancy: 304 ccc: 41049928
ROB Occupancy: 304 ccc: 41065667
ROB Occupancy: 304 ccc: 41110745
ROB Occupancy: 304 ccc: 41143037
ROB Occupancy: 307 ccc: 41163346
ROB Occupancy: 304 ccc: 41166939
ROB Occupancy: 304 ccc: 41237322
ROB Occupancy: 304 ccc: 41253509
ROB Occupancy: 304 ccc: 41273437
ROB Occupancy: 304 ccc: 41285965
ROB Occupancy: 304 ccc: 41342661
ROB Occupancy: 304 ccc: 41353822
ROB Occupancy: 304 ccc: 41465469
ROB Occupancy: 304 ccc: 41489100
ROB Occupancy: 307 ccc: 41514580
ROB Occupancy: 304 ccc: 41539349
ROB Occupancy: 304 ccc: 41555540
ROB Occupancy: 304 ccc: 41560399
ROB Occupancy: 304 ccc: 41564777
ROB Occupancy: 304 ccc: 41573648
ROB Occupancy: 304 ccc: 41605801
ROB Occupancy: 304 ccc: 41650678
ROB Occupancy: 304 ccc: 41694242
ROB Occupancy: 304 ccc: 41710429
ROB Occupancy: 304 ccc: 41747137
ROB Occupancy: 304 ccc: 41764721
ROB Occupancy: 304 ccc: 41792783
ROB Occupancy: 304 ccc: 41810690
ROB Occupancy: 304 ccc: 41834607
ROB Occupancy: 304 ccc: 41855122
ROB Occupancy: 304 ccc: 41939785
ROB Occupancy: 304 ccc: 41957631
ROB Occupancy: 304 ccc: 42030190
ROB Occupancy: 304 ccc: 42045675
ROB Occupancy: 304 ccc: 42067100
ROB Occupancy: 304 ccc: 42098263
ROB Occupancy: 304 ccc: 42139620
ROB Occupancy: 304 ccc: 42143783
ROB Occupancy: 304 ccc: 42148226
ROB Occupancy: 304 ccc: 42148744
ROB Occupancy: 304 ccc: 42152369
ROB Occupancy: 304 ccc: 42183938
ROB Occupancy: 307 ccc: 42189440
ROB Occupancy: 304 ccc: 42208710
ROB Occupancy: 304 ccc: 42219465
ROB Occupancy: 304 ccc: 42231725
ROB Occupancy: 304 ccc: 42236642
ROB Occupancy: 304 ccc: 42240232
ROB Occupancy: 304 ccc: 42268242
ROB Occupancy: 304 ccc: 42285331
ROB Occupancy: 304 ccc: 42302450
ROB Occupancy: 304 ccc: 42306458
ROB Occupancy: 304 ccc: 42314554
ROB Occupancy: 304 ccc: 42318471
ROB Occupancy: 304 ccc: 42329360
ROB Occupancy: 307 ccc: 42408075
ROB Occupancy: 304 ccc: 42421005
ROB Occupancy: 304 ccc: 42456899
ROB Occupancy: 304 ccc: 42490877
ROB Occupancy: 304 ccc: 42499906
ROB Occupancy: 304 ccc: 42508065
ROB Occupancy: 304 ccc: 42524881
ROB Occupancy: 304 ccc: 42557436
ROB Occupancy: 304 ccc: 42561170
ROB Occupancy: 304 ccc: 42562662
ROB Occupancy: 304 ccc: 42571003
ROB Occupancy: 304 ccc: 42595568
ROB Occupancy: 304 ccc: 42645034
ROB Occupancy: 304 ccc: 42647133
ROB Occupancy: 304 ccc: 42649647
ROB Occupancy: 304 ccc: 42665267
ROB Occupancy: 307 ccc: 42713806
ROB Occupancy: 304 ccc: 42718195
ROB Occupancy: 304 ccc: 42731695
ROB Occupancy: 307 ccc: 42741160
ROB Occupancy: 304 ccc: 42753145
ROB Occupancy: 304 ccc: 42762533
ROB Occupancy: 304 ccc: 42764188
ROB Occupancy: 304 ccc: 42787620
ROB Occupancy: 304 ccc: 42791383
ROB Occupancy: 304 ccc: 42809441
ROB Occupancy: 304 ccc: 42817677
ROB Occupancy: 304 ccc: 42842833
ROB Occupancy: 304 ccc: 42860514
ROB Occupancy: 304 ccc: 42888509
ROB Occupancy: 304 ccc: 42913733
ROB Occupancy: 304 ccc: 42946121
ROB Occupancy: 304 ccc: 42981209
ROB Occupancy: 304 ccc: 43033271
ROB Occupancy: 304 ccc: 43049217
ROB Occupancy: 304 ccc: 43091794
ROB Occupancy: 307 ccc: 43168328
ROB Occupancy: 304 ccc: 43171882
ROB Occupancy: 304 ccc: 43179852
ROB Occupancy: 304 ccc: 43256299
ROB Occupancy: 304 ccc: 43260637
ROB Occupancy: 304 ccc: 43267704
ROB Occupancy: 307 ccc: 43272679
ROB Occupancy: 304 ccc: 43284853
ROB Occupancy: 304 ccc: 43305061
ROB Occupancy: 304 ccc: 43309262
ROB Occupancy: 304 ccc: 43320048
ROB Occupancy: 304 ccc: 43321016
ROB Occupancy: 304 ccc: 43336417
ROB Occupancy: 304 ccc: 43349485
ROB Occupancy: 304 ccc: 43362267
ROB Occupancy: 304 ccc: 43376608
ROB Occupancy: 304 ccc: 43405763
ROB Occupancy: 304 ccc: 43409954
ROB Occupancy: 304 ccc: 43418166
ROB Occupancy: 304 ccc: 43426952
ROB Occupancy: 304 ccc: 43480206
ROB Occupancy: 304 ccc: 43503757
ROB Occupancy: 352 ccc: 43561482
ROB Occupancy: 352 ccc: 43562850
ROB Occupancy: 352 ccc: 43564820
ROB Occupancy: 352 ccc: 43566264
ROB Occupancy: 352 ccc: 43567187
ROB Occupancy: 352 ccc: 43569716
ROB Occupancy: 352 ccc: 43571232
ROB Occupancy: 352 ccc: 43573069
ROB Occupancy: 352 ccc: 43574608
ROB Occupancy: 352 ccc: 43576639
ROB Occupancy: 304 ccc: 43577166
ROB Occupancy: 352 ccc: 43579710
ROB Occupancy: 304 ccc: 43580866
ROB Occupancy: 352 ccc: 43581410
ROB Occupancy: 352 ccc: 43583499
ROB Occupancy: 352 ccc: 43584854
ROB Occupancy: 352 ccc: 43586828
ROB Occupancy: 352 ccc: 43588662
ROB Occupancy: 352 ccc: 43589608
ROB Occupancy: 352 ccc: 43591763
ROB Occupancy: 352 ccc: 43593293
ROB Occupancy: 304 ccc: 43595075
ROB Occupancy: 352 ccc: 43595324
ROB Occupancy: 352 ccc: 43596996
ROB Occupancy: 352 ccc: 43598956
ROB Occupancy: 352 ccc: 43602400
ROB Occupancy: 352 ccc: 43606504
ROB Occupancy: 352 ccc: 43608740
ROB Occupancy: 352 ccc: 43609963
ROB Occupancy: 352 ccc: 43613819
ROB Occupancy: 352 ccc: 43615429
ROB Occupancy: 352 ccc: 43617506
ROB Occupancy: 352 ccc: 43619028
ROB Occupancy: 352 ccc: 43621533
ROB Occupancy: 352 ccc: 43622933
ROB Occupancy: 352 ccc: 43626125
ROB Occupancy: 352 ccc: 43627405
ROB Occupancy: 304 ccc: 43628969
ROB Occupancy: 352 ccc: 43629352
ROB Occupancy: 352 ccc: 43630858
ROB Occupancy: 352 ccc: 43633022
ROB Occupancy: 352 ccc: 43636296
ROB Occupancy: 304 ccc: 43637543
ROB Occupancy: 352 ccc: 43637999
ROB Occupancy: 352 ccc: 43640402
ROB Occupancy: 352 ccc: 43642147
ROB Occupancy: 352 ccc: 43644499
ROB Occupancy: 352 ccc: 43646249
ROB Occupancy: 352 ccc: 43649618
ROB Occupancy: 352 ccc: 43651227
ROB Occupancy: 352 ccc: 43653680
ROB Occupancy: 352 ccc: 43654846
ROB Occupancy: 352 ccc: 43656754
ROB Occupancy: 352 ccc: 43658681
ROB Occupancy: 352 ccc: 43659617
ROB Occupancy: 352 ccc: 43661941
ROB Occupancy: 352 ccc: 43663212
ROB Occupancy: 352 ccc: 43665584
ROB Occupancy: 352 ccc: 43667345
ROB Occupancy: 352 ccc: 43669403
ROB Occupancy: 352 ccc: 43672516
ROB Occupancy: 352 ccc: 43674719
ROB Occupancy: 352 ccc: 43676253
ROB Occupancy: 352 ccc: 43678417
ROB Occupancy: 352 ccc: 43679680
ROB Occupancy: 352 ccc: 43681647
ROB Occupancy: 352 ccc: 43683183
ROB Occupancy: 342 ccc: 43685010
ROB Occupancy: 352 ccc: 43687398
ROB Occupancy: 352 ccc: 43688920
ROB Occupancy: 304 ccc: 43690906
ROB Occupancy: 352 ccc: 43691034
ROB Occupancy: 352 ccc: 43692281
ROB Occupancy: 304 ccc: 43695138
ROB Occupancy: 352 ccc: 43695521
ROB Occupancy: 304 ccc: 43696921
ROB Occupancy: 352 ccc: 43697473
ROB Occupancy: 352 ccc: 43699111
ROB Occupancy: 352 ccc: 43701236
ROB Occupancy: 352 ccc: 43702968
ROB Occupancy: 352 ccc: 43706811
ROB Occupancy: 352 ccc: 43708342
ROB Occupancy: 352 ccc: 43710723
ROB Occupancy: 352 ccc: 43711975
ROB Occupancy: 352 ccc: 43714271
ROB Occupancy: 352 ccc: 43715385
ROB Occupancy: 352 ccc: 43718793
ROB Occupancy: 352 ccc: 43719726
ROB Occupancy: 304 ccc: 43721631
ROB Occupancy: 352 ccc: 43721838
ROB Occupancy: 352 ccc: 43722779
ROB Occupancy: 352 ccc: 43727655
ROB Occupancy: 304 ccc: 43729369
ROB Occupancy: 352 ccc: 43729977
ROB Occupancy: 352 ccc: 43732067
ROB Occupancy: 352 ccc: 43733866
ROB Occupancy: 352 ccc: 43735531
ROB Occupancy: 352 ccc: 43737668
ROB Occupancy: 352 ccc: 43740538
ROB Occupancy: 352 ccc: 43742628
ROB Occupancy: 352 ccc: 43743941
ROB Occupancy: 352 ccc: 43745925
ROB Occupancy: 352 ccc: 43747413
ROB Occupancy: 352 ccc: 43749591
ROB Occupancy: 352 ccc: 43750517
ROB Occupancy: 352 ccc: 43752077
ROB Occupancy: 352 ccc: 43753927
ROB Occupancy: 352 ccc: 43755355
ROB Occupancy: 352 ccc: 43757373
ROB Occupancy: 352 ccc: 43759323
ROB Occupancy: 352 ccc: 43762056
ROB Occupancy: 304 ccc: 43764005
ROB Occupancy: 352 ccc: 43764835
ROB Occupancy: 352 ccc: 43766087
ROB Occupancy: 352 ccc: 43768455
ROB Occupancy: 352 ccc: 43769729
ROB Occupancy: 352 ccc: 43773133
ROB Occupancy: 352 ccc: 43774302
ROB Occupancy: 352 ccc: 43776487
ROB Occupancy: 352 ccc: 43777828
ROB Occupancy: 352 ccc: 43780098
ROB Occupancy: 352 ccc: 43781670
ROB Occupancy: 352 ccc: 43785087
ROB Occupancy: 352 ccc: 43786366
ROB Occupancy: 304 ccc: 43787786
ROB Occupancy: 352 ccc: 43788553
ROB Occupancy: 352 ccc: 43789941
ROB Occupancy: 352 ccc: 43792207
ROB Occupancy: 352 ccc: 43794975
ROB Occupancy: 352 ccc: 43796897
ROB Occupancy: 352 ccc: 43798385
ROB Occupancy: 352 ccc: 43800626
ROB Occupancy: 352 ccc: 43802275
ROB Occupancy: 352 ccc: 43804180
ROB Occupancy: 352 ccc: 43806708
ROB Occupancy: 352 ccc: 43808361
ROB Occupancy: 304 ccc: 43810110
ROB Occupancy: 352 ccc: 43810334
ROB Occupancy: 352 ccc: 43812220
ROB Occupancy: 352 ccc: 43813936
ROB Occupancy: 352 ccc: 43816051
ROB Occupancy: 352 ccc: 43817145
ROB Occupancy: 352 ccc: 43819455
ROB Occupancy: 352 ccc: 43820699
ROB Occupancy: 352 ccc: 43822951
ROB Occupancy: 352 ccc: 43824285
ROB Occupancy: 352 ccc: 43826127
ROB Occupancy: 352 ccc: 43828439
ROB Occupancy: 352 ccc: 43831024
ROB Occupancy: 352 ccc: 43832277
ROB Occupancy: 352 ccc: 43834322
ROB Occupancy: 352 ccc: 43835682
ROB Occupancy: 352 ccc: 43837481
ROB Occupancy: 352 ccc: 43838859
ROB Occupancy: 352 ccc: 43840432
ROB Occupancy: 352 ccc: 43843575
ROB Occupancy: 352 ccc: 43844788
ROB Occupancy: 352 ccc: 43847220
ROB Occupancy: 307 ccc: 43847972
ROB Occupancy: 352 ccc: 43848654
ROB Occupancy: 352 ccc: 43851905
ROB Occupancy: 304 ccc: 43853012
ROB Occupancy: 352 ccc: 43853559
ROB Occupancy: 352 ccc: 43856212
ROB Occupancy: 352 ccc: 43857539
ROB Occupancy: 352 ccc: 43859448
ROB Occupancy: 352 ccc: 43862431
ROB Occupancy: 342 ccc: 43864638
ROB Occupancy: 352 ccc: 43866373
ROB Occupancy: 352 ccc: 43868341
ROB Occupancy: 352 ccc: 43870651
ROB Occupancy: 352 ccc: 43872798
ROB Occupancy: 352 ccc: 43876247
ROB Occupancy: 352 ccc: 43877799
ROB Occupancy: 304 ccc: 43879161
ROB Occupancy: 352 ccc: 43879922
ROB Occupancy: 352 ccc: 43881381
ROB Occupancy: 352 ccc: 43883473
ROB Occupancy: 352 ccc: 43886420
ROB Occupancy: 352 ccc: 43888884
ROB Occupancy: 352 ccc: 43890011
ROB Occupancy: 352 ccc: 43891942
ROB Occupancy: 352 ccc: 43893184
ROB Occupancy: 352 ccc: 43895371
ROB Occupancy: 352 ccc: 43897788
ROB Occupancy: 352 ccc: 43899831
ROB Occupancy: 352 ccc: 43901136
ROB Occupancy: 352 ccc: 43903017
ROB Occupancy: 352 ccc: 43904572
ROB Occupancy: 307 ccc: 43905273
ROB Occupancy: 352 ccc: 43907922
ROB Occupancy: 352 ccc: 43909226
ROB Occupancy: 352 ccc: 43911265
ROB Occupancy: 352 ccc: 43912611
ROB Occupancy: 352 ccc: 43915009
ROB Occupancy: 352 ccc: 43916766
ROB Occupancy: 352 ccc: 43920175
ROB Occupancy: 352 ccc: 43921710
ROB Occupancy: 352 ccc: 43923804
[...]
ROB Occupancy: 352 ccc: 127907649
ROB Occupancy: 352 ccc: 127928451
ROB Occupancy: 352 ccc: 127949085
ROB Occupancy: 352 ccc: 127970050
ROB Occupancy: 352 ccc: 127990678
ROB Occupancy: 352 ccc: 128011747
ROB Occupancy: 352 ccc: 128032958
ROB Occupancy: 352 ccc: 128053010
ROB Occupancy: 352 ccc: 128074563
ROB Occupancy: 352 ccc: 128094502
ROB Occupancy: 352 ccc: 128115633
ROB Occupancy: 352 ccc: 128136273
ROB Occupancy: 352 ccc: 128157149
ROB Occupancy: 352 ccc: 128177411
ROB Occupancy: 352 ccc: 128196334
ROB Occupancy: 352 ccc: 128217607
ROB Occupancy: 352 ccc: 128239157
ROB Occupancy: 352 ccc: 128259921
ROB Occupancy: 352 ccc: 128280264
ROB Occupancy: 352 ccc: 128301630
ROB Occupancy: 352 ccc: 128322259
ROB Occupancy: 352 ccc: 128341149
ROB Occupancy: 352 ccc: 128362306
ROB Occupancy: 352 ccc: 128383849
ROB Occupancy: 352 ccc: 128403340
ROB Occupancy: 338 ccc: 128422920
ROB Occupancy: 338 ccc: 128443426
ROB Occupancy: 352 ccc: 128463282
ROB Occupancy: 352 ccc: 128483509
ROB Occupancy: 352 ccc: 128503518
ROB Occupancy: 352 ccc: 128525276
ROB Occupancy: 352 ccc: 128544487
ROB Occupancy: 352 ccc: 128564782
ROB Occupancy: 352 ccc: 128585938
ROB Occupancy: 352 ccc: 128605828
ROB Occupancy: 352 ccc: 128625012
ROB Occupancy: 352 ccc: 128646093
ROB Occupancy: 352 ccc: 128666934
ROB Occupancy: 352 ccc: 128687022
ROB Occupancy: 352 ccc: 128707557
ROB Occupancy: 352 ccc: 128727685
ROB Occupancy: 352 ccc: 128748827
ROB Occupancy: 352 ccc: 128768940
ROB Occupancy: 352 ccc: 128790012
ROB Occupancy: 352 ccc: 128810622
ROB Occupancy: 352 ccc: 128830716
ROB Occupancy: 352 ccc: 128851522
ROB Occupancy: 352 ccc: 128871731
ROB Occupancy: 338 ccc: 128892857
ROB Occupancy: 352 ccc: 128913072
ROB Occupancy: 352 ccc: 128933813
ROB Occupancy: 352 ccc: 128954546
ROB Occupancy: 352 ccc: 128974581
ROB Occupancy: 352 ccc: 128994726
ROB Occupancy: 352 ccc: 129014971
ROB Occupancy: 352 ccc: 176511080
ROB Occupancy: 352 ccc: 176530808
ROB Occupancy: 352 ccc: 176552626
ROB Occupancy: 352 ccc: 176573141
ROB Occupancy: 352 ccc: 176592957
ROB Occupancy: 352 ccc: 176612925
ROB Occupancy: 352 ccc: 176632498
ROB Occupancy: 352 ccc: 176653069
ROB Occupancy: 352 ccc: 176672698
ROB Occupancy: 352 ccc: 176693701
ROB Occupancy: 352 ccc: 176715484
ROB Occupancy: 352 ccc: 176735437
ROB Occupancy: 352 ccc: 176755167
ROB Occupancy: 352 ccc: 176777040
ROB Occupancy: 352 ccc: 176797335
ROB Occupancy: 352 ccc: 176817086
ROB Occupancy: 352 ccc: 176837340
ROB Occupancy: 352 ccc: 176858256
ROB Occupancy: 352 ccc: 176878158
ROB Occupancy: 352 ccc: 176898463
ROB Occupancy: 352 ccc: 176919697
ROB Occupancy: 352 ccc: 176939718
ROB Occupancy: 352 ccc: 176960108
ROB Occupancy: 352 ccc: 176979906
ROB Occupancy: 352 ccc: 177001155
ROB Occupancy: 352 ccc: 177020882
ROB Occupancy: 352 ccc: 177040156
ROB Occupancy: 352 ccc: 177061682
ROB Occupancy: 352 ccc: 177082194
ROB Occupancy: 352 ccc: 177102295
ROB Occupancy: 352 ccc: 177123585
ROB Occupancy: 352 ccc: 177143887
ROB Occupancy: 352 ccc: 177163641
ROB Occupancy: 352 ccc: 177184165
ROB Occupancy: 352 ccc: 177205150
ROB Occupancy: 352 ccc: 177225130
ROB Occupancy: 352 ccc: 177245946
ROB Occupancy: 352 ccc: 177266954
ROB Occupancy: 352 ccc: 177287016
ROB Occupancy: 352 ccc: 177307727
ROB Occupancy: 352 ccc: 177327562
ROB Occupancy: 352 ccc: 177348436
ROB Occupancy: 352 ccc: 177368927
ROB Occupancy: 352 ccc: 177390086
ROB Occupancy: 352 ccc: 177410833
ROB Occupancy: 352 ccc: 177430978
ROB Occupancy: 352 ccc: 177451254
ROB Occupancy: 352 ccc: 177472129
ROB Occupancy: 352 ccc: 177493188
ROB Occupancy: 352 ccc: 177513630
ROB Occupancy: 352 ccc: 177534130
ROB Occupancy: 352 ccc: 177554609
ROB Occupancy: 352 ccc: 177575598
ROB Occupancy: 352 ccc: 177596325
ROB Occupancy: 352 ccc: 177617937
ROB Occupancy: 352 ccc: 177637760
ROB Occupancy: 352 ccc: 177658211
ROB Occupancy: 352 ccc: 177678768
ROB Occupancy: 352 ccc: 177699288
ROB Occupancy: 352 ccc: 177720046
ROB Occupancy: 352 ccc: 177741604
ROB Occupancy: 352 ccc: 177761473
ROB Occupancy: 352 ccc: 177781882
ROB Occupancy: 352 ccc: 177802844
ROB Occupancy: 352 ccc: 177821717
ROB Occupancy: 352 ccc: 177842278
ROB Occupancy: 352 ccc: 177863100
ROB Occupancy: 352 ccc: 177883166
ROB Occupancy: 352 ccc: 177903450
ROB Occupancy: 352 ccc: 177922955
ROB Occupancy: 352 ccc: 177943330
ROB Occupancy: 352 ccc: 177964181
ROB Occupancy: 352 ccc: 177984641
ROB Occupancy: 352 ccc: 178005036
ROB Occupancy: 352 ccc: 178027020
ROB Occupancy: 352 ccc: 178047916
ROB Occupancy: 352 ccc: 178068159
ROB Occupancy: 338 ccc: 178089992
ROB Occupancy: 352 ccc: 178110584
ROB Occupancy: 352 ccc: 178131492
ROB Occupancy: 352 ccc: 178151637
ROB Occupancy: 352 ccc: 178171618
ROB Occupancy: 352 ccc: 178191970
ROB Occupancy: 352 ccc: 178213019
ROB Occupancy: 352 ccc: 178233843
ROB Occupancy: 328 ccc: 178255494
ROB Occupancy: 352 ccc: 178276216
ROB Occupancy: 352 ccc: 178296168
Average ROB occupancy Load Stall Begin: 340.404
Average ROB occupancy Load Stall End: 346.22
Min ROB occupancy Load Stall Begin: 6
Max ROB occupancy Load Stall Begin: 352
Min ROB occupancy Load Stall End: 6
Max ROB occupancy Load Stall End: 352
Average ROB occupancy Critical Load Stall Begin: -nan
Average ROB occupancy Critical Load Stall End: -nan
Min ROB occupancy Critical Load Stall Begin: 400
Max ROB occupancy Critical Load Stall Begin: 0
Min ROB occupancy Critical Load Stall End: 400
Max ROB occupancy Critical Load Stall End: 0
 ROB Load Stall Begin Bucket Count 0: 43
 ROB Load Stall End Bucket Count 0: 24
 ROB Critical Load Stall Begin Bucket Count 0: 0
 ROB Critical Load Stall End Bucket Count 0: 0
 ROB Load Stall Begin Bucket Count 1: 450
 ROB Load Stall End Bucket Count 1: 327
 ROB Critical Load Stall Begin Bucket Count 1: 0
 ROB Critical Load Stall End Bucket Count 1: 0
 ROB Load Stall Begin Bucket Count 2: 338
 ROB Load Stall End Bucket Count 2: 373
 ROB Critical Load Stall Begin Bucket Count 2: 0
 ROB Critical Load Stall End Bucket Count 2: 0
 ROB Load Stall Begin Bucket Count 3: 205
 ROB Load Stall End Bucket Count 3: 230
 ROB Critical Load Stall Begin Bucket Count 3: 0
 ROB Critical Load Stall End Bucket Count 3: 0
 ROB Load Stall Begin Bucket Count 4: 169
 ROB Load Stall End Bucket Count 4: 163
 ROB Critical Load Stall Begin Bucket Count 4: 0
 ROB Critical Load Stall End Bucket Count 4: 0
 ROB Load Stall Begin Bucket Count 5: 185780
 ROB Load Stall End Bucket Count 5: 73966
 ROB Critical Load Stall Begin Bucket Count 5: 0
 ROB Critical Load Stall End Bucket Count 5: 0
 ROB Load Stall Begin Bucket Count 6: 3893019
 ROB Load Stall End Bucket Count 6: 4004921
 ROB Critical Load Stall Begin Bucket Count 6: 0
 ROB Critical Load Stall End Bucket Count 6: 0
PIST Tag Read Accesses: 82302
PIST Read Accesses: 41151
PIST Tag Write Accesses: 82302
PIST Write Accesses: 41151
Criticality detector called times: 41156
Max global_stall_cycles_count: 4541753
Threshold Modified: 1 times, factor: -1
Sturdy critical IP cache stats: 
 Unused entries: 0
CIC Tag Read Accesses: 0
CIC Read Accesses: 0
CIC Tag Write Accesses: 0
CIC Write Accesses: 0
Wobbly critical IP cache stats: 
 Unused entries: 32
CIC Tag Read Accesses: 407696094
CIC Read Accesses: 0
CIC Tag Write Accesses: 66661300
CIC Write Accesses: 0
ITLB TOTAL     ACCESS:   13467603  HIT:   13467603  MISS:          0  HIT %:        100  MISS %:          0   MPKI: 0
ITLB LOAD TRANSLATION ACCESS:   13467603  HIT:   13467603  MISS:          0  HIT %:        100  MISS %:          0   MPKI: 0
ITLB PREFETCH  REQUESTED:          0  ISSUED:          0  USEFUL:          0  USELESS:          0
ITLB USEFUL LOAD PREFETCHES:          0 PREFETCH ISSUED TO LOWER LEVEL:          0  ACCURACY: -nan
ITLB TIMELY PREFETCHES:          0 LATE PREFETCHES: 0 DROPPED PREFETCHES: 0
ITLB PREFETCHES SAME FILL-ORIGIN LEVEL: 0 DIFFERENT FILL-ORIGIN LEVEL: 0
ITLB AVERAGE MISS LATENCY: -nan cycles
ITLB RQ	ACCESS:   14252612	FORWARD:          0	MERGED:     785009	TO_CACHE:   13467603

DTLB TOTAL     ACCESS:   43638230  HIT:   43121836  MISS:     516394  HIT %:    98.8166  MISS %:    1.18335   MPKI: 5.16394
DTLB LOAD TRANSLATION ACCESS:   43638230  HIT:   43121836  MISS:     516394  HIT %:    98.8166  MISS %:    1.18335   MPKI: 5.16394
DTLB PREFETCH  REQUESTED:          0  ISSUED:          0  USEFUL:          0  USELESS:          0
DTLB USEFUL LOAD PREFETCHES:          0 PREFETCH ISSUED TO LOWER LEVEL:          0  ACCURACY: -nan
DTLB TIMELY PREFETCHES:          0 LATE PREFETCHES: 0 DROPPED PREFETCHES: 0
DTLB PREFETCHES SAME FILL-ORIGIN LEVEL: 0 DIFFERENT FILL-ORIGIN LEVEL: 0
DTLB AVERAGE MISS LATENCY: 176.342 cycles
DTLB RQ	ACCESS:   48396647	FORWARD:          0	MERGED:    4734002	TO_CACHE:   43662645

STLB TOTAL     ACCESS:     516394  HIT:     176806  MISS:     339588  HIT %:    34.2386  MISS %:    65.7614   MPKI: 3.39588
STLB LOAD TRANSLATION ACCESS:     516394  HIT:     176806  MISS:     339588  HIT %:    34.2386  MISS %:    65.7614   MPKI: 3.39588
STLB PREFETCH  REQUESTED:          0  ISSUED:          0  USEFUL:          0  USELESS:          0
STLB USEFUL LOAD PREFETCHES:          0 PREFETCH ISSUED TO LOWER LEVEL:          0  ACCURACY: -nan
STLB TIMELY PREFETCHES:          0 LATE PREFETCHES: 0 DROPPED PREFETCHES: 0
STLB PREFETCHES SAME FILL-ORIGIN LEVEL: 0 DIFFERENT FILL-ORIGIN LEVEL: 0
STLB AVERAGE MISS LATENCY: 233.201 cycles
STLB RQ	ACCESS:     516394	FORWARD:          0	MERGED:          0	TO_CACHE:     516394

STLB Hit, L1D data hit: 0
STLB Hit, L2C data hit: 0
STLB Hit, LLC data hit: 0
STLB Hit, LLC data miss: 0
STLB STLB hints to L2: 0
L1D TOTAL     ACCESS:   48250666  HIT:   46326650  MISS:    1924016  HIT %:    96.0125  MISS %:    3.98754   MPKI: 19.2402
L1D LOAD      ACCESS:   41839359  HIT:   39915343  MISS:    1924016  HIT %:    95.4014  MISS %:    4.59858   MPKI: 19.2402
L1D RFO       ACCESS:    6411307  HIT:    6411307  MISS:          0  HIT %:        100  MISS %:          0   MPKI: 0
L1D PREFETCH  REQUESTED:          0  ISSUED:          0  USEFUL:          0  USELESS:          0
L1D USEFUL LOAD PREFETCHES:          0 PREFETCH ISSUED TO LOWER LEVEL:          0  ACCURACY: -nan
L1D TIMELY PREFETCHES:          0 LATE PREFETCHES: 0 DROPPED PREFETCHES: 0
L1D PREFETCHES SAME FILL-ORIGIN LEVEL: 0 DIFFERENT FILL-ORIGIN LEVEL: 0
L1D AVERAGE MISS LATENCY: 72.2724 cycles
L1D RQ	ACCESS:   63801337	FORWARD:          0	MERGED:   21788892	TO_CACHE:   41985339
L1D WQ	ACCESS:    6411308	FORWARD:      27106	MERGED:          0	TO_CACHE:    6411308

L1D UNIQUE REGIONS ACCESSED: 0
L1D REGIONS CONFLICTS: 0
L1D Cross Page Prefetch Requests: 0
L1D Same Page Prefetch Requests: 0
L1D ROI Sum of L1D PQ occupancy: 0
L1D PREFETCHES PUSHED FROM L2C: 0
L1I TOTAL     ACCESS:   14252610  HIT:   14252610  MISS:          0  HIT %:        100  MISS %:          0   MPKI: 0
L1I LOAD      ACCESS:   14252610  HIT:   14252610  MISS:          0  HIT %:        100  MISS %:          0   MPKI: 0
L1I PREFETCH  REQUESTED:          0  ISSUED:          0  USEFUL:          0  USELESS:          0
L1I USEFUL LOAD PREFETCHES:          0 PREFETCH ISSUED TO LOWER LEVEL:          0  ACCURACY: -nan
L1I TIMELY PREFETCHES:          0 LATE PREFETCHES: 0 DROPPED PREFETCHES: 0
L1I PREFETCHES SAME FILL-ORIGIN LEVEL: 0 DIFFERENT FILL-ORIGIN LEVEL: 0
L1I AVERAGE MISS LATENCY: -nan cycles
L1I RQ	ACCESS:   32284577	FORWARD:          0	MERGED:   18031965	TO_CACHE:   14252612

BTB TOTAL     ACCESS:    1121884  HIT:    1121879  MISS:          5  HIT %:    99.9996  MISS %: 0.000445679   MPKI: 5e-05
BTB BRANCH_DIRECT_JUMP	ACCESS:      80123  HIT:      80122  MISS:          1
BTB BRANCH_INDIRECT	ACCESS:          0  HIT:          0  MISS:          0
BTB BRANCH_CONDITIONAL	ACCESS:    1041761  HIT:    1041757  MISS:          4
BTB BRANCH_DIRECT_CALL	ACCESS:          0  HIT:          0  MISS:          0
BTB BRANCH_INDIRECT_CALL	ACCESS:          0  HIT:          0  MISS:          0
BTB BRANCH_RETURN	ACCESS:          0  HIT:          0  MISS:          0
BTB BRANCH_OTHER ACCESS:          0  HIT:          0  MISS:          0

L2C TOTAL     ACCESS:    5494534  HIT:    2882092  MISS:    2612442  HIT %:    52.4538  MISS %:    47.5462   MPKI: 26.1244
L2C LOAD      ACCESS:    1924015  HIT:    1478478  MISS:     445537  HIT %:    76.8434  MISS %:    23.1566   MPKI: 4.45537
L2C DATA LOAD MPKI: 4.45537
L2C INSTRUCTION LOAD MPKI: 0
L2C PREFETCH  ACCESS:    2259358  HIT:     143100  MISS:    2116258  HIT %:    6.33366  MISS %:    93.6663   MPKI: 21.1626
L2C DATA PREFETCH MPKI: 21.1626
L2C INSTRUCTION PREFETCH MPKI: 0
L2C WRITEBACK ACCESS:     971469  HIT:     964288  MISS:       7181  HIT %:    99.2608  MISS %:    0.73919   MPKI: 0.07181
L2C LOAD TRANSLATION ACCESS:     339692  HIT:     296226  MISS:      43466  HIT %:    87.2043  MISS %:    12.7957   MPKI: 0.43466
L2C PREFETCH  REQUESTED:    2330050  ISSUED:    2330047  USEFUL:    1478477  USELESS:     637807
L2C USEFUL LOAD PREFETCHES:    1478477 PREFETCH ISSUED TO LOWER LEVEL:    2178135  ACCURACY: 67.8781
L2C TIMELY PREFETCHES:    1478477 LATE PREFETCHES: 8415 DROPPED PREFETCHES: 0
L2C PREFETCHES SAME FILL-ORIGIN LEVEL: 2124673 DIFFERENT FILL-ORIGIN LEVEL: 53462
L2C AVERAGE MISS LATENCY: 203.038 cycles
L2C RQ	ACCESS:    2263708	FORWARD:          0	MERGED:          0	TO_CACHE:    2263708
L2C WQ	ACCESS:     971469	FORWARD:          0	MERGED:          0	TO_CACHE:     971469
L2C PQ	ACCESS:    2330047	FORWARD:          0	MERGED:         40	TO_CACHE:    2330007

L2C Instructions Evicting Data 0
L2C Translations Evicting Data 43019
L2C Data Evicting Data 2518925
L2C Instructions Evicting Instructions 0
L2C Translations Evicting Instructions 0
L2C Data Evicting Instructions 0
L2C Instructions Evicting Translations 0
L2C Translations Evicting Translations 447
L2C Data Evicting Translations 42870
L2C Dense regions hint from L2: 0
PSCL5 TOTAL     ACCESS:     339588  HIT:     339588  MISS:          0  HIT %:        100  MISS %:          0   MPKI: 0
PSCL5 LOAD TRANSLATION ACCESS:     339588  HIT:     339588  MISS:          0  HIT %:        100  MISS %:          0   MPKI: 0
PSCL5 PREFETCH  REQUESTED:          0  ISSUED:          0  USEFUL:          0  USELESS:          0
PSCL5 USEFUL LOAD PREFETCHES:          0 PREFETCH ISSUED TO LOWER LEVEL:          0  ACCURACY: -nan
PSCL5 TIMELY PREFETCHES:          0 LATE PREFETCHES: 0 DROPPED PREFETCHES: 0
PSCL5 PREFETCHES SAME FILL-ORIGIN LEVEL: 0 DIFFERENT FILL-ORIGIN LEVEL: 0

PSCL4 TOTAL     ACCESS:     339588  HIT:     339588  MISS:          0  HIT %:        100  MISS %:          0   MPKI: 0
PSCL4 LOAD TRANSLATION ACCESS:     339588  HIT:     339588  MISS:          0  HIT %:        100  MISS %:          0   MPKI: 0
PSCL4 PREFETCH  REQUESTED:          0  ISSUED:          0  USEFUL:          0  USELESS:          0
PSCL4 USEFUL LOAD PREFETCHES:          0 PREFETCH ISSUED TO LOWER LEVEL:          0  ACCURACY: -nan
PSCL4 TIMELY PREFETCHES:          0 LATE PREFETCHES: 0 DROPPED PREFETCHES: 0
PSCL4 PREFETCHES SAME FILL-ORIGIN LEVEL: 0 DIFFERENT FILL-ORIGIN LEVEL: 0

PSCL3 TOTAL     ACCESS:     339588  HIT:     339588  MISS:          0  HIT %:        100  MISS %:          0   MPKI: 0
PSCL3 LOAD TRANSLATION ACCESS:     339588  HIT:     339588  MISS:          0  HIT %:        100  MISS %:          0   MPKI: 0
PSCL3 PREFETCH  REQUESTED:          0  ISSUED:          0  USEFUL:          0  USELESS:          0
PSCL3 USEFUL LOAD PREFETCHES:          0 PREFETCH ISSUED TO LOWER LEVEL:          0  ACCURACY: -nan
PSCL3 TIMELY PREFETCHES:          0 LATE PREFETCHES: 0 DROPPED PREFETCHES: 0
PSCL3 PREFETCHES SAME FILL-ORIGIN LEVEL: 0 DIFFERENT FILL-ORIGIN LEVEL: 0

PSCL2 TOTAL     ACCESS:     339588  HIT:     338985  MISS:        603  HIT %:    99.8224  MISS %:   0.177568   MPKI: 0.00603
PSCL2 LOAD TRANSLATION ACCESS:     339588  HIT:     338985  MISS:        603  HIT %:    99.8224  MISS %:   0.177568   MPKI: 0.00603
PSCL2 PREFETCH  REQUESTED:          0  ISSUED:          0  USEFUL:          0  USELESS:          0
PSCL2 USEFUL LOAD PREFETCHES:          0 PREFETCH ISSUED TO LOWER LEVEL:          0  ACCURACY: -nan
PSCL2 TIMELY PREFETCHES:          0 LATE PREFETCHES: 0 DROPPED PREFETCHES: 0
PSCL2 PREFETCHES SAME FILL-ORIGIN LEVEL: 0 DIFFERENT FILL-ORIGIN LEVEL: 0

LLC TOTAL     ACCESS:    3630199  HIT:    1155686  MISS:    2474513  HIT %:    31.8353  MISS %:    68.1647   MPKI: 24.7451
LLC LOAD      ACCESS:     437122  HIT:      36519  MISS:     400603  HIT %:    8.35442  MISS %:    91.6456   MPKI: 4.00603
LLC PREFETCH  ACCESS:    2178004  HIT:     167105  MISS:    2010899  HIT %:    7.67239  MISS %:    92.3276   MPKI: 20.109
LLC WRITEBACK ACCESS:     971607  HIT:     948885  MISS:      22722  HIT %:    97.6614  MISS %:     2.3386   MPKI: 0.22722
LLC LOAD TRANSLATION ACCESS:      43466  HIT:       3177  MISS:      40289  HIT %:    7.30916  MISS %:    92.6908   MPKI: 0.40289
LLC PREFETCH  REQUESTED:          0  ISSUED:          0  USEFUL:       3758  USELESS:    2005191
LLC USEFUL LOAD PREFETCHES:       3758 PREFETCH ISSUED TO LOWER LEVEL:    2010899  ACCURACY: 0.186882
LLC TIMELY PREFETCHES:       3758 LATE PREFETCHES: 0 DROPPED PREFETCHES: 0
LLC PREFETCHES SAME FILL-ORIGIN LEVEL: 41054 DIFFERENT FILL-ORIGIN LEVEL: 0
LLC AVERAGE MISS LATENCY: 179.757 cycles
LLC RQ	ACCESS:     480588	FORWARD:          0	MERGED:          0	TO_CACHE:     480588
LLC WQ	ACCESS:     971607	FORWARD:          0	MERGED:          0	TO_CACHE:     971607
LLC PQ	ACCESS:    2178135	FORWARD:          0	MERGED:         15	TO_CACHE:    2178120

LLC Dense regions hint to LLC: 0

RAW hits: 219411
Loads Generated: 64020761
Loads sent to L1D: 63801337
Stores Generated: 6411310
Stores sent to L1D: 6411308
Major fault: 0 Minor fault: 385139
Allocated PAGES: 385139
------------------
Depth Distribution
------------------
depth 0: 142415
depth 1: 902
depth 2: 33460
depth 3: 540352
depth 4: 1503183
depth 5: 629597
depth 6: 35460
depth 7: 656
depth 8: 55
depth 9: 0
depth 10: 0
depth 11: 0
depth 12: 0
depth 13: 0
depth 14: 0
depth 15: 0
depth 16: 0
depth 17: 0
depth 18: 0
depth 19: 0
depth 20: 0
depth 21: 0
depth 22: 0
depth 23: 0
depth 24: 0
depth 25: 0
depth 26: 0
depth 27: 0
depth 28: 0
depth 29: 0
Total: 2886080
------------------
ST read accesses: 1585694
ST write accesses: 338321
PT read accesses: 46860632
PT write accesses: 2102328
FILTER read accesses: 10180517
FILTER write accesses: 9048853
GHR read accesses: 32558244
GHR write accesses: 4052141
PERC read accesses: 346872645
PERC write accesses: 24101767
GHR counter read accesses: 3848030
GHR counter write accesses: 6120099
GHR ip read accesses: 12941127
GHR ip write accesses: 7696060
ST tag read accesses: 912931104
ST tag write accesses: 103005255

DRAM Statistics
 CHANNEL 0
 RQ ROW_BUFFER_HIT:     906959  ROW_BUFFER_MISS:    1544832
 DBUS_CONGESTED:       2103
 WQ ROW_BUFFER_HIT:     172572  ROW_BUFFER_MISS:     798841  FULL:          0

 AVG_CONGESTED_CYCLE: 4
 All warmup complete: 2
Channel 0 Bank busy for read cycles: 0
Channel 0 Bank busy for write cycles: 0
Channel 0
Rank 0
0banks busy for read cycles: 3480062
0banks busy for write cycles: 31690
1banks busy for read cycles: 34014184
1banks busy for write cycles: 4134635
2banks busy for read cycles: 26760596
2banks busy for write cycles: 5084886
3banks busy for read cycles: 19651410
3banks busy for write cycles: 5980378
4banks busy for read cycles: 12027522
4banks busy for write cycles: 6614242
5banks busy for read cycles: 7420313
5banks busy for write cycles: 6937649
6banks busy for read cycles: 4536725
6banks busy for write cycles: 6760445
7banks busy for read cycles: 2016662
7banks busy for write cycles: 6143457
8banks busy for read cycles: 509542
8banks busy for write cycles: 4896023

CPU 0 Branch Prediction Accuracy: 99.9931% MPKI: 0.00083 Average ROB Occupancy at Mispredict: 341.506
Branch types
NOT_BRANCH: 98797941 98.7979%
BRANCH_DIRECT_JUMP: 80123 0.080123%
BRANCH_INDIRECT: 0 0%
BRANCH_CONDITIONAL: 1121884 1.12188%
BRANCH_DIRECT_CALL: 0 0%
BRANCH_INDIRECT_CALL: 0 0%
BRANCH_RETURN: 0 0%
BRANCH_OTHER: 0 0%

DRAM PAGES: 1048576
Allocated PAGES: 385139
