
*** ChampSim Multicore Out-of-Order Simulator ***

Warmup Instructions: 50000000
Simulation Instructions: 100000000
Number of CPUs: 1
LLC sets: 2048
LLC ways: 16
Off-chip DRAM Size: 4096 MB Channels: 1 Width: 64-bit Data Rate: 6400 MT/s
CPU 0 runs ../SPEC2017//649.fotonik3d_s-1176B.champsimtrace.xz
.xz
BTB has LRU replacement policy
ITLB has LRU replacement policy
DTLB has LRU replacement policy
STLB has LRU replacement policy
L1I has LRU replacement policy
IP Table Entries: 64
L1D has LRU replacement policy
Initialize SRRIP state for L2C
Initialize DRRIP state for LLC
Heartbeat CPU 0 instructions: 10000000 cycles: 2902918 heartbeat IPC: 3.44481 cumulative IPC: 3.44481 (Simulation time: 0 hr 4 min 54 sec) 
Heartbeat CPU 0 instructions: 20000002 cycles: 5805781 heartbeat IPC: 3.44488 cumulative IPC: 3.44484 (Simulation time: 0 hr 9 min 18 sec) 
Heartbeat CPU 0 instructions: 30000001 cycles: 8708617 heartbeat IPC: 3.44491 cumulative IPC: 3.44486 (Simulation time: 0 hr 13 min 47 sec) 
Heartbeat CPU 0 instructions: 40000003 cycles: 11611487 heartbeat IPC: 3.44487 cumulative IPC: 3.44486 (Simulation time: 0 hr 17 min 44 sec) 
Heartbeat CPU 0 instructions: 50000001 cycles: 14514298 heartbeat IPC: 3.44494 cumulative IPC: 3.44488 (Simulation time: 0 hr 21 min 19 sec) 

Warmup complete CPU 0 instructions: 50000001 cycles: 14514298 (Simulation time: 0 hr 21 min 19 sec) 

Heartbeat CPU 0 instructions: 60000000 cycles: 31987681 heartbeat IPC: 0.572299 cumulative IPC: 0.572299 (Simulation time: 0 hr 25 min 44 sec) 
Heartbeat CPU 0 instructions: 70000001 cycles: 49434277 heartbeat IPC: 0.573178 cumulative IPC: 0.572738 (Simulation time: 0 hr 30 min 4 sec) 
Heartbeat CPU 0 instructions: 80000002 cycles: 66861795 heartbeat IPC: 0.573805 cumulative IPC: 0.573093 (Simulation time: 0 hr 34 min 21 sec) 
Heartbeat CPU 0 instructions: 90000000 cycles: 84266373 heartbeat IPC: 0.574561 cumulative IPC: 0.57346 (Simulation time: 0 hr 38 min 38 sec) 
Heartbeat CPU 0 instructions: 100000000 cycles: 101648607 heartbeat IPC: 0.5753 cumulative IPC: 0.573827 (Simulation time: 0 hr 42 min 59 sec) 
Heartbeat CPU 0 instructions: 110000000 cycles: 119017089 heartbeat IPC: 0.575756 cumulative IPC: 0.574147 (Simulation time: 0 hr 47 min 16 sec) 
Heartbeat CPU 0 instructions: 120000001 cycles: 136383590 heartbeat IPC: 0.575821 cumulative IPC: 0.574386 (Simulation time: 0 hr 51 min 30 sec) 
Heartbeat CPU 0 instructions: 130000003 cycles: 153736251 heartbeat IPC: 0.576281 cumulative IPC: 0.574622 (Simulation time: 0 hr 55 min 40 sec) 
Heartbeat CPU 0 instructions: 140000003 cycles: 171075831 heartbeat IPC: 0.576715 cumulative IPC: 0.574854 (Simulation time: 0 hr 59 min 37 sec) 
Heartbeat CPU 0 instructions: 150000001 cycles: 188388490 heartbeat IPC: 0.577612 cumulative IPC: 0.575128 (Simulation time: 1 hr 3 min 4 sec) 
Finished CPU 0 instructions: 100000000 cycles: 173874192 cumulative IPC: 0.575128 (Simulation time: 1 hr 3 min 4 sec) 

ChampSim completed all CPUs

Region of Interest Statistics

CPU 0 cumulative IPC: 0.575128 instructions: 100000000 cycles: 173874192

CPU 0 Average Load ROB stall cycles: 3.95536e+07
CPU 0 Fraction of times ROB stalled by Loads: 39.059
CPU 0 Percentage of Load stall cycles in Total stall cycles: 1.25709e+08
Issued all: 137668266
Issued LT all: 128188892
rob_not_full_when_issued_lt_all: 29785329
Issued LT one: 114863864
rob_not_full_when_issued_lt_one: 24230155
 Total stall cycles: 149146166
 Total load stall cycles: 187489737810149
Unique Load IPs: 147
CPU 0 NUM of IPS identified critical: 5
CPU 0 Num of Load IPs stalling ROB: 0
Threshold modification factor: 0
Trouble in retire width: -nan
MaC = Marked as critical.
lt_50_percent_before_Mac: 1
gt_90_percent_before_Mac: 0
gt_75_percent_before_Mac: 3
gt_50_percent_before_Mac: 1
stall_proportion_bin_same_before_after: 0
stall_proportion_bin_lower_before_after: 0
stall_proportion_bin_upper_before_after: 0
average_stall_proportion_before: 0.0115595
average_stall_proportion_after: 0.0115584
Critical_IP_Detector_Accuracy_70: 0
Critical_IP_Detector_Accuracy_80: 0
Critical_IP_Detector_Accuracy_90: 0
Critical_IP_Detector_Coverage_70: 0
Critical_IP_Detector_Coverage_80: 0
Critical_IP_Detector_Coverage_90: 0
stat_90_percent_critical_ip_stalls_freq: 488353
stat_90_percent_non_critical_ip_stalls_freq: 18446744073709063263
AVERAGE_ROB_Occupancy_90_Percent_Critical_IP_Stalls: 338.108
AVERAGE_ROB_Occupancy_90_Percent_Non_Critical_IP_Stalls: 2.47101e-11
Critical_IP_ROB_Stalls_Bucket_0: 10
Non-critical_IP_ROB_Stalls_Bucket_0: 100
Critical_IP_ROB_Stalls_Bucket_1: 20
Non-critical_IP_ROB_Stalls_Bucket_1: 491
Critical_IP_ROB_Stalls_Bucket_2: 16
Non-critical_IP_ROB_Stalls_Bucket_2: 732
Critical_IP_ROB_Stalls_Bucket_3: 11
Non-critical_IP_ROB_Stalls_Bucket_3: 449
Critical_IP_ROB_Stalls_Bucket_4: 19
Non-critical_IP_ROB_Stalls_Bucket_4: 810
Critical_IP_ROB_Stalls_Bucket_5: 294
Non-critical_IP_ROB_Stalls_Bucket_5: 193326
Critical_IP_ROB_Stalls_Bucket_6: 59415
Non-critical_IP_ROB_Stalls_Bucket_6: 1595761
0 => IPs accounting for >50 percent of stalls, 1 => 55, 2 => 60, 3 => 65 and so on till 90.
percent50: inf num IPs:  1
percent55: inf num IPs: 1
percent60: inf num IPs: 1
percent65: inf num IPs: 1
percent70: inf num IPs: 1
percent75: inf num IPs: 1
percent80: inf num IPs: 1
percent85: inf num IPs: 1
percent90: inf num IPs: 1
Critical_ROB_Stalls_Percent_0_Bucket_0: 7
Non-critical_ROB_Stalls_Percent_0_Bucket_0: 103
Critical_ROB_Stalls_Percent_0_Bucket_1: 81
Non-critical_ROB_Stalls_Percent_0_Bucket_1: 430
Critical_ROB_Stalls_Percent_0_Bucket_2: 102
Non-critical_ROB_Stalls_Percent_0_Bucket_2: 646
Critical_ROB_Stalls_Percent_0_Bucket_3: 113
Non-critical_ROB_Stalls_Percent_0_Bucket_3: 347
Critical_ROB_Stalls_Percent_0_Bucket_4: 224
Non-critical_ROB_Stalls_Percent_0_Bucket_4: 605
Critical_ROB_Stalls_Percent_0_Bucket_5: 36130
Non-critical_ROB_Stalls_Percent_0_Bucket_5: 157490
Critical_ROB_Stalls_Percent_0_Bucket_6: 451696
Non-critical_ROB_Stalls_Percent_0_Bucket_6: 1203480
Critical_ROB_Stalls_Percent_1_Bucket_0: 7
Non-critical_ROB_Stalls_Percent_1_Bucket_0: 103
Critical_ROB_Stalls_Percent_1_Bucket_1: 81
Non-critical_ROB_Stalls_Percent_1_Bucket_1: 430
Critical_ROB_Stalls_Percent_1_Bucket_2: 102
Non-critical_ROB_Stalls_Percent_1_Bucket_2: 646
Critical_ROB_Stalls_Percent_1_Bucket_3: 113
Non-critical_ROB_Stalls_Percent_1_Bucket_3: 347
Critical_ROB_Stalls_Percent_1_Bucket_4: 224
Non-critical_ROB_Stalls_Percent_1_Bucket_4: 605
Critical_ROB_Stalls_Percent_1_Bucket_5: 36130
Non-critical_ROB_Stalls_Percent_1_Bucket_5: 157490
Critical_ROB_Stalls_Percent_1_Bucket_6: 451696
Non-critical_ROB_Stalls_Percent_1_Bucket_6: 1203480
Critical_ROB_Stalls_Percent_2_Bucket_0: 7
Non-critical_ROB_Stalls_Percent_2_Bucket_0: 103
Critical_ROB_Stalls_Percent_2_Bucket_1: 81
Non-critical_ROB_Stalls_Percent_2_Bucket_1: 430
Critical_ROB_Stalls_Percent_2_Bucket_2: 102
Non-critical_ROB_Stalls_Percent_2_Bucket_2: 646
Critical_ROB_Stalls_Percent_2_Bucket_3: 113
Non-critical_ROB_Stalls_Percent_2_Bucket_3: 347
Critical_ROB_Stalls_Percent_2_Bucket_4: 224
Non-critical_ROB_Stalls_Percent_2_Bucket_4: 605
Critical_ROB_Stalls_Percent_2_Bucket_5: 36130
Non-critical_ROB_Stalls_Percent_2_Bucket_5: 157490
Critical_ROB_Stalls_Percent_2_Bucket_6: 451696
Non-critical_ROB_Stalls_Percent_2_Bucket_6: 1203480
Critical_ROB_Stalls_Percent_3_Bucket_0: 7
Non-critical_ROB_Stalls_Percent_3_Bucket_0: 103
Critical_ROB_Stalls_Percent_3_Bucket_1: 81
Non-critical_ROB_Stalls_Percent_3_Bucket_1: 430
Critical_ROB_Stalls_Percent_3_Bucket_2: 102
Non-critical_ROB_Stalls_Percent_3_Bucket_2: 646
Critical_ROB_Stalls_Percent_3_Bucket_3: 113
Non-critical_ROB_Stalls_Percent_3_Bucket_3: 347
Critical_ROB_Stalls_Percent_3_Bucket_4: 224
Non-critical_ROB_Stalls_Percent_3_Bucket_4: 605
Critical_ROB_Stalls_Percent_3_Bucket_5: 36130
Non-critical_ROB_Stalls_Percent_3_Bucket_5: 157490
Critical_ROB_Stalls_Percent_3_Bucket_6: 451696
Non-critical_ROB_Stalls_Percent_3_Bucket_6: 1203480
Critical_ROB_Stalls_Percent_4_Bucket_0: 7
Non-critical_ROB_Stalls_Percent_4_Bucket_0: 103
Critical_ROB_Stalls_Percent_4_Bucket_1: 81
Non-critical_ROB_Stalls_Percent_4_Bucket_1: 430
Critical_ROB_Stalls_Percent_4_Bucket_2: 102
Non-critical_ROB_Stalls_Percent_4_Bucket_2: 646
Critical_ROB_Stalls_Percent_4_Bucket_3: 113
Non-critical_ROB_Stalls_Percent_4_Bucket_3: 347
Critical_ROB_Stalls_Percent_4_Bucket_4: 224
Non-critical_ROB_Stalls_Percent_4_Bucket_4: 605
Critical_ROB_Stalls_Percent_4_Bucket_5: 36130
Non-critical_ROB_Stalls_Percent_4_Bucket_5: 157490
Critical_ROB_Stalls_Percent_4_Bucket_6: 451696
Non-critical_ROB_Stalls_Percent_4_Bucket_6: 1203480
Critical_ROB_Stalls_Percent_5_Bucket_0: 7
Non-critical_ROB_Stalls_Percent_5_Bucket_0: 103
Critical_ROB_Stalls_Percent_5_Bucket_1: 81
Non-critical_ROB_Stalls_Percent_5_Bucket_1: 430
Critical_ROB_Stalls_Percent_5_Bucket_2: 102
Non-critical_ROB_Stalls_Percent_5_Bucket_2: 646
Critical_ROB_Stalls_Percent_5_Bucket_3: 113
Non-critical_ROB_Stalls_Percent_5_Bucket_3: 347
Critical_ROB_Stalls_Percent_5_Bucket_4: 224
Non-critical_ROB_Stalls_Percent_5_Bucket_4: 605
Critical_ROB_Stalls_Percent_5_Bucket_5: 36130
Non-critical_ROB_Stalls_Percent_5_Bucket_5: 157490
Critical_ROB_Stalls_Percent_5_Bucket_6: 451696
Non-critical_ROB_Stalls_Percent_5_Bucket_6: 1203480
Critical_ROB_Stalls_Percent_6_Bucket_0: 7
Non-critical_ROB_Stalls_Percent_6_Bucket_0: 103
Critical_ROB_Stalls_Percent_6_Bucket_1: 81
Non-critical_ROB_Stalls_Percent_6_Bucket_1: 430
Critical_ROB_Stalls_Percent_6_Bucket_2: 102
Non-critical_ROB_Stalls_Percent_6_Bucket_2: 646
Critical_ROB_Stalls_Percent_6_Bucket_3: 113
Non-critical_ROB_Stalls_Percent_6_Bucket_3: 347
Critical_ROB_Stalls_Percent_6_Bucket_4: 224
Non-critical_ROB_Stalls_Percent_6_Bucket_4: 605
Critical_ROB_Stalls_Percent_6_Bucket_5: 36130
Non-critical_ROB_Stalls_Percent_6_Bucket_5: 157490
Critical_ROB_Stalls_Percent_6_Bucket_6: 451696
Non-critical_ROB_Stalls_Percent_6_Bucket_6: 1203480
Critical_ROB_Stalls_Percent_7_Bucket_0: 7
Non-critical_ROB_Stalls_Percent_7_Bucket_0: 103
Critical_ROB_Stalls_Percent_7_Bucket_1: 81
Non-critical_ROB_Stalls_Percent_7_Bucket_1: 430
Critical_ROB_Stalls_Percent_7_Bucket_2: 102
Non-critical_ROB_Stalls_Percent_7_Bucket_2: 646
Critical_ROB_Stalls_Percent_7_Bucket_3: 113
Non-critical_ROB_Stalls_Percent_7_Bucket_3: 347
Critical_ROB_Stalls_Percent_7_Bucket_4: 224
Non-critical_ROB_Stalls_Percent_7_Bucket_4: 605
Critical_ROB_Stalls_Percent_7_Bucket_5: 36130
Non-critical_ROB_Stalls_Percent_7_Bucket_5: 157490
Critical_ROB_Stalls_Percent_7_Bucket_6: 451696
Non-critical_ROB_Stalls_Percent_7_Bucket_6: 1203480
Critical_ROB_Stalls_Percent_8_Bucket_0: 7
Non-critical_ROB_Stalls_Percent_8_Bucket_0: 103
Critical_ROB_Stalls_Percent_8_Bucket_1: 81
Non-critical_ROB_Stalls_Percent_8_Bucket_1: 430
Critical_ROB_Stalls_Percent_8_Bucket_2: 102
Non-critical_ROB_Stalls_Percent_8_Bucket_2: 646
Critical_ROB_Stalls_Percent_8_Bucket_3: 113
Non-critical_ROB_Stalls_Percent_8_Bucket_3: 347
Critical_ROB_Stalls_Percent_8_Bucket_4: 224
Non-critical_ROB_Stalls_Percent_8_Bucket_4: 605
Critical_ROB_Stalls_Percent_8_Bucket_5: 36130
Non-critical_ROB_Stalls_Percent_8_Bucket_5: 157490
Critical_ROB_Stalls_Percent_8_Bucket_6: 451696
Non-critical_ROB_Stalls_Percent_8_Bucket_6: 1203480
Average ROB occupancy Load Stall Begin: 307.971
Average ROB occupancy Load Stall End: 335.378
Min ROB occupancy Load Stall Begin: 9
Max ROB occupancy Load Stall Begin: 352
Min ROB occupancy Load Stall End: 9
Max ROB occupancy Load Stall End: 352
Average ROB occupancy Critical Load Stall Begin: 323.698
Average ROB occupancy Critical Load Stall End: 331.425
Min ROB occupancy Critical Load Stall Begin: 12
Max ROB occupancy Critical Load Stall Begin: 352
Min ROB occupancy Critical Load Stall End: 12
Max ROB occupancy Critical Load Stall End: 352
 ROB Load Stall Begin Bucket Count 0: 262
 ROB Load Stall End Bucket Count 0: 110
 ROB Critical Load Stall Begin Bucket Count 0: 3
 ROB Critical Load Stall End Bucket Count 0: 3
 ROB Load Stall Begin Bucket Count 1: 775
 ROB Load Stall End Bucket Count 1: 511
 ROB Critical Load Stall Begin Bucket Count 1: 10
 ROB Critical Load Stall End Bucket Count 1: 9
 ROB Load Stall Begin Bucket Count 2: 802
 ROB Load Stall End Bucket Count 2: 748
 ROB Critical Load Stall Begin Bucket Count 2: 5
 ROB Critical Load Stall End Bucket Count 2: 6
 ROB Load Stall Begin Bucket Count 3: 482
 ROB Load Stall End Bucket Count 3: 460
 ROB Critical Load Stall Begin Bucket Count 3: 6
 ROB Critical Load Stall End Bucket Count 3: 5
 ROB Load Stall Begin Bucket Count 4: 150832
 ROB Load Stall End Bucket Count 4: 829
 ROB Critical Load Stall Begin Bucket Count 4: 8
 ROB Critical Load Stall End Bucket Count 4: 7
 ROB Load Stall Begin Bucket Count 5: 633371
 ROB Load Stall End Bucket Count 5: 193620
 ROB Critical Load Stall Begin Bucket Count 5: 1302
 ROB Critical Load Stall End Bucket Count 5: 103
 ROB Load Stall Begin Bucket Count 6: 1064930
 ROB Load Stall End Bucket Count 6: 1655176
 ROB Critical Load Stall Begin Bucket Count 6: 22381
 ROB Critical Load Stall End Bucket Count 6: 23582
PIST Tag Read Accesses: 0
PIST Read Accesses: 0
PIST Tag Write Accesses: 0
PIST Write Accesses: 0
Criticality detector called times: 0
Max global_stall_cycles_count: 0
Threshold Modified: 0 times, factor: 0
Sturdy critical IP cache stats: 
 Unused entries: 0
CIC Tag Read Accesses: 0
CIC Read Accesses: 0
CIC Tag Write Accesses: 0
CIC Write Accesses: 0
Wobbly critical IP cache stats: 
 Unused entries: 24
CIC Tag Read Accesses: 345339484
CIC Read Accesses: 0
CIC Tag Write Accesses: 2784638
CIC Write Accesses: 0
ITLB TOTAL     ACCESS:   14226616  HIT:   14226616  MISS:          0  HIT %:        100  MISS %:          0   MPKI: 0
ITLB LOAD TRANSLATION ACCESS:   14226616  HIT:   14226616  MISS:          0  HIT %:        100  MISS %:          0   MPKI: 0
ITLB PREFETCH  REQUESTED:          0  ISSUED:          0  USEFUL:          0  USELESS:          0
ITLB USEFUL LOAD PREFETCHES:          0 PREFETCH ISSUED TO LOWER LEVEL:          0  ACCURACY: -nan
ITLB TIMELY PREFETCHES:          0 LATE PREFETCHES: 0 DROPPED PREFETCHES: 0
ITLB PREFETCHES SAME FILL-ORIGIN LEVEL: 0 DIFFERENT FILL-ORIGIN LEVEL: 0
ITLB AVERAGE MISS LATENCY: -nan cycles
ITLB RQ	ACCESS:   17751980	FORWARD:          0	MERGED:    3525365	TO_CACHE:   14226615

DTLB TOTAL     ACCESS:   13054217  HIT:   13030614  MISS:      23603  HIT %:    99.8192  MISS %:   0.180807   MPKI: 0.23603
DTLB LOAD TRANSLATION ACCESS:   13054217  HIT:   13030614  MISS:      23603  HIT %:    99.8192  MISS %:   0.180807   MPKI: 0.23603
DTLB PREFETCH  REQUESTED:          0  ISSUED:          0  USEFUL:          0  USELESS:          0
DTLB USEFUL LOAD PREFETCHES:          0 PREFETCH ISSUED TO LOWER LEVEL:          0  ACCURACY: -nan
DTLB TIMELY PREFETCHES:          0 LATE PREFETCHES: 0 DROPPED PREFETCHES: 0
DTLB PREFETCHES SAME FILL-ORIGIN LEVEL: 0 DIFFERENT FILL-ORIGIN LEVEL: 0
DTLB AVERAGE MISS LATENCY: 88.8879 cycles
DTLB RQ	ACCESS:   19895763	FORWARD:          0	MERGED:    6840658	TO_CACHE:   13055105

STLB TOTAL     ACCESS:      23603  HIT:       9885  MISS:      13718  HIT %:    41.8803  MISS %:    58.1197   MPKI: 0.13718
STLB LOAD TRANSLATION ACCESS:      23603  HIT:       9885  MISS:      13718  HIT %:    41.8803  MISS %:    58.1197   MPKI: 0.13718
STLB PREFETCH  REQUESTED:          0  ISSUED:          0  USEFUL:          0  USELESS:          0
STLB USEFUL LOAD PREFETCHES:          0 PREFETCH ISSUED TO LOWER LEVEL:          0  ACCURACY: -nan
STLB TIMELY PREFETCHES:          0 LATE PREFETCHES: 0 DROPPED PREFETCHES: 0
STLB PREFETCHES SAME FILL-ORIGIN LEVEL: 0 DIFFERENT FILL-ORIGIN LEVEL: 0
STLB AVERAGE MISS LATENCY: 137.351 cycles
STLB RQ	ACCESS:      23603	FORWARD:          0	MERGED:          0	TO_CACHE:      23603

STLB Hit, L1D data hit: 0
STLB Hit, L2C data hit: 0
STLB Hit, LLC data hit: 0
STLB Hit, LLC data miss: 0
STLB STLB hints to L2: 0
L1D TOTAL     ACCESS:   18815273  HIT:   17491913  MISS:    1323360  HIT %:    92.9666  MISS %:    7.03344   MPKI: 13.2336
L1D LOAD      ACCESS:   11797008  HIT:   10475181  MISS:    1321827  HIT %:    88.7952  MISS %:    11.2048   MPKI: 13.2183
L1D RFO       ACCESS:    7018265  HIT:    7016732  MISS:       1533  HIT %:    99.9782  MISS %:   0.021843   MPKI: 0.01533
L1D PREFETCH  REQUESTED:          0  ISSUED:          0  USEFUL:         12  USELESS:         12
L1D USEFUL LOAD PREFETCHES:         12 PREFETCH ISSUED TO LOWER LEVEL:          0  ACCURACY: inf
L1D TIMELY PREFETCHES:         12 LATE PREFETCHES: 0 DROPPED PREFETCHES: 0
L1D PREFETCHES SAME FILL-ORIGIN LEVEL: 0 DIFFERENT FILL-ORIGIN LEVEL: 0
L1D AVERAGE MISS LATENCY: 151.946 cycles
L1D RQ	ACCESS:   35082820	FORWARD:          0	MERGED:   22207286	TO_CACHE:   12875215
L1D WQ	ACCESS:    7020548	FORWARD:        319	MERGED:          0	TO_CACHE:    7020548

L1D UNIQUE REGIONS ACCESSED: 0
L1D REGIONS CONFLICTS: 0
L1D Cross Page Prefetch Requests: 0
L1D Same Page Prefetch Requests: 653517
L1D ROI Sum of L1D PQ occupancy: 0
L1D PREFETCHES PUSHED FROM L2C: 0
L1I TOTAL     ACCESS:   17751979  HIT:   17751979  MISS:          0  HIT %:        100  MISS %:          0   MPKI: 0
L1I LOAD      ACCESS:   17751979  HIT:   17751979  MISS:          0  HIT %:        100  MISS %:          0   MPKI: 0
L1I PREFETCH  REQUESTED:          0  ISSUED:          0  USEFUL:          0  USELESS:          0
L1I USEFUL LOAD PREFETCHES:          0 PREFETCH ISSUED TO LOWER LEVEL:          0  ACCURACY: -nan
L1I TIMELY PREFETCHES:          0 LATE PREFETCHES: 0 DROPPED PREFETCHES: 0
L1I PREFETCHES SAME FILL-ORIGIN LEVEL: 0 DIFFERENT FILL-ORIGIN LEVEL: 0
L1I AVERAGE MISS LATENCY: -nan cycles
L1I RQ	ACCESS:   24431213	FORWARD:          0	MERGED:    6679233	TO_CACHE:   17751980

BTB TOTAL     ACCESS:    1754589  HIT:    1754580  MISS:          9  HIT %:    99.9995  MISS %: 0.000512941   MPKI: 9e-05
BTB BRANCH_DIRECT_JUMP	ACCESS:        438  HIT:        436  MISS:          2
BTB BRANCH_INDIRECT	ACCESS:          0  HIT:          0  MISS:          0
BTB BRANCH_CONDITIONAL	ACCESS:    1753275  HIT:    1753272  MISS:          3
BTB BRANCH_DIRECT_CALL	ACCESS:        438  HIT:        436  MISS:          2
BTB BRANCH_INDIRECT_CALL	ACCESS:          0  HIT:          0  MISS:          0
BTB BRANCH_RETURN	ACCESS:        438  HIT:        436  MISS:          2
BTB BRANCH_OTHER ACCESS:          0  HIT:          0  MISS:          0

L2C TOTAL     ACCESS:    2215567  HIT:    1130735  MISS:    1084832  HIT %:    51.0359  MISS %:    48.9641   MPKI: 10.8483
L2C LOAD      ACCESS:    1321827  HIT:     243100  MISS:    1078727  HIT %:    18.3912  MISS %:    81.6088   MPKI: 10.7873
L2C DATA LOAD MPKI: 10.7873
L2C INSTRUCTION LOAD MPKI: 0
L2C RFO       ACCESS:       1533  HIT:       1533  MISS:          0  HIT %:        100  MISS %:          0   MPKI: 0
L2C WRITEBACK ACCESS:     878486  HIT:     874184  MISS:       4302  HIT %:    99.5103  MISS %:   0.489706   MPKI: 0.04302
L2C LOAD TRANSLATION ACCESS:      13721  HIT:      11918  MISS:       1803  HIT %:    86.8596  MISS %:    13.1404   MPKI: 0.01803
L2C PREFETCH  REQUESTED:          0  ISSUED:          0  USEFUL:        572  USELESS:       7145
L2C USEFUL LOAD PREFETCHES:        572 PREFETCH ISSUED TO LOWER LEVEL:          0  ACCURACY: inf
L2C TIMELY PREFETCHES:        572 LATE PREFETCHES: 0 DROPPED PREFETCHES: 0
L2C PREFETCHES SAME FILL-ORIGIN LEVEL: 0 DIFFERENT FILL-ORIGIN LEVEL: 0
L2C AVERAGE MISS LATENCY: 167.312 cycles
L2C RQ	ACCESS:    1337082	FORWARD:          0	MERGED:          0	TO_CACHE:    1337082
L2C WQ	ACCESS:     878486	FORWARD:          0	MERGED:          0	TO_CACHE:     878486

L2C Instructions Evicting Data 0
L2C Translations Evicting Data 1799
L2C Data Evicting Data 1076944
L2C Instructions Evicting Instructions 0
L2C Translations Evicting Instructions 0
L2C Data Evicting Instructions 0
L2C Instructions Evicting Translations 0
L2C Translations Evicting Translations 4
L2C Data Evicting Translations 1783
L2C Dense regions hint from L2: 0
PSCL5 TOTAL     ACCESS:      13718  HIT:      13718  MISS:          0  HIT %:        100  MISS %:          0   MPKI: 0
PSCL5 LOAD TRANSLATION ACCESS:      13718  HIT:      13718  MISS:          0  HIT %:        100  MISS %:          0   MPKI: 0
PSCL5 PREFETCH  REQUESTED:          0  ISSUED:          0  USEFUL:          0  USELESS:          0
PSCL5 USEFUL LOAD PREFETCHES:          0 PREFETCH ISSUED TO LOWER LEVEL:          0  ACCURACY: -nan
PSCL5 TIMELY PREFETCHES:          0 LATE PREFETCHES: 0 DROPPED PREFETCHES: 0
PSCL5 PREFETCHES SAME FILL-ORIGIN LEVEL: 0 DIFFERENT FILL-ORIGIN LEVEL: 0

PSCL4 TOTAL     ACCESS:      13718  HIT:      13718  MISS:          0  HIT %:        100  MISS %:          0   MPKI: 0
PSCL4 LOAD TRANSLATION ACCESS:      13718  HIT:      13718  MISS:          0  HIT %:        100  MISS %:          0   MPKI: 0
PSCL4 PREFETCH  REQUESTED:          0  ISSUED:          0  USEFUL:          0  USELESS:          0
PSCL4 USEFUL LOAD PREFETCHES:          0 PREFETCH ISSUED TO LOWER LEVEL:          0  ACCURACY: -nan
PSCL4 TIMELY PREFETCHES:          0 LATE PREFETCHES: 0 DROPPED PREFETCHES: 0
PSCL4 PREFETCHES SAME FILL-ORIGIN LEVEL: 0 DIFFERENT FILL-ORIGIN LEVEL: 0

PSCL3 TOTAL     ACCESS:      13718  HIT:      13716  MISS:          2  HIT %:    99.9854  MISS %:  0.0145794   MPKI: 2e-05
PSCL3 LOAD TRANSLATION ACCESS:      13718  HIT:      13716  MISS:          2  HIT %:    99.9854  MISS %:  0.0145794   MPKI: 2e-05
PSCL3 PREFETCH  REQUESTED:          0  ISSUED:          0  USEFUL:          0  USELESS:          0
PSCL3 USEFUL LOAD PREFETCHES:          0 PREFETCH ISSUED TO LOWER LEVEL:          0  ACCURACY: -nan
PSCL3 TIMELY PREFETCHES:          0 LATE PREFETCHES: 0 DROPPED PREFETCHES: 0
PSCL3 PREFETCHES SAME FILL-ORIGIN LEVEL: 0 DIFFERENT FILL-ORIGIN LEVEL: 0

PSCL2 TOTAL     ACCESS:      13718  HIT:      13674  MISS:         44  HIT %:    99.6793  MISS %:   0.320746   MPKI: 0.00044
PSCL2 LOAD TRANSLATION ACCESS:      13718  HIT:      13674  MISS:         44  HIT %:    99.6793  MISS %:   0.320746   MPKI: 0.00044
PSCL2 PREFETCH  REQUESTED:          0  ISSUED:          0  USEFUL:          0  USELESS:          0
PSCL2 USEFUL LOAD PREFETCHES:          0 PREFETCH ISSUED TO LOWER LEVEL:          0  ACCURACY: -nan
PSCL2 TIMELY PREFETCHES:          0 LATE PREFETCHES: 0 DROPPED PREFETCHES: 0
PSCL2 PREFETCHES SAME FILL-ORIGIN LEVEL: 0 DIFFERENT FILL-ORIGIN LEVEL: 0

LLC TOTAL     ACCESS:    1957297  HIT:    1064310  MISS:     892987  HIT %:    54.3765  MISS %:    45.6235   MPKI: 8.92987
LLC LOAD      ACCESS:    1078727  HIT:     200782  MISS:     877945  HIT %:    18.6129  MISS %:    81.3871   MPKI: 8.77945
LLC WRITEBACK ACCESS:     876767  HIT:     863490  MISS:      13277  HIT %:    98.4857  MISS %:    1.51431   MPKI: 0.13277
LLC LOAD TRANSLATION ACCESS:       1803  HIT:         38  MISS:       1765  HIT %:     2.1076  MISS %:    97.8924   MPKI: 0.01765
LLC PREFETCH  REQUESTED:          0  ISSUED:          0  USEFUL:        890  USELESS:      30364
LLC USEFUL LOAD PREFETCHES:        890 PREFETCH ISSUED TO LOWER LEVEL:          0  ACCURACY: inf
LLC TIMELY PREFETCHES:        890 LATE PREFETCHES: 0 DROPPED PREFETCHES: 0
LLC PREFETCHES SAME FILL-ORIGIN LEVEL: 0 DIFFERENT FILL-ORIGIN LEVEL: 0
LLC AVERAGE MISS LATENCY: 166.885 cycles
LLC RQ	ACCESS:    1080531	FORWARD:          0	MERGED:          0	TO_CACHE:    1080531
LLC WQ	ACCESS:     876767	FORWARD:          0	MERGED:          0	TO_CACHE:     876767

LLC Dense regions hint to LLC: 0

RAW hits: 1732
Loads Generated: 35084556
Loads sent to L1D: 35082820
Stores Generated: 7020544
Stores sent to L1D: 7020548
Major fault: 0 Minor fault: 20726
Allocated PAGES: 20726

stream: 
stream:times selected: 1348130
stream:pref_filled: 606047
stream:pref_useful: 603797
stream:pref_late: 135
stream:misses: 226
stream:misses_by_poll: 0

CS: 
CS:times selected: 946172
CS:pref_filled: 11425
CS:pref_useful: 11366
CS:pref_late: 15
CS:misses: 3722
CS:misses_by_poll: 0

CPLX: 
CPLX:times selected: 401871
CPLX:pref_filled: 28324
CPLX:pref_useful: 28135
CPLX:pref_late: 0
CPLX:misses: 2028
CPLX:misses_by_poll: 0

NL_L1: 
NL:times selected: 15
NL:pref_filled: 5
NL:pref_useful: 5
NL:pref_late: 0
NL:misses: 0
NL:misses_by_poll: 0

total selections: 2696188
total_filled: 0
total_useful: 12
total_late: 158
total_polluted: 0
total_misses_after_warmup: 113
conflicts: 188
Degree Incremented Times: 105402
Degree Decremented Times: 0

L1 IP Table Write Accesses: 523276
L1 IP Table Read Accesses: 523088
L1 RST Write Accesses: 0
L1 RST Read Accesses: 0
L1 CSPT Write Accesses: 0
L1 CSPT Read Accesses: 0
L1 RR Filter Tag Write Accesses: 0
L1 RR Filter Tag Read Accesses: 0
L1 IP Table Tag Write Accesses: 523464
L1 IP Table Tag Read Accesses: 523464
L1 RST Tag Write Accesses: 0
L1 RST Tag Read Accesses: 0
L1 RR Filter Write Accesses: 0
L1 RR Filter Read Accesses: 0
test: 33264

DRAM Statistics
 CHANNEL 0
 RQ ROW_BUFFER_HIT:       5441  ROW_BUFFER_MISS:     874270
 DBUS_CONGESTED:        146
 WQ ROW_BUFFER_HIT:     741019  ROW_BUFFER_MISS:     134902  FULL:          0

 AVG_CONGESTED_CYCLE: 5
 All warmup complete: 2
Channel 0 Bank busy for read cycles: 0
Channel 0 Bank busy for write cycles: 0
Channel 0
Rank 0
0banks busy for read cycles: 1732662
0banks busy for write cycles: 35153
1banks busy for read cycles: 72309121
1banks busy for write cycles: 8102066
2banks busy for read cycles: 29550034
2banks busy for write cycles: 27456966
3banks busy for read cycles: 1373
3banks busy for write cycles: 24866131
4banks busy for read cycles: 28
4banks busy for write cycles: 5635922
5banks busy for read cycles: 0
5banks busy for write cycles: 3573689
6banks busy for read cycles: 0
6banks busy for write cycles: 456362
7banks busy for read cycles: 0
7banks busy for write cycles: 140422
8banks busy for read cycles: 0
8banks busy for write cycles: 14264

CPU 0 Branch Prediction Accuracy: 99.9751% MPKI: 0.00438 Average ROB Occupancy at Mispredict: 316.342
Branch types
NOT_BRANCH: 98243848 98.2438%
BRANCH_DIRECT_JUMP: 438 0.000438%
BRANCH_INDIRECT: 0 0%
BRANCH_CONDITIONAL: 1754808 1.75481%
BRANCH_DIRECT_CALL: 438 0.000438%
BRANCH_INDIRECT_CALL: 0 0%
BRANCH_RETURN: 438 0.000438%
BRANCH_OTHER: 0 0%

DRAM PAGES: 1048576
Allocated PAGES: 20726
