
*** ChampSim Multicore Out-of-Order Simulator ***

Warmup Instructions: 50000000
Simulation Instructions: 100000000
Number of CPUs: 1
LLC sets: 2048
LLC ways: 16
Off-chip DRAM Size: 4096 MB Channels: 1 Width: 64-bit Data Rate: 6400 MT/s
CPU 0 runs ../SPEC2017//649.fotonik3d_s-8225B.champsimtrace.xz
.xz
NUM_OF_IPS_IN_CRITICAL_IP_TRAINING: 64
NUM_OF_CRITICAL_IP_TRAINING_TABLE_WAYS: 2
NUM_OF_CRITICAL_IP_TRAINING_TABLE_SETS: 32
WOBBLY_CRITICAL_IP_CACHE_SETS: 32
WOBBLY_CRITICAL_IP_CACHE_WAYS: 4
BTB has LRU replacement policy
ITLB has LRU replacement policy
DTLB has LRU replacement policy
STLB has LRU replacement policy
L1I has LRU replacement policy
IP Table Entries: 64
L1D has LRU replacement policy
Initialize SRRIP state for L2C
Initialize DRRIP state for LLC
Heartbeat CPU 0 instructions: 10000001 cycles: 2922594 heartbeat IPC: 3.42162 cumulative IPC: 3.42162 (Simulation time: 0 hr 3 min 11 sec) 
Heartbeat CPU 0 instructions: 20000001 cycles: 5843840 heartbeat IPC: 3.4232 cumulative IPC: 3.42241 (Simulation time: 0 hr 5 min 45 sec) 
Heartbeat CPU 0 instructions: 30000000 cycles: 8765245 heartbeat IPC: 3.42301 cumulative IPC: 3.42261 (Simulation time: 0 hr 8 min 15 sec) 
Heartbeat CPU 0 instructions: 40000002 cycles: 11686496 heartbeat IPC: 3.42319 cumulative IPC: 3.42275 (Simulation time: 0 hr 10 min 35 sec) 
Heartbeat CPU 0 instructions: 50000001 cycles: 14607708 heartbeat IPC: 3.42324 cumulative IPC: 3.42285 (Simulation time: 0 hr 12 min 33 sec) 

Warmup complete CPU 0 instructions: 50000001 cycles: 14607708 (Simulation time: 0 hr 12 min 33 sec) 

% increase in all ip prefetch 227.821
% increase in all ip prefetch -0.038778
Heartbeat CPU 0 instructions: 60000000 cycles: 24631273 heartbeat IPC: 0.997649 cumulative IPC: 0.997649 (Simulation time: 0 hr 14 min 48 sec) 
Heartbeat CPU 0 instructions: 70000001 cycles: 34648179 heartbeat IPC: 0.998312 cumulative IPC: 0.997981 (Simulation time: 0 hr 16 min 52 sec) 
Heartbeat CPU 0 instructions: 80000002 cycles: 44670545 heartbeat IPC: 0.997768 cumulative IPC: 0.99791 (Simulation time: 0 hr 18 min 51 sec) 
Heartbeat CPU 0 instructions: 90000003 cycles: 54686142 heartbeat IPC: 0.998443 cumulative IPC: 0.998043 (Simulation time: 0 hr 20 min 49 sec) 
Heartbeat CPU 0 instructions: 100000000 cycles: 64709105 heartbeat IPC: 0.997709 cumulative IPC: 0.997976 (Simulation time: 0 hr 22 min 45 sec) 
Heartbeat CPU 0 instructions: 110000000 cycles: 74726548 heartbeat IPC: 0.998259 cumulative IPC: 0.998023 (Simulation time: 0 hr 24 min 42 sec) 
Heartbeat CPU 0 instructions: 120000002 cycles: 84744339 heartbeat IPC: 0.998224 cumulative IPC: 0.998052 (Simulation time: 0 hr 26 min 35 sec) 
Heartbeat CPU 0 instructions: 130000003 cycles: 94760464 heartbeat IPC: 0.99839 cumulative IPC: 0.998094 (Simulation time: 0 hr 28 min 31 sec) 
Heartbeat CPU 0 instructions: 140000002 cycles: 104778132 heartbeat IPC: 0.998236 cumulative IPC: 0.99811 (Simulation time: 0 hr 30 min 21 sec) 
Heartbeat CPU 0 instructions: 150000003 cycles: 114794672 heartbeat IPC: 0.998349 cumulative IPC: 0.998134 (Simulation time: 0 hr 32 min 17 sec) 
Finished CPU 0 instructions: 100000002 cycles: 100186964 cumulative IPC: 0.998134 (Simulation time: 0 hr 32 min 17 sec) 

ChampSim completed all CPUs

Region of Interest Statistics

CPU 0 cumulative IPC: 0.998134 instructions: 100000002 cycles: 100186964

CPU 0 Average Load ROB stall cycles: 2.55056e+07
CPU 0 Fraction of times ROB stalled by Loads: 39.4099
CPU 0 Percentage of Load stall cycles in Total stall cycles: 3.89156e+08
Issued all: 51584370
Issued LT all: 37587575
rob_not_full_when_issued_lt_all: 36786440
Issued LT one: 32256701
rob_not_full_when_issued_lt_one: 31520778
 Total stall cycles: 78270670
 Total load stall cycles: 304595299689487
Unique Load IPs: 147
CPU 0 NUM of IPS identified critical: 10
CPU 0 Num of Load IPs stalling ROB: 127
Threshold modification factor: -1
Max PIST entries: 46
Min PIST entries: 0
Avg PIST entries: 24.84
Trouble in retire width: 0.999238
MaC = Marked as critical.
lt_50_percent_before_Mac: 10
gt_90_percent_before_Mac: 0
gt_75_percent_before_Mac: 0
gt_50_percent_before_Mac: 0
stall_proportion_bin_same_before_after: 0
stall_proportion_bin_lower_before_after: 0
stall_proportion_bin_upper_before_after: 0
average_stall_proportion_before: 0.0676924
average_stall_proportion_after: 0.0741507
Critical IP stalls, total frequency: 4518774
Non-critical IP stalls, total frequency: 187673
Total Freq all stalling IPs: 4706447
Critical_IP_Detector_Accuracy_70: 0.5
Critical_IP_Detector_Accuracy_80: 0.5
Critical_IP_Detector_Accuracy_90: 0.6
Critical_IP_Detector_Coverage_70: 1
Critical_IP_Detector_Coverage_80: 1
Critical_IP_Detector_Coverage_90: 1
stat_90_percent_critical_ip_stalls_freq: 4398385
stat_90_percent_non_critical_ip_stalls_freq: 308062
AVERAGE_ROB_Occupancy_90_Percent_Critical_IP_Stalls: 48.8259
AVERAGE_ROB_Occupancy_90_Percent_Non_Critical_IP_Stalls: 71.7431
Critical_IP_ROB_Stalls_Bucket_0: 3622874
Non-critical_IP_ROB_Stalls_Bucket_0: 14107
Critical_IP_ROB_Stalls_Bucket_1: 785485
Non-critical_IP_ROB_Stalls_Bucket_1: 158522
Critical_IP_ROB_Stalls_Bucket_2: 25978
Non-critical_IP_ROB_Stalls_Bucket_2: 3462
Critical_IP_ROB_Stalls_Bucket_3: 28232
Non-critical_IP_ROB_Stalls_Bucket_3: 3341
Critical_IP_ROB_Stalls_Bucket_4: 17398
Non-critical_IP_ROB_Stalls_Bucket_4: 3279
Critical_IP_ROB_Stalls_Bucket_5: 24883
Non-critical_IP_ROB_Stalls_Bucket_5: 2062
Critical_IP_ROB_Stalls_Bucket_6: 13924
Non-critical_IP_ROB_Stalls_Bucket_6: 2900
0 => IPs accounting for >50 percent of stalls, 1 => 55, 2 => 60, 3 => 65 and so on till 90.
percent50: 50.3909 num IPs:  3
percent55: 66.8245 num IPs: 4
percent60: 66.8245 num IPs: 4
percent65: 66.8245 num IPs: 4
percent70: 80.144 num IPs: 5
percent75: 80.144 num IPs: 5
percent80: 80.144 num IPs: 5
percent85: 93.4545 num IPs: 6
percent90: 93.4545 num IPs: 6
Critical_ROB_Stalls_Percent_0_Bucket_0: 1860010
Non-critical_ROB_Stalls_Percent_0_Bucket_0: 1776971
Critical_ROB_Stalls_Percent_0_Bucket_1: 445138
Non-critical_ROB_Stalls_Percent_0_Bucket_1: 498869
Critical_ROB_Stalls_Percent_0_Bucket_2: 17381
Non-critical_ROB_Stalls_Percent_0_Bucket_2: 12059
Critical_ROB_Stalls_Percent_0_Bucket_3: 18433
Non-critical_ROB_Stalls_Percent_0_Bucket_3: 13140
Critical_ROB_Stalls_Percent_0_Bucket_4: 9951
Non-critical_ROB_Stalls_Percent_0_Bucket_4: 10726
Critical_ROB_Stalls_Percent_0_Bucket_5: 13832
Non-critical_ROB_Stalls_Percent_0_Bucket_5: 13113
Critical_ROB_Stalls_Percent_0_Bucket_6: 6878
Non-critical_ROB_Stalls_Percent_0_Bucket_6: 9946
Critical_ROB_Stalls_Percent_1_Bucket_0: 2470501
Non-critical_ROB_Stalls_Percent_1_Bucket_0: 1166480
Critical_ROB_Stalls_Percent_1_Bucket_1: 583327
Non-critical_ROB_Stalls_Percent_1_Bucket_1: 360680
Critical_ROB_Stalls_Percent_1_Bucket_2: 21219
Non-critical_ROB_Stalls_Percent_1_Bucket_2: 8221
Critical_ROB_Stalls_Percent_1_Bucket_3: 23768
Non-critical_ROB_Stalls_Percent_1_Bucket_3: 7805
Critical_ROB_Stalls_Percent_1_Bucket_4: 12505
Non-critical_ROB_Stalls_Percent_1_Bucket_4: 8172
Critical_ROB_Stalls_Percent_1_Bucket_5: 22536
Non-critical_ROB_Stalls_Percent_1_Bucket_5: 4409
Critical_ROB_Stalls_Percent_1_Bucket_6: 11203
Non-critical_ROB_Stalls_Percent_1_Bucket_6: 5621
Critical_ROB_Stalls_Percent_2_Bucket_0: 2470501
Non-critical_ROB_Stalls_Percent_2_Bucket_0: 1166480
Critical_ROB_Stalls_Percent_2_Bucket_1: 583327
Non-critical_ROB_Stalls_Percent_2_Bucket_1: 360680
Critical_ROB_Stalls_Percent_2_Bucket_2: 21219
Non-critical_ROB_Stalls_Percent_2_Bucket_2: 8221
Critical_ROB_Stalls_Percent_2_Bucket_3: 23768
Non-critical_ROB_Stalls_Percent_2_Bucket_3: 7805
Critical_ROB_Stalls_Percent_2_Bucket_4: 12505
Non-critical_ROB_Stalls_Percent_2_Bucket_4: 8172
Critical_ROB_Stalls_Percent_2_Bucket_5: 22536
Non-critical_ROB_Stalls_Percent_2_Bucket_5: 4409
Critical_ROB_Stalls_Percent_2_Bucket_6: 11203
Non-critical_ROB_Stalls_Percent_2_Bucket_6: 5621
Critical_ROB_Stalls_Percent_3_Bucket_0: 2470501
Non-critical_ROB_Stalls_Percent_3_Bucket_0: 1166480
Critical_ROB_Stalls_Percent_3_Bucket_1: 583327
Non-critical_ROB_Stalls_Percent_3_Bucket_1: 360680
Critical_ROB_Stalls_Percent_3_Bucket_2: 21219
Non-critical_ROB_Stalls_Percent_3_Bucket_2: 8221
Critical_ROB_Stalls_Percent_3_Bucket_3: 23768
Non-critical_ROB_Stalls_Percent_3_Bucket_3: 7805
Critical_ROB_Stalls_Percent_3_Bucket_4: 12505
Non-critical_ROB_Stalls_Percent_3_Bucket_4: 8172
Critical_ROB_Stalls_Percent_3_Bucket_5: 22536
Non-critical_ROB_Stalls_Percent_3_Bucket_5: 4409
Critical_ROB_Stalls_Percent_3_Bucket_6: 11203
Non-critical_ROB_Stalls_Percent_3_Bucket_6: 5621
Critical_ROB_Stalls_Percent_4_Bucket_0: 3042638
Non-critical_ROB_Stalls_Percent_4_Bucket_0: 594343
Critical_ROB_Stalls_Percent_4_Bucket_1: 633160
Non-critical_ROB_Stalls_Percent_4_Bucket_1: 310847
Critical_ROB_Stalls_Percent_4_Bucket_2: 23023
Non-critical_ROB_Stalls_Percent_4_Bucket_2: 6417
Critical_ROB_Stalls_Percent_4_Bucket_3: 24718
Non-critical_ROB_Stalls_Percent_4_Bucket_3: 6855
Critical_ROB_Stalls_Percent_4_Bucket_4: 13574
Non-critical_ROB_Stalls_Percent_4_Bucket_4: 7103
Critical_ROB_Stalls_Percent_4_Bucket_5: 23045
Non-critical_ROB_Stalls_Percent_4_Bucket_5: 3900
Critical_ROB_Stalls_Percent_4_Bucket_6: 11779
Non-critical_ROB_Stalls_Percent_4_Bucket_6: 5045
Critical_ROB_Stalls_Percent_5_Bucket_0: 3042638
Non-critical_ROB_Stalls_Percent_5_Bucket_0: 594343
Critical_ROB_Stalls_Percent_5_Bucket_1: 633160
Non-critical_ROB_Stalls_Percent_5_Bucket_1: 310847
Critical_ROB_Stalls_Percent_5_Bucket_2: 23023
Non-critical_ROB_Stalls_Percent_5_Bucket_2: 6417
Critical_ROB_Stalls_Percent_5_Bucket_3: 24718
Non-critical_ROB_Stalls_Percent_5_Bucket_3: 6855
Critical_ROB_Stalls_Percent_5_Bucket_4: 13574
Non-critical_ROB_Stalls_Percent_5_Bucket_4: 7103
Critical_ROB_Stalls_Percent_5_Bucket_5: 23045
Non-critical_ROB_Stalls_Percent_5_Bucket_5: 3900
Critical_ROB_Stalls_Percent_5_Bucket_6: 11779
Non-critical_ROB_Stalls_Percent_5_Bucket_6: 5045
Critical_ROB_Stalls_Percent_6_Bucket_0: 3042638
Non-critical_ROB_Stalls_Percent_6_Bucket_0: 594343
Critical_ROB_Stalls_Percent_6_Bucket_1: 633160
Non-critical_ROB_Stalls_Percent_6_Bucket_1: 310847
Critical_ROB_Stalls_Percent_6_Bucket_2: 23023
Non-critical_ROB_Stalls_Percent_6_Bucket_2: 6417
Critical_ROB_Stalls_Percent_6_Bucket_3: 24718
Non-critical_ROB_Stalls_Percent_6_Bucket_3: 6855
Critical_ROB_Stalls_Percent_6_Bucket_4: 13574
Non-critical_ROB_Stalls_Percent_6_Bucket_4: 7103
Critical_ROB_Stalls_Percent_6_Bucket_5: 23045
Non-critical_ROB_Stalls_Percent_6_Bucket_5: 3900
Critical_ROB_Stalls_Percent_6_Bucket_6: 11779
Non-critical_ROB_Stalls_Percent_6_Bucket_6: 5045
Critical_ROB_Stalls_Percent_7_Bucket_0: 3614116
Non-critical_ROB_Stalls_Percent_7_Bucket_0: 22865
Critical_ROB_Stalls_Percent_7_Bucket_1: 683111
Non-critical_ROB_Stalls_Percent_7_Bucket_1: 260896
Critical_ROB_Stalls_Percent_7_Bucket_2: 24537
Non-critical_ROB_Stalls_Percent_7_Bucket_2: 4903
Critical_ROB_Stalls_Percent_7_Bucket_3: 25700
Non-critical_ROB_Stalls_Percent_7_Bucket_3: 5873
Critical_ROB_Stalls_Percent_7_Bucket_4: 14671
Non-critical_ROB_Stalls_Percent_7_Bucket_4: 6006
Critical_ROB_Stalls_Percent_7_Bucket_5: 23667
Non-critical_ROB_Stalls_Percent_7_Bucket_5: 3278
Critical_ROB_Stalls_Percent_7_Bucket_6: 12583
Non-critical_ROB_Stalls_Percent_7_Bucket_6: 4241
Critical_ROB_Stalls_Percent_8_Bucket_0: 3614116
Non-critical_ROB_Stalls_Percent_8_Bucket_0: 22865
Critical_ROB_Stalls_Percent_8_Bucket_1: 683111
Non-critical_ROB_Stalls_Percent_8_Bucket_1: 260896
Critical_ROB_Stalls_Percent_8_Bucket_2: 24537
Non-critical_ROB_Stalls_Percent_8_Bucket_2: 4903
Critical_ROB_Stalls_Percent_8_Bucket_3: 25700
Non-critical_ROB_Stalls_Percent_8_Bucket_3: 5873
Critical_ROB_Stalls_Percent_8_Bucket_4: 14671
Non-critical_ROB_Stalls_Percent_8_Bucket_4: 6006
Critical_ROB_Stalls_Percent_8_Bucket_5: 23667
Non-critical_ROB_Stalls_Percent_8_Bucket_5: 3278
Critical_ROB_Stalls_Percent_8_Bucket_6: 12583
Non-critical_ROB_Stalls_Percent_8_Bucket_6: 4241
Average ROB occupancy Load Stall Begin: 40.6702
Average ROB occupancy Load Stall End: 50.3259
Min ROB occupancy Load Stall Begin: 2
Max ROB occupancy Load Stall Begin: 352
Min ROB occupancy Load Stall End: 8
Max ROB occupancy Load Stall End: 352
Average ROB occupancy Critical Load Stall Begin: 40.0523
Average ROB occupancy Critical Load Stall End: 49.5823
Min ROB occupancy Critical Load Stall Begin: 9
Max ROB occupancy Critical Load Stall Begin: 352
Min ROB occupancy Critical Load Stall End: 9
Max ROB occupancy Critical Load Stall End: 352
 ROB Load Stall Begin Bucket Count 0: 4067898
 ROB Load Stall End Bucket Count 0: 3636981
 ROB Critical Load Stall Begin Bucket Count 0: 3913593
 ROB Critical Load Stall End Bucket Count 0: 3612796
 ROB Load Stall Begin Bucket Count 1: 533040
 ROB Load Stall End Bucket Count 1: 944007
 ROB Critical Load Stall Begin Bucket Count 1: 500888
 ROB Critical Load Stall End Bucket Count 1: 782385
 ROB Load Stall Begin Bucket Count 2: 31593
 ROB Load Stall End Bucket Count 2: 29440
 ROB Critical Load Stall Begin Bucket Count 2: 27777
 ROB Critical Load Stall End Bucket Count 2: 25871
 ROB Load Stall Begin Bucket Count 3: 30945
 ROB Load Stall End Bucket Count 3: 31573
 ROB Critical Load Stall Begin Bucket Count 3: 27237
 ROB Critical Load Stall End Bucket Count 3: 28135
 ROB Load Stall Begin Bucket Count 4: 18454
 ROB Load Stall End Bucket Count 4: 20677
 ROB Critical Load Stall Begin Bucket Count 4: 15706
 ROB Critical Load Stall End Bucket Count 4: 17315
 ROB Load Stall Begin Bucket Count 5: 16201
 ROB Load Stall End Bucket Count 5: 26945
 ROB Critical Load Stall Begin Bucket Count 5: 14091
 ROB Critical Load Stall End Bucket Count 5: 24798
 ROB Load Stall Begin Bucket Count 6: 8316
 ROB Load Stall End Bucket Count 6: 16824
 ROB Critical Load Stall Begin Bucket Count 6: 5839
 ROB Critical Load Stall End Bucket Count 6: 13831
PIST Tag Read Accesses: 377960
PIST Read Accesses: 188980
PIST Tag Write Accesses: 377960
PIST Write Accesses: 188980
Criticality detector called times: 201316
Max global_stall_cycles_count: 302158
Threshold Modified: 1 times, factor: -1
Sturdy critical IP cache stats: 
 Unused entries: 0
CIC Tag Read Accesses: 0
CIC Read Accesses: 0
CIC Tag Write Accesses: 0
CIC Write Accesses: 0
Wobbly critical IP cache stats: 
 Unused entries: 118
CIC Tag Read Accesses: 196941089
CIC Read Accesses: 0
CIC Tag Write Accesses: 10
CIC Write Accesses: 0
ITLB TOTAL     ACCESS:   14036897  HIT:   14036897  MISS:          0  HIT %:        100  MISS %:          0   MPKI: 0
ITLB LOAD TRANSLATION ACCESS:   14036897  HIT:   14036897  MISS:          0  HIT %:        100  MISS %:          0   MPKI: 0
ITLB PREFETCH  REQUESTED:          0  ISSUED:          0  USEFUL:          0  USELESS:          0
ITLB USEFUL LOAD PREFETCHES:          0 PREFETCH ISSUED TO LOWER LEVEL:          0  ACCURACY: -nan
ITLB TIMELY PREFETCHES:          0 LATE PREFETCHES: 0 DROPPED PREFETCHES: 0
ITLB PREFETCHES SAME FILL-ORIGIN LEVEL: 0 DIFFERENT FILL-ORIGIN LEVEL: 0
ITLB AVERAGE MISS LATENCY: -nan cycles
ITLB RQ	ACCESS:   17546984	FORWARD:          0	MERGED:    3510087	TO_CACHE:   14036897

DTLB TOTAL     ACCESS:   16219132  HIT:   16195678  MISS:      23454  HIT %:    99.8554  MISS %:   0.144607   MPKI: 0.23454
DTLB LOAD TRANSLATION ACCESS:   16219132  HIT:   16195678  MISS:      23454  HIT %:    99.8554  MISS %:   0.144607   MPKI: 0.23454
DTLB PREFETCH  REQUESTED:          0  ISSUED:          0  USEFUL:          0  USELESS:          0
DTLB USEFUL LOAD PREFETCHES:          0 PREFETCH ISSUED TO LOWER LEVEL:          0  ACCURACY: -nan
DTLB TIMELY PREFETCHES:          0 LATE PREFETCHES: 0 DROPPED PREFETCHES: 0
DTLB PREFETCHES SAME FILL-ORIGIN LEVEL: 0 DIFFERENT FILL-ORIGIN LEVEL: 0
DTLB AVERAGE MISS LATENCY: 89.3046 cycles
DTLB RQ	ACCESS:   25100449	FORWARD:          0	MERGED:    8880094	TO_CACHE:   16220355

STLB TOTAL     ACCESS:    1193711  HIT:    1179984  MISS:      13727  HIT %:    98.8501  MISS %:    1.14994   MPKI: 0.13727
STLB LOAD TRANSLATION ACCESS:      23454  HIT:       9727  MISS:      13727  HIT %:    41.4727  MISS %:    58.5273   MPKI: 0.13727
STLB TRANSLATION FROM L1D PREFETCHER ACCESS:    1170257  HIT:    1170257  MISS:          0  HIT %:        100  MISS %:          0   MPKI: 0
STLB PREFETCH  REQUESTED:          0  ISSUED:          0  USEFUL:          0  USELESS:          0
STLB USEFUL LOAD PREFETCHES:          0 PREFETCH ISSUED TO LOWER LEVEL:          0  ACCURACY: -nan
STLB TIMELY PREFETCHES:          0 LATE PREFETCHES: 0 DROPPED PREFETCHES: 0
STLB PREFETCHES SAME FILL-ORIGIN LEVEL: 0 DIFFERENT FILL-ORIGIN LEVEL: 0
STLB AVERAGE MISS LATENCY: 136.99 cycles
STLB RQ	ACCESS:    1315365	FORWARD:          0	MERGED:     121654	TO_CACHE:    1193711

STLB Hit, L1D data hit: 0
STLB Hit, L2C data hit: 0
STLB Hit, LLC data hit: 0
STLB Hit, LLC data miss: 0
STLB STLB hints to L2: 0
L1D TOTAL     ACCESS:   26334915  HIT:   25007831  MISS:    1327084  HIT %:    94.9607  MISS %:    5.03926   MPKI: 13.2708
L1D LOAD      ACCESS:   18036453  HIT:   17988479  MISS:      47974  HIT %:     99.734  MISS %:   0.265984   MPKI: 0.47974
L1D RFO       ACCESS:    7019173  HIT:    7017857  MISS:       1316  HIT %:    99.9813  MISS %:  0.0187486   MPKI: 0.01316
L1D PREFETCH  ACCESS:    1279289  HIT:       1495  MISS:    1277794  HIT %:   0.116862  MISS %:    99.8831   MPKI: 12.7779
L1D PREFETCH  REQUESTED:    2583824  ISSUED:    2583824  USEFUL:    1274080  USELESS:       3704
L1D USEFUL LOAD PREFETCHES:    1274080 PREFETCH ISSUED TO LOWER LEVEL:    1289031  ACCURACY: 98.8401
L1D TIMELY PREFETCHES:    1274080 LATE PREFETCHES: 11236 DROPPED PREFETCHES: 0
L1D PREFETCHES SAME FILL-ORIGIN LEVEL: 1289031 DIFFERENT FILL-ORIGIN LEVEL: 0
L1D AVERAGE MISS LATENCY: 547752 cycles
L1D RQ	ACCESS:   35082809	FORWARD:          0	MERGED:   17002709	TO_CACHE:   18079901
L1D WQ	ACCESS:    7020548	FORWARD:        201	MERGED:          0	TO_CACHE:    7020548
L1D PQ	ACCESS:    1291913	FORWARD:          0	MERGED:          0	TO_CACHE:    1291911

L1D UNIQUE REGIONS ACCESSED: 0
L1D REGIONS CONFLICTS: 0
L1D Cross Page Prefetch Requests: 0
L1D Same Page Prefetch Requests: 1382760
L1D ROI Sum of L1D PQ occupancy: 16946943
L1D PREFETCHES PUSHED FROM L2C: 0
L1I TOTAL     ACCESS:   17546982  HIT:   17546982  MISS:          0  HIT %:        100  MISS %:          0   MPKI: 0
L1I LOAD      ACCESS:   17546982  HIT:   17546982  MISS:          0  HIT %:        100  MISS %:          0   MPKI: 0
L1I PREFETCH  REQUESTED:          0  ISSUED:          0  USEFUL:          0  USELESS:          0
L1I USEFUL LOAD PREFETCHES:          0 PREFETCH ISSUED TO LOWER LEVEL:          0  ACCURACY: -nan
L1I TIMELY PREFETCHES:          0 LATE PREFETCHES: 0 DROPPED PREFETCHES: 0
L1I PREFETCHES SAME FILL-ORIGIN LEVEL: 0 DIFFERENT FILL-ORIGIN LEVEL: 0
L1I AVERAGE MISS LATENCY: -nan cycles
L1I RQ	ACCESS:   22822691	FORWARD:          0	MERGED:    5275707	TO_CACHE:   17546984

BTB TOTAL     ACCESS:    1754583  HIT:    1754574  MISS:          9  HIT %:    99.9995  MISS %: 0.000512942   MPKI: 9e-05
BTB BRANCH_DIRECT_JUMP	ACCESS:        438  HIT:        436  MISS:          2
BTB BRANCH_INDIRECT	ACCESS:          0  HIT:          0  MISS:          0
BTB BRANCH_CONDITIONAL	ACCESS:    1753269  HIT:    1753266  MISS:          3
BTB BRANCH_DIRECT_CALL	ACCESS:        438  HIT:        436  MISS:          2
BTB BRANCH_INDIRECT_CALL	ACCESS:          0  HIT:          0  MISS:          0
BTB BRANCH_RETURN	ACCESS:        438  HIT:        436  MISS:          2
BTB BRANCH_OTHER ACCESS:          0  HIT:          0  MISS:          0

L2C TOTAL     ACCESS:    2219538  HIT:    1053706  MISS:    1165832  HIT %:    47.4741  MISS %:    52.5259   MPKI: 11.6583
L2C LOAD      ACCESS:      36738  HIT:       7060  MISS:      29678  HIT %:    19.2172  MISS %:    80.7828   MPKI: 0.29678
L2C DATA LOAD MPKI: 0.29678
L2C INSTRUCTION LOAD MPKI: 0
L2C RFO       ACCESS:       1316  HIT:       1306  MISS:         10  HIT %:    99.2401  MISS %:   0.759878   MPKI: 0.0001
L2C PREFETCH  ACCESS:    1289030  HIT:     157785  MISS:    1131245  HIT %:    12.2406  MISS %:    87.7594   MPKI: 11.3124
L2C DATA PREFETCH MPKI: 11.3124
L2C INSTRUCTION PREFETCH MPKI: 0
L2C WRITEBACK ACCESS:     878720  HIT:     875638  MISS:       3082  HIT %:    99.6493  MISS %:   0.350737   MPKI: 0.03082
L2C LOAD TRANSLATION ACCESS:      13734  HIT:      11917  MISS:       1817  HIT %:    86.7701  MISS %:    13.2299   MPKI: 0.01817
L2C PREFETCH  REQUESTED:          0  ISSUED:          0  USEFUL:       1718  USELESS:    1122715
L2C USEFUL LOAD PREFETCHES:       1718 PREFETCH ISSUED TO LOWER LEVEL:    1131246  ACCURACY: 0.151868
L2C TIMELY PREFETCHES:       1718 LATE PREFETCHES: 0 DROPPED PREFETCHES: 0
L2C PREFETCHES SAME FILL-ORIGIN LEVEL: 0 DIFFERENT FILL-ORIGIN LEVEL: 0
L2C AVERAGE MISS LATENCY: 155.619 cycles
L2C RQ	ACCESS:      51787	FORWARD:          0	MERGED:          0	TO_CACHE:      51787
L2C WQ	ACCESS:     878721	FORWARD:          0	MERGED:          0	TO_CACHE:     878721
L2C PQ	ACCESS:    1289031	FORWARD:          0	MERGED:          0	TO_CACHE:    1289031

L2C Instructions Evicting Data 0
L2C Translations Evicting Data 1817
L2C Data Evicting Data 1159125
L2C Instructions Evicting Instructions 0
L2C Translations Evicting Instructions 0
L2C Data Evicting Instructions 0
L2C Instructions Evicting Translations 0
L2C Translations Evicting Translations 0
L2C Data Evicting Translations 1808
L2C Dense regions hint from L2: 0
PSCL5 TOTAL     ACCESS:      13727  HIT:      13727  MISS:          0  HIT %:        100  MISS %:          0   MPKI: 0
PSCL5 LOAD TRANSLATION ACCESS:      13727  HIT:      13727  MISS:          0  HIT %:        100  MISS %:          0   MPKI: 0
PSCL5 PREFETCH  REQUESTED:          0  ISSUED:          0  USEFUL:          0  USELESS:          0
PSCL5 USEFUL LOAD PREFETCHES:          0 PREFETCH ISSUED TO LOWER LEVEL:          0  ACCURACY: -nan
PSCL5 TIMELY PREFETCHES:          0 LATE PREFETCHES: 0 DROPPED PREFETCHES: 0
PSCL5 PREFETCHES SAME FILL-ORIGIN LEVEL: 0 DIFFERENT FILL-ORIGIN LEVEL: 0

PSCL4 TOTAL     ACCESS:      13727  HIT:      13727  MISS:          0  HIT %:        100  MISS %:          0   MPKI: 0
PSCL4 LOAD TRANSLATION ACCESS:      13727  HIT:      13727  MISS:          0  HIT %:        100  MISS %:          0   MPKI: 0
PSCL4 PREFETCH  REQUESTED:          0  ISSUED:          0  USEFUL:          0  USELESS:          0
PSCL4 USEFUL LOAD PREFETCHES:          0 PREFETCH ISSUED TO LOWER LEVEL:          0  ACCURACY: -nan
PSCL4 TIMELY PREFETCHES:          0 LATE PREFETCHES: 0 DROPPED PREFETCHES: 0
PSCL4 PREFETCHES SAME FILL-ORIGIN LEVEL: 0 DIFFERENT FILL-ORIGIN LEVEL: 0

PSCL3 TOTAL     ACCESS:      13575  HIT:      13570  MISS:          5  HIT %:    99.9632  MISS %:  0.0368324   MPKI: 5e-05
PSCL3 LOAD TRANSLATION ACCESS:      13575  HIT:      13570  MISS:          5  HIT %:    99.9632  MISS %:  0.0368324   MPKI: 5e-05
PSCL3 PREFETCH  REQUESTED:          0  ISSUED:          0  USEFUL:          0  USELESS:          0
PSCL3 USEFUL LOAD PREFETCHES:          0 PREFETCH ISSUED TO LOWER LEVEL:          0  ACCURACY: -nan
PSCL3 TIMELY PREFETCHES:          0 LATE PREFETCHES: 0 DROPPED PREFETCHES: 0
PSCL3 PREFETCHES SAME FILL-ORIGIN LEVEL: 0 DIFFERENT FILL-ORIGIN LEVEL: 0

PSCL2 TOTAL     ACCESS:      13727  HIT:      13679  MISS:         48  HIT %:    99.6503  MISS %:   0.349676   MPKI: 0.00048
PSCL2 LOAD TRANSLATION ACCESS:      13727  HIT:      13679  MISS:         48  HIT %:    99.6503  MISS %:   0.349676   MPKI: 0.00048
PSCL2 PREFETCH  REQUESTED:          0  ISSUED:          0  USEFUL:          0  USELESS:          0
PSCL2 USEFUL LOAD PREFETCHES:          0 PREFETCH ISSUED TO LOWER LEVEL:          0  ACCURACY: -nan
PSCL2 TIMELY PREFETCHES:          0 LATE PREFETCHES: 0 DROPPED PREFETCHES: 0
PSCL2 PREFETCHES SAME FILL-ORIGIN LEVEL: 0 DIFFERENT FILL-ORIGIN LEVEL: 0

LLC TOTAL     ACCESS:    2039261  HIT:    1146554  MISS:     892707  HIT %:     56.224  MISS %:     43.776   MPKI: 8.92707
LLC LOAD      ACCESS:      29678  HIT:      10836  MISS:      18842  HIT %:    36.5119  MISS %:    63.4881   MPKI: 0.18842
LLC RFO       ACCESS:         10  HIT:         10  MISS:          0  HIT %:        100  MISS %:          0   MPKI: 0
LLC PREFETCH  ACCESS:    1131245  HIT:     272425  MISS:     858820  HIT %:    24.0819  MISS %:    75.9181   MPKI: 8.5882
LLC WRITEBACK ACCESS:     876511  HIT:     863242  MISS:      13269  HIT %:    98.4862  MISS %:    1.51384   MPKI: 0.13269
LLC LOAD TRANSLATION ACCESS:       1817  HIT:         41  MISS:       1776  HIT %:    2.25647  MISS %:    97.7435   MPKI: 0.01776
LLC PREFETCH  REQUESTED:          0  ISSUED:          0  USEFUL:        371  USELESS:     830560
LLC USEFUL LOAD PREFETCHES:        371 PREFETCH ISSUED TO LOWER LEVEL:     858821  ACCURACY: 0.0431988
LLC TIMELY PREFETCHES:        371 LATE PREFETCHES: 0 DROPPED PREFETCHES: 0
LLC PREFETCHES SAME FILL-ORIGIN LEVEL: 0 DIFFERENT FILL-ORIGIN LEVEL: 0
LLC AVERAGE MISS LATENCY: 164.061 cycles
LLC RQ	ACCESS:      31504	FORWARD:          0	MERGED:          0	TO_CACHE:      31504
LLC WQ	ACCESS:     876511	FORWARD:          0	MERGED:          0	TO_CACHE:     876511
LLC PQ	ACCESS:    1131246	FORWARD:          0	MERGED:          0	TO_CACHE:    1131246

LLC Dense regions hint to LLC: 0

RAW hits: 1723
Loads Generated: 35084533
Loads sent to L1D: 35082809
Stores Generated: 7020542
Stores sent to L1D: 7020548
Major fault: 0 Minor fault: 20724
Allocated PAGES: 20724

stream: 
stream:times selected: 2012740
stream:pref_filled: 1311245
stream:pref_useful: 1307451
stream:pref_late: 11007
stream:misses: 821
stream:misses_by_poll: 0

CS: 
CS:times selected: 1891257
CS:pref_filled: 4247
CS:pref_useful: 4211
CS:pref_late: 646
CS:misses: 47255
CS:misses_by_poll: 38

CPLX: 
CPLX:times selected: 121267
CPLX:pref_filled: 4339
CPLX:pref_useful: 4278
CPLX:pref_late: 471
CPLX:misses: 6719
CPLX:misses_by_poll: 2

NL_L1: 
NL:times selected: 301
NL:pref_filled: 138
NL:pref_useful: 138
NL:pref_late: 21
NL:misses: 43
NL:misses_by_poll: 0

total selections: 4025565
total_filled: 1277794
total_useful: 1274080
total_late: 12235
total_polluted: 40
total_misses_after_warmup: 54744
conflicts: 3911
Degree Incremented Times: 60966
Degree Decremented Times: 0

L1 IP Table Write Accesses: 6936459
L1 IP Table Read Accesses: 6932548
L1 RST Write Accesses: 1995246
L1 RST Read Accesses: 3990492
L1 CSPT Write Accesses: 1995246
L1 CSPT Read Accesses: 2306566
L1 RR Filter Tag Write Accesses: 1291913
L1 RR Filter Tag Read Accesses: 444029340
L1 IP Table Tag Write Accesses: 6956141
L1 IP Table Tag Read Accesses: 6956141
L1 RST Tag Write Accesses: 0
L1 RST Tag Read Accesses: 18085672
L1 RR Filter Write Accesses: 0
L1 RR Filter Read Accesses: 17084138
test: 54027

DRAM Statistics
 CHANNEL 0
 RQ ROW_BUFFER_HIT:      63396  ROW_BUFFER_MISS:     816042
 DBUS_CONGESTED:        127
 WQ ROW_BUFFER_HIT:     454869  ROW_BUFFER_MISS:     421544  FULL:          0

 AVG_CONGESTED_CYCLE: 4
 All warmup complete: 2
Channel 0 Bank busy for read cycles: 0
Channel 0 Bank busy for write cycles: 0
Channel 0
Rank 0
0banks busy for read cycles: 700193
0banks busy for write cycles: 7439
1banks busy for read cycles: 46974458
1banks busy for write cycles: 721532
2banks busy for read cycles: 28242252
2banks busy for write cycles: 668980
3banks busy for read cycles: 2310366
3banks busy for write cycles: 631836
4banks busy for read cycles: 259266
4banks busy for write cycles: 634327
5banks busy for read cycles: 99038
5banks busy for write cycles: 641915
6banks busy for read cycles: 223931
6banks busy for write cycles: 745682
7banks busy for read cycles: 1372846
7banks busy for write cycles: 2170280
8banks busy for read cycles: 338597
8banks busy for write cycles: 13444027

CPU 0 Branch Prediction Accuracy: 99.9751% MPKI: 0.00438 Average ROB Occupancy at Mispredict: 49.6416
Branch types
NOT_BRANCH: 98243558 98.2436%
BRANCH_DIRECT_JUMP: 438 0.000438%
BRANCH_INDIRECT: 0 0%
BRANCH_CONDITIONAL: 1754802 1.7548%
BRANCH_DIRECT_CALL: 438 0.000438%
BRANCH_INDIRECT_CALL: 0 0%
BRANCH_RETURN: 438 0.000438%
BRANCH_OTHER: 0 0%

DRAM PAGES: 1048576
Allocated PAGES: 20724
