Initialize SIGNATURE TABLE
ST_SET: 1
ST_WAY: 256
ST_TAG_BIT: 16
ST_TAG_MASK: ffff

Initialize PATTERN TABLE
PT_SET: 512
PT_WAY: 4
SIG_DELTA_BIT: 7
C_SIG_BIT: 4
C_DELTA_BIT: 4

Initialize PREFETCH FILTER
FILTER_SET: 1024

Initialize PERCEPTRON
PERC_ENTRIES: 4096
PERC_FEATURES: 9

*** ChampSim Multicore Out-of-Order Simulator ***

Warmup Instructions: 50000000
Simulation Instructions: 100000000
Number of CPUs: 1
LLC sets: 2048
LLC ways: 16
Off-chip DRAM Size: 4096 MB Channels: 1 Width: 64-bit Data Rate: 6400 MT/s
CPU 0 runs ../SPEC2017//649.fotonik3d_s-10881B.champsimtrace.xz
.xz
NUM_OF_IPS_IN_CRITICAL_IP_TRAINING: 128
NUM_OF_CRITICAL_IP_TRAINING_TABLE_WAYS: 8
NUM_OF_CRITICAL_IP_TRAINING_TABLE_SETS: 16
BTB has LRU replacement policy
ITLB has LRU replacement policy
DTLB has LRU replacement policy
STLB has LRU replacement policy
L1I has LRU replacement policy
L1D has LRU replacement policy
Initialize SRRIP state for L2C
Initialize DRRIP state for LLC
Heartbeat CPU 0 instructions: 10000002 cycles: 5057693 heartbeat IPC: 1.97719 cumulative IPC: 1.97719 (Simulation time: 0 hr 7 min 35 sec) 
Heartbeat CPU 0 instructions: 20000000 cycles: 10125894 heartbeat IPC: 1.97309 cumulative IPC: 1.97513 (Simulation time: 0 hr 14 min 18 sec) 
Heartbeat CPU 0 instructions: 30000000 cycles: 15200057 heartbeat IPC: 1.97077 cumulative IPC: 1.97368 (Simulation time: 0 hr 20 min 22 sec) 
Heartbeat CPU 0 instructions: 40000002 cycles: 20265381 heartbeat IPC: 1.97421 cumulative IPC: 1.97381 (Simulation time: 0 hr 26 min 6 sec) 
Heartbeat CPU 0 instructions: 50000002 cycles: 25327161 heartbeat IPC: 1.97559 cumulative IPC: 1.97417 (Simulation time: 0 hr 31 min 30 sec) 

Warmup complete CPU 0 instructions: 50000002 cycles: 25327161 (Simulation time: 0 hr 31 min 30 sec) 

% increase in all ip prefetch 216.644
% increase in all ip prefetch 1.41201
Heartbeat CPU 0 instructions: 60000000 cycles: 42122181 heartbeat IPC: 0.595414 cumulative IPC: 0.595414 (Simulation time: 0 hr 37 min 59 sec) 
Heartbeat CPU 0 instructions: 70000000 cycles: 58913154 heartbeat IPC: 0.595558 cumulative IPC: 0.595486 (Simulation time: 0 hr 43 min 14 sec) 
Heartbeat CPU 0 instructions: 80000003 cycles: 75624204 heartbeat IPC: 0.598407 cumulative IPC: 0.596457 (Simulation time: 0 hr 47 min 58 sec) 
Heartbeat CPU 0 instructions: 90000003 cycles: 90903414 heartbeat IPC: 0.654484 cumulative IPC: 0.609977 (Simulation time: 0 hr 54 min 42 sec) 
Heartbeat CPU 0 instructions: 100000003 cycles: 106063047 heartbeat IPC: 0.659647 cumulative IPC: 0.619303 (Simulation time: 1 hr 4 min 53 sec) 
Heartbeat CPU 0 instructions: 110000000 cycles: 121170448 heartbeat IPC: 0.661927 cumulative IPC: 0.626022 (Simulation time: 1 hr 13 min 52 sec) 
Heartbeat CPU 0 instructions: 120000003 cycles: 136351473 heartbeat IPC: 0.658717 cumulative IPC: 0.630493 (Simulation time: 1 hr 21 min 27 sec) 
Heartbeat CPU 0 instructions: 130000000 cycles: 151504047 heartbeat IPC: 0.659954 cumulative IPC: 0.634031 (Simulation time: 1 hr 28 min 26 sec) 
Heartbeat CPU 0 instructions: 140000002 cycles: 166668785 heartbeat IPC: 0.659425 cumulative IPC: 0.636755 (Simulation time: 1 hr 34 min 32 sec) 
Heartbeat CPU 0 instructions: 150000001 cycles: 181791171 heartbeat IPC: 0.661271 cumulative IPC: 0.639125 (Simulation time: 1 hr 39 min 56 sec) 
Finished CPU 0 instructions: 100000003 cycles: 156464011 cumulative IPC: 0.639125 (Simulation time: 1 hr 39 min 56 sec) 

ChampSim completed all CPUs

Region of Interest Statistics

CPU 0 cumulative IPC: 0.639125 instructions: 100000003 cycles: 156464011

CPU 0 Average Load ROB stall cycles: 1.01764e+07
CPU 0 Fraction of times ROB stalled by Loads: 9.71764
CPU 0 Percentage of Load stall cycles in Total stall cycles: 1.05275e+08
 Total stall cycles: 96540912
 Total load stall cycles: 101633527863345
CPU 0 NUM of IPS identified critical: 76

Threshold modification factor: -1
Max PIST entries: 17
Min PIST entries: 0
Avg PIST entries: 2.76667
Average ROB occupancy Load Stall Begin: 338.753
Average ROB occupancy Load Stall End: 342.888
Min ROB occupancy Load Stall Begin: 13
Max ROB occupancy Load Stall Begin: 351
Min ROB occupancy Load Stall End: 14
Max ROB occupancy Load Stall End: 352
Average ROB occupancy Critical Load Stall Begin: 339.044
Average ROB occupancy Critical Load Stall End: 343.197
Min ROB occupancy Critical Load Stall Begin: 14
Max ROB occupancy Critical Load Stall Begin: 351
Min ROB occupancy Critical Load Stall End: 14
Max ROB occupancy Critical Load Stall End: 352
 ROB Load Stall Begin Bucket Count 0: 16
 ROB Load Stall End Bucket Count 0: 11
 ROB Critical Load Stall Begin Bucket Count 0: 5
 ROB Critical Load Stall End Bucket Count 0: 5
 ROB Load Stall Begin Bucket Count 1: 173
 ROB Load Stall End Bucket Count 1: 152
 ROB Critical Load Stall Begin Bucket Count 1: 61
 ROB Critical Load Stall End Bucket Count 1: 41
 ROB Load Stall Begin Bucket Count 2: 60
 ROB Load Stall End Bucket Count 2: 62
 ROB Critical Load Stall Begin Bucket Count 2: 54
 ROB Critical Load Stall End Bucket Count 2: 55
 ROB Load Stall Begin Bucket Count 3: 75
 ROB Load Stall End Bucket Count 3: 82
 ROB Critical Load Stall Begin Bucket Count 3: 75
 ROB Critical Load Stall End Bucket Count 3: 81
 ROB Load Stall Begin Bucket Count 4: 27
 ROB Load Stall End Bucket Count 4: 27
 ROB Critical Load Stall Begin Bucket Count 4: 27
 ROB Critical Load Stall End Bucket Count 4: 27
 ROB Load Stall Begin Bucket Count 5: 64363
 ROB Load Stall End Bucket Count 5: 36890
 ROB Critical Load Stall Begin Bucket Count 5: 62490
 ROB Critical Load Stall End Bucket Count 5: 35264
 ROB Load Stall Begin Bucket Count 6: 905805
 ROB Load Stall End Bucket Count 6: 933295
 ROB Critical Load Stall Begin Bucket Count 6: 893079
 ROB Critical Load Stall End Bucket Count 6: 920318
Threshold Modified: 1 times, factor: -1
ITLB TOTAL     ACCESS:   13458618  HIT:   13458618  MISS:          0  HIT %:        100  MISS %:          0   MPKI: 0
ITLB LOAD TRANSLATION ACCESS:   13458618  HIT:   13458618  MISS:          0  HIT %:        100  MISS %:          0   MPKI: 0
ITLB AVERAGE MISS LATENCY: -nan cycles
ITLB RQ	ACCESS:   14240954	FORWARD:          0	MERGED:     782336	TO_CACHE:   13458618

DTLB TOTAL     ACCESS:   43630059  HIT:   43113821  MISS:     516238  HIT %:    98.8168  MISS %:    1.18322   MPKI: 5.16238
DTLB LOAD TRANSLATION ACCESS:   43630059  HIT:   43113821  MISS:     516238  HIT %:    98.8168  MISS %:    1.18322   MPKI: 5.16238
DTLB AVERAGE MISS LATENCY: 176.42 cycles
DTLB RQ	ACCESS:   48387169	FORWARD:          0	MERGED:    4732663	TO_CACHE:   43654506

STLB TOTAL     ACCESS:     516238  HIT:     176655  MISS:     339583  HIT %:    34.2197  MISS %:    65.7803   MPKI: 3.39583
STLB LOAD TRANSLATION ACCESS:     516238  HIT:     176655  MISS:     339583  HIT %:    34.2197  MISS %:    65.7803   MPKI: 3.39583
STLB AVERAGE MISS LATENCY: 233.169 cycles
STLB RQ	ACCESS:     516238	FORWARD:          0	MERGED:          0	TO_CACHE:     516238

STLB Hit, L1D data hit: 0
STLB Hit, L2C data hit: 0
STLB Hit, LLC data hit: 0
STLB Hit, LLC data miss: 0
STLB STLB hints to L2: 0
L1D TOTAL     ACCESS:   48247277  HIT:   46323261  MISS:    1924016  HIT %:    96.0122  MISS %:    3.98782   MPKI: 19.2402
L1D LOAD      ACCESS:   41835970  HIT:   39911954  MISS:    1924016  HIT %:     95.401  MISS %:    4.59895   MPKI: 19.2402
L1D RFO       ACCESS:    6411307  HIT:    6411307  MISS:          0  HIT %:        100  MISS %:          0   MPKI: 0
L1D AVERAGE MISS LATENCY: 71.615 cycles
L1D RQ	ACCESS:   63801703	FORWARD:          0	MERGED:   21798744	TO_CACHE:   41975861
L1D WQ	ACCESS:    6411308	FORWARD:      27098	MERGED:          0	TO_CACHE:    6411308

L1D UNIQUE REGIONS ACCESSED: 0
L1D REGIONS CONFLICTS: 0
L1D Cross Page Prefetch Requests: 0
L1D Same Page Prefetch Requests: 0
L1D ROI Sum of L1D PQ occupancy: 0
L1D PREFETCHES PUSHED FROM L2C: 0
L1I TOTAL     ACCESS:   14240952  HIT:   14240952  MISS:          0  HIT %:        100  MISS %:          0   MPKI: 0
L1I LOAD      ACCESS:   14240952  HIT:   14240952  MISS:          0  HIT %:        100  MISS %:          0   MPKI: 0
L1I AVERAGE MISS LATENCY: -nan cycles
L1I RQ	ACCESS:   32274262	FORWARD:          0	MERGED:   18033308	TO_CACHE:   14240954

BTB TOTAL     ACCESS:    1121884  HIT:    1121879  MISS:          5  HIT %:    99.9996  MISS %: 0.000445679   MPKI: 5e-05
BTB BRANCH_DIRECT_JUMP	ACCESS:      80123  HIT:      80122  MISS:          1
BTB BRANCH_INDIRECT	ACCESS:          0  HIT:          0  MISS:          0
BTB BRANCH_CONDITIONAL	ACCESS:    1041761  HIT:    1041757  MISS:          4
BTB BRANCH_DIRECT_CALL	ACCESS:          0  HIT:          0  MISS:          0
BTB BRANCH_INDIRECT_CALL	ACCESS:          0  HIT:          0  MISS:          0
BTB BRANCH_RETURN	ACCESS:          0  HIT:          0  MISS:          0
BTB BRANCH_OTHER ACCESS:          0  HIT:          0  MISS:          0

L2C TOTAL     ACCESS:    5506113  HIT:    2896881  MISS:    2609232  HIT %:    52.6121  MISS %:    47.3879   MPKI: 26.0923
L2C LOAD      ACCESS:    1924015  HIT:    1488040  MISS:     435975  HIT %:    77.3404  MISS %:    22.6596   MPKI: 4.35975
L2C DATA LOAD MPKI: 4.35975
L2C INSTRUCTION LOAD MPKI: 0
L2C PREFETCH  ACCESS:    2270942  HIT:     148354  MISS:    2122588  HIT %:    6.53271  MISS %:    93.4673   MPKI: 21.2259
L2C DATA PREFETCH MPKI: 21.2259
L2C INSTRUCTION PREFETCH MPKI: 0
L2C WRITEBACK ACCESS:     971469  HIT:     964268  MISS:       7201  HIT %:    99.2588  MISS %:   0.741249   MPKI: 0.07201
L2C LOAD TRANSLATION ACCESS:     339687  HIT:     296219  MISS:      43468  HIT %:    87.2035  MISS %:    12.7965   MPKI: 0.43468
L2C PREFETCH  REQUESTED:    2342143  ISSUED:    2342142  USEFUL:    1488039  USELESS:     634534
L2C USEFUL LOAD PREFETCHES:    1488039 PREFETCH ISSUED TO LOWER LEVEL:    2184902  ACCURACY: 68.1055
L2C TIMELY PREFETCHES:    1488039 LATE PREFETCHES: 8523 DROPPED PREFETCHES: 0
L2C PREFETCHES SAME FILL-ORIGIN LEVEL: 2131111 DIFFERENT FILL-ORIGIN LEVEL: 53791
L2C AVERAGE MISS LATENCY: 203.021 cycles
L2C RQ	ACCESS:    2263703	FORWARD:          0	MERGED:          0	TO_CACHE:    2263703
L2C WQ	ACCESS:     971469	FORWARD:          0	MERGED:          0	TO_CACHE:     971469
L2C PQ	ACCESS:    2342142	FORWARD:          0	MERGED:         54	TO_CACHE:    2342088

L2C Instructions Evicting Data0
L2C Translations Evicting Data43020
L2C Data Evicting Data2515714
L2C Instructions Evicting Instructions0
L2C Translations Evicting Instructions0
L2C Data Evicting Instructions0
L2C Instructions Evicting Translations0
L2C Translations Evicting Translations448
L2C Data Evicting Translations42849
L2C Dense regions hint from L2: 0
PSCL5 TOTAL     ACCESS:     339583  HIT:     339583  MISS:          0  HIT %:        100  MISS %:          0   MPKI: 0
PSCL5 LOAD TRANSLATION ACCESS:     339583  HIT:     339583  MISS:          0  HIT %:        100  MISS %:          0   MPKI: 0

PSCL4 TOTAL     ACCESS:     339583  HIT:     339583  MISS:          0  HIT %:        100  MISS %:          0   MPKI: 0
PSCL4 LOAD TRANSLATION ACCESS:     339583  HIT:     339583  MISS:          0  HIT %:        100  MISS %:          0   MPKI: 0

PSCL3 TOTAL     ACCESS:     339583  HIT:     339583  MISS:          0  HIT %:        100  MISS %:          0   MPKI: 0
PSCL3 LOAD TRANSLATION ACCESS:     339583  HIT:     339583  MISS:          0  HIT %:        100  MISS %:          0   MPKI: 0

PSCL2 TOTAL     ACCESS:     339583  HIT:     338980  MISS:        603  HIT %:    99.8224  MISS %:   0.177571   MPKI: 0.00603
PSCL2 LOAD TRANSLATION ACCESS:     339583  HIT:     338980  MISS:        603  HIT %:    99.8224  MISS %:   0.177571   MPKI: 0.00603

LLC TOTAL     ACCESS:    3627276  HIT:    1159268  MISS:    2468008  HIT %:    31.9597  MISS %:    68.0403   MPKI: 24.6801
LLC LOAD      ACCESS:     427452  HIT:      32290  MISS:     395162  HIT %:    7.55406  MISS %:    92.4459   MPKI: 3.95162
LLC PREFETCH  ACCESS:    2184752  HIT:     174820  MISS:    2009932  HIT %:    8.00182  MISS %:    91.9982   MPKI: 20.0993
LLC WRITEBACK ACCESS:     971604  HIT:     948917  MISS:      22687  HIT %:     97.665  MISS %:      2.335   MPKI: 0.22687
LLC LOAD TRANSLATION ACCESS:      43468  HIT:       3241  MISS:      40227  HIT %:    7.45606  MISS %:    92.5439   MPKI: 0.40227
LLC AVERAGE MISS LATENCY: 179.932 cycles
LLC RQ	ACCESS:     470920	FORWARD:          0	MERGED:          0	TO_CACHE:     470920
LLC WQ	ACCESS:     971604	FORWARD:          0	MERGED:          0	TO_CACHE:     971604
LLC PQ	ACCESS:    2184902	FORWARD:          0	MERGED:         13	TO_CACHE:    2184889

LLC Dense regions hint to LLC: 0

RAW hits: 219045
Loads Generated: 64020761
Loads sent to L1D: 63801703
Stores Generated: 6411310
Stores sent to L1D: 6411308
Major fault: 0 Minor fault: 385139
Allocated PAGES: 385139
------------------
Depth Distribution
------------------
depth 0: 143079
depth 1: 899
depth 2: 31134
depth 3: 473706
depth 4: 1532916
depth 5: 660967
depth 6: 42612
depth 7: 712
depth 8: 55
depth 9: 0
depth 10: 0
depth 11: 0
depth 12: 0
depth 13: 0
depth 14: 0
depth 15: 0
depth 16: 0
depth 17: 0
depth 18: 0
depth 19: 0
depth 20: 0
depth 21: 0
depth 22: 0
depth 23: 0
depth 24: 0
depth 25: 0
depth 26: 0
depth 27: 0
depth 28: 0
depth 29: 0
Total: 2886080
------------------
ST read accesses: 1585693
ST write accesses: 338322
PT read accesses: 47440142
PT write accesses: 2100636
FILTER read accesses: 10195023
FILTER write accesses: 9063632
GHR read accesses: 33378696
GHR write accesses: 4160137
PERC read accesses: 350987886
PERC write accesses: 24180704
GHR counter read accesses: 3848030
GHR counter write accesses: 6094122
GHR ip read accesses: 12980010
GHR ip write accesses: 7696060
ST tag read accesses: 913423410
ST tag write accesses: 103003445

DRAM Statistics
 CHANNEL 0
 RQ ROW_BUFFER_HIT:     905644  ROW_BUFFER_MISS:    1539677
 DBUS_CONGESTED:       2027
 WQ ROW_BUFFER_HIT:     171588  ROW_BUFFER_MISS:     799807  FULL:          0

 AVG_CONGESTED_CYCLE: 4
 All warmup complete: 2
Channel 0 Bank busy for read cycles: 0
Channel 0 Bank busy for write cycles: 0
Channel 0
Rank 0
0banks busy for read cycles: 3484051
0banks busy for write cycles: 31596
1banks busy for read cycles: 33881970
1banks busy for write cycles: 4090375
2banks busy for read cycles: 26640191
2banks busy for write cycles: 5022414
3banks busy for read cycles: 19557095
3banks busy for write cycles: 5873688
4banks busy for read cycles: 11953088
4banks busy for write cycles: 6558691
5banks busy for read cycles: 7415193
5banks busy for write cycles: 6951575
6banks busy for read cycles: 4553193
6banks busy for write cycles: 6888556
7banks busy for read cycles: 2024223
7banks busy for write cycles: 6167099
8banks busy for read cycles: 507187
8banks busy for write cycles: 4863827

CPU 0 Branch Prediction Accuracy: 99.9931% MPKI: 0.00083 Average ROB Occupancy at Mispredict: 341.639
Branch types
NOT_BRANCH: 98797941 98.7979%
BRANCH_DIRECT_JUMP: 80123 0.080123%
BRANCH_INDIRECT: 0 0%
BRANCH_CONDITIONAL: 1121884 1.12188%
BRANCH_DIRECT_CALL: 0 0%
BRANCH_INDIRECT_CALL: 0 0%
BRANCH_RETURN: 0 0%
BRANCH_OTHER: 0 0%

DRAM PAGES: 1048576
Allocated PAGES: 385139
