Initialize SIGNATURE TABLE
ST_SET: 1
ST_WAY: 256
ST_TAG_BIT: 16
ST_TAG_MASK: ffff

Initialize PATTERN TABLE
PT_SET: 512
PT_WAY: 4
SIG_DELTA_BIT: 7
C_SIG_BIT: 4
C_DELTA_BIT: 4

Initialize PREFETCH FILTER
FILTER_SET: 1024

*** ChampSim Multicore Out-of-Order Simulator ***

Warmup Instructions: 50000000
Simulation Instructions: 100000000
Number of CPUs: 1
LLC sets: 2048
LLC ways: 16
Off-chip DRAM Size: 4096 MB Channels: 1 Width: 64-bit Data Rate: 6400 MT/s
CPU 0 runs ../SPEC2017//649.fotonik3d_s-8225B.champsimtrace.xz
.xz
NUM_OF_IPS_IN_CRITICAL_IP_TRAINING: 128
NUM_OF_CRITICAL_IP_TRAINING_TABLE_WAYS: 8
NUM_OF_CRITICAL_IP_TRAINING_TABLE_SETS: 16
BTB has LRU replacement policy
ITLB has LRU replacement policy
DTLB has LRU replacement policy
STLB has LRU replacement policy
L1I has LRU replacement policy
L1D has LRU replacement policy
Initialize SRRIP state for L2C
Initialize DRRIP state for LLC
Heartbeat CPU 0 instructions: 10000001 cycles: 2912292 heartbeat IPC: 3.43372 cumulative IPC: 3.43372 (Simulation time: 0 hr 6 min 9 sec) 
Heartbeat CPU 0 instructions: 20000001 cycles: 5824606 heartbeat IPC: 3.4337 cumulative IPC: 3.43371 (Simulation time: 0 hr 11 min 37 sec) 
Heartbeat CPU 0 instructions: 30000000 cycles: 8736811 heartbeat IPC: 3.43382 cumulative IPC: 3.43375 (Simulation time: 0 hr 16 min 38 sec) 
Heartbeat CPU 0 instructions: 40000002 cycles: 11649051 heartbeat IPC: 3.43378 cumulative IPC: 3.43376 (Simulation time: 0 hr 20 min 57 sec) 
Heartbeat CPU 0 instructions: 50000001 cycles: 14561241 heartbeat IPC: 3.43384 cumulative IPC: 3.43377 (Simulation time: 0 hr 25 min 5 sec) 

Warmup complete CPU 0 instructions: 50000001 cycles: 14561241 (Simulation time: 0 hr 25 min 5 sec) 

% increase in all ip prefetch 227.25
% increase in all ip prefetch 0.0420841
Heartbeat CPU 0 instructions: 60000000 cycles: 24546373 heartbeat IPC: 1.00149 cumulative IPC: 1.00149 (Simulation time: 0 hr 28 min 47 sec) 
Heartbeat CPU 0 instructions: 70000001 cycles: 34531809 heartbeat IPC: 1.00146 cumulative IPC: 1.00147 (Simulation time: 0 hr 32 min 17 sec) 
Heartbeat CPU 0 instructions: 80000002 cycles: 44516849 heartbeat IPC: 1.0015 cumulative IPC: 1.00148 (Simulation time: 0 hr 35 min 53 sec) 
Heartbeat CPU 0 instructions: 90000003 cycles: 54502465 heartbeat IPC: 1.00144 cumulative IPC: 1.00147 (Simulation time: 0 hr 39 min 10 sec) 
Heartbeat CPU 0 instructions: 100000000 cycles: 64488360 heartbeat IPC: 1.00141 cumulative IPC: 1.00146 (Simulation time: 0 hr 42 min 7 sec) 
Heartbeat CPU 0 instructions: 110000000 cycles: 74474202 heartbeat IPC: 1.00142 cumulative IPC: 1.00145 (Simulation time: 0 hr 45 min 7 sec) 
Heartbeat CPU 0 instructions: 120000002 cycles: 84462829 heartbeat IPC: 1.00114 cumulative IPC: 1.00141 (Simulation time: 0 hr 47 min 46 sec) 
Heartbeat CPU 0 instructions: 130000003 cycles: 94449401 heartbeat IPC: 1.00134 cumulative IPC: 1.0014 (Simulation time: 0 hr 50 min 13 sec) 
Heartbeat CPU 0 instructions: 140000002 cycles: 104435915 heartbeat IPC: 1.00135 cumulative IPC: 1.00139 (Simulation time: 0 hr 52 min 26 sec) 
Heartbeat CPU 0 instructions: 150000003 cycles: 114420853 heartbeat IPC: 1.00151 cumulative IPC: 1.00141 (Simulation time: 0 hr 54 min 27 sec) 
Finished CPU 0 instructions: 100000002 cycles: 99859612 cumulative IPC: 1.00141 (Simulation time: 0 hr 54 min 27 sec) 

ChampSim completed all CPUs

Region of Interest Statistics

CPU 0 cumulative IPC: 1.00141 instructions: 100000002 cycles: 99859612

CPU 0 Average Load ROB stall cycles: 5.7986e+06
CPU 0 Fraction of times ROB stalled by Loads: 8.9971
CPU 0 Percentage of Load stall cycles in Total stall cycles: 8.54308e+07
 Total stall cycles: 45245819
 Total load stall cycles: 38653855503546
CPU 0 NUM of IPS identified critical: 5

Threshold modification factor: -1
Max PIST entries: 23
Min PIST entries: 0
Avg PIST entries: 12.5
Average ROB occupancy Load Stall Begin: 46.4474
Average ROB occupancy Load Stall End: 53.3604
Min ROB occupancy Load Stall Begin: 9
Max ROB occupancy Load Stall Begin: 351
Min ROB occupancy Load Stall End: 12
Max ROB occupancy Load Stall End: 352
Average ROB occupancy Critical Load Stall Begin: 43.1656
Average ROB occupancy Critical Load Stall End: 49.0669
Min ROB occupancy Critical Load Stall Begin: 9
Max ROB occupancy Critical Load Stall Begin: 351
Min ROB occupancy Critical Load Stall End: 35
Max ROB occupancy Critical Load Stall End: 352
 ROB Load Stall Begin Bucket Count 0: 502843
 ROB Load Stall End Bucket Count 0: 415364
 ROB Critical Load Stall Begin Bucket Count 0: 450496
 ROB Critical Load Stall End Bucket Count 0: 401900
 ROB Load Stall Begin Bucket Count 1: 75737
 ROB Load Stall End Bucket Count 1: 160070
 ROB Critical Load Stall Begin Bucket Count 1: 31681
 ROB Critical Load Stall End Bucket Count 1: 79216
 ROB Load Stall Begin Bucket Count 2: 8105
 ROB Load Stall End Bucket Count 2: 9056
 ROB Critical Load Stall Begin Bucket Count 2: 4149
 ROB Critical Load Stall End Bucket Count 2: 4476
 ROB Load Stall Begin Bucket Count 3: 7269
 ROB Load Stall End Bucket Count 3: 6723
 ROB Critical Load Stall Begin Bucket Count 3: 3931
 ROB Critical Load Stall End Bucket Count 3: 2971
 ROB Load Stall Begin Bucket Count 4: 3358
 ROB Load Stall End Bucket Count 4: 5282
 ROB Critical Load Stall Begin Bucket Count 4: 1753
 ROB Critical Load Stall End Bucket Count 4: 3248
 ROB Load Stall Begin Bucket Count 5: 1985
 ROB Load Stall End Bucket Count 5: 2568
 ROB Critical Load Stall Begin Bucket Count 5: 890
 ROB Critical Load Stall End Bucket Count 5: 1038
 ROB Load Stall Begin Bucket Count 6: 456
 ROB Load Stall End Bucket Count 6: 690
 ROB Critical Load Stall Begin Bucket Count 6: 72
 ROB Critical Load Stall End Bucket Count 6: 123
Threshold Modified: 1 times, factor: -1
ITLB TOTAL     ACCESS:   14035700  HIT:   14035700  MISS:          0  HIT %:        100  MISS %:          0   MPKI: 0
ITLB LOAD TRANSLATION ACCESS:   14035700  HIT:   14035700  MISS:          0  HIT %:        100  MISS %:          0   MPKI: 0
ITLB AVERAGE MISS LATENCY: -nan cycles
ITLB RQ	ACCESS:   17545858	FORWARD:          0	MERGED:    3510158	TO_CACHE:   14035700

DTLB TOTAL     ACCESS:   15631134  HIT:   15607684  MISS:      23450  HIT %:      99.85  MISS %:   0.150021   MPKI: 0.2345
DTLB LOAD TRANSLATION ACCESS:   15631134  HIT:   15607684  MISS:      23450  HIT %:      99.85  MISS %:   0.150021   MPKI: 0.2345
DTLB AVERAGE MISS LATENCY: 89.3406 cycles
DTLB RQ	ACCESS:   24504561	FORWARD:          0	MERGED:    8872027	TO_CACHE:   15632534

STLB TOTAL     ACCESS:      23450  HIT:       9724  MISS:      13726  HIT %:     41.467  MISS %:     58.533   MPKI: 0.13726
STLB LOAD TRANSLATION ACCESS:      23450  HIT:       9724  MISS:      13726  HIT %:     41.467  MISS %:     58.533   MPKI: 0.13726
STLB AVERAGE MISS LATENCY: 137.05 cycles
STLB RQ	ACCESS:      23450	FORWARD:          0	MERGED:          0	TO_CACHE:      23450

STLB Hit, L1D data hit: 0
STLB Hit, L2C data hit: 0
STLB Hit, LLC data hit: 0
STLB Hit, LLC data miss: 0
STLB STLB hints to L2: 0
L1D TOTAL     ACCESS:   24189744  HIT:   22866374  MISS:    1323370  HIT %:    94.5292  MISS %:    5.47079   MPKI: 13.2337
L1D LOAD      ACCESS:   17171899  HIT:   15849845  MISS:    1322054  HIT %:    92.3011  MISS %:    7.69894   MPKI: 13.2205
L1D RFO       ACCESS:    7017845  HIT:    7016529  MISS:       1316  HIT %:    99.9812  MISS %:  0.0187522   MPKI: 0.01316
L1D AVERAGE MISS LATENCY: 24.6079 cycles
L1D RQ	ACCESS:   35082949	FORWARD:          0	MERGED:   17598777	TO_CACHE:   17484013
L1D WQ	ACCESS:    7020548	FORWARD:        159	MERGED:          0	TO_CACHE:    7020548

L1D UNIQUE REGIONS ACCESSED: 0
L1D REGIONS CONFLICTS: 0
L1D Cross Page Prefetch Requests: 0
L1D Same Page Prefetch Requests: 0
L1D ROI Sum of L1D PQ occupancy: 0
L1D PREFETCHES PUSHED FROM L2C: 0
L1I TOTAL     ACCESS:   17545857  HIT:   17545857  MISS:          0  HIT %:        100  MISS %:          0   MPKI: 0
L1I LOAD      ACCESS:   17545857  HIT:   17545857  MISS:          0  HIT %:        100  MISS %:          0   MPKI: 0
L1I AVERAGE MISS LATENCY: -nan cycles
L1I RQ	ACCESS:   22815638	FORWARD:          0	MERGED:    5269780	TO_CACHE:   17545858

BTB TOTAL     ACCESS:    1754584  HIT:    1754575  MISS:          9  HIT %:    99.9995  MISS %: 0.000512942   MPKI: 9e-05
BTB BRANCH_DIRECT_JUMP	ACCESS:        438  HIT:        436  MISS:          2
BTB BRANCH_INDIRECT	ACCESS:          0  HIT:          0  MISS:          0
BTB BRANCH_CONDITIONAL	ACCESS:    1753270  HIT:    1753267  MISS:          3
BTB BRANCH_DIRECT_CALL	ACCESS:        438  HIT:        436  MISS:          2
BTB BRANCH_INDIRECT_CALL	ACCESS:          0  HIT:          0  MISS:          0
BTB BRANCH_RETURN	ACCESS:        438  HIT:        436  MISS:          2
BTB BRANCH_OTHER ACCESS:          0  HIT:          0  MISS:          0

L2C TOTAL     ACCESS:    6677330  HIT:    5773199  MISS:     904131  HIT %:    86.4597  MISS %:    13.5403   MPKI: 9.04131
L2C LOAD      ACCESS:    1322053  HIT:    1044928  MISS:     277125  HIT %:    79.0383  MISS %:    20.9617   MPKI: 2.77125
L2C DATA LOAD MPKI: 2.77125
L2C INSTRUCTION LOAD MPKI: 0
L2C RFO       ACCESS:       1316  HIT:       1126  MISS:        190  HIT %:    85.5623  MISS %:    14.4377   MPKI: 0.0019
L2C PREFETCH  ACCESS:    4461511  HIT:    3838566  MISS:     622945  HIT %:    86.0374  MISS %:    13.9626   MPKI: 6.22945
L2C DATA PREFETCH MPKI: 6.22945
L2C INSTRUCTION PREFETCH MPKI: 0
L2C WRITEBACK ACCESS:     878717  HIT:     876679  MISS:       2038  HIT %:    99.7681  MISS %:   0.231929   MPKI: 0.02038
L2C LOAD TRANSLATION ACCESS:      13733  HIT:      11900  MISS:       1833  HIT %:    86.6526  MISS %:    13.3474   MPKI: 0.01833
L2C PREFETCH  REQUESTED:   13517626  ISSUED:   12914607  USEFUL:     622652  USELESS:        295
L2C USEFUL LOAD PREFETCHES:     622652 PREFETCH ISSUED TO LOWER LEVEL:    9043936  ACCURACY: 6.88475
L2C TIMELY PREFETCHES:     622652 LATE PREFETCHES: 11029 DROPPED PREFETCHES: 0
L2C PREFETCHES SAME FILL-ORIGIN LEVEL: 633974 DIFFERENT FILL-ORIGIN LEVEL: 8409962
L2C AVERAGE MISS LATENCY: 36.5514 cycles
L2C RQ	ACCESS:    1337102	FORWARD:          0	MERGED:          0	TO_CACHE:    1337102
L2C WQ	ACCESS:     878717	FORWARD:          0	MERGED:          0	TO_CACHE:     878717
L2C PQ	ACCESS:   12914607	FORWARD:          0	MERGED:      30884	TO_CACHE:   12883723

L2C Instructions Evicting Data0
L2C Translations Evicting Data1833
L2C Data Evicting Data898438
L2C Instructions Evicting Instructions0
L2C Translations Evicting Instructions0
L2C Data Evicting Instructions0
L2C Instructions Evicting Translations0
L2C Translations Evicting Translations0
L2C Data Evicting Translations1822
L2C Dense regions hint from L2: 0
PSCL5 TOTAL     ACCESS:      13726  HIT:      13726  MISS:          0  HIT %:        100  MISS %:          0   MPKI: 0
PSCL5 LOAD TRANSLATION ACCESS:      13726  HIT:      13726  MISS:          0  HIT %:        100  MISS %:          0   MPKI: 0

PSCL4 TOTAL     ACCESS:      13726  HIT:      13726  MISS:          0  HIT %:        100  MISS %:          0   MPKI: 0
PSCL4 LOAD TRANSLATION ACCESS:      13726  HIT:      13726  MISS:          0  HIT %:        100  MISS %:          0   MPKI: 0

PSCL3 TOTAL     ACCESS:      13574  HIT:      13569  MISS:          5  HIT %:    99.9632  MISS %:  0.0368351   MPKI: 5e-05
PSCL3 LOAD TRANSLATION ACCESS:      13574  HIT:      13569  MISS:          5  HIT %:    99.9632  MISS %:  0.0368351   MPKI: 5e-05

PSCL2 TOTAL     ACCESS:      13726  HIT:      13678  MISS:         48  HIT %:    99.6503  MISS %:   0.349701   MPKI: 0.00048
PSCL2 LOAD TRANSLATION ACCESS:      13726  HIT:      13678  MISS:         48  HIT %:    99.6503  MISS %:   0.349701   MPKI: 0.00048

LLC TOTAL     ACCESS:    9677207  HIT:    8793377  MISS:     883830  HIT %:    90.8669  MISS %:    9.13311   MPKI: 8.8383
LLC LOAD      ACCESS:     266096  HIT:     241879  MISS:      24217  HIT %:    90.8991  MISS %:    9.10085   MPKI: 0.24217
LLC RFO       ACCESS:        190  HIT:        190  MISS:          0  HIT %:        100  MISS %:          0   MPKI: 0
LLC PREFETCH  ACCESS:    8532392  HIT:    7675414  MISS:     856978  HIT %:    89.9562  MISS %:    10.0438   MPKI: 8.56978
LLC WRITEBACK ACCESS:     876696  HIT:     875837  MISS:        859  HIT %:     99.902  MISS %:  0.0979815   MPKI: 0.00859
LLC LOAD TRANSLATION ACCESS:       1833  HIT:         57  MISS:       1776  HIT %:    3.10966  MISS %:    96.8903   MPKI: 0.01776
LLC AVERAGE MISS LATENCY: 169.417 cycles
LLC RQ	ACCESS:     268119	FORWARD:          0	MERGED:          0	TO_CACHE:     268119
LLC WQ	ACCESS:     876696	FORWARD:          0	MERGED:          0	TO_CACHE:     876696
LLC PQ	ACCESS:    9043936	FORWARD:          0	MERGED:       2924	TO_CACHE:    9041012

LLC Dense regions hint to LLC: 0

RAW hits: 1587
Loads Generated: 35084538
Loads sent to L1D: 35082949
Stores Generated: 7020542
Stores sent to L1D: 7020548
Major fault: 0 Minor fault: 20724
Allocated PAGES: 20724
------------------
Depth Distribution
------------------
depth 0: 0
depth 1: 1931612
depth 2: 1896618
depth 3: 1862039
depth 4: 1818581
depth 5: 1763204
depth 6: 1711119
depth 7: 1640079
depth 8: 1560471
depth 9: 1307778
depth 10: 1234278
depth 11: 1001426
depth 12: 782931
depth 13: 435649
depth 14: 127603
depth 15: 122946
depth 16: 129
depth 17: 0
depth 18: 0
depth 19: 0
depth 20: 0
depth 21: 0
depth 22: 0
depth 23: 0
depth 24: 0
depth 25: 0
depth 26: 0
depth 27: 0
depth 28: 0
depth 29: 0
Total: 19196463
-----------------------------
-----------------------------
	Captured at Filter
-----------------------------
depth 0: 0
depth 1: 16510
depth 2: 15909
depth 3: 15973
depth 4: 15615
depth 5: 15623
depth 6: 15279
depth 7: 15204
depth 8: 15142
depth 9: 13375
depth 10: 13001
depth 11: 11058
depth 12: 8738
depth 13: 4788
depth 14: 1360
depth 15: 1259
depth 16: 0
depth 17: 0
depth 18: 0
depth 19: 0
depth 20: 0
depth 21: 0
depth 22: 0
depth 23: 0
depth 24: 0
depth 25: 0
depth 26: 0
depth 27: 0
depth 28: 0
depth 29: 0
-----------------------------
-----------------------------
		Lost at Page
-----------------------------
depth 0: 0
depth 1: 30783
depth 2: 61489
depth 3: 92213
depth 4: 122944
depth 5: 153661
depth 6: 184238
depth 7: 214124
depth 8: 243137
depth 9: 237898
depth 10: 261968
depth 11: 246673
depth 12: 221507
depth 13: 140277
depth 14: 46043
depth 15: 49228
depth 16: 28
depth 17: 0
depth 18: 0
depth 19: 0
depth 20: 0
depth 21: 0
depth 22: 0
depth 23: 0
depth 24: 0
depth 25: 0
depth 26: 0
depth 27: 0
depth 28: 0
depth 29: 0
-----------------------------
-----------------------------
	Lost due to PQ Size
-----------------------------
1106626
-----------------------------
ST read accesses: 1308400
ST write accesses: 13653
PT read accesses: 82457559
PT write accesses: 1958750
FILTER read accesses: 15863386
FILTER write accesses: 2790679
GHR read accesses: 9353730
GHR write accesses: 1534798
GHR counter read accesses: 68608570
GHR counter write accesses: 3209576
ST tag read accesses: 493966104
ST tag write accesses: 6732404

DRAM Statistics
 CHANNEL 0
 RQ ROW_BUFFER_HIT:      94966  ROW_BUFFER_MISS:     788005
 DBUS_CONGESTED:        123
 WQ ROW_BUFFER_HIT:     145937  ROW_BUFFER_MISS:     730573  FULL:          0

 AVG_CONGESTED_CYCLE: 4
 All warmup complete: 2
Channel 0 Bank busy for read cycles: 0
Channel 0 Bank busy for write cycles: 0
Channel 0
Rank 0
0banks busy for read cycles: 24601396
0banks busy for write cycles: 96437
1banks busy for read cycles: 11138903
1banks busy for write cycles: 2663470
2banks busy for read cycles: 16922743
2banks busy for write cycles: 2399055
3banks busy for read cycles: 12315481
3banks busy for write cycles: 4824563
4banks busy for read cycles: 1957199
4banks busy for write cycles: 1542747
5banks busy for read cycles: 2649833
5banks busy for write cycles: 4526622
6banks busy for read cycles: 409544
6banks busy for write cycles: 1829090
7banks busy for read cycles: 327511
7banks busy for write cycles: 1720308
8banks busy for read cycles: 1899010
8banks busy for write cycles: 8035701

CPU 0 Branch Prediction Accuracy: 99.9751% MPKI: 0.00438 Average ROB Occupancy at Mispredict: 64.5548
Branch types
NOT_BRANCH: 98243570 98.2436%
BRANCH_DIRECT_JUMP: 438 0.000438%
BRANCH_INDIRECT: 0 0%
BRANCH_CONDITIONAL: 1754803 1.7548%
BRANCH_DIRECT_CALL: 438 0.000438%
BRANCH_INDIRECT_CALL: 0 0%
BRANCH_RETURN: 438 0.000438%
BRANCH_OTHER: 0 0%

DRAM PAGES: 1048576
Allocated PAGES: 20724
