Initialize SIGNATURE TABLE
ST_SET: 1
ST_WAY: 256
ST_TAG_BIT: 16
ST_TAG_MASK: ffff

Initialize PATTERN TABLE
PT_SET: 512
PT_WAY: 4
SIG_DELTA_BIT: 7
C_SIG_BIT: 4
C_DELTA_BIT: 4

Initialize PREFETCH FILTER
FILTER_SET: 1024

*** ChampSim Multicore Out-of-Order Simulator ***

Warmup Instructions: 50000000
Simulation Instructions: 100000000
Number of CPUs: 1
LLC sets: 2048
LLC ways: 16
Off-chip DRAM Size: 4096 MB Channels: 1 Width: 64-bit Data Rate: 6400 MT/s
CPU 0 runs ../SPEC2017//649.fotonik3d_s-10881B.champsimtrace.xz
.xz
NUM_OF_IPS_IN_CRITICAL_IP_TRAINING: 64
NUM_OF_CRITICAL_IP_TRAINING_TABLE_WAYS: 2
NUM_OF_CRITICAL_IP_TRAINING_TABLE_SETS: 32
WOBBLY_CRITICAL_IP_CACHE_SETS: 32
WOBBLY_CRITICAL_IP_CACHE_WAYS: 4
BTB has LRU replacement policy
ITLB has LRU replacement policy
DTLB has LRU replacement policy
STLB has LRU replacement policy
L1I has LRU replacement policy
L1D has LRU replacement policy
Initialize SRRIP state for L2C
Initialize DRRIP state for LLC
Heartbeat CPU 0 instructions: 10000003 cycles: 5061133 heartbeat IPC: 1.97584 cumulative IPC: 1.97584 (Simulation time: 0 hr 7 min 32 sec) 
Heartbeat CPU 0 instructions: 20000000 cycles: 10130750 heartbeat IPC: 1.97254 cumulative IPC: 1.97419 (Simulation time: 0 hr 13 min 56 sec) 
Heartbeat CPU 0 instructions: 30000000 cycles: 15205527 heartbeat IPC: 1.97053 cumulative IPC: 1.97297 (Simulation time: 0 hr 19 min 11 sec) 
Heartbeat CPU 0 instructions: 40000002 cycles: 20275725 heartbeat IPC: 1.97231 cumulative IPC: 1.9728 (Simulation time: 0 hr 24 min 16 sec) 
Heartbeat CPU 0 instructions: 50000002 cycles: 25340242 heartbeat IPC: 1.97452 cumulative IPC: 1.97315 (Simulation time: 0 hr 28 min 54 sec) 

Warmup complete CPU 0 instructions: 50000002 cycles: 25340242 (Simulation time: 0 hr 28 min 54 sec) 

Heartbeat CPU 0 instructions: 60000000 cycles: 43487196 heartbeat IPC: 0.551057 cumulative IPC: 0.551057 (Simulation time: 0 hr 35 min 5 sec) 
Heartbeat CPU 0 instructions: 70000000 cycles: 61021404 heartbeat IPC: 0.570314 cumulative IPC: 0.56052 (Simulation time: 0 hr 40 min 32 sec) 
Heartbeat CPU 0 instructions: 80000003 cycles: 78382559 heartbeat IPC: 0.575999 cumulative IPC: 0.565586 (Simulation time: 0 hr 45 min 18 sec) 
Heartbeat CPU 0 instructions: 90000003 cycles: 95704072 heartbeat IPC: 0.577317 cumulative IPC: 0.568474 (Simulation time: 0 hr 49 min 44 sec) 
Heartbeat CPU 0 instructions: 100000003 cycles: 113094748 heartbeat IPC: 0.575021 cumulative IPC: 0.569771 (Simulation time: 0 hr 56 min 55 sec) 
Heartbeat CPU 0 instructions: 110000000 cycles: 130378638 heartbeat IPC: 0.578573 cumulative IPC: 0.57122 (Simulation time: 1 hr 5 min 45 sec) 
Heartbeat CPU 0 instructions: 120000003 cycles: 146410400 heartbeat IPC: 0.623762 cumulative IPC: 0.578177 (Simulation time: 1 hr 13 min 7 sec) 
Heartbeat CPU 0 instructions: 130000000 cycles: 162133773 heartbeat IPC: 0.635996 cumulative IPC: 0.584823 (Simulation time: 1 hr 19 min 52 sec) 
Heartbeat CPU 0 instructions: 140000002 cycles: 177878279 heartbeat IPC: 0.635142 cumulative IPC: 0.590017 (Simulation time: 1 hr 25 min 56 sec) 
Heartbeat CPU 0 instructions: 150000001 cycles: 193607616 heartbeat IPC: 0.635755 cumulative IPC: 0.594292 (Simulation time: 1 hr 31 min 20 sec) 
Finished CPU 0 instructions: 100000003 cycles: 168267375 cumulative IPC: 0.594292 (Simulation time: 1 hr 31 min 20 sec) 

ChampSim completed all CPUs

Region of Interest Statistics

CPU 0 cumulative IPC: 0.594292 instructions: 100000003 cycles: 168267375

CPU 0 Average Load ROB stall cycles: 3.76805e+07
CPU 0 Fraction of times ROB stalled by Loads: 33.7863
CPU 0 Percentage of Load stall cycles in Total stall cycles: 3.37594e+08
Issued all: 134852454
Issued LT all: 129475053
rob_not_full_when_issued_lt_all: 16083828
Issued LT one: 105891212
rob_not_full_when_issued_lt_one: 11230990
 Total stall cycles: 142048628
 Total load stall cycles: 479547355251183
CPU 0 NUM of IPS identified critical: 0
CPU 0 Num of Load IPs stalling ROB: 128
Threshold modification factor: 0
Max PIST entries: 34
Min PIST entries: 0
Avg PIST entries: 7.14667
Trouble in retire width: 0.912556
MaC = Marked as critical.
lt_50_percent_before_Mac: 0
gt_90_percent_before_Mac: 0
gt_75_percent_before_Mac: 0
gt_50_percent_before_Mac: 0
stall_proportion_bin_same_before_after: 0
stall_proportion_bin_lower_before_after: 0
stall_proportion_bin_upper_before_after: 0
average_stall_proportion_before: -nan
average_stall_proportion_after: -nan
Critical IP stalls, total frequency: 0
Non-critical IP stalls, total frequency: 4299878
Total Freq all stalling IPs: 4299878
stat_90_percent_critical_ip_stalls_freq: 3891614
stat_90_percent_non_critical_ip_stalls_freq: 408264
Critical_IP_ROB_Stalls_Bucket_0: 0
Non-critical_IP_ROB_Stalls_Bucket_0: 24
Critical_IP_ROB_Stalls_Bucket_1: 0
Non-critical_IP_ROB_Stalls_Bucket_1: 127
Critical_IP_ROB_Stalls_Bucket_2: 0
Non-critical_IP_ROB_Stalls_Bucket_2: 336
Critical_IP_ROB_Stalls_Bucket_3: 0
Non-critical_IP_ROB_Stalls_Bucket_3: 230
Critical_IP_ROB_Stalls_Bucket_4: 0
Non-critical_IP_ROB_Stalls_Bucket_4: 157
Critical_IP_ROB_Stalls_Bucket_5: 0
Non-critical_IP_ROB_Stalls_Bucket_5: 66156
Critical_IP_ROB_Stalls_Bucket_6: 0
Non-critical_IP_ROB_Stalls_Bucket_6: 4232848
0 => IPs accounting for >50 percent of stalls, 1 => 55, 2 => 60, 3 => 65 and so on till 90.
percent50: 53.8512 num IPs:  6
percent55: 59.4875 num IPs: 7
percent60: 63.8089 num IPs: 8
percent65: 67.4784 num IPs: 9
percent70: 70.841 num IPs: 10
percent75: 75.9116 num IPs: 12
percent80: 81.163 num IPs: 15
percent85: 85.6269 num IPs: 19
percent90: 90.5052 num IPs: 26
Critical_ROB_Stalls_Percent_0_Bucket_0: 5
Non-critical_ROB_Stalls_Percent_0_Bucket_0: 19
Critical_ROB_Stalls_Percent_0_Bucket_1: 74
Non-critical_ROB_Stalls_Percent_0_Bucket_1: 53
Critical_ROB_Stalls_Percent_0_Bucket_2: 184
Non-critical_ROB_Stalls_Percent_0_Bucket_2: 152
Critical_ROB_Stalls_Percent_0_Bucket_3: 125
Non-critical_ROB_Stalls_Percent_0_Bucket_3: 105
Critical_ROB_Stalls_Percent_0_Bucket_4: 109
Non-critical_ROB_Stalls_Percent_0_Bucket_4: 48
Critical_ROB_Stalls_Percent_0_Bucket_5: 40100
Non-critical_ROB_Stalls_Percent_0_Bucket_5: 26056
Critical_ROB_Stalls_Percent_0_Bucket_6: 2274938
Non-critical_ROB_Stalls_Percent_0_Bucket_6: 1957910
Critical_ROB_Stalls_Percent_1_Bucket_0: 5
Non-critical_ROB_Stalls_Percent_1_Bucket_0: 19
Critical_ROB_Stalls_Percent_1_Bucket_1: 74
Non-critical_ROB_Stalls_Percent_1_Bucket_1: 53
Critical_ROB_Stalls_Percent_1_Bucket_2: 209
Non-critical_ROB_Stalls_Percent_1_Bucket_2: 127
Critical_ROB_Stalls_Percent_1_Bucket_3: 149
Non-critical_ROB_Stalls_Percent_1_Bucket_3: 81
Critical_ROB_Stalls_Percent_1_Bucket_4: 112
Non-critical_ROB_Stalls_Percent_1_Bucket_4: 45
Critical_ROB_Stalls_Percent_1_Bucket_5: 41842
Non-critical_ROB_Stalls_Percent_1_Bucket_5: 24314
Critical_ROB_Stalls_Percent_1_Bucket_6: 2515497
Non-critical_ROB_Stalls_Percent_1_Bucket_6: 1717351
Critical_ROB_Stalls_Percent_2_Bucket_0: 5
Non-critical_ROB_Stalls_Percent_2_Bucket_0: 19
Critical_ROB_Stalls_Percent_2_Bucket_1: 74
Non-critical_ROB_Stalls_Percent_2_Bucket_1: 53
Critical_ROB_Stalls_Percent_2_Bucket_2: 219
Non-critical_ROB_Stalls_Percent_2_Bucket_2: 117
Critical_ROB_Stalls_Percent_2_Bucket_3: 165
Non-critical_ROB_Stalls_Percent_2_Bucket_3: 65
Critical_ROB_Stalls_Percent_2_Bucket_4: 112
Non-critical_ROB_Stalls_Percent_2_Bucket_4: 45
Critical_ROB_Stalls_Percent_2_Bucket_5: 43938
Non-critical_ROB_Stalls_Percent_2_Bucket_5: 22218
Critical_ROB_Stalls_Percent_2_Bucket_6: 2699190
Non-critical_ROB_Stalls_Percent_2_Bucket_6: 1533658
Critical_ROB_Stalls_Percent_3_Bucket_0: 5
Non-critical_ROB_Stalls_Percent_3_Bucket_0: 19
Critical_ROB_Stalls_Percent_3_Bucket_1: 77
Non-critical_ROB_Stalls_Percent_3_Bucket_1: 50
Critical_ROB_Stalls_Percent_3_Bucket_2: 222
Non-critical_ROB_Stalls_Percent_3_Bucket_2: 114
Critical_ROB_Stalls_Percent_3_Bucket_3: 176
Non-critical_ROB_Stalls_Percent_3_Bucket_3: 54
Critical_ROB_Stalls_Percent_3_Bucket_4: 112
Non-critical_ROB_Stalls_Percent_3_Bucket_4: 45
Critical_ROB_Stalls_Percent_3_Bucket_5: 46728
Non-critical_ROB_Stalls_Percent_3_Bucket_5: 19428
Critical_ROB_Stalls_Percent_3_Bucket_6: 2854169
Non-critical_ROB_Stalls_Percent_3_Bucket_6: 1378679
Critical_ROB_Stalls_Percent_4_Bucket_0: 6
Non-critical_ROB_Stalls_Percent_4_Bucket_0: 18
Critical_ROB_Stalls_Percent_4_Bucket_1: 83
Non-critical_ROB_Stalls_Percent_4_Bucket_1: 44
Critical_ROB_Stalls_Percent_4_Bucket_2: 241
Non-critical_ROB_Stalls_Percent_4_Bucket_2: 95
Critical_ROB_Stalls_Percent_4_Bucket_3: 176
Non-critical_ROB_Stalls_Percent_4_Bucket_3: 54
Critical_ROB_Stalls_Percent_4_Bucket_4: 122
Non-critical_ROB_Stalls_Percent_4_Bucket_4: 35
Critical_ROB_Stalls_Percent_4_Bucket_5: 47502
Non-critical_ROB_Stalls_Percent_4_Bucket_5: 18654
Critical_ROB_Stalls_Percent_4_Bucket_6: 2997948
Non-critical_ROB_Stalls_Percent_4_Bucket_6: 1234900
Critical_ROB_Stalls_Percent_5_Bucket_0: 6
Non-critical_ROB_Stalls_Percent_5_Bucket_0: 18
Critical_ROB_Stalls_Percent_5_Bucket_1: 85
Non-critical_ROB_Stalls_Percent_5_Bucket_1: 42
Critical_ROB_Stalls_Percent_5_Bucket_2: 251
Non-critical_ROB_Stalls_Percent_5_Bucket_2: 85
Critical_ROB_Stalls_Percent_5_Bucket_3: 186
Non-critical_ROB_Stalls_Percent_5_Bucket_3: 44
Critical_ROB_Stalls_Percent_5_Bucket_4: 126
Non-critical_ROB_Stalls_Percent_5_Bucket_4: 31
Critical_ROB_Stalls_Percent_5_Bucket_5: 48521
Non-critical_ROB_Stalls_Percent_5_Bucket_5: 17635
Critical_ROB_Stalls_Percent_5_Bucket_6: 3214931
Non-critical_ROB_Stalls_Percent_5_Bucket_6: 1017917
Critical_ROB_Stalls_Percent_6_Bucket_0: 7
Non-critical_ROB_Stalls_Percent_6_Bucket_0: 17
Critical_ROB_Stalls_Percent_6_Bucket_1: 89
Non-critical_ROB_Stalls_Percent_6_Bucket_1: 38
Critical_ROB_Stalls_Percent_6_Bucket_2: 263
Non-critical_ROB_Stalls_Percent_6_Bucket_2: 73
Critical_ROB_Stalls_Percent_6_Bucket_3: 197
Non-critical_ROB_Stalls_Percent_6_Bucket_3: 33
Critical_ROB_Stalls_Percent_6_Bucket_4: 132
Non-critical_ROB_Stalls_Percent_6_Bucket_4: 25
Critical_ROB_Stalls_Percent_6_Bucket_5: 51470
Non-critical_ROB_Stalls_Percent_6_Bucket_5: 14686
Critical_ROB_Stalls_Percent_6_Bucket_6: 3437754
Non-critical_ROB_Stalls_Percent_6_Bucket_6: 795094
Critical_ROB_Stalls_Percent_7_Bucket_0: 8
Non-critical_ROB_Stalls_Percent_7_Bucket_0: 16
Critical_ROB_Stalls_Percent_7_Bucket_1: 90
Non-critical_ROB_Stalls_Percent_7_Bucket_1: 37
Critical_ROB_Stalls_Percent_7_Bucket_2: 312
Non-critical_ROB_Stalls_Percent_7_Bucket_2: 24
Critical_ROB_Stalls_Percent_7_Bucket_3: 200
Non-critical_ROB_Stalls_Percent_7_Bucket_3: 30
Critical_ROB_Stalls_Percent_7_Bucket_4: 138
Non-critical_ROB_Stalls_Percent_7_Bucket_4: 19
Critical_ROB_Stalls_Percent_7_Bucket_5: 51813
Non-critical_ROB_Stalls_Percent_7_Bucket_5: 14343
Critical_ROB_Stalls_Percent_7_Bucket_6: 3629293
Non-critical_ROB_Stalls_Percent_7_Bucket_6: 603555
Critical_ROB_Stalls_Percent_8_Bucket_0: 8
Non-critical_ROB_Stalls_Percent_8_Bucket_0: 16
Critical_ROB_Stalls_Percent_8_Bucket_1: 94
Non-critical_ROB_Stalls_Percent_8_Bucket_1: 33
Critical_ROB_Stalls_Percent_8_Bucket_2: 316
Non-critical_ROB_Stalls_Percent_8_Bucket_2: 20
Critical_ROB_Stalls_Percent_8_Bucket_3: 212
Non-critical_ROB_Stalls_Percent_8_Bucket_3: 18
Critical_ROB_Stalls_Percent_8_Bucket_4: 143
Non-critical_ROB_Stalls_Percent_8_Bucket_4: 14
Critical_ROB_Stalls_Percent_8_Bucket_5: 53113
Non-critical_ROB_Stalls_Percent_8_Bucket_5: 13043
Critical_ROB_Stalls_Percent_8_Bucket_6: 3837728
Non-critical_ROB_Stalls_Percent_8_Bucket_6: 395120
IP: 4546126
ROB Occupancy: 304 ccc: 25353864
ROB Occupancy: 307 ccc: 25355988
ROB Occupancy: 304 ccc: 25371929
ROB Occupancy: 304 ccc: 25376437
ROB Occupancy: 304 ccc: 25409864
ROB Occupancy: 304 ccc: 25416392
ROB Occupancy: 304 ccc: 25419277
ROB Occupancy: 304 ccc: 25432622
ROB Occupancy: 304 ccc: 25438598
ROB Occupancy: 304 ccc: 25441605
ROB Occupancy: 304 ccc: 25443001
ROB Occupancy: 304 ccc: 25484562
ROB Occupancy: 307 ccc: 25499646
ROB Occupancy: 304 ccc: 25503799
ROB Occupancy: 304 ccc: 25523384
ROB Occupancy: 307 ccc: 25528576
ROB Occupancy: 304 ccc: 25542178
ROB Occupancy: 307 ccc: 25547278
ROB Occupancy: 304 ccc: 25551119
ROB Occupancy: 304 ccc: 25560967
ROB Occupancy: 307 ccc: 25634298
ROB Occupancy: 304 ccc: 25638329
ROB Occupancy: 307 ccc: 25643319
ROB Occupancy: 304 ccc: 25656426
ROB Occupancy: 304 ccc: 25687668
ROB Occupancy: 304 ccc: 25695541
ROB Occupancy: 304 ccc: 25714779
ROB Occupancy: 304 ccc: 25745338
ROB Occupancy: 307 ccc: 25746969
ROB Occupancy: 304 ccc: 25750806
ROB Occupancy: 307 ccc: 25756762
ROB Occupancy: 304 ccc: 25760940
ROB Occupancy: 304 ccc: 25769698
ROB Occupancy: 307 ccc: 25793736
ROB Occupancy: 304 ccc: 25809322
ROB Occupancy: 304 ccc: 25846414
ROB Occupancy: 304 ccc: 25857089
ROB Occupancy: 304 ccc: 25863229
ROB Occupancy: 307 ccc: 25868237
ROB Occupancy: 307 ccc: 25896891
ROB Occupancy: 304 ccc: 25900302
ROB Occupancy: 304 ccc: 25919115
ROB Occupancy: 304 ccc: 25948144
ROB Occupancy: 304 ccc: 25976587
ROB Occupancy: 307 ccc: 25998551
ROB Occupancy: 304 ccc: 26040792
ROB Occupancy: 304 ccc: 26045115
ROB Occupancy: 304 ccc: 26052052
ROB Occupancy: 304 ccc: 26053345
ROB Occupancy: 304 ccc: 26080390
ROB Occupancy: 304 ccc: 26089774
ROB Occupancy: 304 ccc: 26094189
ROB Occupancy: 307 ccc: 26103050
ROB Occupancy: 304 ccc: 26106806
ROB Occupancy: 304 ccc: 26115918
ROB Occupancy: 307 ccc: 26148503
ROB Occupancy: 304 ccc: 26161842
ROB Occupancy: 304 ccc: 26162219
ROB Occupancy: 304 ccc: 26211933
ROB Occupancy: 307 ccc: 26252503
ROB Occupancy: 304 ccc: 26256542
ROB Occupancy: 304 ccc: 26274910
ROB Occupancy: 304 ccc: 26314268
ROB Occupancy: 304 ccc: 26367741
ROB Occupancy: 304 ccc: 26400683
ROB Occupancy: 304 ccc: 26417932
ROB Occupancy: 304 ccc: 26426484
ROB Occupancy: 304 ccc: 26460733
ROB Occupancy: 304 ccc: 26478831
ROB Occupancy: 304 ccc: 26487535
ROB Occupancy: 304 ccc: 26502311
ROB Occupancy: 304 ccc: 26519178
ROB Occupancy: 304 ccc: 26557450
ROB Occupancy: 304 ccc: 26565835
ROB Occupancy: 304 ccc: 26579783
ROB Occupancy: 304 ccc: 26590970
ROB Occupancy: 304 ccc: 26605565
ROB Occupancy: 307 ccc: 26615251
ROB Occupancy: 304 ccc: 26640998
ROB Occupancy: 304 ccc: 26668484
ROB Occupancy: 304 ccc: 26695321
ROB Occupancy: 304 ccc: 26722046
ROB Occupancy: 304 ccc: 26741077
ROB Occupancy: 304 ccc: 26770786
ROB Occupancy: 307 ccc: 26867075
ROB Occupancy: 304 ccc: 26884248
ROB Occupancy: 304 ccc: 26887956
ROB Occupancy: 304 ccc: 26892651
ROB Occupancy: 304 ccc: 26893886
ROB Occupancy: 304 ccc: 26946625
ROB Occupancy: 307 ccc: 26971855
ROB Occupancy: 304 ccc: 26985147
ROB Occupancy: 304 ccc: 27006498
ROB Occupancy: 304 ccc: 27040573
ROB Occupancy: 304 ccc: 27079871
ROB Occupancy: 304 ccc: 27098710
ROB Occupancy: 307 ccc: 27103097
ROB Occupancy: 304 ccc: 27147667
ROB Occupancy: 304 ccc: 27156692
ROB Occupancy: 304 ccc: 27192279
ROB Occupancy: 304 ccc: 27201550
ROB Occupancy: 304 ccc: 27210141
ROB Occupancy: 304 ccc: 27237835
ROB Occupancy: 304 ccc: 27240399
ROB Occupancy: 304 ccc: 27242596
ROB Occupancy: 304 ccc: 27259656
ROB Occupancy: 304 ccc: 27287874
ROB Occupancy: 304 ccc: 27304849
ROB Occupancy: 304 ccc: 27355117
ROB Occupancy: 304 ccc: 27359709
ROB Occupancy: 304 ccc: 27389960
ROB Occupancy: 304 ccc: 27435117
ROB Occupancy: 304 ccc: 27503187
ROB Occupancy: 304 ccc: 27530862
ROB Occupancy: 304 ccc: 27547882
ROB Occupancy: 304 ccc: 27586041
ROB Occupancy: 304 ccc: 27634300
ROB Occupancy: 304 ccc: 27660347
ROB Occupancy: 304 ccc: 27689037
ROB Occupancy: 304 ccc: 27737863
ROB Occupancy: 304 ccc: 27765930
ROB Occupancy: 307 ccc: 27786589
ROB Occupancy: 304 ccc: 27790578
ROB Occupancy: 304 ccc: 27810363
ROB Occupancy: 307 ccc: 27834455
ROB Occupancy: 304 ccc: 27838252
ROB Occupancy: 304 ccc: 27840039
ROB Occupancy: 304 ccc: 27849996
ROB Occupancy: 307 ccc: 27897999
ROB Occupancy: 307 ccc: 27907690
ROB Occupancy: 304 ccc: 27911603
ROB Occupancy: 304 ccc: 27940339
ROB Occupancy: 304 ccc: 27957845
ROB Occupancy: 304 ccc: 27968515
ROB Occupancy: 304 ccc: 27982119
ROB Occupancy: 304 ccc: 27995526
ROB Occupancy: 304 ccc: 28004847
ROB Occupancy: 304 ccc: 28014613
ROB Occupancy: 304 ccc: 28043517
ROB Occupancy: 304 ccc: 28047845
ROB Occupancy: 304 ccc: 28048223
ROB Occupancy: 352 ccc: 28052175
ROB Occupancy: 304 ccc: 28066936
ROB Occupancy: 307 ccc: 28135495
ROB Occupancy: 304 ccc: 28139299
ROB Occupancy: 304 ccc: 28148733
ROB Occupancy: 304 ccc: 28157903
ROB Occupancy: 304 ccc: 28167078
ROB Occupancy: 304 ccc: 28179937
ROB Occupancy: 304 ccc: 28241654
ROB Occupancy: 304 ccc: 28267582
ROB Occupancy: 304 ccc: 28309346
ROB Occupancy: 304 ccc: 28346624
ROB Occupancy: 304 ccc: 28355804
ROB Occupancy: 307 ccc: 28395411
ROB Occupancy: 304 ccc: 28399697
ROB Occupancy: 304 ccc: 28417405
ROB Occupancy: 304 ccc: 28448383
ROB Occupancy: 304 ccc: 28457592
ROB Occupancy: 304 ccc: 28476703
ROB Occupancy: 307 ccc: 28497651
ROB Occupancy: 304 ccc: 28550134
ROB Occupancy: 304 ccc: 28570836
ROB Occupancy: 304 ccc: 28580293
ROB Occupancy: 304 ccc: 28594053
ROB Occupancy: 304 ccc: 28608219
ROB Occupancy: 307 ccc: 28648110
ROB Occupancy: 304 ccc: 28652228
ROB Occupancy: 304 ccc: 28661651
ROB Occupancy: 304 ccc: 28674263
ROB Occupancy: 304 ccc: 28710365
ROB Occupancy: 304 ccc: 28755945
ROB Occupancy: 304 ccc: 28775336
ROB Occupancy: 307 ccc: 28853691
ROB Occupancy: 304 ccc: 28857464
ROB Occupancy: 304 ccc: 28866699
ROB Occupancy: 304 ccc: 28884290
ROB Occupancy: 304 ccc: 28905753
ROB Occupancy: 304 ccc: 28932539
ROB Occupancy: 304 ccc: 28960148
ROB Occupancy: 304 ccc: 28976323
ROB Occupancy: 304 ccc: 28986107
ROB Occupancy: 304 ccc: 29014590
ROB Occupancy: 304 ccc: 29061384
ROB Occupancy: 307 ccc: 29082407
ROB Occupancy: 304 ccc: 29104272
ROB Occupancy: 307 ccc: 29110026
ROB Occupancy: 304 ccc: 29162114
ROB Occupancy: 304 ccc: 29170814
ROB Occupancy: 304 ccc: 29175252
ROB Occupancy: 304 ccc: 29180611
ROB Occupancy: 304 ccc: 29215852
ROB Occupancy: 304 ccc: 29233810
ROB Occupancy: 304 ccc: 29252445
ROB Occupancy: 307 ccc: 29257946
ROB Occupancy: 304 ccc: 29263984
ROB Occupancy: 304 ccc: 29292020
ROB Occupancy: 304 ccc: 29337447
ROB Occupancy: 304 ccc: 29365558
ROB Occupancy: 304 ccc: 29395399
ROB Occupancy: 304 ccc: 29432300
ROB Occupancy: 304 ccc: 29439472
ROB Occupancy: 307 ccc: 29463443
ROB Occupancy: 304 ccc: 29468205
ROB Occupancy: 304 ccc: 29477440
ROB Occupancy: 304 ccc: 29486277
ROB Occupancy: 304 ccc: 29545511
ROB Occupancy: 304 ccc: 29571469
ROB Occupancy: 304 ccc: 29581021
ROB Occupancy: 304 ccc: 29590263
ROB Occupancy: 304 ccc: 29599332
ROB Occupancy: 304 ccc: 29647401
ROB Occupancy: 304 ccc: 29675901
ROB Occupancy: 304 ccc: 29683299
ROB Occupancy: 304 ccc: 29718856
ROB Occupancy: 304 ccc: 29736850
ROB Occupancy: 304 ccc: 29827024
ROB Occupancy: 304 ccc: 29865404
ROB Occupancy: 304 ccc: 29883256
ROB Occupancy: 307 ccc: 29914540
ROB Occupancy: 304 ccc: 29918161
ROB Occupancy: 304 ccc: 29935518
ROB Occupancy: 304 ccc: 29973454
ROB Occupancy: 304 ccc: 29983696
ROB Occupancy: 304 ccc: 30019884
ROB Occupancy: 304 ccc: 30027247
ROB Occupancy: 304 ccc: 30054552
ROB Occupancy: 304 ccc: 30063722
ROB Occupancy: 304 ccc: 30080891
ROB Occupancy: 304 ccc: 30083921
ROB Occupancy: 304 ccc: 30092344
ROB Occupancy: 304 ccc: 30136995
ROB Occupancy: 304 ccc: 30170915
ROB Occupancy: 304 ccc: 30180658
ROB Occupancy: 304 ccc: 30189273
ROB Occupancy: 304 ccc: 30219704
ROB Occupancy: 304 ccc: 30239823
ROB Occupancy: 307 ccc: 30260542
ROB Occupancy: 304 ccc: 30264298
ROB Occupancy: 304 ccc: 30281998
ROB Occupancy: 304 ccc: 30290280
ROB Occupancy: 304 ccc: 30337305
ROB Occupancy: 304 ccc: 30382547
ROB Occupancy: 304 ccc: 30390435
ROB Occupancy: 307 ccc: 30414300
ROB Occupancy: 304 ccc: 30427169
ROB Occupancy: 304 ccc: 30438391
ROB Occupancy: 304 ccc: 30519660
ROB Occupancy: 304 ccc: 30528793
ROB Occupancy: 304 ccc: 30537265
ROB Occupancy: 304 ccc: 30620359
ROB Occupancy: 304 ccc: 30629161
ROB Occupancy: 307 ccc: 30661644
ROB Occupancy: 304 ccc: 30665572
ROB Occupancy: 304 ccc: 30669127
ROB Occupancy: 304 ccc: 30686028
ROB Occupancy: 304 ccc: 30722361
ROB Occupancy: 304 ccc: 30739678
ROB Occupancy: 320 ccc: 30767615
ROB Occupancy: 304 ccc: 30775911
ROB Occupancy: 304 ccc: 30780353
ROB Occupancy: 304 ccc: 30785215
ROB Occupancy: 304 ccc: 30797430
ROB Occupancy: 304 ccc: 30825452
ROB Occupancy: 304 ccc: 30834602
ROB Occupancy: 304 ccc: 30838979
ROB Occupancy: 304 ccc: 30868071
ROB Occupancy: 304 ccc: 30876576
ROB Occupancy: 304 ccc: 30885579
ROB Occupancy: 304 ccc: 30894384
ROB Occupancy: 304 ccc: 30907526
ROB Occupancy: 304 ccc: 30965431
ROB Occupancy: 304 ccc: 30974435
ROB Occupancy: 304 ccc: 30991616
ROB Occupancy: 304 ccc: 31018196
ROB Occupancy: 304 ccc: 31031190
ROB Occupancy: 304 ccc: 31032648
ROB Occupancy: 304 ccc: 31041544
ROB Occupancy: 304 ccc: 31068857
ROB Occupancy: 307 ccc: 31081354
ROB Occupancy: 304 ccc: 31085560
ROB Occupancy: 307 ccc: 31090802
ROB Occupancy: 304 ccc: 31130485
ROB Occupancy: 304 ccc: 31141103
ROB Occupancy: 310 ccc: 31193191
ROB Occupancy: 304 ccc: 31229102
ROB Occupancy: 304 ccc: 31267364
ROB Occupancy: 304 ccc: 31280524
ROB Occupancy: 304 ccc: 31319958
ROB Occupancy: 304 ccc: 31338359
ROB Occupancy: 304 ccc: 31368715
ROB Occupancy: 304 ccc: 31378834
ROB Occupancy: 304 ccc: 31386572
ROB Occupancy: 304 ccc: 31396583
ROB Occupancy: 304 ccc: 31431419
ROB Occupancy: 304 ccc: 31468268
ROB Occupancy: 304 ccc: 31486060
ROB Occupancy: 304 ccc: 31497479
ROB Occupancy: 304 ccc: 31525159
ROB Occupancy: 304 ccc: 31543565
ROB Occupancy: 304 ccc: 31568921
ROB Occupancy: 304 ccc: 31577546
ROB Occupancy: 304 ccc: 31586634
ROB Occupancy: 304 ccc: 31625301
ROB Occupancy: 307 ccc: 31664597
ROB Occupancy: 304 ccc: 31668716
ROB Occupancy: 304 ccc: 31677341
ROB Occupancy: 304 ccc: 31677717
ROB Occupancy: 304 ccc: 31687573
ROB Occupancy: 304 ccc: 31696721
ROB Occupancy: 304 ccc: 31725756
ROB Occupancy: 304 ccc: 31726899
ROB Occupancy: 304 ccc: 31743131
ROB Occupancy: 304 ccc: 31771152
ROB Occupancy: 304 ccc: 31776979
ROB Occupancy: 304 ccc: 31786438
ROB Occupancy: 304 ccc: 31795177
ROB Occupancy: 304 ccc: 31822305
ROB Occupancy: 304 ccc: 31831461
ROB Occupancy: 304 ccc: 31835340
ROB Occupancy: 304 ccc: 31842827
ROB Occupancy: 304 ccc: 31880223
ROB Occupancy: 307 ccc: 31902839
ROB Occupancy: 304 ccc: 31906339
ROB Occupancy: 304 ccc: 31915637
ROB Occupancy: 304 ccc: 31966984
ROB Occupancy: 304 ccc: 31985236
ROB Occupancy: 307 ccc: 32017339
ROB Occupancy: 304 ccc: 32021054
ROB Occupancy: 304 ccc: 32053037
ROB Occupancy: 304 ccc: 32088963
ROB Occupancy: 304 ccc: 32117482
ROB Occupancy: 304 ccc: 32134922
ROB Occupancy: 307 ccc: 32185155
ROB Occupancy: 304 ccc: 32189176
ROB Occupancy: 304 ccc: 32221034
ROB Occupancy: 304 ccc: 32235447
ROB Occupancy: 304 ccc: 32249809
ROB Occupancy: 304 ccc: 32276462
ROB Occupancy: 304 ccc: 32325575
ROB Occupancy: 304 ccc: 32353729
ROB Occupancy: 304 ccc: 32400025
ROB Occupancy: 304 ccc: 32440619
ROB Occupancy: 304 ccc: 32457667
ROB Occupancy: 304 ccc: 32558368
ROB Occupancy: 304 ccc: 32603917
ROB Occupancy: 304 ccc: 32621086
ROB Occupancy: 304 ccc: 32630115
ROB Occupancy: 304 ccc: 32638601
ROB Occupancy: 304 ccc: 32642803
ROB Occupancy: 304 ccc: 32687662
ROB Occupancy: 304 ccc: 32734369
ROB Occupancy: 304 ccc: 32750269
ROB Occupancy: 304 ccc: 32773453
ROB Occupancy: 304 ccc: 32836559
ROB Occupancy: 304 ccc: 32841664
ROB Occupancy: 304 ccc: 32850080
ROB Occupancy: 304 ccc: 32899728
ROB Occupancy: 304 ccc: 32940675
ROB Occupancy: 304 ccc: 32995911
ROB Occupancy: 304 ccc: 33010780
ROB Occupancy: 304 ccc: 33038393
ROB Occupancy: 304 ccc: 33047001
ROB Occupancy: 304 ccc: 33074339
ROB Occupancy: 304 ccc: 33110304
ROB Occupancy: 304 ccc: 33119866
ROB Occupancy: 304 ccc: 33148329
ROB Occupancy: 304 ccc: 33160237
ROB Occupancy: 304 ccc: 33164821
ROB Occupancy: 304 ccc: 33169794
ROB Occupancy: 307 ccc: 33220741
ROB Occupancy: 304 ccc: 33261655
ROB Occupancy: 304 ccc: 33271165
ROB Occupancy: 304 ccc: 33311128
ROB Occupancy: 304 ccc: 33329166
ROB Occupancy: 304 ccc: 33346051
ROB Occupancy: 304 ccc: 33355520
ROB Occupancy: 304 ccc: 33374306
ROB Occupancy: 304 ccc: 33433657
ROB Occupancy: 304 ccc: 33537784
ROB Occupancy: 304 ccc: 33566158
ROB Occupancy: 304 ccc: 33579983
ROB Occupancy: 304 ccc: 33582547
ROB Occupancy: 304 ccc: 33637790
ROB Occupancy: 304 ccc: 33686084
ROB Occupancy: 304 ccc: 33720889
ROB Occupancy: 304 ccc: 33769243
ROB Occupancy: 304 ccc: 33788008
ROB Occupancy: 304 ccc: 33797611
ROB Occupancy: 307 ccc: 33819005
ROB Occupancy: 304 ccc: 33841102
ROB Occupancy: 304 ccc: 33881271
ROB Occupancy: 304 ccc: 33898778
ROB Occupancy: 304 ccc: 33966874
ROB Occupancy: 304 ccc: 33972093
ROB Occupancy: 304 ccc: 33990899
ROB Occupancy: 304 ccc: 34044850
ROB Occupancy: 304 ccc: 34048647
ROB Occupancy: 307 ccc: 34071129
ROB Occupancy: 352 ccc: 34130208
ROB Occupancy: 352 ccc: 34132163
ROB Occupancy: 352 ccc: 34134252
ROB Occupancy: 352 ccc: 34139478
ROB Occupancy: 352 ccc: 34141564
ROB Occupancy: 352 ccc: 34143646
ROB Occupancy: 352 ccc: 34145865
ROB Occupancy: 352 ccc: 34151654
ROB Occupancy: 352 ccc: 34153467
ROB Occupancy: 352 ccc: 34155436
ROB Occupancy: 352 ccc: 34157282
ROB Occupancy: 352 ccc: 34159814
ROB Occupancy: 352 ccc: 34161758
ROB Occupancy: 352 ccc: 34164626
ROB Occupancy: 352 ccc: 34167033
ROB Occupancy: 352 ccc: 34168908
ROB Occupancy: 304 ccc: 34170528
ROB Occupancy: 352 ccc: 34172734
ROB Occupancy: 352 ccc: 34176293
ROB Occupancy: 304 ccc: 34177595
ROB Occupancy: 352 ccc: 34178301
ROB Occupancy: 352 ccc: 34180711
ROB Occupancy: 352 ccc: 34182557
ROB Occupancy: 307 ccc: 34182869
ROB Occupancy: 352 ccc: 34184737
ROB Occupancy: 352 ccc: 34186522
ROB Occupancy: 304 ccc: 34186734
ROB Occupancy: 352 ccc: 34189484
ROB Occupancy: 352 ccc: 34191595
ROB Occupancy: 352 ccc: 34195358
ROB Occupancy: 352 ccc: 34197399
ROB Occupancy: 352 ccc: 34201273
ROB Occupancy: 352 ccc: 34203384
ROB Occupancy: 352 ccc: 34207680
ROB Occupancy: 352 ccc: 34210084
ROB Occupancy: 307 ccc: 34210678
ROB Occupancy: 352 ccc: 34212018
ROB Occupancy: 304 ccc: 34214620
ROB Occupancy: 352 ccc: 34215390
ROB Occupancy: 352 ccc: 34219361
ROB Occupancy: 307 ccc: 34219612
ROB Occupancy: 352 ccc: 34221296
ROB Occupancy: 352 ccc: 34223132
ROB Occupancy: 304 ccc: 34223383
ROB Occupancy: 352 ccc: 34226878
ROB Occupancy: 352 ccc: 34231128
ROB Occupancy: 352 ccc: 34232964
ROB Occupancy: 352 ccc: 34235025
ROB Occupancy: 304 ccc: 34236457
ROB Occupancy: 352 ccc: 34237411
ROB Occupancy: 352 ccc: 34243000
ROB Occupancy: 352 ccc: 34244983
ROB Occupancy: 352 ccc: 34246948
ROB Occupancy: 352 ccc: 34249046
ROB Occupancy: 352 ccc: 34254895
ROB Occupancy: 352 ccc: 34257190
ROB Occupancy: 352 ccc: 34258987
ROB Occupancy: 352 ccc: 34261092
ROB Occupancy: 352 ccc: 34263034
ROB Occupancy: 352 ccc: 34266516
ROB Occupancy: 352 ccc: 34268139
ROB Occupancy: 352 ccc: 34270149
ROB Occupancy: 304 ccc: 34271656
ROB Occupancy: 352 ccc: 34271863
ROB Occupancy: 352 ccc: 34273899
ROB Occupancy: 352 ccc: 34277372
ROB Occupancy: 352 ccc: 34279571
ROB Occupancy: 304 ccc: 34280677
ROB Occupancy: 352 ccc: 34281487
ROB Occupancy: 352 ccc: 34284123
ROB Occupancy: 352 ccc: 34285882
ROB Occupancy: 352 ccc: 34288304
ROB Occupancy: 352 ccc: 34291385
ROB Occupancy: 352 ccc: 34293333
ROB Occupancy: 304 ccc: 34294192
ROB Occupancy: 352 ccc: 34294786
ROB Occupancy: 352 ccc: 34296782
ROB Occupancy: 352 ccc: 34298687
ROB Occupancy: 352 ccc: 34302550
ROB Occupancy: 352 ccc: 34304440
ROB Occupancy: 352 ccc: 34307117
ROB Occupancy: 352 ccc: 34309015
ROB Occupancy: 352 ccc: 34311480
ROB Occupancy: 307 ccc: 34312018
ROB Occupancy: 352 ccc: 34313163
ROB Occupancy: 352 ccc: 34316691
ROB Occupancy: 352 ccc: 34318968
ROB Occupancy: 352 ccc: 34320734
ROB Occupancy: 352 ccc: 34323149
ROB Occupancy: 352 ccc: 34325168
ROB Occupancy: 304 ccc: 34325419
ROB Occupancy: 352 ccc: 34328660
ROB Occupancy: 352 ccc: 34330494
ROB Occupancy: 352 ccc: 34332968
ROB Occupancy: 352 ccc: 34334357
ROB Occupancy: 352 ccc: 34336867
ROB Occupancy: 352 ccc: 34342070
ROB Occupancy: 304 ccc: 34343182
ROB Occupancy: 352 ccc: 34343788
ROB Occupancy: 352 ccc: 34345927
ROB Occupancy: 352 ccc: 34347494
ROB Occupancy: 352 ccc: 34352922
ROB Occupancy: 352 ccc: 34355557
ROB Occupancy: 352 ccc: 34357426
ROB Occupancy: 352 ccc: 34359848
ROB Occupancy: 352 ccc: 34361693
ROB Occupancy: 352 ccc: 34363656
ROB Occupancy: 352 ccc: 34366424
ROB Occupancy: 352 ccc: 34368932
ROB Occupancy: 352 ccc: 34370464
ROB Occupancy: 304 ccc: 34372284
ROB Occupancy: 352 ccc: 34374737
ROB Occupancy: 352 ccc: 34378291
ROB Occupancy: 352 ccc: 34380475
ROB Occupancy: 352 ccc: 34382786
ROB Occupancy: 352 ccc: 34385010
ROB Occupancy: 304 ccc: 34386715
ROB Occupancy: 352 ccc: 34386955
ROB Occupancy: 352 ccc: 34389943
ROB Occupancy: 304 ccc: 34391956
ROB Occupancy: 352 ccc: 34392966
ROB Occupancy: 352 ccc: 34395371
ROB Occupancy: 352 ccc: 34398666
ROB Occupancy: 352 ccc: 34400534
ROB Occupancy: 352 ccc: 34403931
ROB Occupancy: 304 ccc: 34404453
ROB Occupancy: 352 ccc: 34405523
ROB Occupancy: 352 ccc: 34409781
ROB Occupancy: 352 ccc: 34411975
ROB Occupancy: 307 ccc: 34413111
ROB Occupancy: 352 ccc: 34414163
ROB Occupancy: 304 ccc: 34417188
ROB Occupancy: 352 ccc: 34418204
ROB Occupancy: 352 ccc: 34419700
ROB Occupancy: 352 ccc: 34421725
ROB Occupancy: 307 ccc: 34421976
ROB Occupancy: 352 ccc: 34423128
ROB Occupancy: 352 ccc: 34425460
ROB Occupancy: 304 ccc: 34425711
ROB Occupancy: 352 ccc: 34428593
ROB Occupancy: 352 ccc: 34432654
ROB Occupancy: 304 ccc: 34434497
ROB Occupancy: 352 ccc: 34434808
ROB Occupancy: 352 ccc: 34436648
ROB Occupancy: 352 ccc: 34438658
ROB Occupancy: 304 ccc: 34443386
ROB Occupancy: 350 ccc: 34444020
ROB Occupancy: 352 ccc: 34446199
ROB Occupancy: 352 ccc: 34447859
ROB Occupancy: 352 ccc: 34450142
ROB Occupancy: 352 ccc: 34455628
ROB Occupancy: 304 ccc: 34456736
ROB Occupancy: 352 ccc: 34457389
ROB Occupancy: 352 ccc: 34459845
ROB Occupancy: 352 ccc: 34461703
ROB Occupancy: 352 ccc: 34464130
ROB Occupancy: 352 ccc: 34467186
ROB Occupancy: 352 ccc: 34469298
ROB Occupancy: 304 ccc: 34470485
ROB Occupancy: 352 ccc: 34470908
ROB Occupancy: 304 ccc: 34472434
ROB Occupancy: 352 ccc: 34472810
ROB Occupancy: 352 ccc: 34474318
ROB Occupancy: 352 ccc: 34478364
ROB Occupancy: 352 ccc: 34480043
ROB Occupancy: 352 ccc: 34482637
ROB Occupancy: 352 ccc: 34484313
ROB Occupancy: 352 ccc: 34486663
ROB Occupancy: 352 ccc: 34488147
ROB Occupancy: 352 ccc: 34491730
ROB Occupancy: 352 ccc: 34493345
ROB Occupancy: 352 ccc: 34495737
ROB Occupancy: 352 ccc: 34497123
ROB Occupancy: 352 ccc: 34499330
ROB Occupancy: 352 ccc: 34503442
ROB Occupancy: 352 ccc: 34505577
ROB Occupancy: 352 ccc: 34507841
ROB Occupancy: 352 ccc: 34509573
ROB Occupancy: 352 ccc: 34512572
ROB Occupancy: 352 ccc: 34514279
ROB Occupancy: 352 ccc: 34517545
ROB Occupancy: 304 ccc: 34518814
ROB Occupancy: 352 ccc: 34519663
ROB Occupancy: 352 ccc: 34521804
ROB Occupancy: 352 ccc: 34523620
ROB Occupancy: 352 ccc: 34525632
ROB Occupancy: 352 ccc: 34529319
ROB Occupancy: 348 ccc: 34531823
ROB Occupancy: 352 ccc: 34533320
ROB Occupancy: 352 ccc: 34535950
ROB Occupancy: 352 ccc: 34537582
ROB Occupancy: 352 ccc: 34542506
ROB Occupancy: 304 ccc: 34543835
ROB Occupancy: 352 ccc: 34544647
ROB Occupancy: 352 ccc: 34546133
ROB Occupancy: 352 ccc: 34548277
ROB Occupancy: 352 ccc: 34553760
ROB Occupancy: 352 ccc: 34555701
ROB Occupancy: 304 ccc: 34557696
ROB Occupancy: 352 ccc: 34558522
ROB Occupancy: 352 ccc: 34560259
ROB Occupancy: 352 ccc: 34562431
ROB Occupancy: 352 ccc: 34564231
ROB Occupancy: 307 ccc: 34567585
ROB Occupancy: 352 ccc: 34567781
ROB Occupancy: 352 ccc: 34571167
ROB Occupancy: 352 ccc: 34573019
ROB Occupancy: 352 ccc: 34574770
ROB Occupancy: 352 ccc: 34576767
ROB Occupancy: 352 ccc: 34580091
ROB Occupancy: 304 ccc: 34581077
ROB Occupancy: 352 ccc: 34581912
ROB Occupancy: 352 ccc: 34584537
ROB Occupancy: 352 ccc: 34586305
ROB Occupancy: 352 ccc: 34588496
ROB Occupancy: 352 ccc: 34590260
ROB Occupancy: 304 ccc: 34592747
ROB Occupancy: 352 ccc: 34593979
ROB Occupancy: 352 ccc: 34595941
ROB Occupancy: 352 ccc: 34600067
ROB Occupancy: 352 ccc: 34602499
ROB Occupancy: 352 ccc: 34605669
ROB Occupancy: 352 ccc: 34608254
ROB Occupancy: 352 ccc: 34611907
ROB Occupancy: 352 ccc: 34613706
ROB Occupancy: 352 ccc: 34615767
ROB Occupancy: 352 ccc: 34619248
ROB Occupancy: 310 ccc: 34620454
ROB Occupancy: 304 ccc: 34621720
ROB Occupancy: 352 ccc: 34623290
ROB Occupancy: 352 ccc: 34625084
ROB Occupancy: 352 ccc: 34627046
ROB Occupancy: 304 ccc: 34629320
ROB Occupancy: 352 ccc: 34630715
ROB Occupancy: 352 ccc: 34635531
ROB Occupancy: 352 ccc: 34637387
ROB Occupancy: 352 ccc: 34639497
ROB Occupancy: 352 ccc: 34641682
ROB Occupancy: 352 ccc: 34646602
ROB Occupancy: 352 ccc: 34648551
ROB Occupancy: 352 ccc: 34650403
ROB Occupancy: 352 ccc: 34652220
ROB Occupancy: 352 ccc: 34657772
ROB Occupancy: 304 ccc: 34659297
ROB Occupancy: 352 ccc: 34660373
ROB Occupancy: 352 ccc: 34662283
ROB Occupancy: 352 ccc: 34664917
ROB Occupancy: 352 ccc: 34666843
ROB Occupancy: 307 ccc: 34669710
ROB Occupancy: 352 ccc: 34669910
ROB Occupancy: 352 ccc: 34671541
ROB Occupancy: 304 ccc: 34673229
ROB Occupancy: 352 ccc: 34673859
ROB Occupancy: 352 ccc: 34675661
ROB Occupancy: 352 ccc: 34677983
ROB Occupancy: 352 ccc: 34681717
ROB Occupancy: 352 ccc: 34683710
ROB Occupancy: 352 ccc: 34685651
ROB Occupancy: 352 ccc: 34687498
ROB Occupancy: 352 ccc: 34689827
ROB Occupancy: 352 ccc: 34691595
ROB Occupancy: 304 ccc: 34691907
ROB Occupancy: 352 ccc: 34695044
ROB Occupancy: 352 ccc: 34696847
ROB Occupancy: 352 ccc: 34698974
ROB Occupancy: 352 ccc: 34700634
ROB Occupancy: 352 ccc: 34702395
ROB Occupancy: 352 ccc: 34706114
ROB Occupancy: 352 ccc: 34708174
ROB Occupancy: 352 ccc: 34710567
ROB Occupancy: 352 ccc: 34712558
ROB Occupancy: 352 ccc: 34714862
ROB Occupancy: 352 ccc: 34716644
ROB Occupancy: 352 ccc: 34720096
ROB Occupancy: 304 ccc: 34721157
ROB Occupancy: 352 ccc: 34722046
ROB Occupancy: 352 ccc: 34724132
ROB Occupancy: 352 ccc: 34726147
ROB Occupancy: 352 ccc: 34727849
ROB Occupancy: 304 ccc: 34730003
ROB Occupancy: 304 ccc: 34731144
ROB Occupancy: 352 ccc: 34731267
ROB Occupancy: 352 ccc: 34733307
ROB Occupancy: 352 ccc: 34735908
ROB Occupancy: 352 ccc: 34737542
ROB Occupancy: 304 ccc: 34739659
ROB Occupancy: 352 ccc: 34740056
ROB Occupancy: 352 ccc: 34745526
ROB Occupancy: 352 ccc: 34747333
ROB Occupancy: 304 ccc: 34748744
ROB Occupancy: 352 ccc: 34749431
ROB Occupancy: 352 ccc: 34751688
ROB Occupancy: 352 ccc: 34757184
ROB Occupancy: 352 ccc: 34759114
ROB Occupancy: 352 ccc: 34760995
ROB Occupancy: 352 ccc: 34762642
ROB Occupancy: 352 ccc: 34766818
ROB Occupancy: 307 ccc: 34770159
ROB Occupancy: 352 ccc: 34770355
ROB Occupancy: 352 ccc: 34772584
ROB Occupancy: 352 ccc: 34774896
ROB Occupancy: 352 ccc: 34776653
ROB Occupancy: 352 ccc: 34778606
ROB Occupancy: 352 ccc: 34782153
ROB Occupancy: 352 ccc: 34784174
ROB Occupancy: 352 ccc: 34786279
ROB Occupancy: 352 ccc: 34788233
ROB Occupancy: 352 ccc: 34790159
ROB Occupancy: 352 ccc: 34791942
ROB Occupancy: 352 ccc: 34795290
ROB Occupancy: 352 ccc: 34797264
ROB Occupancy: 352 ccc: 34801319
ROB Occupancy: 352 ccc: 34803571
ROB Occupancy: 352 ccc: 34806911
ROB Occupancy: 352 ccc: 34808908
ROB Occupancy: 352 ccc: 34812847
ROB Occupancy: 352 ccc: 34815399
ROB Occupancy: 307 ccc: 34815999
ROB Occupancy: 352 ccc: 34817041
ROB Occupancy: 304 ccc: 34819931
ROB Occupancy: 352 ccc: 34820876
ROB Occupancy: 304 ccc: 34823006
ROB Occupancy: 352 ccc: 34824799
ROB Occupancy: 352 ccc: 34826558
ROB Occupancy: 352 ccc: 34828297
ROB Occupancy: 304 ccc: 34830962
ROB Occupancy: 352 ccc: 34832238
ROB Occupancy: 352 ccc: 34836334
ROB Occupancy: 352 ccc: 34837910
ROB Occupancy: 352 ccc: 34841035
ROB Occupancy: 352 ccc: 34842895
ROB Occupancy: 352 ccc: 34848785
ROB Occupancy: 304 ccc: 34850170
ROB Occupancy: 352 ccc: 34850762
ROB Occupancy: 352 ccc: 34852456
ROB Occupancy: 352 ccc: 34854575
ROB Occupancy: 352 ccc: 34860181
ROB Occupancy: 352 ccc: 34862084
ROB Occupancy: 352 ccc: 34864048
ROB Occupancy: 352 ccc: 34866278
ROB Occupancy: 352 ccc: 34868133
ROB Occupancy: 352 ccc: 34871269
ROB Occupancy: 352 ccc: 34873288
ROB Occupancy: 352 ccc: 34875508
ROB Occupancy: 352 ccc: 34877320
ROB Occupancy: 352 ccc: 34879077
ROB Occupancy: 352 ccc: 34882679
ROB Occupancy: 352 ccc: 34884799
ROB Occupancy: 352 ccc: 34887244
ROB Occupancy: 352 ccc: 34888950
ROB Occupancy: 352 ccc: 34891418
ROB Occupancy: 352 ccc: 34893533
ROB Occupancy: 352 ccc: 34897200
ROB Occupancy: 352 ccc: 34899189
ROB Occupancy: 352 ccc: 34901199
ROB Occupancy: 352 ccc: 34903371
ROB Occupancy: 352 ccc: 34904845
ROB Occupancy: 352 ccc: 34908176
ROB Occupancy: 342 ccc: 34910339
ROB Occupancy: 304 ccc: 34911851
ROB Occupancy: 352 ccc: 34912660
ROB Occupancy: 352 ccc: 34914568
ROB Occupancy: 304 ccc: 34916770
ROB Occupancy: 352 ccc: 34917147
ROB Occupancy: 352 ccc: 34919191
ROB Occupancy: 352 ccc: 34922492
ROB Occupancy: 352 ccc: 34924505
ROB Occupancy: 352 ccc: 34926358
ROB Occupancy: 352 ccc: 34928506
ROB Occupancy: 352 ccc: 34930345
ROB Occupancy: 304 ccc: 34930596
ROB Occupancy: 352 ccc: 34934091
ROB Occupancy: 342 ccc: 34935817
ROB Occupancy: 352 ccc: 34938112
ROB Occupancy: 352 ccc: 34940138
ROB Occupancy: 352 ccc: 34942233
ROB Occupancy: 352 ccc: 34947830
ROB Occupancy: 352 ccc: 34949625
ROB Occupancy: 352 ccc: 34951770
ROB Occupancy: 352 ccc: 34953500
ROB Occupancy: 352 ccc: 34955364
ROB Occupancy: 352 ccc: 34958897
ROB Occupancy: 352 ccc: 34961299
ROB Occupancy: 352 ccc: 34963277
ROB Occupancy: 352 ccc: 34965335
ROB Occupancy: 352 ccc: 34969325
ROB Occupancy: 352 ccc: 34972732
ROB Occupancy: 352 ccc: 34974820
ROB Occupancy: 352 ccc: 34976609
ROB Occupancy: 304 ccc: 34978109
ROB Occupancy: 352 ccc: 34980589
ROB Occupancy: 352 ccc: 34984304
ROB Occupancy: 352 ccc: 34986125
ROB Occupancy: 352 ccc: 34988783
ROB Occupancy: 352 ccc: 34993016
ROB Occupancy: 352 ccc: 34994742
ROB Occupancy: 304 ccc: 34997230
ROB Occupancy: 352 ccc: 34998375
ROB Occupancy: 352 ccc: 35000433
ROB Occupancy: 352 ccc: 35002275
ROB Occupancy: 352 ccc: 35004093
ROB Occupancy: 352 ccc: 35005704
ROB Occupancy: 352 ccc: 35009257
ROB Occupancy: 342 ccc: 35011037
ROB Occupancy: 352 ccc: 35013277
ROB Occupancy: 352 ccc: 35015007
ROB Occupancy: 352 ccc: 35017371
ROB Occupancy: 352 ccc: 35019484
ROB Occupancy: 304 ccc: 35022407
ROB Occupancy: 352 ccc: 35023193
ROB Occupancy: 352 ccc: 35025331
ROB Occupancy: 352 ccc: 35027248
ROB Occupancy: 352 ccc: 35028959
ROB Occupancy: 352 ccc: 35031220
ROB Occupancy: 352 ccc: 35034592
ROB Occupancy: 352 ccc: 35038492
ROB Occupancy: 352 ccc: 35040543
ROB Occupancy: 352 ccc: 35042682
ROB Occupancy: 352 ccc: 35044288
ROB Occupancy: 350 ccc: 35049345
ROB Occupancy: 352 ccc: 35051488
ROB Occupancy: 352 ccc: 35053508
ROB Occupancy: 352 ccc: 35055281
ROB Occupancy: 352 ccc: 35061442
ROB Occupancy: 352 ccc: 35063522
ROB Occupancy: 352 ccc: 35065627
ROB Occupancy: 352 ccc: 35067783
ROB Occupancy: 352 ccc: 35070031
ROB Occupancy: 352 ccc: 35073151
ROB Occupancy: 352 ccc: 35075065
ROB Occupancy: 352 ccc: 35077016
ROB Occupancy: 352 ccc: 35079090
ROB Occupancy: 352 ccc: 35080805
ROB Occupancy: 352 ccc: 35084469
ROB Occupancy: 352 ccc: 35086103
ROB Occupancy: 352 ccc: 35088488
ROB Occupancy: 352 ccc: 35090561
ROB Occupancy: 352 ccc: 35093129
ROB Occupancy: 352 ccc: 35095302
ROB Occupancy: 304 ccc: 35097580
ROB Occupancy: 352 ccc: 35098844
ROB Occupancy: 352 ccc: 35100206
ROB Occupancy: 352 ccc: 35102920
ROB Occupancy: 352 ccc: 35104366
ROB Occupancy: 352 ccc: 35106545
ROB Occupancy: 352 ccc: 35110139
ROB Occupancy: 352 ccc: 35113118
ROB Occupancy: 352 ccc: 35115388
ROB Occupancy: 352 ccc: 35117306
ROB Occupancy: 352 ccc: 35119592
ROB Occupancy: 307 ccc: 35120199
ROB Occupancy: 352 ccc: 35121317
ROB Occupancy: 304 ccc: 35124381
ROB Occupancy: 352 ccc: 35125307
ROB Occupancy: 352 ccc: 35127024
ROB Occupancy: 352 ccc: 35129115
ROB Occupancy: 352 ccc: 35130936
ROB Occupancy: 352 ccc: 35132794
ROB Occupancy: 352 ccc: 35135901
ROB Occupancy: 352 ccc: 35138201
ROB Occupancy: 352 ccc: 35140452
ROB Occupancy: 304 ccc: 35142220
ROB Occupancy: 352 ccc: 35142347
ROB Occupancy: 352 ccc: 35144264
ROB Occupancy: 352 ccc: 35150022
ROB Occupancy: 352 ccc: 35152049
ROB Occupancy: 352 ccc: 35153465
ROB Occupancy: 352 ccc: 35155304
ROB Occupancy: 352 ccc: 35160964
ROB Occupancy: 330 ccc: 35162928
ROB Occupancy: 352 ccc: 35165734
ROB Occupancy: 352 ccc: 35167282
ROB Occupancy: 352 ccc: 35169526
ROB Occupancy: 352 ccc: 35171155
ROB Occupancy: 307 ccc: 35174886
ROB Occupancy: 352 ccc: 35175083
ROB Occupancy: 352 ccc: 35177268
ROB Occupancy: 352 ccc: 35179266
ROB Occupancy: 304 ccc: 35180756
ROB Occupancy: 352 ccc: 35182966
ROB Occupancy: 352 ccc: 35186989
ROB Occupancy: 352 ccc: 35188803
ROB Occupancy: 352 ccc: 35190616
ROB Occupancy: 304 ccc: 35191110
ROB Occupancy: 352 ccc: 35192400
ROB Occupancy: 352 ccc: 35194851
ROB Occupancy: 352 ccc: 35196498
ROB Occupancy: 304 ccc: 35199307
ROB Occupancy: 352 ccc: 35200453
ROB Occupancy: 352 ccc: 35202454
ROB Occupancy: 352 ccc: 35206166
ROB Occupancy: 352 ccc: 35208268
ROB Occupancy: 352 ccc: 35211853
ROB Occupancy: 352 ccc: 35214148
ROB Occupancy: 352 ccc: 35216314
ROB Occupancy: 352 ccc: 35218150
ROB Occupancy: 352 ccc: 35220405
ROB Occupancy: 352 ccc: 35222183
ROB Occupancy: 352 ccc: 35225268
ROB Occupancy: 352 ccc: 35229012
ROB Occupancy: 352 ccc: 35231417
ROB Occupancy: 352 ccc: 35232995
ROB Occupancy: 352 ccc: 35237128
ROB Occupancy: 307 ccc: 35239071
ROB Occupancy: 352 ccc: 35241294
ROB Occupancy: 352 ccc: 35243087
ROB Occupancy: 352 ccc: 35245979
ROB Occupancy: 352 ccc: 35248241
ROB Occupancy: 307 ccc: 35249062
ROB Occupancy: 350 ccc: 35253570
ROB Occupancy: 352 ccc: 35255652
ROB Occupancy: 352 ccc: 35257904
ROB Occupancy: 352 ccc: 35259641
ROB Occupancy: 352 ccc: 35265084
ROB Occupancy: 352 ccc: 35267501
ROB Occupancy: 352 ccc: 35269755
ROB Occupancy: 352 ccc: 35272341
ROB Occupancy: 352 ccc: 35274032
ROB Occupancy: 307 ccc: 35276982
ROB Occupancy: 352 ccc: 35277200
ROB Occupancy: 352 ccc: 35279127
ROB Occupancy: 352 ccc: 35281403
ROB Occupancy: 352 ccc: 35283176
ROB Occupancy: 352 ccc: 35285018
ROB Occupancy: 352 ccc: 35288454
ROB Occupancy: 352 ccc: 35290503
ROB Occupancy: 352 ccc: 35292676
ROB Occupancy: 352 ccc: 35295171
ROB Occupancy: 352 ccc: 35297401
ROB Occupancy: 352 ccc: 35299069
ROB Occupancy: 304 ccc: 35301335
ROB Occupancy: 352 ccc: 35302743
ROB Occupancy: 352 ccc: 35304684
ROB Occupancy: 352 ccc: 35307018
ROB Occupancy: 352 ccc: 35308840
ROB Occupancy: 352 ccc: 35310602
ROB Occupancy: 352 ccc: 35313712
ROB Occupancy: 342 ccc: 35315663
ROB Occupancy: 352 ccc: 35318114
ROB Occupancy: 352 ccc: 35319659
ROB Occupancy: 352 ccc: 35322201
ROB Occupancy: 352 ccc: 35324022
ROB Occupancy: 352 ccc: 35327548
ROB Occupancy: 304 ccc: 35328499
ROB Occupancy: 352 ccc: 35329472
ROB Occupancy: 352 ccc: 35331068
ROB Occupancy: 352 ccc: 35333036
ROB Occupancy: 352 ccc: 35334767
ROB Occupancy: 352 ccc: 35338435
ROB Occupancy: 348 ccc: 35340490
ROB Occupancy: 352 ccc: 35343170
ROB Occupancy: 352 ccc: 35344963
ROB Occupancy: 352 ccc: 35346777
ROB Occupancy: 352 ccc: 35352147
ROB Occupancy: 310 ccc: 35353496
ROB Occupancy: 352 ccc: 35354303
ROB Occupancy: 352 ccc: 35356311
ROB Occupancy: 352 ccc: 35358041
ROB Occupancy: 352 ccc: 35359920
ROB Occupancy: 352 ccc: 35363606
ROB Occupancy: 352 ccc: 35365531
ROB Occupancy: 352 ccc: 35367853
ROB Occupancy: 352 ccc: 35369399
ROB Occupancy: 352 ccc: 35371914
ROB Occupancy: 352 ccc: 35373638
ROB Occupancy: 307 ccc: 35377433
ROB Occupancy: 352 ccc: 35377629
ROB Occupancy: 352 ccc: 35379637
ROB Occupancy: 304 ccc: 35381104
ROB Occupancy: 352 ccc: 35381341
ROB Occupancy: 352 ccc: 35383519
ROB Occupancy: 352 ccc: 35385331
ROB Occupancy: 352 ccc: 35388849
ROB Occupancy: 304 ccc: 35389467
ROB Occupancy: 304 ccc: 35389872
ROB Occupancy: 352 ccc: 35390542
ROB Occupancy: 352 ccc: 35392859
ROB Occupancy: 352 ccc: 35394648
ROB Occupancy: 307 ccc: 35394960
ROB Occupancy: 352 ccc: 35397075
ROB Occupancy: 352 ccc: 35398999
ROB Occupancy: 304 ccc: 35399311
ROB Occupancy: 352 ccc: 35402356
ROB Occupancy: 352 ccc: 35404166
ROB Occupancy: 352 ccc: 35408272
ROB Occupancy: 352 ccc: 35410705
ROB Occupancy: 352 ccc: 35414692
ROB Occupancy: 352 ccc: 35416914
ROB Occupancy: 352 ccc: 35420682
ROB Occupancy: 352 ccc: 35423078
ROB Occupancy: 352 ccc: 35424957
ROB Occupancy: 352 ccc: 35428555
ROB Occupancy: 304 ccc: 35429503
ROB Occupancy: 352 ccc: 35432261
ROB Occupancy: 352 ccc: 35434482
ROB Occupancy: 352 ccc: 35436313
ROB Occupancy: 352 ccc: 35439688
ROB Occupancy: 352 ccc: 35443910
ROB Occupancy: 352 ccc: 35445990
ROB Occupancy: 352 ccc: 35448100
ROB Occupancy: 352 ccc: 35449737
ROB Occupancy: 350 ccc: 35455034
ROB Occupancy: 352 ccc: 35456689
ROB Occupancy: 352 ccc: 35458947
ROB Occupancy: 352 ccc: 35460569
ROB Occupancy: 352 ccc: 35465880
ROB Occupancy: 352 ccc: 35468574
ROB Occupancy: 304 ccc: 35469612
ROB Occupancy: 352 ccc: 35470039
ROB Occupancy: 352 ccc: 35472160
ROB Occupancy: 352 ccc: 35474251
ROB Occupancy: 307 ccc: 35477503
ROB Occupancy: 352 ccc: 35477800
ROB Occupancy: 352 ccc: 35479590
ROB Occupancy: 304 ccc: 35481956
ROB Occupancy: 352 ccc: 35482594
ROB Occupancy: 352 ccc: 35484295
ROB Occupancy: 352 ccc: 35486098
ROB Occupancy: 307 ccc: 35486897
ROB Occupancy: 352 ccc: 35489687
ROB Occupancy: 304 ccc: 35490720
ROB Occupancy: 352 ccc: 35491350
ROB Occupancy: 352 ccc: 35493896
ROB Occupancy: 310 ccc: 35494997
ROB Occupancy: 352 ccc: 35495410
ROB Occupancy: 352 ccc: 35497863
ROB Occupancy: 352 ccc: 35499913
ROB Occupancy: 352 ccc: 35503513
ROB Occupancy: 352 ccc: 35505283
ROB Occupancy: 352 ccc: 35507648
ROB Occupancy: 352 ccc: 35509056
ROB Occupancy: 352 ccc: 35510685
ROB Occupancy: 352 ccc: 35514249
ROB Occupancy: 352 ccc: 35516738
ROB Occupancy: 304 ccc: 35518026
ROB Occupancy: 352 ccc: 35519074
ROB Occupancy: 352 ccc: 35520854
ROB Occupancy: 304 ccc: 35522435
ROB Occupancy: 352 ccc: 35522772
ROB Occupancy: 352 ccc: 35524504
ROB Occupancy: 304 ccc: 35526534
ROB Occupancy: 304 ccc: 35526922
ROB Occupancy: 352 ccc: 35527679
ROB Occupancy: 304 ccc: 35529266
ROB Occupancy: 352 ccc: 35530330
ROB Occupancy: 352 ccc: 35531948
ROB Occupancy: 352 ccc: 35534165
ROB Occupancy: 352 ccc: 35535669
ROB Occupancy: 352 ccc: 35539533
ROB Occupancy: 352 ccc: 35540889
ROB Occupancy: 352 ccc: 35543911
ROB Occupancy: 352 ccc: 35545335
ROB Occupancy: 352 ccc: 35547701
ROB Occupancy: 352 ccc: 35549941
ROB Occupancy: 352 ccc: 35554039
ROB Occupancy: 352 ccc: 35556083
ROB Occupancy: 352 ccc: 35557865
ROB Occupancy: 352 ccc: 35560174
ROB Occupancy: 352 ccc: 35566720
ROB Occupancy: 352 ccc: 35568256
ROB Occupancy: 352 ccc: 35570461
ROB Occupancy: 304 ccc: 35571343
ROB Occupancy: 352 ccc: 35571938
ROB Occupancy: 352 ccc: 35576337
ROB Occupancy: 352 ccc: 35579501
ROB Occupancy: 352 ccc: 35581204
ROB Occupancy: 352 ccc: 35583032
ROB Occupancy: 304 ccc: 35584532
ROB Occupancy: 352 ccc: 35587172
ROB Occupancy: 307 ccc: 35588068
ROB Occupancy: 352 ccc: 35590427
ROB Occupancy: 352 ccc: 35592598
ROB Occupancy: 352 ccc: 35593978
ROB Occupancy: 352 ccc: 35595931
ROB Occupancy: 352 ccc: 35597576
ROB Occupancy: 352 ccc: 35599819
ROB Occupancy: 352 ccc: 35602727
ROB Occupancy: 352 ccc: 35605486
ROB Occupancy: 352 ccc: 35609406
ROB Occupancy: 352 ccc: 35611430
ROB Occupancy: 352 ccc: 35614502
ROB Occupancy: 342 ccc: 35616356
ROB Occupancy: 352 ccc: 35621023
ROB Occupancy: 352 ccc: 35623170
ROB Occupancy: 352 ccc: 35625101
ROB Occupancy: 304 ccc: 35627662
ROB Occupancy: 352 ccc: 35628432
ROB Occupancy: 352 ccc: 35632077
ROB Occupancy: 307 ccc: 35632328
ROB Occupancy: 352 ccc: 35634513
ROB Occupancy: 352 ccc: 35636223
ROB Occupancy: 320 ccc: 35636481
ROB Occupancy: 352 ccc: 35639706
ROB Occupancy: 304 ccc: 35640228
ROB Occupancy: 352 ccc: 35643560
ROB Occupancy: 352 ccc: 35645239
ROB Occupancy: 352 ccc: 35647422
ROB Occupancy: 352 ccc: 35649066
ROB Occupancy: 352 ccc: 35654389
ROB Occupancy: 304 ccc: 35656537
ROB Occupancy: 352 ccc: 35657234
ROB Occupancy: 352 ccc: 35658620
ROB Occupancy: 352 ccc: 35660907
ROB Occupancy: 352 ccc: 35666288
ROB Occupancy: 352 ccc: 35667852
ROB Occupancy: 352 ccc: 35670680
ROB Occupancy: 352 ccc: 35672391
ROB Occupancy: 352 ccc: 35674477
ROB Occupancy: 352 ccc: 35678157
ROB Occupancy: 352 ccc: 35679864
ROB Occupancy: 352 ccc: 35681783
ROB Occupancy: 304 ccc: 35683266
ROB Occupancy: 352 ccc: 35683641
ROB Occupancy: 352 ccc: 35685526
ROB Occupancy: 352 ccc: 35688671
ROB Occupancy: 352 ccc: 35691258
ROB Occupancy: 352 ccc: 35693654
ROB Occupancy: 352 ccc: 35695624
ROB Occupancy: 352 ccc: 35697591
ROB Occupancy: 352 ccc: 35699446
ROB Occupancy: 304 ccc: 35701325
ROB Occupancy: 352 ccc: 35702410
ROB Occupancy: 352 ccc: 35704870
ROB Occupancy: 352 ccc: 35706663
ROB Occupancy: 352 ccc: 35708812
ROB Occupancy: 352 ccc: 35710378
ROB Occupancy: 352 ccc: 35714143
ROB Occupancy: 352 ccc: 35715826
ROB Occupancy: 352 ccc: 35718302
ROB Occupancy: 352 ccc: 35719872
ROB Occupancy: 352 ccc: 35722148
ROB Occupancy: 352 ccc: 35723989
ROB Occupancy: 352 ccc: 35727661
ROB Occupancy: 352 ccc: 35729450
ROB Occupancy: 352 ccc: 35731342
ROB Occupancy: 352 ccc: 35733325
ROB Occupancy: 352 ccc: 35734964
ROB Occupancy: 304 ccc: 35735215
ROB Occupancy: 352 ccc: 35738743
ROB Occupancy: 352 ccc: 35740950
ROB Occupancy: 352 ccc: 35743585
ROB Occupancy: 352 ccc: 35745418
ROB Occupancy: 352 ccc: 35747864
ROB Occupancy: 352 ccc: 35753835
ROB Occupancy: 304 ccc: 35754846
ROB Occupancy: 352 ccc: 35755470
ROB Occupancy: 352 ccc: 35757232
ROB Occupancy: 352 ccc: 35759324
ROB Occupancy: 352 ccc: 35765092
ROB Occupancy: 352 ccc: 35767394
ROB Occupancy: 352 ccc: 35769318
ROB Occupancy: 352 ccc: 35771709
ROB Occupancy: 352 ccc: 35775872
ROB Occupancy: 352 ccc: 35778865
ROB Occupancy: 352 ccc: 35781508
ROB Occupancy: 352 ccc: 35782937
ROB Occupancy: 304 ccc: 35784799
ROB Occupancy: 352 ccc: 35785159
ROB Occupancy: 352 ccc: 35787014
ROB Occupancy: 352 ccc: 35790246
ROB Occupancy: 352 ccc: 35791853
ROB Occupancy: 352 ccc: 35794399
ROB Occupancy: 352 ccc: 35796448
ROB Occupancy: 352 ccc: 35799335
ROB Occupancy: 352 ccc: 35801020
ROB Occupancy: 304 ccc: 35802929
ROB Occupancy: 352 ccc: 35804040
ROB Occupancy: 352 ccc: 35806045
ROB Occupancy: 352 ccc: 35809969
ROB Occupancy: 352 ccc: 35812041
ROB Occupancy: 352 ccc: 35815749
ROB Occupancy: 352 ccc: 35817683
ROB Occupancy: 352 ccc: 35821781
ROB Occupancy: 352 ccc: 35824362
ROB Occupancy: 307 ccc: 35825059
ROB Occupancy: 352 ccc: 35826062
ROB Occupancy: 304 ccc: 35828650
ROB Occupancy: 352 ccc: 35829496
ROB Occupancy: 352 ccc: 35834577
ROB Occupancy: 307 ccc: 35834828
ROB Occupancy: 352 ccc: 35836377
ROB Occupancy: 352 ccc: 35838158
ROB Occupancy: 352 ccc: 35841431
ROB Occupancy: 352 ccc: 35845271
ROB Occupancy: 320 ccc: 35847619
ROB Occupancy: 352 ccc: 35847923
ROB Occupancy: 352 ccc: 35850086
ROB Occupancy: 352 ccc: 35852017
ROB Occupancy: 352 ccc: 35857542
ROB Occupancy: 352 ccc: 35859294
ROB Occupancy: 352 ccc: 35860852
ROB Occupancy: 352 ccc: 35862708
ROB Occupancy: 352 ccc: 35868490
ROB Occupancy: 352 ccc: 35871028
ROB Occupancy: 352 ccc: 35872801
ROB Occupancy: 352 ccc: 35874893
ROB Occupancy: 352 ccc: 35876715
ROB Occupancy: 352 ccc: 35879887
ROB Occupancy: 352 ccc: 35882188
ROB Occupancy: 352 ccc: 35884194
ROB Occupancy: 304 ccc: 35885738
ROB Occupancy: 352 ccc: 35886114
ROB Occupancy: 352 ccc: 35887993
ROB Occupancy: 352 ccc: 35891728
ROB Occupancy: 352 ccc: 35893681
ROB Occupancy: 352 ccc: 35895688
ROB Occupancy: 352 ccc: 35897488
ROB Occupancy: 304 ccc: 35899095
ROB Occupancy: 352 ccc: 35899474
ROB Occupancy: 352 ccc: 35901530
ROB Occupancy: 352 ccc: 35905372
ROB Occupancy: 352 ccc: 35907132
ROB Occupancy: 352 ccc: 35909039
ROB Occupancy: 352 ccc: 35910820
ROB Occupancy: 352 ccc: 35912669
ROB Occupancy: 352 ccc: 35915985
ROB Occupancy: 352 ccc: 35918520
ROB Occupancy: 352 ccc: 35921061
ROB Occupancy: 352 ccc: 35922884
ROB Occupancy: 352 ccc: 35925722
ROB Occupancy: 352 ccc: 35927738
ROB Occupancy: 352 ccc: 35930940
ROB Occupancy: 304 ccc: 35931994
ROB Occupancy: 352 ccc: 35932873
ROB Occupancy: 352 ccc: 35934756
ROB Occupancy: 352 ccc: 35936888
ROB Occupancy: 352 ccc: 35938773
ROB Occupancy: 304 ccc: 35939340
ROB Occupancy: 352 ccc: 35942812
ROB Occupancy: 348 ccc: 35944659
ROB Occupancy: 352 ccc: 35946747
ROB Occupancy: 352 ccc: 35948755
ROB Occupancy: 352 ccc: 35950585
ROB Occupancy: 352 ccc: 35956204
ROB Occupancy: 352 ccc: 35958038
ROB Occupancy: 352 ccc: 35960183
ROB Occupancy: 352 ccc: 35962270
ROB Occupancy: 352 ccc: 35967051
ROB Occupancy: 352 ccc: 35969115
ROB Occupancy: 304 ccc: 35970552
ROB Occupancy: 352 ccc: 35971471
ROB Occupancy: 352 ccc: 35973567
ROB Occupancy: 304 ccc: 35975791
ROB Occupancy: 352 ccc: 35976035
ROB Occupancy: 352 ccc: 35977805
ROB Occupancy: 352 ccc: 35980943
ROB Occupancy: 352 ccc: 35983051
ROB Occupancy: 352 ccc: 35984717
ROB Occupancy: 352 ccc: 35986537
ROB Occupancy: 352 ccc: 35989078
ROB Occupancy: 352 ccc: 35992348
ROB Occupancy: 304 ccc: 35993588
ROB Occupancy: 352 ccc: 35994527
ROB Occupancy: 352 ccc: 35996613
ROB Occupancy: 304 ccc: 35997217
ROB Occupancy: 352 ccc: 35998645
ROB Occupancy: 352 ccc: 36000918
ROB Occupancy: 352 ccc: 36002621
ROB Occupancy: 304 ccc: 36004717
ROB Occupancy: 352 ccc: 36005975
ROB Occupancy: 352 ccc: 36008107
ROB Occupancy: 352 ccc: 36011100
ROB Occupancy: 352 ccc: 36012651
ROB Occupancy: 352 ccc: 36015258
ROB Occupancy: 352 ccc: 36018562
ROB Occupancy: 352 ccc: 36020546
ROB Occupancy: 352 ccc: 36024738
ROB Occupancy: 352 ccc: 36026722
ROB Occupancy: 352 ccc: 36028721
ROB Occupancy: 352 ccc: 36032917
ROB Occupancy: 304 ccc: 36033887
ROB Occupancy: 352 ccc: 36034737
ROB Occupancy: 352 ccc: 36036823
ROB Occupancy: 352 ccc: 36038555
ROB Occupancy: 352 ccc: 36040205
ROB Occupancy: 352 ccc: 36044335
ROB Occupancy: 352 ccc: 36048815
ROB Occupancy: 352 ccc: 36050591
ROB Occupancy: 352 ccc: 36052529
ROB Occupancy: 352 ccc: 36054216
ROB Occupancy: 304 ccc: 36059035
ROB Occupancy: 352 ccc: 36059613
ROB Occupancy: 352 ccc: 36061981
ROB Occupancy: 352 ccc: 36063717
ROB Occupancy: 352 ccc: 36065642
ROB Occupancy: 352 ccc: 36071583
ROB Occupancy: 304 ccc: 36072890
ROB Occupancy: 352 ccc: 36073721
ROB Occupancy: 352 ccc: 36075627
ROB Occupancy: 304 ccc: 36077489
ROB Occupancy: 352 ccc: 36077814
ROB Occupancy: 352 ccc: 36079741
ROB Occupancy: 307 ccc: 36083563
ROB Occupancy: 352 ccc: 36083815
ROB Occupancy: 352 ccc: 36085659
ROB Occupancy: 352 ccc: 36087896
ROB Occupancy: 352 ccc: 36089759
ROB Occupancy: 352 ccc: 36091614
ROB Occupancy: 352 ccc: 36095104
ROB Occupancy: 352 ccc: 36097164
ROB Occupancy: 352 ccc: 36099550
ROB Occupancy: 352 ccc: 36101019
ROB Occupancy: 352 ccc: 36103544
ROB Occupancy: 352 ccc: 36105403
ROB Occupancy: 304 ccc: 36105715
ROB Occupancy: 352 ccc: 36109092
ROB Occupancy: 352 ccc: 36110851
ROB Occupancy: 352 ccc: 36112771
ROB Occupancy: 352 ccc: 36114676
ROB Occupancy: 352 ccc: 36116950
ROB Occupancy: 352 ccc: 36120281
ROB Occupancy: 352 ccc: 36122509
ROB Occupancy: 352 ccc: 36124352
ROB Occupancy: 352 ccc: 36126101
ROB Occupancy: 352 ccc: 36128397
ROB Occupancy: 352 ccc: 36130307
ROB Occupancy: 352 ccc: 36133544
ROB Occupancy: 304 ccc: 36134896
ROB Occupancy: 352 ccc: 36135803
ROB Occupancy: 352 ccc: 36137279
ROB Occupancy: 352 ccc: 36139597
ROB Occupancy: 352 ccc: 36141480
ROB Occupancy: 352 ccc: 36145131
ROB Occupancy: 352 ccc: 36146861
ROB Occupancy: 352 ccc: 36149191
ROB Occupancy: 352 ccc: 36150888
ROB Occupancy: 352 ccc: 36153468
ROB Occupancy: 352 ccc: 36158634
ROB Occupancy: 352 ccc: 36160590
ROB Occupancy: 304 ccc: 36161981
ROB Occupancy: 352 ccc: 36162545
ROB Occupancy: 352 ccc: 36164455
ROB Occupancy: 352 ccc: 36166687
ROB Occupancy: 352 ccc: 36170722
ROB Occupancy: 352 ccc: 36172672
ROB Occupancy: 352 ccc: 36175114
ROB Occupancy: 352 ccc: 36176784
ROB Occupancy: 352 ccc: 36179080
ROB Occupancy: 352 ccc: 36180802
ROB Occupancy: 352 ccc: 36183979
ROB Occupancy: 352 ccc: 36186373
ROB Occupancy: 352 ccc: 36188582
ROB Occupancy: 352 ccc: 36192602
ROB Occupancy: 352 ccc: 36196260
ROB Occupancy: 352 ccc: 36198362
ROB Occupancy: 352 ccc: 36200379
ROB Occupancy: 352 ccc: 36202573
ROB Occupancy: 352 ccc: 36204390
ROB Occupancy: 352 ccc: 36206293
ROB Occupancy: 352 ccc: 36209779
ROB Occupancy: 352 ccc: 36212160
ROB Occupancy: 352 ccc: 36213664
ROB Occupancy: 352 ccc: 36215590
ROB Occupancy: 352 ccc: 36217603
ROB Occupancy: 352 ccc: 36220957
ROB Occupancy: 352 ccc: 36223171
ROB Occupancy: 352 ccc: 36227735
ROB Occupancy: 352 ccc: 36229944
ROB Occupancy: 352 ccc: 36231622
ROB Occupancy: 304 ccc: 36234277
ROB Occupancy: 352 ccc: 36235085
ROB Occupancy: 352 ccc: 36239057
ROB Occupancy: 352 ccc: 36241175
ROB Occupancy: 352 ccc: 36242915
ROB Occupancy: 352 ccc: 36246455
ROB Occupancy: 352 ccc: 36250248
ROB Occupancy: 352 ccc: 36252081
ROB Occupancy: 352 ccc: 36254340
ROB Occupancy: 352 ccc: 36256001
ROB Occupancy: 352 ccc: 36261637
ROB Occupancy: 352 ccc: 36263805
ROB Occupancy: 352 ccc: 36265378
ROB Occupancy: 352 ccc: 36267312
ROB Occupancy: 352 ccc: 36273288
ROB Occupancy: 352 ccc: 36274641
ROB Occupancy: 352 ccc: 36277077
ROB Occupancy: 352 ccc: 36279028
ROB Occupancy: 352 ccc: 36280994
ROB Occupancy: 352 ccc: 36284291
ROB Occupancy: 352 ccc: 36286340
ROB Occupancy: 352 ccc: 36288576
ROB Occupancy: 304 ccc: 36290117
ROB Occupancy: 352 ccc: 36290394
ROB Occupancy: 352 ccc: 36292580
ROB Occupancy: 352 ccc: 36296226
ROB Occupancy: 304 ccc: 36297556
ROB Occupancy: 352 ccc: 36298413
ROB Occupancy: 352 ccc: 36300234
ROB Occupancy: 352 ccc: 36302011
ROB Occupancy: 352 ccc: 36303916
ROB Occupancy: 352 ccc: 36305702
ROB Occupancy: 352 ccc: 36309156
ROB Occupancy: 352 ccc: 36311504
ROB Occupancy: 352 ccc: 36313366
ROB Occupancy: 352 ccc: 36315676
ROB Occupancy: 352 ccc: 36317360
ROB Occupancy: 352 ccc: 36320816
ROB Occupancy: 352 ccc: 36322888
ROB Occupancy: 352 ccc: 36325344
ROB Occupancy: 352 ccc: 36326994
ROB Occupancy: 352 ccc: 36329533
ROB Occupancy: 352 ccc: 36331436
ROB Occupancy: 352 ccc: 36335137
ROB Occupancy: 352 ccc: 36336830
ROB Occupancy: 352 ccc: 36338914
ROB Occupancy: 304 ccc: 36359364
ROB Occupancy: 304 ccc: 36370022
ROB Occupancy: 304 ccc: 36375153
ROB Occupancy: 304 ccc: 36384130
ROB Occupancy: 304 ccc: 36392826
ROB Occupancy: 304 ccc: 36426544
ROB Occupancy: 304 ccc: 36435794
ROB Occupancy: 304 ccc: 36445050
ROB Occupancy: 304 ccc: 36453779
ROB Occupancy: 304 ccc: 36500653
ROB Occupancy: 304 ccc: 36527125
ROB Occupancy: 304 ccc: 36553886
ROB Occupancy: 304 ccc: 36586233
ROB Occupancy: 304 ccc: 36630081
ROB Occupancy: 307 ccc: 36651295
ROB Occupancy: 307 ccc: 36677406
ROB Occupancy: 304 ccc: 36681350
ROB Occupancy: 304 ccc: 36699342
ROB Occupancy: 304 ccc: 36701053
ROB Occupancy: 304 ccc: 36727795
ROB Occupancy: 304 ccc: 36754708
ROB Occupancy: 304 ccc: 36765772
ROB Occupancy: 307 ccc: 36775635
ROB Occupancy: 304 ccc: 36779472
ROB Occupancy: 304 ccc: 36788591
ROB Occupancy: 304 ccc: 36797260
ROB Occupancy: 304 ccc: 36825929
ROB Occupancy: 304 ccc: 36852274
ROB Occupancy: 307 ccc: 36873412
ROB Occupancy: 307 ccc: 36890459
ROB Occupancy: 307 ccc: 36917428
ROB Occupancy: 304 ccc: 36921565
ROB Occupancy: 304 ccc: 36967979
ROB Occupancy: 307 ccc: 37015064
ROB Occupancy: 304 ccc: 37027393
ROB Occupancy: 304 ccc: 37046790
ROB Occupancy: 304 ccc: 37072937
ROB Occupancy: 304 ccc: 37073954
ROB Occupancy: 304 ccc: 37091045
ROB Occupancy: 307 ccc: 37112278
ROB Occupancy: 304 ccc: 37125094
ROB Occupancy: 304 ccc: 37132647
ROB Occupancy: 304 ccc: 37141174
ROB Occupancy: 304 ccc: 37154425
ROB Occupancy: 304 ccc: 37170127
ROB Occupancy: 304 ccc: 37187588
ROB Occupancy: 304 ccc: 37206388
ROB Occupancy: 304 ccc: 37238571
ROB Occupancy: 304 ccc: 37267020
ROB Occupancy: 304 ccc: 37275942
ROB Occupancy: 304 ccc: 37309156
ROB Occupancy: 307 ccc: 37320685
ROB Occupancy: 304 ccc: 37324540
ROB Occupancy: 307 ccc: 37329093
ROB Occupancy: 304 ccc: 37345735
ROB Occupancy: 304 ccc: 37359274
ROB Occupancy: 304 ccc: 37375983
ROB Occupancy: 304 ccc: 37402953
ROB Occupancy: 304 ccc: 37429764
ROB Occupancy: 304 ccc: 37443973
ROB Occupancy: 304 ccc: 37461813
ROB Occupancy: 304 ccc: 37462159
ROB Occupancy: 307 ccc: 37467188
ROB Occupancy: 304 ccc: 37495773
ROB Occupancy: 304 ccc: 37499995
ROB Occupancy: 304 ccc: 37500859
ROB Occupancy: 304 ccc: 37507311
ROB Occupancy: 304 ccc: 37516688
ROB Occupancy: 304 ccc: 37517428
ROB Occupancy: 307 ccc: 37546089
ROB Occupancy: 304 ccc: 37550070
ROB Occupancy: 304 ccc: 37559205
ROB Occupancy: 304 ccc: 37567875
ROB Occupancy: 304 ccc: 37585179
ROB Occupancy: 307 ccc: 37590367
ROB Occupancy: 304 ccc: 37640919
ROB Occupancy: 304 ccc: 37649905
ROB Occupancy: 304 ccc: 37656183
ROB Occupancy: 307 ccc: 37687189
ROB Occupancy: 304 ccc: 37690685
ROB Occupancy: 304 ccc: 37708932
ROB Occupancy: 304 ccc: 37711940
ROB Occupancy: 304 ccc: 37745457
ROB Occupancy: 304 ccc: 37763169
ROB Occupancy: 304 ccc: 37797857
ROB Occupancy: 304 ccc: 37815766
ROB Occupancy: 304 ccc: 37836379
ROB Occupancy: 304 ccc: 37844028
ROB Occupancy: 304 ccc: 37845293
ROB Occupancy: 304 ccc: 37863124
ROB Occupancy: 307 ccc: 37883658
ROB Occupancy: 304 ccc: 37887441
ROB Occupancy: 307 ccc: 37901373
ROB Occupancy: 304 ccc: 37908323
ROB Occupancy: 304 ccc: 37913429
ROB Occupancy: 307 ccc: 37935239
ROB Occupancy: 304 ccc: 37958795
ROB Occupancy: 304 ccc: 37985377
ROB Occupancy: 304 ccc: 38001430
ROB Occupancy: 304 ccc: 38081938
ROB Occupancy: 304 ccc: 38098611
ROB Occupancy: 307 ccc: 38137281
ROB Occupancy: 304 ccc: 38177823
ROB Occupancy: 304 ccc: 38179169
ROB Occupancy: 304 ccc: 38204921
ROB Occupancy: 307 ccc: 38268230
ROB Occupancy: 304 ccc: 38272079
ROB Occupancy: 304 ccc: 38275428
ROB Occupancy: 304 ccc: 38284791
ROB Occupancy: 304 ccc: 38327059
ROB Occupancy: 304 ccc: 38342168
ROB Occupancy: 307 ccc: 38365764
ROB Occupancy: 304 ccc: 38385896
ROB Occupancy: 304 ccc: 38392148
ROB Occupancy: 304 ccc: 38439762
ROB Occupancy: 304 ccc: 38463188
ROB Occupancy: 304 ccc: 38463475
ROB Occupancy: 307 ccc: 38496920
ROB Occupancy: 304 ccc: 38500610
ROB Occupancy: 304 ccc: 38511744
ROB Occupancy: 304 ccc: 38554599
ROB Occupancy: 304 ccc: 38560768
ROB Occupancy: 304 ccc: 38569316
ROB Occupancy: 304 ccc: 38595462
ROB Occupancy: 307 ccc: 38600415
ROB Occupancy: 304 ccc: 38614391
ROB Occupancy: 304 ccc: 38649293
ROB Occupancy: 307 ccc: 38687840
ROB Occupancy: 304 ccc: 38691939
ROB Occupancy: 304 ccc: 38747850
ROB Occupancy: 304 ccc: 38788433
ROB Occupancy: 307 ccc: 38793690
ROB Occupancy: 307 ccc: 38801239
ROB Occupancy: 304 ccc: 38805048
ROB Occupancy: 307 ccc: 38810948
ROB Occupancy: 304 ccc: 38835875
ROB Occupancy: 304 ccc: 38843254
ROB Occupancy: 304 ccc: 38873364
ROB Occupancy: 304 ccc: 38878182
ROB Occupancy: 304 ccc: 38886664
ROB Occupancy: 304 ccc: 38923281
ROB Occupancy: 304 ccc: 38935872
ROB Occupancy: 304 ccc: 38943773
ROB Occupancy: 304 ccc: 38944146
ROB Occupancy: 304 ccc: 38982548
ROB Occupancy: 304 ccc: 38986780
ROB Occupancy: 304 ccc: 38990585
ROB Occupancy: 304 ccc: 38995289
ROB Occupancy: 304 ccc: 39006527
ROB Occupancy: 307 ccc: 39036877
ROB Occupancy: 304 ccc: 39044641
ROB Occupancy: 307 ccc: 39045355
ROB Occupancy: 304 ccc: 39051316
ROB Occupancy: 304 ccc: 39066641
ROB Occupancy: 304 ccc: 39078149
ROB Occupancy: 304 ccc: 39085672
ROB Occupancy: 307 ccc: 39123763
ROB Occupancy: 304 ccc: 39127283
ROB Occupancy: 304 ccc: 39144399
ROB Occupancy: 304 ccc: 39181805
ROB Occupancy: 304 ccc: 39231563
ROB Occupancy: 307 ccc: 39236628
ROB Occupancy: 304 ccc: 39240721
ROB Occupancy: 307 ccc: 39264720
ROB Occupancy: 304 ccc: 39268265
ROB Occupancy: 307 ccc: 39281689
ROB Occupancy: 304 ccc: 39283260
ROB Occupancy: 304 ccc: 39288083
ROB Occupancy: 304 ccc: 39297396
ROB Occupancy: 304 ccc: 39339130
ROB Occupancy: 307 ccc: 39370672
ROB Occupancy: 304 ccc: 39374412
ROB Occupancy: 304 ccc: 39392383
ROB Occupancy: 304 ccc: 39429565
ROB Occupancy: 304 ccc: 39438337
ROB Occupancy: 304 ccc: 39463810
ROB Occupancy: 307 ccc: 39477419
ROB Occupancy: 304 ccc: 39489621
ROB Occupancy: 304 ccc: 39518879
ROB Occupancy: 304 ccc: 39520091
ROB Occupancy: 304 ccc: 39537002
ROB Occupancy: 304 ccc: 39561712
ROB Occupancy: 307 ccc: 39564424
ROB Occupancy: 304 ccc: 39567888
ROB Occupancy: 307 ccc: 39607578
ROB Occupancy: 304 ccc: 39619185
ROB Occupancy: 304 ccc: 39647576
ROB Occupancy: 304 ccc: 39655538
ROB Occupancy: 304 ccc: 39656756
ROB Occupancy: 304 ccc: 39673690
ROB Occupancy: 304 ccc: 39680011
ROB Occupancy: 307 ccc: 39703024
ROB Occupancy: 304 ccc: 39706492
ROB Occupancy: 304 ccc: 39723139
ROB Occupancy: 304 ccc: 39751129
ROB Occupancy: 304 ccc: 39801761
ROB Occupancy: 307 ccc: 39806473
ROB Occupancy: 304 ccc: 39810022
ROB Occupancy: 307 ccc: 39842738
ROB Occupancy: 304 ccc: 39844681
ROB Occupancy: 304 ccc: 39861502
ROB Occupancy: 304 ccc: 39865620
ROB Occupancy: 304 ccc: 39898825
ROB Occupancy: 307 ccc: 39912712
ROB Occupancy: 304 ccc: 39916286
ROB Occupancy: 307 ccc: 39938402
ROB Occupancy: 304 ccc: 39950484
ROB Occupancy: 304 ccc: 39953819
ROB Occupancy: 304 ccc: 40005399
ROB Occupancy: 304 ccc: 40009352
ROB Occupancy: 307 ccc: 40034004
ROB Occupancy: 304 ccc: 40037760
ROB Occupancy: 307 ccc: 40041958
ROB Occupancy: 304 ccc: 40045091
ROB Occupancy: 307 ccc: 40050067
ROB Occupancy: 304 ccc: 40053642
ROB Occupancy: 304 ccc: 40054014
ROB Occupancy: 307 ccc: 40058761
ROB Occupancy: 304 ccc: 40065157
ROB Occupancy: 304 ccc: 40098996
ROB Occupancy: 307 ccc: 40136895
ROB Occupancy: 304 ccc: 40171177
ROB Occupancy: 304 ccc: 40203062
ROB Occupancy: 304 ccc: 40229389
ROB Occupancy: 307 ccc: 40232527
ROB Occupancy: 304 ccc: 40244798
ROB Occupancy: 304 ccc: 40293268
ROB Occupancy: 304 ccc: 40301180
ROB Occupancy: 304 ccc: 40326084
ROB Occupancy: 304 ccc: 40334890
ROB Occupancy: 304 ccc: 40350224
ROB Occupancy: 307 ccc: 40374343
ROB Occupancy: 304 ccc: 40386427
ROB Occupancy: 304 ccc: 40415721
ROB Occupancy: 304 ccc: 40431538
ROB Occupancy: 304 ccc: 40449248
ROB Occupancy: 307 ccc: 40469564
ROB Occupancy: 304 ccc: 40473601
ROB Occupancy: 304 ccc: 40481587
ROB Occupancy: 304 ccc: 40490252
ROB Occupancy: 304 ccc: 40507972
ROB Occupancy: 304 ccc: 40511326
ROB Occupancy: 304 ccc: 40519844
ROB Occupancy: 304 ccc: 40528565
ROB Occupancy: 304 ccc: 40537365
ROB Occupancy: 304 ccc: 40569793
ROB Occupancy: 304 ccc: 40605908
ROB Occupancy: 304 ccc: 40624208
ROB Occupancy: 304 ccc: 40674436
ROB Occupancy: 304 ccc: 40697356
ROB Occupancy: 304 ccc: 40749756
ROB Occupancy: 304 ccc: 40767425
ROB Occupancy: 304 ccc: 40786284
ROB Occupancy: 304 ccc: 40799941
ROB Occupancy: 304 ccc: 40830010
ROB Occupancy: 307 ccc: 40839818
ROB Occupancy: 304 ccc: 40852924
ROB Occupancy: 304 ccc: 40879730
ROB Occupancy: 304 ccc: 40887182
ROB Occupancy: 304 ccc: 40903103
ROB Occupancy: 304 ccc: 40923508
ROB Occupancy: 304 ccc: 40983743
ROB Occupancy: 304 ccc: 40995666
ROB Occupancy: 304 ccc: 40999648
ROB Occupancy: 304 ccc: 41003591
ROB Occupancy: 304 ccc: 41005579
ROB Occupancy: 304 ccc: 41040634
ROB Occupancy: 304 ccc: 41075946
ROB Occupancy: 304 ccc: 41092523
ROB Occupancy: 304 ccc: 41124997
ROB Occupancy: 304 ccc: 41133406
ROB Occupancy: 307 ccc: 41163845
ROB Occupancy: 304 ccc: 41169328
ROB Occupancy: 304 ccc: 41177734
ROB Occupancy: 304 ccc: 41195757
ROB Occupancy: 307 ccc: 41224645
ROB Occupancy: 304 ccc: 41228229
ROB Occupancy: 304 ccc: 41281119
ROB Occupancy: 304 ccc: 41289489
ROB Occupancy: 304 ccc: 41333170
ROB Occupancy: 304 ccc: 41421753
ROB Occupancy: 304 ccc: 41428918
ROB Occupancy: 307 ccc: 41449892
ROB Occupancy: 307 ccc: 41457885
ROB Occupancy: 304 ccc: 41516434
ROB Occupancy: 304 ccc: 41523217
ROB Occupancy: 304 ccc: 41541405
ROB Occupancy: 304 ccc: 41549591
ROB Occupancy: 304 ccc: 41554439
ROB Occupancy: 304 ccc: 41556187
ROB Occupancy: 304 ccc: 41565185
ROB Occupancy: 304 ccc: 41610851
ROB Occupancy: 304 ccc: 41618354
ROB Occupancy: 304 ccc: 41643590
ROB Occupancy: 304 ccc: 41660330
ROB Occupancy: 304 ccc: 41666589
ROB Occupancy: 304 ccc: 41708660
ROB Occupancy: 304 ccc: 41735525
ROB Occupancy: 304 ccc: 41784038
ROB Occupancy: 304 ccc: 41792405
ROB Occupancy: 304 ccc: 41826544
ROB Occupancy: 304 ccc: 41840951
ROB Occupancy: 304 ccc: 41845175
ROB Occupancy: 304 ccc: 41910031
ROB Occupancy: 307 ccc: 41914584
ROB Occupancy: 304 ccc: 42008686
ROB Occupancy: 304 ccc: 42013368
ROB Occupancy: 304 ccc: 42068203
ROB Occupancy: 304 ccc: 42082403
ROB Occupancy: 304 ccc: 42086020
ROB Occupancy: 304 ccc: 42110472
ROB Occupancy: 304 ccc: 42117716
ROB Occupancy: 304 ccc: 42161858
ROB Occupancy: 304 ccc: 42178695
ROB Occupancy: 304 ccc: 42203303
ROB Occupancy: 304 ccc: 42219075
ROB Occupancy: 304 ccc: 42227908
ROB Occupancy: 307 ccc: 42250352
ROB Occupancy: 304 ccc: 42265025
ROB Occupancy: 304 ccc: 42273540
ROB Occupancy: 304 ccc: 42299365
ROB Occupancy: 304 ccc: 42316556
ROB Occupancy: 304 ccc: 42394909
ROB Occupancy: 304 ccc: 42411848
ROB Occupancy: 304 ccc: 42420557
ROB Occupancy: 304 ccc: 42431312
ROB Occupancy: 307 ccc: 42440821
ROB Occupancy: 304 ccc: 42444365
ROB Occupancy: 304 ccc: 42547025
ROB Occupancy: 307 ccc: 42578751
ROB Occupancy: 304 ccc: 42582211
ROB Occupancy: 304 ccc: 42631526
ROB Occupancy: 304 ccc: 42656131
ROB Occupancy: 304 ccc: 42678178
ROB Occupancy: 304 ccc: 42687260
ROB Occupancy: 304 ccc: 42709641
ROB Occupancy: 304 ccc: 42731127
ROB Occupancy: 304 ccc: 42735686
ROB Occupancy: 304 ccc: 42744543
ROB Occupancy: 304 ccc: 42777474
ROB Occupancy: 304 ccc: 42787160
ROB Occupancy: 304 ccc: 42813948
ROB Occupancy: 307 ccc: 42819356
ROB Occupancy: 304 ccc: 42823073
ROB Occupancy: 304 ccc: 42825223
ROB Occupancy: 304 ccc: 42835112
ROB Occupancy: 304 ccc: 42843044
ROB Occupancy: 304 ccc: 42868651
ROB Occupancy: 304 ccc: 42884140
ROB Occupancy: 304 ccc: 42937846
ROB Occupancy: 304 ccc: 42940015
ROB Occupancy: 304 ccc: 42966722
ROB Occupancy: 304 ccc: 42984468
ROB Occupancy: 304 ccc: 43009684
ROB Occupancy: 304 ccc: 43027031
ROB Occupancy: 304 ccc: 43064073
ROB Occupancy: 307 ccc: 43111437
ROB Occupancy: 304 ccc: 43115448
ROB Occupancy: 304 ccc: 43133472
ROB Occupancy: 304 ccc: 43187366
ROB Occupancy: 304 ccc: 43205150
ROB Occupancy: 304 ccc: 43221550
ROB Occupancy: 307 ccc: 43226254
ROB Occupancy: 304 ccc: 43265801
ROB Occupancy: 304 ccc: 43274961
ROB Occupancy: 304 ccc: 43304020
ROB Occupancy: 304 ccc: 43312127
ROB Occupancy: 304 ccc: 43313222
ROB Occupancy: 304 ccc: 43317333
ROB Occupancy: 304 ccc: 43326145
ROB Occupancy: 304 ccc: 43330182
ROB Occupancy: 304 ccc: 43355251
ROB Occupancy: 304 ccc: 43355633
ROB Occupancy: 307 ccc: 43368822
ROB Occupancy: 304 ccc: 43372709
ROB Occupancy: 304 ccc: 43389594
ROB Occupancy: 304 ccc: 43400516
ROB Occupancy: 304 ccc: 43413282
ROB Occupancy: 304 ccc: 43418474
ROB Occupancy: 304 ccc: 43421996
ROB Occupancy: 304 ccc: 43449904
ROB Occupancy: 304 ccc: 43458812
ROB Occupancy: 304 ccc: 43484860
ROB Occupancy: 304 ccc: 43488863
ROB Occupancy: 304 ccc: 43493444
ROB Occupancy: 304 ccc: 43497320
ROB Occupancy: 304 ccc: 43501481
ROB Occupancy: 304 ccc: 43549177
ROB Occupancy: 304 ccc: 43557972
ROB Occupancy: 304 ccc: 43591248
ROB Occupancy: 307 ccc: 43596101
ROB Occupancy: 304 ccc: 43600442
ROB Occupancy: 304 ccc: 43610189
ROB Occupancy: 304 ccc: 43621099
ROB Occupancy: 304 ccc: 43646850
ROB Occupancy: 304 ccc: 43689677
ROB Occupancy: 304 ccc: 43706124
ROB Occupancy: 304 ccc: 43714543
ROB Occupancy: 304 ccc: 43743328
ROB Occupancy: 304 ccc: 43744331
ROB Occupancy: 304 ccc: 43753284
ROB Occupancy: 304 ccc: 43761784
ROB Occupancy: 304 ccc: 43786029
ROB Occupancy: 307 ccc: 43800492
ROB Occupancy: 304 ccc: 43837997
ROB Occupancy: 304 ccc: 43840047
ROB Occupancy: 304 ccc: 43843046
ROB Occupancy: 304 ccc: 43859530
ROB Occupancy: 304 ccc: 43886565
ROB Occupancy: 304 ccc: 43912001
ROB Occupancy: 304 ccc: 43925204
ROB Occupancy: 304 ccc: 43947480
ROB Occupancy: 304 ccc: 43957295
ROB Occupancy: 304 ccc: 43987190
ROB Occupancy: 304 ccc: 44000860
ROB Occupancy: 304 ccc: 44004711
ROB Occupancy: 304 ccc: 44012883
ROB Occupancy: 304 ccc: 44037952
ROB Occupancy: 304 ccc: 44056204
ROB Occupancy: 304 ccc: 44084813
ROB Occupancy: 304 ccc: 44110833
ROB Occupancy: 307 ccc: 44131149
ROB Occupancy: 304 ccc: 44144270
ROB Occupancy: 304 ccc: 44179656
ROB Occupancy: 304 ccc: 44233725
ROB Occupancy: 307 ccc: 44246035
ROB Occupancy: 304 ccc: 44249918
ROB Occupancy: 304 ccc: 44305371
ROB Occupancy: 304 ccc: 44374906
ROB Occupancy: 304 ccc: 44378857
ROB Occupancy: 304 ccc: 44392627
ROB Occupancy: 304 ccc: 44430179
ROB Occupancy: 304 ccc: 44446756
ROB Occupancy: 304 ccc: 44450576
ROB Occupancy: 304 ccc: 44459654
ROB Occupancy: 304 ccc: 44470951
ROB Occupancy: 304 ccc: 44480309
ROB Occupancy: 304 ccc: 44489254
ROB Occupancy: 304 ccc: 44510191
ROB Occupancy: 304 ccc: 44514716
ROB Occupancy: 307 ccc: 44520168
ROB Occupancy: 304 ccc: 44526976
ROB Occupancy: 304 ccc: 44528349
ROB Occupancy: 304 ccc: 44537460
ROB Occupancy: 304 ccc: 44545010
ROB Occupancy: 304 ccc: 44568010
ROB Occupancy: 304 ccc: 44571792
ROB Occupancy: 307 ccc: 44583853
ROB Occupancy: 304 ccc: 44587341
ROB Occupancy: 304 ccc: 44596171
ROB Occupancy: 304 ccc: 44616556
ROB Occupancy: 304 ccc: 44620822
ROB Occupancy: 304 ccc: 44621204
ROB Occupancy: 304 ccc: 44629667
ROB Occupancy: 304 ccc: 44630040
ROB Occupancy: 304 ccc: 44633814
ROB Occupancy: 307 ccc: 44634585
ROB Occupancy: 304 ccc: 44638488
ROB Occupancy: 304 ccc: 44640884
ROB Occupancy: 304 ccc: 44667334
ROB Occupancy: 307 ccc: 44713980
ROB Occupancy: 304 ccc: 44718054
ROB Occupancy: 304 ccc: 44727143
ROB Occupancy: 304 ccc: 44765481
ROB Occupancy: 352 ccc: 44779966
ROB Occupancy: 352 ccc: 44783289
ROB Occupancy: 352 ccc: 44785779
ROB Occupancy: 352 ccc: 44788270
ROB Occupancy: 352 ccc: 44790099
ROB Occupancy: 352 ccc: 44793460
ROB Occupancy: 352 ccc: 44795543
ROB Occupancy: 352 ccc: 44798631
ROB Occupancy: 352 ccc: 44800482
ROB Occupancy: 352 ccc: 44804398
ROB Occupancy: 352 ccc: 44806840
ROB Occupancy: 352 ccc: 44809827
ROB Occupancy: 352 ccc: 44812084
ROB Occupancy: 304 ccc: 44813491
ROB Occupancy: 352 ccc: 44815999
ROB Occupancy: 352 ccc: 44817897
ROB Occupancy: 352 ccc: 44819849
ROB Occupancy: 352 ccc: 44823577
ROB Occupancy: 352 ccc: 44827555
ROB Occupancy: 352 ccc: 44829649
ROB Occupancy: 352 ccc: 44831067
ROB Occupancy: 352 ccc: 44834422
ROB Occupancy: 352 ccc: 44837641
ROB Occupancy: 352 ccc: 44839023
ROB Occupancy: 352 ccc: 44841776
ROB Occupancy: 352 ccc: 44843265
ROB Occupancy: 304 ccc: 44844355
ROB Occupancy: 307 ccc: 44846511
ROB Occupancy: 352 ccc: 44848062
ROB Occupancy: 304 ccc: 44849715
ROB Occupancy: 352 ccc: 44850176
ROB Occupancy: 352 ccc: 44852012
ROB Occupancy: 352 ccc: 44854287
ROB Occupancy: 352 ccc: 44859777
ROB Occupancy: 352 ccc: 44862232
ROB Occupancy: 352 ccc: 44864040
ROB Occupancy: 352 ccc: 44866415
ROB Occupancy: 352 ccc: 44867971
ROB Occupancy: 352 ccc: 44871261
ROB Occupancy: 352 ccc: 44872719
ROB Occupancy: 352 ccc: 44875173
ROB Occupancy: 352 ccc: 44876571
ROB Occupancy: 352 ccc: 44878552
ROB Occupancy: 352 ccc: 44881834
ROB Occupancy: 352 ccc: 44884336
ROB Occupancy: 352 ccc: 44885699
ROB Occupancy: 352 ccc: 44888162
ROB Occupancy: 352 ccc: 44889973
ROB Occupancy: 352 ccc: 44891940
ROB Occupancy: 352 ccc: 44894751
ROB Occupancy: 304 ccc: 44896406
ROB Occupancy: 352 ccc: 44897109
ROB Occupancy: 352 ccc: 44898716
ROB Occupancy: 352 ccc: 44900966
ROB Occupancy: 352 ccc: 44902469
ROB Occupancy: 352 ccc: 44906496
ROB Occupancy: 352 ccc: 44908164
ROB Occupancy: 304 ccc: 44909792
ROB Occupancy: 352 ccc: 44910472
ROB Occupancy: 352 ccc: 44912105
ROB Occupancy: 304 ccc: 44914170
ROB Occupancy: 352 ccc: 44914478
ROB Occupancy: 304 ccc: 44915327
ROB Occupancy: 352 ccc: 44916251
ROB Occupancy: 352 ccc: 44919669
ROB Occupancy: 304 ccc: 44921172
ROB Occupancy: 352 ccc: 44921929
ROB Occupancy: 352 ccc: 44923852
ROB Occupancy: 352 ccc: 44926030
ROB Occupancy: 352 ccc: 44927758
ROB Occupancy: 352 ccc: 44931522
ROB Occupancy: 352 ccc: 44933130
ROB Occupancy: 352 ccc: 44935637
ROB Occupancy: 352 ccc: 44937049
ROB Occupancy: 352 ccc: 44939235
ROB Occupancy: 352 ccc: 44940508
ROB Occupancy: 352 ccc: 44944017
ROB Occupancy: 352 ccc: 44945410
ROB Occupancy: 352 ccc: 44947848
ROB Occupancy: 352 ccc: 44948944
ROB Occupancy: 352 ccc: 44954421
ROB Occupancy: 304 ccc: 44956135
ROB Occupancy: 352 ccc: 44957006
ROB Occupancy: 352 ccc: 44958797
ROB Occupancy: 352 ccc: 44960745
ROB Occupancy: 307 ccc: 44961061
ROB Occupancy: 352 ccc: 44962334
ROB Occupancy: 352 ccc: 44964471
ROB Occupancy: 352 ccc: 44967196
ROB Occupancy: 352 ccc: 44969531
ROB Occupancy: 352 ccc: 44971247
ROB Occupancy: 352 ccc: 44974733
ROB Occupancy: 352 ccc: 44977551
ROB Occupancy: 352 ccc: 44979148
ROB Occupancy: 352 ccc: 44981174
ROB Occupancy: 352 ccc: 44982653
ROB Occupancy: 352 ccc: 44984739
ROB Occupancy: 352 ccc: 44986444
ROB Occupancy: 352 ccc: 44989386
ROB Occupancy: 304 ccc: 44991467
ROB Occupancy: 352 ccc: 44992458
ROB Occupancy: 352 ccc: 44993767
ROB Occupancy: 352 ccc: 44996559
ROB Occupancy: 352 ccc: 44998021
ROB Occupancy: 352 ccc: 45002002
ROB Occupancy: 342 ccc: 45003224
ROB Occupancy: 304 ccc: 45005232
ROB Occupancy: 352 ccc: 45005507
ROB Occupancy: 352 ccc: 45006766
ROB Occupancy: 352 ccc: 45009078
ROB Occupancy: 352 ccc: 45010626
ROB Occupancy: 352 ccc: 45013370
ROB Occupancy: 304 ccc: 45016100
ROB Occupancy: 352 ccc: 45016867
ROB Occupancy: 352 ccc: 45018159
ROB Occupancy: 352 ccc: 45020316
ROB Occupancy: 352 ccc: 45023260
ROB Occupancy: 352 ccc: 45026884
ROB Occupancy: 352 ccc: 45029592
ROB Occupancy: 352 ccc: 45031369
ROB Occupancy: 352 ccc: 45033399
ROB Occupancy: 307 ccc: 45036290
ROB Occupancy: 352 ccc: 45038179
ROB Occupancy: 352 ccc: 45040171
ROB Occupancy: 352 ccc: 45042319
ROB Occupancy: 352 ccc: 45044035
ROB Occupancy: 352 ccc: 45050238
ROB Occupancy: 352 ccc: 45051558
ROB Occupancy: 352 ccc: 45053587
ROB Occupancy: 352 ccc: 45055147
ROB Occupancy: 352 ccc: 45057105
ROB Occupancy: 304 ccc: 45057416
ROB Occupancy: 352 ccc: 45059845
ROB Occupancy: 352 ccc: 45062082
ROB Occupancy: 352 ccc: 45063417
ROB Occupancy: 352 ccc: 45065395
ROB Occupancy: 352 ccc: 45066990
ROB Occupancy: 352 ccc: 45070308
ROB Occupancy: 352 ccc: 45071814
ROB Occupancy: 352 ccc: 45074969
ROB Occupancy: 352 ccc: 45076456
ROB Occupancy: 352 ccc: 45078808
ROB Occupancy: 307 ccc: 45079660
ROB Occupancy: 352 ccc: 45080621
ROB Occupancy: 352 ccc: 45084286
ROB Occupancy: 304 ccc: 45085574
ROB Occupancy: 352 ccc: 45086260
ROB Occupancy: 352 ccc: 45088518
ROB Occupancy: 352 ccc: 45090191
ROB Occupancy: 352 ccc: 45092194
ROB Occupancy: 352 ccc: 45095666
ROB Occupancy: 342 ccc: 45097852
ROB Occupancy: 352 ccc: 45099780
ROB Occupancy: 352 ccc: 45101748
ROB Occupancy: 352 ccc: 45103784
ROB Occupancy: 352 ccc: 45105422
ROB Occupancy: 352 ccc: 45108789
ROB Occupancy: 352 ccc: 45110523
ROB Occupancy: 352 ccc: 45112564
ROB Occupancy: 352 ccc: 45113861
ROB Occupancy: 352 ccc: 45115967
ROB Occupancy: 352 ccc: 45118947
ROB Occupancy: 352 ccc: 45121574
ROB Occupancy: 352 ccc: 45123321
ROB Occupancy: 352 ccc: 45125429
ROB Occupancy: 352 ccc: 45126932
ROB Occupancy: 352 ccc: 45129570
ROB Occupancy: 352 ccc: 45131785
ROB Occupancy: 352 ccc: 45133841
ROB Occupancy: 352 ccc: 45135007
ROB Occupancy: 352 ccc: 45137181
ROB Occupancy: 307 ccc: 45139471
ROB Occupancy: 352 ccc: 45142134
ROB Occupancy: 304 ccc: 45143026
ROB Occupancy: 352 ccc: 45143496
ROB Occupancy: 352 ccc: 45145686
ROB Occupancy: 352 ccc: 45147165
ROB Occupancy: 352 ccc: 45149508
ROB Occupancy: 352 ccc: 45151288
ROB Occupancy: 352 ccc: 45154641
ROB Occupancy: 352 ccc: 45156299
ROB Occupancy: 352 ccc: 45158759
ROB Occupancy: 352 ccc: 45163523
ROB Occupancy: 352 ccc: 45167010
ROB Occupancy: 352 ccc: 45168954
ROB Occupancy: 304 ccc: 45170254
ROB Occupancy: 352 ccc: 45171344
ROB Occupancy: 352 ccc: 45173164
ROB Occupancy: 352 ccc: 45175600
ROB Occupancy: 352 ccc: 45176854
ROB Occupancy: 304 ccc: 45179151
ROB Occupancy: 352 ccc: 45179985
ROB Occupancy: 352 ccc: 45181196
ROB Occupancy: 352 ccc: 45183428
ROB Occupancy: 352 ccc: 45184712
ROB Occupancy: 352 ccc: 45187180
ROB Occupancy: 352 ccc: 45190191
ROB Occupancy: 352 ccc: 45192891
ROB Occupancy: 304 ccc: 45196711
ROB Occupancy: 352 ccc: 45197060
ROB Occupancy: 352 ccc: 45198626
ROB Occupancy: 352 ccc: 45200496
ROB Occupancy: 304 ccc: 45202221
ROB Occupancy: 352 ccc: 45203017
ROB Occupancy: 304 ccc: 45205868
ROB Occupancy: 352 ccc: 45206267
ROB Occupancy: 352 ccc: 45208512
ROB Occupancy: 352 ccc: 45209711
ROB Occupancy: 352 ccc: 45212974
ROB Occupancy: 352 ccc: 45217020
[...]
ROB Occupancy: 352 ccc: 137800938
ROB Occupancy: 352 ccc: 137821772
ROB Occupancy: 352 ccc: 137843911
ROB Occupancy: 352 ccc: 137864061
ROB Occupancy: 352 ccc: 137884160
ROB Occupancy: 352 ccc: 137905165
ROB Occupancy: 352 ccc: 137926758
ROB Occupancy: 352 ccc: 137948013
ROB Occupancy: 352 ccc: 137968859
ROB Occupancy: 352 ccc: 137990349
ROB Occupancy: 352 ccc: 138012993
ROB Occupancy: 352 ccc: 138033803
ROB Occupancy: 352 ccc: 138055647
ROB Occupancy: 352 ccc: 138076968
ROB Occupancy: 352 ccc: 138098645
ROB Occupancy: 352 ccc: 138119986
ROB Occupancy: 352 ccc: 138141002
ROB Occupancy: 352 ccc: 138162952
ROB Occupancy: 352 ccc: 138184412
ROB Occupancy: 352 ccc: 138205598
ROB Occupancy: 352 ccc: 138227819
ROB Occupancy: 352 ccc: 138248224
ROB Occupancy: 352 ccc: 138269974
ROB Occupancy: 352 ccc: 138291543
ROB Occupancy: 348 ccc: 187562232
ROB Occupancy: 352 ccc: 187583186
ROB Occupancy: 352 ccc: 187605401
ROB Occupancy: 352 ccc: 187626745
ROB Occupancy: 352 ccc: 187648382
ROB Occupancy: 352 ccc: 187669171
ROB Occupancy: 352 ccc: 187690070
ROB Occupancy: 352 ccc: 187711792
ROB Occupancy: 348 ccc: 187732284
ROB Occupancy: 352 ccc: 187753930
ROB Occupancy: 352 ccc: 187776522
ROB Occupancy: 352 ccc: 187797039
ROB Occupancy: 338 ccc: 187817942
ROB Occupancy: 352 ccc: 187840308
ROB Occupancy: 352 ccc: 187861277
ROB Occupancy: 352 ccc: 187882218
ROB Occupancy: 348 ccc: 187903111
ROB Occupancy: 352 ccc: 187925534
ROB Occupancy: 352 ccc: 187946127
ROB Occupancy: 352 ccc: 187966834
ROB Occupancy: 352 ccc: 187989591
ROB Occupancy: 352 ccc: 188010722
ROB Occupancy: 352 ccc: 188032458
ROB Occupancy: 352 ccc: 188053140
ROB Occupancy: 352 ccc: 188075312
ROB Occupancy: 352 ccc: 188096007
ROB Occupancy: 352 ccc: 188117078
ROB Occupancy: 352 ccc: 188139526
ROB Occupancy: 338 ccc: 188159711
ROB Occupancy: 352 ccc: 188180444
ROB Occupancy: 352 ccc: 188202299
ROB Occupancy: 352 ccc: 188223358
ROB Occupancy: 352 ccc: 188245264
ROB Occupancy: 352 ccc: 188266831
ROB Occupancy: 352 ccc: 188288875
ROB Occupancy: 352 ccc: 188309644
ROB Occupancy: 338 ccc: 188332398
ROB Occupancy: 352 ccc: 188354470
ROB Occupancy: 352 ccc: 188375231
ROB Occupancy: 352 ccc: 188396623
ROB Occupancy: 338 ccc: 188417808
ROB Occupancy: 352 ccc: 188439178
ROB Occupancy: 352 ccc: 188460870
ROB Occupancy: 352 ccc: 188482840
ROB Occupancy: 352 ccc: 188504411
ROB Occupancy: 352 ccc: 188525411
ROB Occupancy: 352 ccc: 188546671
ROB Occupancy: 352 ccc: 188568228
ROB Occupancy: 352 ccc: 188589912
ROB Occupancy: 352 ccc: 188610899
ROB Occupancy: 352 ccc: 188632093
ROB Occupancy: 352 ccc: 188653209
ROB Occupancy: 338 ccc: 188674659
ROB Occupancy: 352 ccc: 188696421
ROB Occupancy: 352 ccc: 188718023
ROB Occupancy: 352 ccc: 188740106
ROB Occupancy: 348 ccc: 188761626
ROB Occupancy: 352 ccc: 188783041
ROB Occupancy: 352 ccc: 188804321
ROB Occupancy: 352 ccc: 188824810
ROB Occupancy: 338 ccc: 188846967
ROB Occupancy: 352 ccc: 188868107
ROB Occupancy: 352 ccc: 188889355
ROB Occupancy: 352 ccc: 188910975
ROB Occupancy: 338 ccc: 188931229
ROB Occupancy: 352 ccc: 188952101
ROB Occupancy: 352 ccc: 188974040
ROB Occupancy: 352 ccc: 188995382
ROB Occupancy: 338 ccc: 189017800
ROB Occupancy: 352 ccc: 189037965
ROB Occupancy: 352 ccc: 189059500
ROB Occupancy: 352 ccc: 189080807
ROB Occupancy: 352 ccc: 189101105
ROB Occupancy: 352 ccc: 189121965
ROB Occupancy: 352 ccc: 189144051
ROB Occupancy: 352 ccc: 189165545
ROB Occupancy: 352 ccc: 189186736
ROB Occupancy: 338 ccc: 189209641
ROB Occupancy: 352 ccc: 189231331
ROB Occupancy: 352 ccc: 189253394
ROB Occupancy: 352 ccc: 189274358
ROB Occupancy: 352 ccc: 189296046
ROB Occupancy: 352 ccc: 189317139
ROB Occupancy: 352 ccc: 189338777
ROB Occupancy: 338 ccc: 189359662
ROB Occupancy: 328 ccc: 189382222
ROB Occupancy: 352 ccc: 189404202
ROB Occupancy: 352 ccc: 189425511
Average ROB occupancy Load Stall Begin: 341.666
Average ROB occupancy Load Stall End: 347.202
Min ROB occupancy Load Stall Begin: 6
Max ROB occupancy Load Stall Begin: 352
Min ROB occupancy Load Stall End: 6
Max ROB occupancy Load Stall End: 352
Average ROB occupancy Critical Load Stall Begin: -nan
Average ROB occupancy Critical Load Stall End: -nan
Min ROB occupancy Critical Load Stall Begin: 400
Max ROB occupancy Critical Load Stall Begin: 0
Min ROB occupancy Critical Load Stall End: 400
Max ROB occupancy Critical Load Stall End: 0
 ROB Load Stall Begin Bucket Count 0: 37
 ROB Load Stall End Bucket Count 0: 24
 ROB Critical Load Stall Begin Bucket Count 0: 0
 ROB Critical Load Stall End Bucket Count 0: 0
 ROB Load Stall Begin Bucket Count 1: 195
 ROB Load Stall End Bucket Count 1: 127
 ROB Critical Load Stall Begin Bucket Count 1: 0
 ROB Critical Load Stall End Bucket Count 1: 0
 ROB Load Stall Begin Bucket Count 2: 357
 ROB Load Stall End Bucket Count 2: 336
 ROB Critical Load Stall Begin Bucket Count 2: 0
 ROB Critical Load Stall End Bucket Count 2: 0
 ROB Load Stall Begin Bucket Count 3: 222
 ROB Load Stall End Bucket Count 3: 230
 ROB Critical Load Stall Begin Bucket Count 3: 0
 ROB Critical Load Stall End Bucket Count 3: 0
 ROB Load Stall Begin Bucket Count 4: 150
 ROB Load Stall End Bucket Count 4: 157
 ROB Critical Load Stall Begin Bucket Count 4: 0
 ROB Critical Load Stall End Bucket Count 4: 0
 ROB Load Stall Begin Bucket Count 5: 170691
 ROB Load Stall End Bucket Count 5: 66156
 ROB Critical Load Stall Begin Bucket Count 5: 0
 ROB Critical Load Stall End Bucket Count 5: 0
 ROB Load Stall Begin Bucket Count 6: 4128226
 ROB Load Stall End Bucket Count 6: 4232848
 ROB Critical Load Stall Begin Bucket Count 6: 0
 ROB Critical Load Stall End Bucket Count 6: 0
PIST Tag Read Accesses: 659164
PIST Read Accesses: 329582
PIST Tag Write Accesses: 659164
PIST Write Accesses: 329582
Criticality detector called times: 329587
Max global_stall_cycles_count: 6298744
Threshold Modified: 0 times, factor: 0
Sturdy critical IP cache stats: 
 Unused entries: 0
CIC Tag Read Accesses: 0
CIC Read Accesses: 0
CIC Tag Write Accesses: 0
CIC Write Accesses: 0
Wobbly critical IP cache stats: 
 Unused entries: 32
CIC Tag Read Accesses: 542735015
CIC Read Accesses: 0
CIC Tag Write Accesses: 62661482
CIC Write Accesses: 0
ITLB TOTAL     ACCESS:   13777035  HIT:   13777035  MISS:          0  HIT %:        100  MISS %:          0   MPKI: 0
ITLB LOAD TRANSLATION ACCESS:   13777035  HIT:   13777035  MISS:          0  HIT %:        100  MISS %:          0   MPKI: 0
ITLB PREFETCH  REQUESTED:          0  ISSUED:          0  USEFUL:          0  USELESS:          0
ITLB USEFUL LOAD PREFETCHES:          0 PREFETCH ISSUED TO LOWER LEVEL:          0  ACCURACY: -nan
ITLB TIMELY PREFETCHES:          0 LATE PREFETCHES: 0 DROPPED PREFETCHES: 0
ITLB PREFETCHES SAME FILL-ORIGIN LEVEL: 0 DIFFERENT FILL-ORIGIN LEVEL: 0
ITLB AVERAGE MISS LATENCY: -nan cycles
ITLB RQ	ACCESS:   14569970	FORWARD:          0	MERGED:     792935	TO_CACHE:   13777035

DTLB TOTAL     ACCESS:   43752751  HIT:   43234260  MISS:     518491  HIT %:     98.815  MISS %:    1.18505   MPKI: 5.18491
DTLB LOAD TRANSLATION ACCESS:   43752751  HIT:   43234260  MISS:     518491  HIT %:     98.815  MISS %:    1.18505   MPKI: 5.18491
DTLB PREFETCH  REQUESTED:          0  ISSUED:          0  USEFUL:          0  USELESS:          0
DTLB USEFUL LOAD PREFETCHES:          0 PREFETCH ISSUED TO LOWER LEVEL:          0  ACCURACY: -nan
DTLB TIMELY PREFETCHES:          0 LATE PREFETCHES: 0 DROPPED PREFETCHES: 0
DTLB PREFETCHES SAME FILL-ORIGIN LEVEL: 0 DIFFERENT FILL-ORIGIN LEVEL: 0
DTLB AVERAGE MISS LATENCY: 174.674 cycles
DTLB RQ	ACCESS:   48506048	FORWARD:          0	MERGED:    4729051	TO_CACHE:   43776997

STLB TOTAL     ACCESS:     518491  HIT:     178898  MISS:     339593  HIT %:    34.5036  MISS %:    65.4964   MPKI: 3.39593
STLB LOAD TRANSLATION ACCESS:     518491  HIT:     178898  MISS:     339593  HIT %:    34.5036  MISS %:    65.4964   MPKI: 3.39593
STLB PREFETCH  REQUESTED:          0  ISSUED:          0  USEFUL:          0  USELESS:          0
STLB USEFUL LOAD PREFETCHES:          0 PREFETCH ISSUED TO LOWER LEVEL:          0  ACCURACY: -nan
STLB TIMELY PREFETCHES:          0 LATE PREFETCHES: 0 DROPPED PREFETCHES: 0
STLB PREFETCHES SAME FILL-ORIGIN LEVEL: 0 DIFFERENT FILL-ORIGIN LEVEL: 0
STLB AVERAGE MISS LATENCY: 231.835 cycles
STLB RQ	ACCESS:     518491	FORWARD:          0	MERGED:          0	TO_CACHE:     518491

STLB Hit, L1D data hit: 0
STLB Hit, L2C data hit: 0
STLB Hit, LLC data hit: 0
STLB Hit, LLC data miss: 0
STLB STLB hints to L2: 0
L1D TOTAL     ACCESS:   48187512  HIT:   46263496  MISS:    1924016  HIT %:    96.0072  MISS %:    3.99277   MPKI: 19.2402
L1D LOAD      ACCESS:   41776205  HIT:   39852189  MISS:    1924016  HIT %:    95.3945  MISS %:    4.60553   MPKI: 19.2402
L1D RFO       ACCESS:    6411307  HIT:    6411307  MISS:          0  HIT %:        100  MISS %:          0   MPKI: 0
L1D PREFETCH  REQUESTED:          0  ISSUED:          0  USEFUL:          0  USELESS:          0
L1D USEFUL LOAD PREFETCHES:          0 PREFETCH ISSUED TO LOWER LEVEL:          0  ACCURACY: -nan
L1D TIMELY PREFETCHES:          0 LATE PREFETCHES: 0 DROPPED PREFETCHES: 0
L1D PREFETCHES SAME FILL-ORIGIN LEVEL: 0 DIFFERENT FILL-ORIGIN LEVEL: 0
L1D AVERAGE MISS LATENCY: 98.594 cycles
L1D RQ	ACCESS:   63800865	FORWARD:          0	MERGED:   21679990	TO_CACHE:   42094740
L1D WQ	ACCESS:    6411308	FORWARD:      26135	MERGED:          0	TO_CACHE:    6411308

L1D UNIQUE REGIONS ACCESSED: 0
L1D REGIONS CONFLICTS: 0
L1D Cross Page Prefetch Requests: 0
L1D Same Page Prefetch Requests: 0
L1D ROI Sum of L1D PQ occupancy: 0
L1D PREFETCHES PUSHED FROM L2C: 0
L1I TOTAL     ACCESS:   14569968  HIT:   14569968  MISS:          0  HIT %:        100  MISS %:          0   MPKI: 0
L1I LOAD      ACCESS:   14569968  HIT:   14569968  MISS:          0  HIT %:        100  MISS %:          0   MPKI: 0
L1I PREFETCH  REQUESTED:          0  ISSUED:          0  USEFUL:          0  USELESS:          0
L1I USEFUL LOAD PREFETCHES:          0 PREFETCH ISSUED TO LOWER LEVEL:          0  ACCURACY: -nan
L1I TIMELY PREFETCHES:          0 LATE PREFETCHES: 0 DROPPED PREFETCHES: 0
L1I PREFETCHES SAME FILL-ORIGIN LEVEL: 0 DIFFERENT FILL-ORIGIN LEVEL: 0
L1I AVERAGE MISS LATENCY: -nan cycles
L1I RQ	ACCESS:   32757518	FORWARD:          0	MERGED:   18187548	TO_CACHE:   14569970

BTB TOTAL     ACCESS:    1121884  HIT:    1121879  MISS:          5  HIT %:    99.9996  MISS %: 0.000445679   MPKI: 5e-05
BTB BRANCH_DIRECT_JUMP	ACCESS:      80123  HIT:      80122  MISS:          1
BTB BRANCH_INDIRECT	ACCESS:          0  HIT:          0  MISS:          0
BTB BRANCH_CONDITIONAL	ACCESS:    1041761  HIT:    1041757  MISS:          4
BTB BRANCH_DIRECT_CALL	ACCESS:          0  HIT:          0  MISS:          0
BTB BRANCH_INDIRECT_CALL	ACCESS:          0  HIT:          0  MISS:          0
BTB BRANCH_RETURN	ACCESS:          0  HIT:          0  MISS:          0
BTB BRANCH_OTHER ACCESS:          0  HIT:          0  MISS:          0

L2C TOTAL     ACCESS:    3830968  HIT:    1838274  MISS:    1992694  HIT %:    47.9846  MISS %:    52.0154   MPKI: 19.9269
L2C LOAD      ACCESS:    1924016  HIT:     588671  MISS:    1335345  HIT %:     30.596  MISS %:     69.404   MPKI: 13.3534
L2C DATA LOAD MPKI: 13.3534
L2C INSTRUCTION LOAD MPKI: 0
L2C PREFETCH  ACCESS:     595786  HIT:        697  MISS:     595089  HIT %:   0.116988  MISS %:     99.883   MPKI: 5.95089
L2C DATA PREFETCH MPKI: 5.95089
L2C INSTRUCTION PREFETCH MPKI: 0
L2C WRITEBACK ACCESS:     971469  HIT:     952465  MISS:      19004  HIT %:    98.0438  MISS %:    1.95621   MPKI: 0.19004
L2C LOAD TRANSLATION ACCESS:     339697  HIT:     296441  MISS:      43256  HIT %:    87.2663  MISS %:    12.7337   MPKI: 0.43256
L2C PREFETCH  REQUESTED:    5142599  ISSUED:    4868719  USEFUL:     588538  USELESS:       6539
L2C USEFUL LOAD PREFETCHES:     588538 PREFETCH ISSUED TO LOWER LEVEL:    4816448  ACCURACY: 12.2193
L2C TIMELY PREFETCHES:     588538 LATE PREFETCHES: 6230 DROPPED PREFETCHES: 0
L2C PREFETCHES SAME FILL-ORIGIN LEVEL: 601319 DIFFERENT FILL-ORIGIN LEVEL: 4215129
L2C AVERAGE MISS LATENCY: 95.8248 cycles
L2C RQ	ACCESS:    2263713	FORWARD:          0	MERGED:          0	TO_CACHE:    2263713
L2C WQ	ACCESS:     971469	FORWARD:          0	MERGED:          0	TO_CACHE:     971469
L2C PQ	ACCESS:    4868719	FORWARD:          0	MERGED:      45633	TO_CACHE:    4823086

L2C Instructions Evicting Data 0
L2C Translations Evicting Data 42847
L2C Data Evicting Data 1888093
L2C Instructions Evicting Instructions 0
L2C Translations Evicting Instructions 0
L2C Data Evicting Instructions 0
L2C Instructions Evicting Translations 0
L2C Translations Evicting Translations 409
L2C Data Evicting Translations 42341
L2C Dense regions hint from L2: 0
PSCL5 TOTAL     ACCESS:     339593  HIT:     339593  MISS:          0  HIT %:        100  MISS %:          0   MPKI: 0
PSCL5 LOAD TRANSLATION ACCESS:     339593  HIT:     339593  MISS:          0  HIT %:        100  MISS %:          0   MPKI: 0
PSCL5 PREFETCH  REQUESTED:          0  ISSUED:          0  USEFUL:          0  USELESS:          0
PSCL5 USEFUL LOAD PREFETCHES:          0 PREFETCH ISSUED TO LOWER LEVEL:          0  ACCURACY: -nan
PSCL5 TIMELY PREFETCHES:          0 LATE PREFETCHES: 0 DROPPED PREFETCHES: 0
PSCL5 PREFETCHES SAME FILL-ORIGIN LEVEL: 0 DIFFERENT FILL-ORIGIN LEVEL: 0

PSCL4 TOTAL     ACCESS:     339593  HIT:     339593  MISS:          0  HIT %:        100  MISS %:          0   MPKI: 0
PSCL4 LOAD TRANSLATION ACCESS:     339593  HIT:     339593  MISS:          0  HIT %:        100  MISS %:          0   MPKI: 0
PSCL4 PREFETCH  REQUESTED:          0  ISSUED:          0  USEFUL:          0  USELESS:          0
PSCL4 USEFUL LOAD PREFETCHES:          0 PREFETCH ISSUED TO LOWER LEVEL:          0  ACCURACY: -nan
PSCL4 TIMELY PREFETCHES:          0 LATE PREFETCHES: 0 DROPPED PREFETCHES: 0
PSCL4 PREFETCHES SAME FILL-ORIGIN LEVEL: 0 DIFFERENT FILL-ORIGIN LEVEL: 0

PSCL3 TOTAL     ACCESS:     339593  HIT:     339593  MISS:          0  HIT %:        100  MISS %:          0   MPKI: 0
PSCL3 LOAD TRANSLATION ACCESS:     339593  HIT:     339593  MISS:          0  HIT %:        100  MISS %:          0   MPKI: 0
PSCL3 PREFETCH  REQUESTED:          0  ISSUED:          0  USEFUL:          0  USELESS:          0
PSCL3 USEFUL LOAD PREFETCHES:          0 PREFETCH ISSUED TO LOWER LEVEL:          0  ACCURACY: -nan
PSCL3 TIMELY PREFETCHES:          0 LATE PREFETCHES: 0 DROPPED PREFETCHES: 0
PSCL3 PREFETCHES SAME FILL-ORIGIN LEVEL: 0 DIFFERENT FILL-ORIGIN LEVEL: 0

PSCL2 TOTAL     ACCESS:     339593  HIT:     338990  MISS:        603  HIT %:    99.8224  MISS %:   0.177565   MPKI: 0.00603
PSCL2 LOAD TRANSLATION ACCESS:     339593  HIT:     338990  MISS:        603  HIT %:    99.8224  MISS %:   0.177565   MPKI: 0.00603
PSCL2 PREFETCH  REQUESTED:          0  ISSUED:          0  USEFUL:          0  USELESS:          0
PSCL2 USEFUL LOAD PREFETCHES:          0 PREFETCH ISSUED TO LOWER LEVEL:          0  ACCURACY: -nan
PSCL2 TIMELY PREFETCHES:          0 LATE PREFETCHES: 0 DROPPED PREFETCHES: 0
PSCL2 PREFETCHES SAME FILL-ORIGIN LEVEL: 0 DIFFERENT FILL-ORIGIN LEVEL: 0

LLC TOTAL     ACCESS:    7147300  HIT:    5007981  MISS:    2139319  HIT %:    70.0682  MISS %:    29.9318   MPKI: 21.3932
LLC LOAD      ACCESS:    1329115  HIT:     823166  MISS:     505949  HIT %:    61.9334  MISS %:    38.0666   MPKI: 5.05949
LLC PREFETCH  ACCESS:    4803080  HIT:    3252906  MISS:    1550174  HIT %:    67.7254  MISS %:    32.2746   MPKI: 15.5017
LLC WRITEBACK ACCESS:     971849  HIT:     930046  MISS:      41803  HIT %:    95.6986  MISS %:    4.30139   MPKI: 0.41803
LLC LOAD TRANSLATION ACCESS:      43256  HIT:       1863  MISS:      41393  HIT %:    4.30692  MISS %:    95.6931   MPKI: 0.41393
LLC PREFETCH  REQUESTED:          0  ISSUED:          0  USEFUL:     672541  USELESS:     864495
LLC USEFUL LOAD PREFETCHES:     672541 PREFETCH ISSUED TO LOWER LEVEL:    1553547  ACCURACY: 43.2907
LLC TIMELY PREFETCHES:     672541 LATE PREFETCHES: 3373 DROPPED PREFETCHES: 0
LLC PREFETCHES SAME FILL-ORIGIN LEVEL: 1455998 DIFFERENT FILL-ORIGIN LEVEL: 0
LLC AVERAGE MISS LATENCY: 173.548 cycles
LLC RQ	ACCESS:    1372370	FORWARD:          0	MERGED:          0	TO_CACHE:    1372370
LLC WQ	ACCESS:     971849	FORWARD:          0	MERGED:          0	TO_CACHE:     971849
LLC PQ	ACCESS:    4816448	FORWARD:          0	MERGED:       2328	TO_CACHE:    4814120

LLC Dense regions hint to LLC: 0

RAW hits: 219883
Loads Generated: 64020761
Loads sent to L1D: 63800865
Stores Generated: 6411310
Stores sent to L1D: 6411308
Major fault: 0 Minor fault: 385139
Allocated PAGES: 385139
 All Calls: 2886080
 Critical Calls: 1877542
------------------
Depth Distribution
------------------
depth 0: 0
depth 1: 1873639
depth 2: 1166342
depth 3: 533777
depth 4: 364678
depth 5: 337530
depth 6: 306406
depth 7: 189653
depth 8: 94436
depth 9: 2233
depth 10: 22
depth 11: 2
depth 12: 1
depth 13: 0
depth 14: 0
depth 15: 0
depth 16: 0
depth 17: 0
depth 18: 0
depth 19: 0
depth 20: 0
depth 21: 0
depth 22: 0
depth 23: 0
depth 24: 0
depth 25: 0
depth 26: 0
depth 27: 0
depth 28: 0
depth 29: 0
Total: 4868719
-----------------------------
-----------------------------
	Captured at Filter
-----------------------------
depth 0: 0
depth 1: 9745
depth 2: 4546
depth 3: 2144
depth 4: 1514
depth 5: 1418
depth 6: 1321
depth 7: 825
depth 8: 468
depth 9: 7
depth 10: 0
depth 11: 0
depth 12: 0
depth 13: 0
depth 14: 0
depth 15: 0
depth 16: 0
depth 17: 0
depth 18: 0
depth 19: 0
depth 20: 0
depth 21: 0
depth 22: 0
depth 23: 0
depth 24: 0
depth 25: 0
depth 26: 0
depth 27: 0
depth 28: 0
depth 29: 0
-----------------------------
-----------------------------
		Lost at Page
-----------------------------
depth 0: 0
depth 1: 427124
depth 2: 606657
depth 3: 459136
depth 4: 181389
depth 5: 51081
depth 6: 35026
depth 7: 25871
depth 8: 15743
depth 9: 491
depth 10: 3
depth 11: 0
depth 12: 0
depth 13: 0
depth 14: 0
depth 15: 0
depth 16: 0
depth 17: 0
depth 18: 0
depth 19: 0
depth 20: 0
depth 21: 0
depth 22: 0
depth 23: 0
depth 24: 0
depth 25: 0
depth 26: 0
depth 27: 0
depth 28: 0
depth 29: 0
-----------------------------
-----------------------------
	Lost due to PQ Size
-----------------------------
273880
-----------------------------
ST read accesses: 1542824
ST write accesses: 334718
PT read accesses: 39423154
PT write accesses: 2006278
FILTER read accesses: 9034428
FILTER write accesses: 3192434
GHR read accesses: 15847142
GHR write accesses: 1802521
GHR counter read accesses: 35378572
GHR counter write accesses: 3094744
ST tag read accesses: 893143363
ST tag write accesses: 101171936

DRAM Statistics
 CHANNEL 0
 RQ ROW_BUFFER_HIT:     834865  ROW_BUFFER_MISS:    1262651
 DBUS_CONGESTED:       1158
 WQ ROW_BUFFER_HIT:     168236  ROW_BUFFER_MISS:     808154  FULL:          0

 AVG_CONGESTED_CYCLE: 4
 All warmup complete: 2
Channel 0 Bank busy for read cycles: 0
Channel 0 Bank busy for write cycles: 0
Channel 0
Rank 0
0banks busy for read cycles: 12704689
0banks busy for write cycles: 96581
1banks busy for read cycles: 33693532
1banks busy for write cycles: 11198146
2banks busy for read cycles: 28938334
2banks busy for write cycles: 11382848
3banks busy for read cycles: 16716172
3banks busy for write cycles: 10626224
4banks busy for read cycles: 10157386
4banks busy for write cycles: 9144651
5banks busy for read cycles: 5141916
5banks busy for write cycles: 7018108
6banks busy for read cycles: 2381124
6banks busy for write cycles: 4615415
7banks busy for read cycles: 863449
7banks busy for write cycles: 2390159
8banks busy for read cycles: 345894
8banks busy for write cycles: 852748

CPU 0 Branch Prediction Accuracy: 99.9931% MPKI: 0.00083 Average ROB Occupancy at Mispredict: 339.771
Branch types
NOT_BRANCH: 98797941 98.7979%
BRANCH_DIRECT_JUMP: 80123 0.080123%
BRANCH_INDIRECT: 0 0%
BRANCH_CONDITIONAL: 1121884 1.12188%
BRANCH_DIRECT_CALL: 0 0%
BRANCH_INDIRECT_CALL: 0 0%
BRANCH_RETURN: 0 0%
BRANCH_OTHER: 0 0%

DRAM PAGES: 1048576
Allocated PAGES: 385139
