
*** ChampSim Multicore Out-of-Order Simulator ***

Warmup Instructions: 50000000
Simulation Instructions: 100000000
Number of CPUs: 1
LLC sets: 2048
LLC ways: 16
Off-chip DRAM Size: 4096 MB Channels: 1 Width: 64-bit Data Rate: 6400 MT/s
CPU 0 runs ../SPEC2017//649.fotonik3d_s-8225B.champsimtrace.xz
.xz
BTB has LRU replacement policy
ITLB has LRU replacement policy
DTLB has LRU replacement policy
STLB has LRU replacement policy
L1I has LRU replacement policy
L1D has LRU replacement policy
Bingo PHT WAYS: 16 and PHT_SIZE: 16384
Initialize SRRIP state for L2C
Initialize DRRIP state for LLC
Heartbeat CPU 0 instructions: 10000001 cycles: 2924670 heartbeat IPC: 3.41919 cumulative IPC: 3.41919 (Simulation time: 0 hr 6 min 26 sec) 
Heartbeat CPU 0 instructions: 20000001 cycles: 5849106 heartbeat IPC: 3.41946 cumulative IPC: 3.41933 (Simulation time: 0 hr 12 min 33 sec) 
Heartbeat CPU 0 instructions: 30000000 cycles: 8773531 heartbeat IPC: 3.41948 cumulative IPC: 3.41938 (Simulation time: 0 hr 17 min 57 sec) 
Heartbeat CPU 0 instructions: 40000002 cycles: 11697985 heartbeat IPC: 3.41944 cumulative IPC: 3.41939 (Simulation time: 0 hr 22 min 53 sec) 
Heartbeat CPU 0 instructions: 50000001 cycles: 14622526 heartbeat IPC: 3.41934 cumulative IPC: 3.41938 (Simulation time: 0 hr 27 min 25 sec) 

Warmup complete CPU 0 instructions: 50000001 cycles: 14622526 (Simulation time: 0 hr 27 min 25 sec) 

Heartbeat CPU 0 instructions: 60000000 cycles: 24823810 heartbeat IPC: 0.980269 cumulative IPC: 0.980269 (Simulation time: 0 hr 32 min 14 sec) 
Heartbeat CPU 0 instructions: 70000001 cycles: 34871264 heartbeat IPC: 0.995277 cumulative IPC: 0.987716 (Simulation time: 0 hr 36 min 19 sec) 
Heartbeat CPU 0 instructions: 80000002 cycles: 44911047 heartbeat IPC: 0.996038 cumulative IPC: 0.990474 (Simulation time: 0 hr 40 min 10 sec) 
Heartbeat CPU 0 instructions: 90000003 cycles: 54945374 heartbeat IPC: 0.996579 cumulative IPC: 0.991993 (Simulation time: 0 hr 44 min 0 sec) 
Heartbeat CPU 0 instructions: 100000000 cycles: 64977596 heartbeat IPC: 0.996788 cumulative IPC: 0.992949 (Simulation time: 0 hr 47 min 44 sec) 
Heartbeat CPU 0 instructions: 110000000 cycles: 75018565 heartbeat IPC: 0.99592 cumulative IPC: 0.993443 (Simulation time: 0 hr 51 min 20 sec) 
Heartbeat CPU 0 instructions: 120000002 cycles: 85048226 heartbeat IPC: 0.997043 cumulative IPC: 0.993955 (Simulation time: 0 hr 54 min 42 sec) 
Heartbeat CPU 0 instructions: 130000003 cycles: 95067836 heartbeat IPC: 0.998043 cumulative IPC: 0.994464 (Simulation time: 0 hr 57 min 50 sec) 
Heartbeat CPU 0 instructions: 140000002 cycles: 105097165 heartbeat IPC: 0.997076 cumulative IPC: 0.994754 (Simulation time: 1 hr 0 min 55 sec) 
Heartbeat CPU 0 instructions: 150000003 cycles: 115138500 heartbeat IPC: 0.995884 cumulative IPC: 0.994867 (Simulation time: 1 hr 3 min 36 sec) 
Finished CPU 0 instructions: 100000002 cycles: 100515974 cumulative IPC: 0.994867 (Simulation time: 1 hr 3 min 36 sec) 

ChampSim completed all CPUs

Region of Interest Statistics

CPU 0 cumulative IPC: 0.994867 instructions: 100000002 cycles: 100515974

CPU 0 Average Load ROB stall cycles: 2.6151e+07
CPU 0 Fraction of times ROB stalled by Loads: 40.1228
CPU 0 Percentage of Load stall cycles in Total stall cycles: 3.01419e+08
Issued all: 52004491
Issued LT all: 38042560
rob_not_full_when_issued_lt_all: 36738181
Issued LT one: 32651420
rob_not_full_when_issued_lt_one: 31467819
FVP critical_dynamic_instances_0: 23068490
FVP unique_critical_ips_0: 67
 Total stall cycles: 77676966
 Total load stall cycles: 234132989935050
Unique Load IPs: 147
CPU 0 NUM of IPS identified critical: 0
CPU 0 Num of Load IPs stalling ROB: 0
Threshold modification factor: 0
Trouble in retire width: -nan
MaC = Marked as critical.
lt_50_percent_before_Mac: 0
gt_90_percent_before_Mac: 0
gt_75_percent_before_Mac: 0
gt_50_percent_before_Mac: 0
stall_proportion_bin_same_before_after: 0
stall_proportion_bin_lower_before_after: 0
stall_proportion_bin_upper_before_after: 0
average_stall_proportion_before: -nan
average_stall_proportion_after: -nan
Critical IP stalls, total frequency: 0
Non-critical IP stalls, total frequency: 0
Total Freq all stalling IPs: 0
Critical_IP_Detector_Accuracy_70: 0.0149254
Critical_IP_Detector_Accuracy_80: 0.0149254
Critical_IP_Detector_Accuracy_90: 0.0149254
Critical_IP_Detector_Coverage_70: 1
Critical_IP_Detector_Coverage_80: 1
Critical_IP_Detector_Coverage_90: 1
stat_90_percent_critical_ip_stalls_freq: 666426
stat_90_percent_non_critical_ip_stalls_freq: 18446744073708885190
AVERAGE_ROB_Occupancy_90_Percent_Critical_IP_Stalls: 65.0629
AVERAGE_ROB_Occupancy_90_Percent_Non_Critical_IP_Stalls: 1.10271e-11
Critical_IP_ROB_Stalls_Bucket_0: 0
Non-critical_IP_ROB_Stalls_Bucket_0: 1438562
Critical_IP_ROB_Stalls_Bucket_1: 0
Non-critical_IP_ROB_Stalls_Bucket_1: 1790488
Critical_IP_ROB_Stalls_Bucket_2: 0
Non-critical_IP_ROB_Stalls_Bucket_2: 107630
Critical_IP_ROB_Stalls_Bucket_3: 0
Non-critical_IP_ROB_Stalls_Bucket_3: 83415
Critical_IP_ROB_Stalls_Bucket_4: 0
Non-critical_IP_ROB_Stalls_Bucket_4: 63116
Critical_IP_ROB_Stalls_Bucket_5: 0
Non-critical_IP_ROB_Stalls_Bucket_5: 75645
Critical_IP_ROB_Stalls_Bucket_6: 0
Non-critical_IP_ROB_Stalls_Bucket_6: 33387
0 => IPs accounting for >50 percent of stalls, 1 => 55, 2 => 60, 3 => 65 and so on till 90.
percent50: inf num IPs:  1
percent55: inf num IPs: 1
percent60: inf num IPs: 1
percent65: inf num IPs: 1
percent70: inf num IPs: 1
percent75: inf num IPs: 1
percent80: inf num IPs: 1
percent85: inf num IPs: 1
percent90: inf num IPs: 1
Critical_ROB_Stalls_Percent_0_Bucket_0: 359055
Non-critical_ROB_Stalls_Percent_0_Bucket_0: 1079507
Critical_ROB_Stalls_Percent_0_Bucket_1: 252923
Non-critical_ROB_Stalls_Percent_0_Bucket_1: 1537565
Critical_ROB_Stalls_Percent_0_Bucket_2: 19792
Non-critical_ROB_Stalls_Percent_0_Bucket_2: 87838
Critical_ROB_Stalls_Percent_0_Bucket_3: 15684
Non-critical_ROB_Stalls_Percent_0_Bucket_3: 67731
Critical_ROB_Stalls_Percent_0_Bucket_4: 9292
Non-critical_ROB_Stalls_Percent_0_Bucket_4: 53824
Critical_ROB_Stalls_Percent_0_Bucket_5: 6930
Non-critical_ROB_Stalls_Percent_0_Bucket_5: 68715
Critical_ROB_Stalls_Percent_0_Bucket_6: 2750
Non-critical_ROB_Stalls_Percent_0_Bucket_6: 30637
Critical_ROB_Stalls_Percent_1_Bucket_0: 359055
Non-critical_ROB_Stalls_Percent_1_Bucket_0: 1079507
Critical_ROB_Stalls_Percent_1_Bucket_1: 252923
Non-critical_ROB_Stalls_Percent_1_Bucket_1: 1537565
Critical_ROB_Stalls_Percent_1_Bucket_2: 19792
Non-critical_ROB_Stalls_Percent_1_Bucket_2: 87838
Critical_ROB_Stalls_Percent_1_Bucket_3: 15684
Non-critical_ROB_Stalls_Percent_1_Bucket_3: 67731
Critical_ROB_Stalls_Percent_1_Bucket_4: 9292
Non-critical_ROB_Stalls_Percent_1_Bucket_4: 53824
Critical_ROB_Stalls_Percent_1_Bucket_5: 6930
Non-critical_ROB_Stalls_Percent_1_Bucket_5: 68715
Critical_ROB_Stalls_Percent_1_Bucket_6: 2750
Non-critical_ROB_Stalls_Percent_1_Bucket_6: 30637
Critical_ROB_Stalls_Percent_2_Bucket_0: 359055
Non-critical_ROB_Stalls_Percent_2_Bucket_0: 1079507
Critical_ROB_Stalls_Percent_2_Bucket_1: 252923
Non-critical_ROB_Stalls_Percent_2_Bucket_1: 1537565
Critical_ROB_Stalls_Percent_2_Bucket_2: 19792
Non-critical_ROB_Stalls_Percent_2_Bucket_2: 87838
Critical_ROB_Stalls_Percent_2_Bucket_3: 15684
Non-critical_ROB_Stalls_Percent_2_Bucket_3: 67731
Critical_ROB_Stalls_Percent_2_Bucket_4: 9292
Non-critical_ROB_Stalls_Percent_2_Bucket_4: 53824
Critical_ROB_Stalls_Percent_2_Bucket_5: 6930
Non-critical_ROB_Stalls_Percent_2_Bucket_5: 68715
Critical_ROB_Stalls_Percent_2_Bucket_6: 2750
Non-critical_ROB_Stalls_Percent_2_Bucket_6: 30637
Critical_ROB_Stalls_Percent_3_Bucket_0: 359055
Non-critical_ROB_Stalls_Percent_3_Bucket_0: 1079507
Critical_ROB_Stalls_Percent_3_Bucket_1: 252923
Non-critical_ROB_Stalls_Percent_3_Bucket_1: 1537565
Critical_ROB_Stalls_Percent_3_Bucket_2: 19792
Non-critical_ROB_Stalls_Percent_3_Bucket_2: 87838
Critical_ROB_Stalls_Percent_3_Bucket_3: 15684
Non-critical_ROB_Stalls_Percent_3_Bucket_3: 67731
Critical_ROB_Stalls_Percent_3_Bucket_4: 9292
Non-critical_ROB_Stalls_Percent_3_Bucket_4: 53824
Critical_ROB_Stalls_Percent_3_Bucket_5: 6930
Non-critical_ROB_Stalls_Percent_3_Bucket_5: 68715
Critical_ROB_Stalls_Percent_3_Bucket_6: 2750
Non-critical_ROB_Stalls_Percent_3_Bucket_6: 30637
Critical_ROB_Stalls_Percent_4_Bucket_0: 359055
Non-critical_ROB_Stalls_Percent_4_Bucket_0: 1079507
Critical_ROB_Stalls_Percent_4_Bucket_1: 252923
Non-critical_ROB_Stalls_Percent_4_Bucket_1: 1537565
Critical_ROB_Stalls_Percent_4_Bucket_2: 19792
Non-critical_ROB_Stalls_Percent_4_Bucket_2: 87838
Critical_ROB_Stalls_Percent_4_Bucket_3: 15684
Non-critical_ROB_Stalls_Percent_4_Bucket_3: 67731
Critical_ROB_Stalls_Percent_4_Bucket_4: 9292
Non-critical_ROB_Stalls_Percent_4_Bucket_4: 53824
Critical_ROB_Stalls_Percent_4_Bucket_5: 6930
Non-critical_ROB_Stalls_Percent_4_Bucket_5: 68715
Critical_ROB_Stalls_Percent_4_Bucket_6: 2750
Non-critical_ROB_Stalls_Percent_4_Bucket_6: 30637
Critical_ROB_Stalls_Percent_5_Bucket_0: 359055
Non-critical_ROB_Stalls_Percent_5_Bucket_0: 1079507
Critical_ROB_Stalls_Percent_5_Bucket_1: 252923
Non-critical_ROB_Stalls_Percent_5_Bucket_1: 1537565
Critical_ROB_Stalls_Percent_5_Bucket_2: 19792
Non-critical_ROB_Stalls_Percent_5_Bucket_2: 87838
Critical_ROB_Stalls_Percent_5_Bucket_3: 15684
Non-critical_ROB_Stalls_Percent_5_Bucket_3: 67731
Critical_ROB_Stalls_Percent_5_Bucket_4: 9292
Non-critical_ROB_Stalls_Percent_5_Bucket_4: 53824
Critical_ROB_Stalls_Percent_5_Bucket_5: 6930
Non-critical_ROB_Stalls_Percent_5_Bucket_5: 68715
Critical_ROB_Stalls_Percent_5_Bucket_6: 2750
Non-critical_ROB_Stalls_Percent_5_Bucket_6: 30637
Critical_ROB_Stalls_Percent_6_Bucket_0: 359055
Non-critical_ROB_Stalls_Percent_6_Bucket_0: 1079507
Critical_ROB_Stalls_Percent_6_Bucket_1: 252923
Non-critical_ROB_Stalls_Percent_6_Bucket_1: 1537565
Critical_ROB_Stalls_Percent_6_Bucket_2: 19792
Non-critical_ROB_Stalls_Percent_6_Bucket_2: 87838
Critical_ROB_Stalls_Percent_6_Bucket_3: 15684
Non-critical_ROB_Stalls_Percent_6_Bucket_3: 67731
Critical_ROB_Stalls_Percent_6_Bucket_4: 9292
Non-critical_ROB_Stalls_Percent_6_Bucket_4: 53824
Critical_ROB_Stalls_Percent_6_Bucket_5: 6930
Non-critical_ROB_Stalls_Percent_6_Bucket_5: 68715
Critical_ROB_Stalls_Percent_6_Bucket_6: 2750
Non-critical_ROB_Stalls_Percent_6_Bucket_6: 30637
Critical_ROB_Stalls_Percent_7_Bucket_0: 359055
Non-critical_ROB_Stalls_Percent_7_Bucket_0: 1079507
Critical_ROB_Stalls_Percent_7_Bucket_1: 252923
Non-critical_ROB_Stalls_Percent_7_Bucket_1: 1537565
Critical_ROB_Stalls_Percent_7_Bucket_2: 19792
Non-critical_ROB_Stalls_Percent_7_Bucket_2: 87838
Critical_ROB_Stalls_Percent_7_Bucket_3: 15684
Non-critical_ROB_Stalls_Percent_7_Bucket_3: 67731
Critical_ROB_Stalls_Percent_7_Bucket_4: 9292
Non-critical_ROB_Stalls_Percent_7_Bucket_4: 53824
Critical_ROB_Stalls_Percent_7_Bucket_5: 6930
Non-critical_ROB_Stalls_Percent_7_Bucket_5: 68715
Critical_ROB_Stalls_Percent_7_Bucket_6: 2750
Non-critical_ROB_Stalls_Percent_7_Bucket_6: 30637
Critical_ROB_Stalls_Percent_8_Bucket_0: 359055
Non-critical_ROB_Stalls_Percent_8_Bucket_0: 1079507
Critical_ROB_Stalls_Percent_8_Bucket_1: 252923
Non-critical_ROB_Stalls_Percent_8_Bucket_1: 1537565
Critical_ROB_Stalls_Percent_8_Bucket_2: 19792
Non-critical_ROB_Stalls_Percent_8_Bucket_2: 87838
Critical_ROB_Stalls_Percent_8_Bucket_3: 15684
Non-critical_ROB_Stalls_Percent_8_Bucket_3: 67731
Critical_ROB_Stalls_Percent_8_Bucket_4: 9292
Non-critical_ROB_Stalls_Percent_8_Bucket_4: 53824
Critical_ROB_Stalls_Percent_8_Bucket_5: 6930
Non-critical_ROB_Stalls_Percent_8_Bucket_5: 68715
Critical_ROB_Stalls_Percent_8_Bucket_6: 2750
Non-critical_ROB_Stalls_Percent_8_Bucket_6: 30637
Average ROB occupancy Load Stall Begin: 54.162
Average ROB occupancy Load Stall End: 68.6962
Min ROB occupancy Load Stall Begin: 8
Max ROB occupancy Load Stall Begin: 352
Min ROB occupancy Load Stall End: 8
Max ROB occupancy Load Stall End: 352
Average ROB occupancy Critical Load Stall Begin: -nan
Average ROB occupancy Critical Load Stall End: -nan
Min ROB occupancy Critical Load Stall Begin: 400
Max ROB occupancy Critical Load Stall Begin: 0
Min ROB occupancy Critical Load Stall End: 400
Max ROB occupancy Critical Load Stall End: 0
 ROB Load Stall Begin Bucket Count 0: 2652630
 ROB Load Stall End Bucket Count 0: 1438562
 ROB Critical Load Stall Begin Bucket Count 0: 0
 ROB Critical Load Stall End Bucket Count 0: 0
 ROB Load Stall Begin Bucket Count 1: 648991
 ROB Load Stall End Bucket Count 1: 1790488
 ROB Critical Load Stall Begin Bucket Count 1: 0
 ROB Critical Load Stall End Bucket Count 1: 0
 ROB Load Stall Begin Bucket Count 2: 89671
 ROB Load Stall End Bucket Count 2: 107630
 ROB Critical Load Stall Begin Bucket Count 2: 0
 ROB Critical Load Stall End Bucket Count 2: 0
 ROB Load Stall Begin Bucket Count 3: 91556
 ROB Load Stall End Bucket Count 3: 83415
 ROB Critical Load Stall Begin Bucket Count 3: 0
 ROB Critical Load Stall End Bucket Count 3: 0
 ROB Load Stall Begin Bucket Count 4: 56078
 ROB Load Stall End Bucket Count 4: 63116
 ROB Critical Load Stall Begin Bucket Count 4: 0
 ROB Critical Load Stall End Bucket Count 4: 0
 ROB Load Stall Begin Bucket Count 5: 39809
 ROB Load Stall End Bucket Count 5: 75645
 ROB Critical Load Stall Begin Bucket Count 5: 0
 ROB Critical Load Stall End Bucket Count 5: 0
 ROB Load Stall Begin Bucket Count 6: 13508
 ROB Load Stall End Bucket Count 6: 33387
 ROB Critical Load Stall Begin Bucket Count 6: 0
 ROB Critical Load Stall End Bucket Count 6: 0
PIST Tag Read Accesses: 0
PIST Read Accesses: 0
PIST Tag Write Accesses: 0
PIST Write Accesses: 0
Criticality detector called times: 0
Max global_stall_cycles_count: 0
Threshold Modified: 0 times, factor: 0
ITLB TOTAL     ACCESS:   14037153  HIT:   14037153  MISS:          0  HIT %:        100  MISS %:          0   MPKI: 0
ITLB LOAD TRANSLATION ACCESS:   14037153  HIT:   14037153  MISS:          0  HIT %:        100  MISS %:          0   MPKI: 0
ITLB PREFETCH  REQUESTED:          0  ISSUED:          0  USEFUL:          0  USELESS:          0
ITLB USEFUL LOAD PREFETCHES:          0 PREFETCH ISSUED TO LOWER LEVEL:          0  ACCURACY: -nan
ITLB TIMELY PREFETCHES:          0 LATE PREFETCHES: 0 DROPPED PREFETCHES: 0
ITLB PREFETCHES SAME FILL-ORIGIN LEVEL: 0 DIFFERENT FILL-ORIGIN LEVEL: 0
ITLB AVERAGE MISS LATENCY: -nan cycles
ITLB RQ	ACCESS:   17547314	FORWARD:          0	MERGED:    3510161	TO_CACHE:   14037153

DTLB TOTAL     ACCESS:   15394583  HIT:   15371127  MISS:      23456  HIT %:    99.8476  MISS %:   0.152365   MPKI: 0.23456
DTLB LOAD TRANSLATION ACCESS:   15394583  HIT:   15371127  MISS:      23456  HIT %:    99.8476  MISS %:   0.152365   MPKI: 0.23456
DTLB PREFETCH  REQUESTED:          0  ISSUED:          0  USEFUL:          0  USELESS:          0
DTLB USEFUL LOAD PREFETCHES:          0 PREFETCH ISSUED TO LOWER LEVEL:          0  ACCURACY: -nan
DTLB TIMELY PREFETCHES:          0 LATE PREFETCHES: 0 DROPPED PREFETCHES: 0
DTLB PREFETCHES SAME FILL-ORIGIN LEVEL: 0 DIFFERENT FILL-ORIGIN LEVEL: 0
DTLB AVERAGE MISS LATENCY: 89.303 cycles
DTLB RQ	ACCESS:   24158980	FORWARD:          0	MERGED:    8763072	TO_CACHE:   15395908

STLB TOTAL     ACCESS:      23456  HIT:       9730  MISS:      13726  HIT %:    41.4819  MISS %:    58.5181   MPKI: 0.13726
STLB LOAD TRANSLATION ACCESS:      23456  HIT:       9730  MISS:      13726  HIT %:    41.4819  MISS %:    58.5181   MPKI: 0.13726
STLB PREFETCH  REQUESTED:          0  ISSUED:          0  USEFUL:          0  USELESS:          0
STLB USEFUL LOAD PREFETCHES:          0 PREFETCH ISSUED TO LOWER LEVEL:          0  ACCURACY: -nan
STLB TIMELY PREFETCHES:          0 LATE PREFETCHES: 0 DROPPED PREFETCHES: 0
STLB PREFETCHES SAME FILL-ORIGIN LEVEL: 0 DIFFERENT FILL-ORIGIN LEVEL: 0
STLB AVERAGE MISS LATENCY: 137 cycles
STLB RQ	ACCESS:      23456	FORWARD:          0	MERGED:          0	TO_CACHE:      23456

STLB Hit, L1D data hit: 0
STLB Hit, L2C data hit: 0
STLB Hit, LLC data hit: 0
STLB Hit, LLC data miss: 0
STLB STLB hints to L2: 0
L1D TOTAL     ACCESS:   23965072  HIT:   22641702  MISS:    1323370  HIT %:    94.4779  MISS %:    5.52208   MPKI: 13.2337
L1D LOAD      ACCESS:   16946963  HIT:   15624909  MISS:    1322054  HIT %:    92.1989  MISS %:    7.80113   MPKI: 13.2205
L1D RFO       ACCESS:    7018109  HIT:    7016793  MISS:       1316  HIT %:    99.9812  MISS %:  0.0187515   MPKI: 0.01316
L1D PREFETCH  REQUESTED:          0  ISSUED:          0  USEFUL:          0  USELESS:          0
L1D USEFUL LOAD PREFETCHES:          0 PREFETCH ISSUED TO LOWER LEVEL:          0  ACCURACY: -nan
L1D TIMELY PREFETCHES:          0 LATE PREFETCHES: 0 DROPPED PREFETCHES: 0
L1D PREFETCHES SAME FILL-ORIGIN LEVEL: 0 DIFFERENT FILL-ORIGIN LEVEL: 0
L1D AVERAGE MISS LATENCY: 24.5378 cycles
L1D RQ	ACCESS:   35082893	FORWARD:          0	MERGED:   17944283	TO_CACHE:   17138432
L1D WQ	ACCESS:    7020548	FORWARD:        178	MERGED:          0	TO_CACHE:    7020548

L1D UNIQUE REGIONS ACCESSED: 0
L1D REGIONS CONFLICTS: 0
L1D Cross Page Prefetch Requests: 0
L1D Same Page Prefetch Requests: 0
L1D ROI Sum of L1D PQ occupancy: 0
L1D PREFETCHES PUSHED FROM L2C: 0
L1I TOTAL     ACCESS:   17547313  HIT:   17547313  MISS:          0  HIT %:        100  MISS %:          0   MPKI: 0
L1I LOAD      ACCESS:   17547313  HIT:   17547313  MISS:          0  HIT %:        100  MISS %:          0   MPKI: 0
L1I PREFETCH  REQUESTED:          0  ISSUED:          0  USEFUL:          0  USELESS:          0
L1I USEFUL LOAD PREFETCHES:          0 PREFETCH ISSUED TO LOWER LEVEL:          0  ACCURACY: -nan
L1I TIMELY PREFETCHES:          0 LATE PREFETCHES: 0 DROPPED PREFETCHES: 0
L1I PREFETCHES SAME FILL-ORIGIN LEVEL: 0 DIFFERENT FILL-ORIGIN LEVEL: 0
L1I AVERAGE MISS LATENCY: -nan cycles
L1I RQ	ACCESS:   22833484	FORWARD:          0	MERGED:    5286170	TO_CACHE:   17547314

BTB TOTAL     ACCESS:    1754584  HIT:    1754575  MISS:          9  HIT %:    99.9995  MISS %: 0.000512942   MPKI: 9e-05
BTB BRANCH_DIRECT_JUMP	ACCESS:        438  HIT:        436  MISS:          2
BTB BRANCH_INDIRECT	ACCESS:          0  HIT:          0  MISS:          0
BTB BRANCH_CONDITIONAL	ACCESS:    1753270  HIT:    1753267  MISS:          3
BTB BRANCH_DIRECT_CALL	ACCESS:        438  HIT:        436  MISS:          2
BTB BRANCH_INDIRECT_CALL	ACCESS:          0  HIT:          0  MISS:          0
BTB BRANCH_RETURN	ACCESS:        438  HIT:        436  MISS:          2
BTB BRANCH_OTHER ACCESS:          0  HIT:          0  MISS:          0

L2C TOTAL     ACCESS:    3451068  HIT:    2541812  MISS:     909256  HIT %:    73.6529  MISS %:    26.3471   MPKI: 9.09256
L2C LOAD      ACCESS:    1322053  HIT:    1242664  MISS:      79389  HIT %:     93.995  MISS %:    6.00498   MPKI: 0.79389
L2C DATA LOAD MPKI: 0.79389
L2C INSTRUCTION LOAD MPKI: 0
L2C RFO       ACCESS:       1316  HIT:       1015  MISS:        301  HIT %:    77.1277  MISS %:    22.8723   MPKI: 0.00301
L2C PREFETCH  ACCESS:    1235249  HIT:     407886  MISS:     827363  HIT %:    33.0205  MISS %:    66.9795   MPKI: 8.27363
L2C DATA PREFETCH MPKI: 8.27363
L2C INSTRUCTION PREFETCH MPKI: 0
L2C WRITEBACK ACCESS:     878717  HIT:     878342  MISS:        375  HIT %:    99.9573  MISS %:  0.0426759   MPKI: 0.00375
L2C LOAD TRANSLATION ACCESS:      13733  HIT:      11905  MISS:       1828  HIT %:     86.689  MISS %:     13.311   MPKI: 0.01828
L2C PREFETCH  REQUESTED:    1251777  ISSUED:    1251777  USEFUL:     823982  USELESS:       3359
L2C USEFUL LOAD PREFETCHES:     823982 PREFETCH ISSUED TO LOWER LEVEL:     842970  ACCURACY: 97.7475
L2C TIMELY PREFETCHES:     823982 LATE PREFETCHES: 15607 DROPPED PREFETCHES: 0
L2C PREFETCHES SAME FILL-ORIGIN LEVEL: 842970 DIFFERENT FILL-ORIGIN LEVEL: 0
L2C AVERAGE MISS LATENCY: 214.453 cycles
L2C RQ	ACCESS:    1337102	FORWARD:          0	MERGED:          0	TO_CACHE:    1337102
L2C WQ	ACCESS:     878717	FORWARD:          0	MERGED:          0	TO_CACHE:     878717
L2C PQ	ACCESS:    1251777	FORWARD:          0	MERGED:          0	TO_CACHE:    1251777

L2C Instructions Evicting Data 0
L2C Translations Evicting Data 1828
L2C Data Evicting Data 905226
L2C Instructions Evicting Instructions 0
L2C Translations Evicting Instructions 0
L2C Data Evicting Instructions 0
L2C Instructions Evicting Translations 0
L2C Translations Evicting Translations 0
L2C Data Evicting Translations 1827
L2C Dense regions hint from L2: 0
PSCL5 TOTAL     ACCESS:      13726  HIT:      13726  MISS:          0  HIT %:        100  MISS %:          0   MPKI: 0
PSCL5 LOAD TRANSLATION ACCESS:      13726  HIT:      13726  MISS:          0  HIT %:        100  MISS %:          0   MPKI: 0
PSCL5 PREFETCH  REQUESTED:          0  ISSUED:          0  USEFUL:          0  USELESS:          0
PSCL5 USEFUL LOAD PREFETCHES:          0 PREFETCH ISSUED TO LOWER LEVEL:          0  ACCURACY: -nan
PSCL5 TIMELY PREFETCHES:          0 LATE PREFETCHES: 0 DROPPED PREFETCHES: 0
PSCL5 PREFETCHES SAME FILL-ORIGIN LEVEL: 0 DIFFERENT FILL-ORIGIN LEVEL: 0

PSCL4 TOTAL     ACCESS:      13726  HIT:      13726  MISS:          0  HIT %:        100  MISS %:          0   MPKI: 0
PSCL4 LOAD TRANSLATION ACCESS:      13726  HIT:      13726  MISS:          0  HIT %:        100  MISS %:          0   MPKI: 0
PSCL4 PREFETCH  REQUESTED:          0  ISSUED:          0  USEFUL:          0  USELESS:          0
PSCL4 USEFUL LOAD PREFETCHES:          0 PREFETCH ISSUED TO LOWER LEVEL:          0  ACCURACY: -nan
PSCL4 TIMELY PREFETCHES:          0 LATE PREFETCHES: 0 DROPPED PREFETCHES: 0
PSCL4 PREFETCHES SAME FILL-ORIGIN LEVEL: 0 DIFFERENT FILL-ORIGIN LEVEL: 0

PSCL3 TOTAL     ACCESS:      13574  HIT:      13569  MISS:          5  HIT %:    99.9632  MISS %:  0.0368351   MPKI: 5e-05
PSCL3 LOAD TRANSLATION ACCESS:      13574  HIT:      13569  MISS:          5  HIT %:    99.9632  MISS %:  0.0368351   MPKI: 5e-05
PSCL3 PREFETCH  REQUESTED:          0  ISSUED:          0  USEFUL:          0  USELESS:          0
PSCL3 USEFUL LOAD PREFETCHES:          0 PREFETCH ISSUED TO LOWER LEVEL:          0  ACCURACY: -nan
PSCL3 TIMELY PREFETCHES:          0 LATE PREFETCHES: 0 DROPPED PREFETCHES: 0
PSCL3 PREFETCHES SAME FILL-ORIGIN LEVEL: 0 DIFFERENT FILL-ORIGIN LEVEL: 0

PSCL2 TOTAL     ACCESS:      13726  HIT:      13678  MISS:         48  HIT %:    99.6503  MISS %:   0.349701   MPKI: 0.00048
PSCL2 LOAD TRANSLATION ACCESS:      13726  HIT:      13678  MISS:         48  HIT %:    99.6503  MISS %:   0.349701   MPKI: 0.00048
PSCL2 PREFETCH  REQUESTED:          0  ISSUED:          0  USEFUL:          0  USELESS:          0
PSCL2 USEFUL LOAD PREFETCHES:          0 PREFETCH ISSUED TO LOWER LEVEL:          0  ACCURACY: -nan
PSCL2 TIMELY PREFETCHES:          0 LATE PREFETCHES: 0 DROPPED PREFETCHES: 0
PSCL2 PREFETCHES SAME FILL-ORIGIN LEVEL: 0 DIFFERENT FILL-ORIGIN LEVEL: 0

LLC TOTAL     ACCESS:    1786231  HIT:     891153  MISS:     895078  HIT %:    49.8901  MISS %:    50.1099   MPKI: 8.95078
LLC LOAD      ACCESS:      63782  HIT:      11987  MISS:      51795  HIT %:    18.7937  MISS %:    81.2063   MPKI: 0.51795
LLC RFO       ACCESS:        301  HIT:        301  MISS:          0  HIT %:        100  MISS %:          0   MPKI: 0
LLC PREFETCH  ACCESS:     842970  HIT:      14732  MISS:     828238  HIT %:    1.74763  MISS %:    98.2524   MPKI: 8.28238
LLC WRITEBACK ACCESS:     877350  HIT:     864080  MISS:      13270  HIT %:    98.4875  MISS %:    1.51251   MPKI: 0.1327
LLC LOAD TRANSLATION ACCESS:       1828  HIT:         53  MISS:       1775  HIT %:    2.89934  MISS %:    97.1007   MPKI: 0.01775
LLC PREFETCH  REQUESTED:          0  ISSUED:          0  USEFUL:       1143  USELESS:     796693
LLC USEFUL LOAD PREFETCHES:       1143 PREFETCH ISSUED TO LOWER LEVEL:     828238  ACCURACY: 0.138004
LLC TIMELY PREFETCHES:       1143 LATE PREFETCHES: 0 DROPPED PREFETCHES: 0
LLC PREFETCHES SAME FILL-ORIGIN LEVEL: 0 DIFFERENT FILL-ORIGIN LEVEL: 0
LLC AVERAGE MISS LATENCY: 188.627 cycles
LLC RQ	ACCESS:      65911	FORWARD:          0	MERGED:          0	TO_CACHE:      65911
LLC WQ	ACCESS:     877350	FORWARD:          0	MERGED:          0	TO_CACHE:     877350
LLC PQ	ACCESS:     842970	FORWARD:          0	MERGED:          0	TO_CACHE:     842970

LLC Dense regions hint to LLC: 0

RAW hits: 1643
Loads Generated: 35084538
Loads sent to L1D: 35082893
Stores Generated: 7020542
Stores sent to L1D: 7020548
Major fault: 0 Minor fault: 20724
Allocated PAGES: 20724
[Bingo] PHT Access: 42612
[Bingo] PHT Hit PC+Addr: 7355
[Bingo] PHT Hit PC+Offs: 34287
[Bingo] PHT Miss: 970
[Bingo] Prefetch PC+Addr: 0
[Bingo] Prefetch PC+Offs: 0
[Bingo] Useful PC+Addr: 0
[Bingo] Useful PC+Offs: 0
[Bingo] Useless PC+Addr: 0
[Bingo] Useless PC+Offs: 0
[Bingo] L1 Prefetch per Region: 0
[Bingo] L2 Prefetch per Region: 31.0693
[Bingo] L3 Prefetch per Region: 0
[Bingo] No Prefetch per Region: 0.930695
[Bingo] Number of Voters Mean: 15.8279
[Bingo] Number of Voters SD: 1.99367
PHT read accesses: 605406
PHT write accesses: 41660
AT read accesses: 1095594
AT write accesses: 1129415
FT read accesses: 126486
FT write accesses: 42612
PS read accesses: 136111
PS write accesses: 41642
PHT tag read accesses: 1937927
PHT tag write accesses: 49015
AT tag read accesses: 34578668
AT tag write accesses: 1137369
FT tag read accesses: 17318776
FT tag write accesses: 127184
PS tag read accesses: 19460430
PS tag write accesses: 177726

DRAM Statistics
 CHANNEL 0
 RQ ROW_BUFFER_HIT:     526188  ROW_BUFFER_MISS:     355620
 DBUS_CONGESTED:        625
 WQ ROW_BUFFER_HIT:     426032  ROW_BUFFER_MISS:     449811  FULL:          0

 AVG_CONGESTED_CYCLE: 4
 All warmup complete: 2
Channel 0 Bank busy for read cycles: 0
Channel 0 Bank busy for write cycles: 0
Channel 0
Rank 0
0banks busy for read cycles: 68712845
0banks busy for write cycles: 36520
1banks busy for read cycles: 4527869
1banks busy for write cycles: 2777078
2banks busy for read cycles: 542696
2banks busy for write cycles: 1232247
3banks busy for read cycles: 148128
3banks busy for write cycles: 697364
4banks busy for read cycles: 157436
4banks busy for write cycles: 560812
5banks busy for read cycles: 204628
5banks busy for write cycles: 566862
6banks busy for read cycles: 342690
6banks busy for write cycles: 609797
7banks busy for read cycles: 1581429
7banks busy for write cycles: 1374487
8banks busy for read cycles: 7353123
8banks busy for write cycles: 9089964

CPU 0 Branch Prediction Accuracy: 99.9751% MPKI: 0.00438 Average ROB Occupancy at Mispredict: 74.8858
Branch types
NOT_BRANCH: 98243570 98.2436%
BRANCH_DIRECT_JUMP: 438 0.000438%
BRANCH_INDIRECT: 0 0%
BRANCH_CONDITIONAL: 1754803 1.7548%
BRANCH_DIRECT_CALL: 438 0.000438%
BRANCH_INDIRECT_CALL: 0 0%
BRANCH_RETURN: 438 0.000438%
BRANCH_OTHER: 0 0%

DRAM PAGES: 1048576
Allocated PAGES: 20724
