Initialize SIGNATURE TABLE
ST_SET: 1
ST_WAY: 256
ST_TAG_BIT: 16
ST_TAG_MASK: ffff

Initialize PATTERN TABLE
PT_SET: 512
PT_WAY: 4
SIG_DELTA_BIT: 7
C_SIG_BIT: 4
C_DELTA_BIT: 4

Initialize PREFETCH FILTER
FILTER_SET: 1024

*** ChampSim Multicore Out-of-Order Simulator ***

Warmup Instructions: 50000000
Simulation Instructions: 100000000
Number of CPUs: 1
LLC sets: 2048
LLC ways: 16
Off-chip DRAM Size: 4096 MB Channels: 1 Width: 64-bit Data Rate: 6400 MT/s
CPU 0 runs ../SPEC2017//649.fotonik3d_s-10881B.champsimtrace.xz
.xz
BTB has LRU replacement policy
ITLB has LRU replacement policy
DTLB has LRU replacement policy
STLB has LRU replacement policy
L1I has LRU replacement policy
L1D has LRU replacement policy
Initialize SRRIP state for L2C
Initialize DRRIP state for LLC
Heartbeat CPU 0 instructions: 10000003 cycles: 5061148 heartbeat IPC: 1.97584 cumulative IPC: 1.97584 (Simulation time: 0 hr 7 min 43 sec) 
Heartbeat CPU 0 instructions: 20000000 cycles: 10130796 heartbeat IPC: 1.97252 cumulative IPC: 1.97418 (Simulation time: 0 hr 14 min 48 sec) 
Heartbeat CPU 0 instructions: 30000000 cycles: 15205596 heartbeat IPC: 1.97052 cumulative IPC: 1.97296 (Simulation time: 0 hr 21 min 20 sec) 
Heartbeat CPU 0 instructions: 40000002 cycles: 20275637 heartbeat IPC: 1.97237 cumulative IPC: 1.97281 (Simulation time: 0 hr 27 min 36 sec) 
Heartbeat CPU 0 instructions: 50000002 cycles: 25340058 heartbeat IPC: 1.97456 cumulative IPC: 1.97316 (Simulation time: 0 hr 32 min 46 sec) 

Warmup complete CPU 0 instructions: 50000002 cycles: 25340058 (Simulation time: 0 hr 32 min 46 sec) 

Heartbeat CPU 0 instructions: 60000000 cycles: 43423321 heartbeat IPC: 0.552997 cumulative IPC: 0.552997 (Simulation time: 0 hr 40 min 21 sec) 
Heartbeat CPU 0 instructions: 70000000 cycles: 61374003 heartbeat IPC: 0.557082 cumulative IPC: 0.555032 (Simulation time: 0 hr 47 min 29 sec) 
Heartbeat CPU 0 instructions: 80000003 cycles: 79446645 heartbeat IPC: 0.553323 cumulative IPC: 0.554461 (Simulation time: 0 hr 53 min 53 sec) 
Heartbeat CPU 0 instructions: 90000003 cycles: 97478046 heartbeat IPC: 0.554588 cumulative IPC: 0.554493 (Simulation time: 0 hr 59 min 54 sec) 
Heartbeat CPU 0 instructions: 100000003 cycles: 115491422 heartbeat IPC: 0.555143 cumulative IPC: 0.554623 (Simulation time: 1 hr 5 min 21 sec) 
Heartbeat CPU 0 instructions: 110000000 cycles: 133426723 heartbeat IPC: 0.557559 cumulative IPC: 0.55511 (Simulation time: 1 hr 16 min 53 sec) 
Heartbeat CPU 0 instructions: 120000003 cycles: 151575236 heartbeat IPC: 0.551009 cumulative IPC: 0.554521 (Simulation time: 1 hr 27 min 21 sec) 
Heartbeat CPU 0 instructions: 130000000 cycles: 169655417 heartbeat IPC: 0.553092 cumulative IPC: 0.554342 (Simulation time: 1 hr 36 min 52 sec) 
Heartbeat CPU 0 instructions: 140000002 cycles: 187579365 heartbeat IPC: 0.557913 cumulative IPC: 0.554736 (Simulation time: 1 hr 45 min 17 sec) 
Heartbeat CPU 0 instructions: 150000001 cycles: 205613109 heartbeat IPC: 0.554516 cumulative IPC: 0.554714 (Simulation time: 1 hr 52 min 58 sec) 
Finished CPU 0 instructions: 100000003 cycles: 180273052 cumulative IPC: 0.554714 (Simulation time: 1 hr 52 min 58 sec) 

ChampSim completed all CPUs

Region of Interest Statistics

CPU 0 cumulative IPC: 0.554714 instructions: 100000003 cycles: 180273052

CPU 0 Average Load ROB stall cycles: 3.93415e+07
CPU 0 Fraction of times ROB stalled by Loads: 34.0482
CPU 0 Percentage of Load stall cycles in Total stall cycles: 3.29687e+08
Issued all: 146947485
Issued LT all: 141610866
rob_not_full_when_issued_lt_all: 15965203
Issued LT one: 117773894
rob_not_full_when_issued_lt_one: 11124626
FVP critical_dynamic_instances_0: 28235935
FVP unique_critical_ips_0: 74
 Total stall cycles: 153983695
 Total load stall cycles: 507664488423592
Unique Load IPs: 139
CPU 0 NUM of IPS identified critical: 0
CPU 0 Num of Load IPs stalling ROB: 0
Threshold modification factor: 0
Trouble in retire width: -nan
MaC = Marked as critical.
lt_50_percent_before_Mac: 0
gt_90_percent_before_Mac: 0
gt_75_percent_before_Mac: 0
gt_50_percent_before_Mac: 0
stall_proportion_bin_same_before_after: 0
stall_proportion_bin_lower_before_after: 0
stall_proportion_bin_upper_before_after: 0
average_stall_proportion_before: -nan
average_stall_proportion_after: -nan
Critical IP stalls, total frequency: 0
Non-critical IP stalls, total frequency: 0
Total Freq all stalling IPs: 0
Critical_IP_Detector_Accuracy_70: 0.0135135
Critical_IP_Detector_Accuracy_80: 0.0135135
Critical_IP_Detector_Accuracy_90: 0.0135135
Critical_IP_Detector_Coverage_70: 1
Critical_IP_Detector_Coverage_80: 1
Critical_IP_Detector_Coverage_90: 1
stat_90_percent_critical_ip_stalls_freq: 493827
stat_90_percent_non_critical_ip_stalls_freq: 18446744073709057789
AVERAGE_ROB_Occupancy_90_Percent_Critical_IP_Stalls: 347.743
AVERAGE_ROB_Occupancy_90_Percent_Non_Critical_IP_Stalls: 7.34549e-11
Critical_IP_ROB_Stalls_Bucket_0: 0
Non-critical_IP_ROB_Stalls_Bucket_0: 20
Critical_IP_ROB_Stalls_Bucket_1: 0
Non-critical_IP_ROB_Stalls_Bucket_1: 124
Critical_IP_ROB_Stalls_Bucket_2: 0
Non-critical_IP_ROB_Stalls_Bucket_2: 391
Critical_IP_ROB_Stalls_Bucket_3: 0
Non-critical_IP_ROB_Stalls_Bucket_3: 219
Critical_IP_ROB_Stalls_Bucket_4: 0
Non-critical_IP_ROB_Stalls_Bucket_4: 153
Critical_IP_ROB_Stalls_Bucket_5: 0
Non-critical_IP_ROB_Stalls_Bucket_5: 62739
Critical_IP_ROB_Stalls_Bucket_6: 0
Non-critical_IP_ROB_Stalls_Bucket_6: 4329943
0 => IPs accounting for >50 percent of stalls, 1 => 55, 2 => 60, 3 => 65 and so on till 90.
percent50: inf num IPs:  1
percent55: inf num IPs: 1
percent60: inf num IPs: 1
percent65: inf num IPs: 1
percent70: inf num IPs: 1
percent75: inf num IPs: 1
percent80: inf num IPs: 1
percent85: inf num IPs: 1
percent90: inf num IPs: 1
Critical_ROB_Stalls_Percent_0_Bucket_0: 0
Non-critical_ROB_Stalls_Percent_0_Bucket_0: 20
Critical_ROB_Stalls_Percent_0_Bucket_1: 17
Non-critical_ROB_Stalls_Percent_0_Bucket_1: 107
Critical_ROB_Stalls_Percent_0_Bucket_2: 15
Non-critical_ROB_Stalls_Percent_0_Bucket_2: 376
Critical_ROB_Stalls_Percent_0_Bucket_3: 54
Non-critical_ROB_Stalls_Percent_0_Bucket_3: 165
Critical_ROB_Stalls_Percent_0_Bucket_4: 6
Non-critical_ROB_Stalls_Percent_0_Bucket_4: 147
Critical_ROB_Stalls_Percent_0_Bucket_5: 3504
Non-critical_ROB_Stalls_Percent_0_Bucket_5: 59235
Critical_ROB_Stalls_Percent_0_Bucket_6: 490231
Non-critical_ROB_Stalls_Percent_0_Bucket_6: 3839712
Critical_ROB_Stalls_Percent_1_Bucket_0: 0
Non-critical_ROB_Stalls_Percent_1_Bucket_0: 20
Critical_ROB_Stalls_Percent_1_Bucket_1: 17
Non-critical_ROB_Stalls_Percent_1_Bucket_1: 107
Critical_ROB_Stalls_Percent_1_Bucket_2: 15
Non-critical_ROB_Stalls_Percent_1_Bucket_2: 376
Critical_ROB_Stalls_Percent_1_Bucket_3: 54
Non-critical_ROB_Stalls_Percent_1_Bucket_3: 165
Critical_ROB_Stalls_Percent_1_Bucket_4: 6
Non-critical_ROB_Stalls_Percent_1_Bucket_4: 147
Critical_ROB_Stalls_Percent_1_Bucket_5: 3504
Non-critical_ROB_Stalls_Percent_1_Bucket_5: 59235
Critical_ROB_Stalls_Percent_1_Bucket_6: 490231
Non-critical_ROB_Stalls_Percent_1_Bucket_6: 3839712
Critical_ROB_Stalls_Percent_2_Bucket_0: 0
Non-critical_ROB_Stalls_Percent_2_Bucket_0: 20
Critical_ROB_Stalls_Percent_2_Bucket_1: 17
Non-critical_ROB_Stalls_Percent_2_Bucket_1: 107
Critical_ROB_Stalls_Percent_2_Bucket_2: 15
Non-critical_ROB_Stalls_Percent_2_Bucket_2: 376
Critical_ROB_Stalls_Percent_2_Bucket_3: 54
Non-critical_ROB_Stalls_Percent_2_Bucket_3: 165
Critical_ROB_Stalls_Percent_2_Bucket_4: 6
Non-critical_ROB_Stalls_Percent_2_Bucket_4: 147
Critical_ROB_Stalls_Percent_2_Bucket_5: 3504
Non-critical_ROB_Stalls_Percent_2_Bucket_5: 59235
Critical_ROB_Stalls_Percent_2_Bucket_6: 490231
Non-critical_ROB_Stalls_Percent_2_Bucket_6: 3839712
Critical_ROB_Stalls_Percent_3_Bucket_0: 0
Non-critical_ROB_Stalls_Percent_3_Bucket_0: 20
Critical_ROB_Stalls_Percent_3_Bucket_1: 17
Non-critical_ROB_Stalls_Percent_3_Bucket_1: 107
Critical_ROB_Stalls_Percent_3_Bucket_2: 15
Non-critical_ROB_Stalls_Percent_3_Bucket_2: 376
Critical_ROB_Stalls_Percent_3_Bucket_3: 54
Non-critical_ROB_Stalls_Percent_3_Bucket_3: 165
Critical_ROB_Stalls_Percent_3_Bucket_4: 6
Non-critical_ROB_Stalls_Percent_3_Bucket_4: 147
Critical_ROB_Stalls_Percent_3_Bucket_5: 3504
Non-critical_ROB_Stalls_Percent_3_Bucket_5: 59235
Critical_ROB_Stalls_Percent_3_Bucket_6: 490231
Non-critical_ROB_Stalls_Percent_3_Bucket_6: 3839712
Critical_ROB_Stalls_Percent_4_Bucket_0: 0
Non-critical_ROB_Stalls_Percent_4_Bucket_0: 20
Critical_ROB_Stalls_Percent_4_Bucket_1: 17
Non-critical_ROB_Stalls_Percent_4_Bucket_1: 107
Critical_ROB_Stalls_Percent_4_Bucket_2: 15
Non-critical_ROB_Stalls_Percent_4_Bucket_2: 376
Critical_ROB_Stalls_Percent_4_Bucket_3: 54
Non-critical_ROB_Stalls_Percent_4_Bucket_3: 165
Critical_ROB_Stalls_Percent_4_Bucket_4: 6
Non-critical_ROB_Stalls_Percent_4_Bucket_4: 147
Critical_ROB_Stalls_Percent_4_Bucket_5: 3504
Non-critical_ROB_Stalls_Percent_4_Bucket_5: 59235
Critical_ROB_Stalls_Percent_4_Bucket_6: 490231
Non-critical_ROB_Stalls_Percent_4_Bucket_6: 3839712
Critical_ROB_Stalls_Percent_5_Bucket_0: 0
Non-critical_ROB_Stalls_Percent_5_Bucket_0: 20
Critical_ROB_Stalls_Percent_5_Bucket_1: 17
Non-critical_ROB_Stalls_Percent_5_Bucket_1: 107
Critical_ROB_Stalls_Percent_5_Bucket_2: 15
Non-critical_ROB_Stalls_Percent_5_Bucket_2: 376
Critical_ROB_Stalls_Percent_5_Bucket_3: 54
Non-critical_ROB_Stalls_Percent_5_Bucket_3: 165
Critical_ROB_Stalls_Percent_5_Bucket_4: 6
Non-critical_ROB_Stalls_Percent_5_Bucket_4: 147
Critical_ROB_Stalls_Percent_5_Bucket_5: 3504
Non-critical_ROB_Stalls_Percent_5_Bucket_5: 59235
Critical_ROB_Stalls_Percent_5_Bucket_6: 490231
Non-critical_ROB_Stalls_Percent_5_Bucket_6: 3839712
Critical_ROB_Stalls_Percent_6_Bucket_0: 0
Non-critical_ROB_Stalls_Percent_6_Bucket_0: 20
Critical_ROB_Stalls_Percent_6_Bucket_1: 17
Non-critical_ROB_Stalls_Percent_6_Bucket_1: 107
Critical_ROB_Stalls_Percent_6_Bucket_2: 15
Non-critical_ROB_Stalls_Percent_6_Bucket_2: 376
Critical_ROB_Stalls_Percent_6_Bucket_3: 54
Non-critical_ROB_Stalls_Percent_6_Bucket_3: 165
Critical_ROB_Stalls_Percent_6_Bucket_4: 6
Non-critical_ROB_Stalls_Percent_6_Bucket_4: 147
Critical_ROB_Stalls_Percent_6_Bucket_5: 3504
Non-critical_ROB_Stalls_Percent_6_Bucket_5: 59235
Critical_ROB_Stalls_Percent_6_Bucket_6: 490231
Non-critical_ROB_Stalls_Percent_6_Bucket_6: 3839712
Critical_ROB_Stalls_Percent_7_Bucket_0: 0
Non-critical_ROB_Stalls_Percent_7_Bucket_0: 20
Critical_ROB_Stalls_Percent_7_Bucket_1: 17
Non-critical_ROB_Stalls_Percent_7_Bucket_1: 107
Critical_ROB_Stalls_Percent_7_Bucket_2: 15
Non-critical_ROB_Stalls_Percent_7_Bucket_2: 376
Critical_ROB_Stalls_Percent_7_Bucket_3: 54
Non-critical_ROB_Stalls_Percent_7_Bucket_3: 165
Critical_ROB_Stalls_Percent_7_Bucket_4: 6
Non-critical_ROB_Stalls_Percent_7_Bucket_4: 147
Critical_ROB_Stalls_Percent_7_Bucket_5: 3504
Non-critical_ROB_Stalls_Percent_7_Bucket_5: 59235
Critical_ROB_Stalls_Percent_7_Bucket_6: 490231
Non-critical_ROB_Stalls_Percent_7_Bucket_6: 3839712
Critical_ROB_Stalls_Percent_8_Bucket_0: 0
Non-critical_ROB_Stalls_Percent_8_Bucket_0: 20
Critical_ROB_Stalls_Percent_8_Bucket_1: 17
Non-critical_ROB_Stalls_Percent_8_Bucket_1: 107
Critical_ROB_Stalls_Percent_8_Bucket_2: 15
Non-critical_ROB_Stalls_Percent_8_Bucket_2: 376
Critical_ROB_Stalls_Percent_8_Bucket_3: 54
Non-critical_ROB_Stalls_Percent_8_Bucket_3: 165
Critical_ROB_Stalls_Percent_8_Bucket_4: 6
Non-critical_ROB_Stalls_Percent_8_Bucket_4: 147
Critical_ROB_Stalls_Percent_8_Bucket_5: 3504
Non-critical_ROB_Stalls_Percent_8_Bucket_5: 59235
Critical_ROB_Stalls_Percent_8_Bucket_6: 490231
Non-critical_ROB_Stalls_Percent_8_Bucket_6: 3839712
Average ROB occupancy Load Stall Begin: 342.06
Average ROB occupancy Load Stall End: 347.49
Min ROB occupancy Load Stall Begin: 6
Max ROB occupancy Load Stall Begin: 352
Min ROB occupancy Load Stall End: 6
Max ROB occupancy Load Stall End: 352
Average ROB occupancy Critical Load Stall Begin: -nan
Average ROB occupancy Critical Load Stall End: -nan
Min ROB occupancy Critical Load Stall Begin: 400
Max ROB occupancy Critical Load Stall Begin: 0
Min ROB occupancy Critical Load Stall End: 400
Max ROB occupancy Critical Load Stall End: 0
 ROB Load Stall Begin Bucket Count 0: 30
 ROB Load Stall End Bucket Count 0: 20
 ROB Critical Load Stall Begin Bucket Count 0: 0
 ROB Critical Load Stall End Bucket Count 0: 0
 ROB Load Stall Begin Bucket Count 1: 203
 ROB Load Stall End Bucket Count 1: 124
 ROB Critical Load Stall Begin Bucket Count 1: 0
 ROB Critical Load Stall End Bucket Count 1: 0
 ROB Load Stall Begin Bucket Count 2: 406
 ROB Load Stall End Bucket Count 2: 391
 ROB Critical Load Stall Begin Bucket Count 2: 0
 ROB Critical Load Stall End Bucket Count 2: 0
 ROB Load Stall Begin Bucket Count 3: 204
 ROB Load Stall End Bucket Count 3: 219
 ROB Critical Load Stall Begin Bucket Count 3: 0
 ROB Critical Load Stall End Bucket Count 3: 0
 ROB Load Stall Begin Bucket Count 4: 148
 ROB Load Stall End Bucket Count 4: 153
 ROB Critical Load Stall Begin Bucket Count 4: 0
 ROB Critical Load Stall End Bucket Count 4: 0
 ROB Load Stall Begin Bucket Count 5: 179509
 ROB Load Stall End Bucket Count 5: 62739
 ROB Critical Load Stall Begin Bucket Count 5: 0
 ROB Critical Load Stall End Bucket Count 5: 0
 ROB Load Stall Begin Bucket Count 6: 4213089
 ROB Load Stall End Bucket Count 6: 4329943
 ROB Critical Load Stall Begin Bucket Count 6: 0
 ROB Critical Load Stall End Bucket Count 6: 0
PIST Tag Read Accesses: 0
PIST Read Accesses: 0
PIST Tag Write Accesses: 0
PIST Write Accesses: 0
Criticality detector called times: 0
Max global_stall_cycles_count: 0
Threshold Modified: 0 times, factor: 0
ITLB TOTAL     ACCESS:   13925935  HIT:   13925935  MISS:          0  HIT %:        100  MISS %:          0   MPKI: 0
ITLB LOAD TRANSLATION ACCESS:   13925935  HIT:   13925935  MISS:          0  HIT %:        100  MISS %:          0   MPKI: 0
ITLB PREFETCH  REQUESTED:          0  ISSUED:          0  USEFUL:          0  USELESS:          0
ITLB USEFUL LOAD PREFETCHES:          0 PREFETCH ISSUED TO LOWER LEVEL:          0  ACCURACY: -nan
ITLB TIMELY PREFETCHES:          0 LATE PREFETCHES: 0 DROPPED PREFETCHES: 0
ITLB PREFETCHES SAME FILL-ORIGIN LEVEL: 0 DIFFERENT FILL-ORIGIN LEVEL: 0
ITLB AVERAGE MISS LATENCY: -nan cycles
ITLB RQ	ACCESS:   14743479	FORWARD:          0	MERGED:     817544	TO_CACHE:   13925935

DTLB TOTAL     ACCESS:   43750341  HIT:   43230550  MISS:     519791  HIT %:    98.8119  MISS %:    1.18808   MPKI: 5.19791
DTLB LOAD TRANSLATION ACCESS:   43750341  HIT:   43230550  MISS:     519791  HIT %:    98.8119  MISS %:    1.18808   MPKI: 5.19791
DTLB PREFETCH  REQUESTED:          0  ISSUED:          0  USEFUL:          0  USELESS:          0
DTLB USEFUL LOAD PREFETCHES:          0 PREFETCH ISSUED TO LOWER LEVEL:          0  ACCURACY: -nan
DTLB TIMELY PREFETCHES:          0 LATE PREFETCHES: 0 DROPPED PREFETCHES: 0
DTLB PREFETCHES SAME FILL-ORIGIN LEVEL: 0 DIFFERENT FILL-ORIGIN LEVEL: 0
DTLB AVERAGE MISS LATENCY: 173.928 cycles
DTLB RQ	ACCESS:   48537046	FORWARD:          0	MERGED:    4762433	TO_CACHE:   43774613

STLB TOTAL     ACCESS:     519791  HIT:     180200  MISS:     339591  HIT %:    34.6678  MISS %:    65.3322   MPKI: 3.39591
STLB LOAD TRANSLATION ACCESS:     519791  HIT:     180200  MISS:     339591  HIT %:    34.6678  MISS %:    65.3322   MPKI: 3.39591
STLB PREFETCH  REQUESTED:          0  ISSUED:          0  USEFUL:          0  USELESS:          0
STLB USEFUL LOAD PREFETCHES:          0 PREFETCH ISSUED TO LOWER LEVEL:          0  ACCURACY: -nan
STLB TIMELY PREFETCHES:          0 LATE PREFETCHES: 0 DROPPED PREFETCHES: 0
STLB PREFETCHES SAME FILL-ORIGIN LEVEL: 0 DIFFERENT FILL-ORIGIN LEVEL: 0
STLB AVERAGE MISS LATENCY: 231.586 cycles
STLB RQ	ACCESS:     519791	FORWARD:          0	MERGED:          0	TO_CACHE:     519791

STLB Hit, L1D data hit: 0
STLB Hit, L2C data hit: 0
STLB Hit, LLC data hit: 0
STLB Hit, LLC data miss: 0
STLB STLB hints to L2: 0
L1D TOTAL     ACCESS:   48141487  HIT:   46217471  MISS:    1924016  HIT %:    96.0034  MISS %:    3.99659   MPKI: 19.2402
L1D LOAD      ACCESS:   41730180  HIT:   39806164  MISS:    1924016  HIT %:    95.3894  MISS %:    4.61061   MPKI: 19.2402
L1D RFO       ACCESS:    6411307  HIT:    6411307  MISS:          0  HIT %:        100  MISS %:          0   MPKI: 0
L1D PREFETCH  REQUESTED:          0  ISSUED:          0  USEFUL:          0  USELESS:          0
L1D USEFUL LOAD PREFETCHES:          0 PREFETCH ISSUED TO LOWER LEVEL:          0  ACCURACY: -nan
L1D TIMELY PREFETCHES:          0 LATE PREFETCHES: 0 DROPPED PREFETCHES: 0
L1D PREFETCHES SAME FILL-ORIGIN LEVEL: 0 DIFFERENT FILL-ORIGIN LEVEL: 0
L1D AVERAGE MISS LATENCY: 111.01 cycles
L1D RQ	ACCESS:   63800106	FORWARD:          0	MERGED:   21647723	TO_CACHE:   42125738
L1D WQ	ACCESS:    6411308	FORWARD:      26645	MERGED:          0	TO_CACHE:    6411308

L1D UNIQUE REGIONS ACCESSED: 0
L1D REGIONS CONFLICTS: 0
L1D Cross Page Prefetch Requests: 0
L1D Same Page Prefetch Requests: 0
L1D ROI Sum of L1D PQ occupancy: 0
L1D PREFETCHES PUSHED FROM L2C: 0
L1I TOTAL     ACCESS:   14743477  HIT:   14743477  MISS:          0  HIT %:        100  MISS %:          0   MPKI: 0
L1I LOAD      ACCESS:   14743477  HIT:   14743477  MISS:          0  HIT %:        100  MISS %:          0   MPKI: 0
L1I PREFETCH  REQUESTED:          0  ISSUED:          0  USEFUL:          0  USELESS:          0
L1I USEFUL LOAD PREFETCHES:          0 PREFETCH ISSUED TO LOWER LEVEL:          0  ACCURACY: -nan
L1I TIMELY PREFETCHES:          0 LATE PREFETCHES: 0 DROPPED PREFETCHES: 0
L1I PREFETCHES SAME FILL-ORIGIN LEVEL: 0 DIFFERENT FILL-ORIGIN LEVEL: 0
L1I AVERAGE MISS LATENCY: -nan cycles
L1I RQ	ACCESS:   32910165	FORWARD:          0	MERGED:   18166686	TO_CACHE:   14743479

BTB TOTAL     ACCESS:    1121884  HIT:    1121879  MISS:          5  HIT %:    99.9996  MISS %: 0.000445679   MPKI: 5e-05
BTB BRANCH_DIRECT_JUMP	ACCESS:      80123  HIT:      80122  MISS:          1
BTB BRANCH_INDIRECT	ACCESS:          0  HIT:          0  MISS:          0
BTB BRANCH_CONDITIONAL	ACCESS:    1041761  HIT:    1041757  MISS:          4
BTB BRANCH_DIRECT_CALL	ACCESS:          0  HIT:          0  MISS:          0
BTB BRANCH_INDIRECT_CALL	ACCESS:          0  HIT:          0  MISS:          0
BTB BRANCH_RETURN	ACCESS:          0  HIT:          0  MISS:          0
BTB BRANCH_OTHER ACCESS:          0  HIT:          0  MISS:          0

L2C TOTAL     ACCESS:    3737562  HIT:    1750802  MISS:    1986760  HIT %:    46.8434  MISS %:    53.1566   MPKI: 19.8676
L2C LOAD      ACCESS:    1924016  HIT:     499369  MISS:    1424647  HIT %:    25.9545  MISS %:    74.0455   MPKI: 14.2465
L2C DATA LOAD MPKI: 14.2465
L2C INSTRUCTION LOAD MPKI: 0
L2C PREFETCH  ACCESS:     502382  HIT:        464  MISS:     501918  HIT %:    0.09236  MISS %:    99.9076   MPKI: 5.01918
L2C DATA PREFETCH MPKI: 5.01918
L2C INSTRUCTION PREFETCH MPKI: 0
L2C WRITEBACK ACCESS:     971469  HIT:     954530  MISS:      16939  HIT %:    98.2564  MISS %:    1.74365   MPKI: 0.16939
L2C LOAD TRANSLATION ACCESS:     339695  HIT:     296439  MISS:      43256  HIT %:    87.2662  MISS %:    12.7338   MPKI: 0.43256
L2C PREFETCH  REQUESTED:    4535469  ISSUED:    4280980  USEFUL:     499213  USELESS:       2696
L2C USEFUL LOAD PREFETCHES:     499213 PREFETCH ISSUED TO LOWER LEVEL:    4249758  ACCURACY: 11.7469
L2C TIMELY PREFETCHES:     499213 LATE PREFETCHES: 5066 DROPPED PREFETCHES: 0
L2C PREFETCHES SAME FILL-ORIGIN LEVEL: 506984 DIFFERENT FILL-ORIGIN LEVEL: 3742774
L2C AVERAGE MISS LATENCY: 105.296 cycles
L2C RQ	ACCESS:    2263711	FORWARD:          0	MERGED:          0	TO_CACHE:    2263711
L2C WQ	ACCESS:     971469	FORWARD:          0	MERGED:          0	TO_CACHE:     971469
L2C PQ	ACCESS:    4280980	FORWARD:          0	MERGED:      28383	TO_CACHE:    4252597

L2C Instructions Evicting Data 0
L2C Translations Evicting Data 42821
L2C Data Evicting Data 1884180
L2C Instructions Evicting Instructions 0
L2C Translations Evicting Instructions 0
L2C Data Evicting Instructions 0
L2C Instructions Evicting Translations 0
L2C Translations Evicting Translations 435
L2C Data Evicting Translations 42385
L2C Dense regions hint from L2: 0
PSCL5 TOTAL     ACCESS:     339591  HIT:     339591  MISS:          0  HIT %:        100  MISS %:          0   MPKI: 0
PSCL5 LOAD TRANSLATION ACCESS:     339591  HIT:     339591  MISS:          0  HIT %:        100  MISS %:          0   MPKI: 0
PSCL5 PREFETCH  REQUESTED:          0  ISSUED:          0  USEFUL:          0  USELESS:          0
PSCL5 USEFUL LOAD PREFETCHES:          0 PREFETCH ISSUED TO LOWER LEVEL:          0  ACCURACY: -nan
PSCL5 TIMELY PREFETCHES:          0 LATE PREFETCHES: 0 DROPPED PREFETCHES: 0
PSCL5 PREFETCHES SAME FILL-ORIGIN LEVEL: 0 DIFFERENT FILL-ORIGIN LEVEL: 0

PSCL4 TOTAL     ACCESS:     339591  HIT:     339591  MISS:          0  HIT %:        100  MISS %:          0   MPKI: 0
PSCL4 LOAD TRANSLATION ACCESS:     339591  HIT:     339591  MISS:          0  HIT %:        100  MISS %:          0   MPKI: 0
PSCL4 PREFETCH  REQUESTED:          0  ISSUED:          0  USEFUL:          0  USELESS:          0
PSCL4 USEFUL LOAD PREFETCHES:          0 PREFETCH ISSUED TO LOWER LEVEL:          0  ACCURACY: -nan
PSCL4 TIMELY PREFETCHES:          0 LATE PREFETCHES: 0 DROPPED PREFETCHES: 0
PSCL4 PREFETCHES SAME FILL-ORIGIN LEVEL: 0 DIFFERENT FILL-ORIGIN LEVEL: 0

PSCL3 TOTAL     ACCESS:     339591  HIT:     339591  MISS:          0  HIT %:        100  MISS %:          0   MPKI: 0
PSCL3 LOAD TRANSLATION ACCESS:     339591  HIT:     339591  MISS:          0  HIT %:        100  MISS %:          0   MPKI: 0
PSCL3 PREFETCH  REQUESTED:          0  ISSUED:          0  USEFUL:          0  USELESS:          0
PSCL3 USEFUL LOAD PREFETCHES:          0 PREFETCH ISSUED TO LOWER LEVEL:          0  ACCURACY: -nan
PSCL3 TIMELY PREFETCHES:          0 LATE PREFETCHES: 0 DROPPED PREFETCHES: 0
PSCL3 PREFETCHES SAME FILL-ORIGIN LEVEL: 0 DIFFERENT FILL-ORIGIN LEVEL: 0

PSCL2 TOTAL     ACCESS:     339591  HIT:     338988  MISS:        603  HIT %:    99.8224  MISS %:   0.177567   MPKI: 0.00603
PSCL2 LOAD TRANSLATION ACCESS:     339591  HIT:     338988  MISS:        603  HIT %:    99.8224  MISS %:   0.177567   MPKI: 0.00603
PSCL2 PREFETCH  REQUESTED:          0  ISSUED:          0  USEFUL:          0  USELESS:          0
PSCL2 USEFUL LOAD PREFETCHES:          0 PREFETCH ISSUED TO LOWER LEVEL:          0  ACCURACY: -nan
PSCL2 TIMELY PREFETCHES:          0 LATE PREFETCHES: 0 DROPPED PREFETCHES: 0
PSCL2 PREFETCHES SAME FILL-ORIGIN LEVEL: 0 DIFFERENT FILL-ORIGIN LEVEL: 0

LLC TOTAL     ACCESS:    6675789  HIT:    4419514  MISS:    2256275  HIT %:    66.2021  MISS %:    33.7979   MPKI: 22.5627
LLC LOAD      ACCESS:    1419581  HIT:     780314  MISS:     639267  HIT %:    54.9679  MISS %:    45.0321   MPKI: 6.39267
LLC PREFETCH  ACCESS:    4241228  HIT:    2713925  MISS:    1527303  HIT %:    63.9891  MISS %:    36.0109   MPKI: 15.273
LLC WRITEBACK ACCESS:     971724  HIT:     923461  MISS:      48263  HIT %:    95.0333  MISS %:    4.96674   MPKI: 0.48263
LLC LOAD TRANSLATION ACCESS:      43256  HIT:       1814  MISS:      41442  HIT %:    4.19364  MISS %:    95.8064   MPKI: 0.41442
LLC PREFETCH  REQUESTED:          0  ISSUED:          0  USEFUL:     612467  USELESS:     903930
LLC USEFUL LOAD PREFETCHES:     612467 PREFETCH ISSUED TO LOWER LEVEL:    1528326  ACCURACY: 40.0744
LLC TIMELY PREFETCHES:     612467 LATE PREFETCHES: 1023 DROPPED PREFETCHES: 0
LLC PREFETCHES SAME FILL-ORIGIN LEVEL: 1435467 DIFFERENT FILL-ORIGIN LEVEL: 0
LLC AVERAGE MISS LATENCY: 169.089 cycles
LLC RQ	ACCESS:    1462836	FORWARD:          0	MERGED:          0	TO_CACHE:    1462836
LLC WQ	ACCESS:     971724	FORWARD:          0	MERGED:          0	TO_CACHE:     971724
LLC PQ	ACCESS:    4249758	FORWARD:          0	MERGED:       1792	TO_CACHE:    4247966

LLC Dense regions hint to LLC: 0

RAW hits: 220642
Loads Generated: 64020761
Loads sent to L1D: 63800106
Stores Generated: 6411310
Stores sent to L1D: 6411308
Major fault: 0 Minor fault: 385139
Allocated PAGES: 385139
 All Calls: 2886080
 Critical Calls: 1626001
------------------
Depth Distribution
------------------
depth 0: 0
depth 1: 1622388
depth 2: 900367
depth 3: 465904
depth 4: 348384
depth 5: 316466
depth 6: 298639
depth 7: 212632
depth 8: 128753
depth 9: 10741
depth 10: 129
depth 11: 24
depth 12: 0
depth 13: 0
depth 14: 0
depth 15: 0
depth 16: 0
depth 17: 0
depth 18: 0
depth 19: 0
depth 20: 0
depth 21: 0
depth 22: 0
depth 23: 0
depth 24: 0
depth 25: 0
depth 26: 0
depth 27: 0
depth 28: 0
depth 29: 0
Total: 4304427
-----------------------------
-----------------------------
	Captured at Filter
-----------------------------
depth 0: 0
depth 1: 7630
depth 2: 3069
depth 3: 1632
depth 4: 1258
depth 5: 1165
depth 6: 1129
depth 7: 840
depth 8: 543
depth 9: 52
depth 10: 0
depth 11: 0
depth 12: 0
depth 13: 0
depth 14: 0
depth 15: 0
depth 16: 0
depth 17: 0
depth 18: 0
depth 19: 0
depth 20: 0
depth 21: 0
depth 22: 0
depth 23: 0
depth 24: 0
depth 25: 0
depth 26: 0
depth 27: 0
depth 28: 0
depth 29: 0
-----------------------------
-----------------------------
		Lost at Page
-----------------------------
depth 0: 0
depth 1: 313910
depth 2: 457970
depth 3: 407941
depth 4: 223331
depth 5: 73281
depth 6: 39446
depth 7: 28438
depth 8: 21049
depth 9: 2424
depth 10: 31
depth 11: 8
depth 12: 0
depth 13: 0
depth 14: 0
depth 15: 0
depth 16: 0
depth 17: 0
depth 18: 0
depth 19: 0
depth 20: 0
depth 21: 0
depth 22: 0
depth 23: 0
depth 24: 0
depth 25: 0
depth 26: 0
depth 27: 0
depth 28: 0
depth 29: 0
-----------------------------
-----------------------------
	Lost due to PQ Size
-----------------------------
254489
-----------------------------
ST read accesses: 1241715
ST write accesses: 270755
PT read accesses: 35546279
PT write accesses: 1638977
FILTER read accesses: 8052001
FILTER write accesses: 3000651
GHR read accesses: 13659866
GHR write accesses: 1566155
GHR counter read accesses: 31039128
GHR counter write accesses: 2538690
ST tag read accesses: 720299260
ST tag write accesses: 79360460

DRAM Statistics
 CHANNEL 0
 RQ ROW_BUFFER_HIT:     908334  ROW_BUFFER_MISS:    1299678
 DBUS_CONGESTED:       1102
 WQ ROW_BUFFER_HIT:     166557  ROW_BUFFER_MISS:     808256  FULL:          0

 AVG_CONGESTED_CYCLE: 4
 All warmup complete: 2
Channel 0 Bank busy for read cycles: 0
Channel 0 Bank busy for write cycles: 0
Channel 0
Rank 0
0banks busy for read cycles: 16706502
0banks busy for write cycles: 120466
1banks busy for read cycles: 34984111
1banks busy for write cycles: 13986254
2banks busy for read cycles: 30237685
2banks busy for write cycles: 13243167
3banks busy for read cycles: 17740032
3banks busy for write cycles: 11729307
4banks busy for read cycles: 10451893
4banks busy for write cycles: 9432728
5banks busy for read cycles: 5430476
5banks busy for write cycles: 6657823
6banks busy for read cycles: 2326117
6banks busy for write cycles: 3852316
7banks busy for read cycles: 831022
7banks busy for write cycles: 1696692
8banks busy for read cycles: 371349
8banks busy for write cycles: 475113

CPU 0 Branch Prediction Accuracy: 99.9931% MPKI: 0.00083 Average ROB Occupancy at Mispredict: 341.277
Branch types
NOT_BRANCH: 98797941 98.7979%
BRANCH_DIRECT_JUMP: 80123 0.080123%
BRANCH_INDIRECT: 0 0%
BRANCH_CONDITIONAL: 1121884 1.12188%
BRANCH_DIRECT_CALL: 0 0%
BRANCH_INDIRECT_CALL: 0 0%
BRANCH_RETURN: 0 0%
BRANCH_OTHER: 0 0%

DRAM PAGES: 1048576
Allocated PAGES: 385139
