
*** ChampSim Multicore Out-of-Order Simulator ***

Warmup Instructions: 50000000
Simulation Instructions: 100000000
Number of CPUs: 1
LLC sets: 2048
LLC ways: 16
Off-chip DRAM Size: 4096 MB Channels: 1 Width: 64-bit Data Rate: 6400 MT/s
CPU 0 runs ../SPEC2017//649.fotonik3d_s-7084B.champsimtrace.xz
.xz
NUM_OF_IPS_IN_CRITICAL_IP_TRAINING: 64
NUM_OF_CRITICAL_IP_TRAINING_TABLE_WAYS: 2
NUM_OF_CRITICAL_IP_TRAINING_TABLE_SETS: 32
WOBBLY_CRITICAL_IP_CACHE_SETS: 32
WOBBLY_CRITICAL_IP_CACHE_WAYS: 4
BTB has LRU replacement policy
ITLB has LRU replacement policy
DTLB has LRU replacement policy
STLB has LRU replacement policy
L1I has LRU replacement policy
IP Table Entries: 64
L1D has LRU replacement policy
IP_Table L2 entries: 64
Initialize SRRIP state for L2C
Initialize DRRIP state for LLC
Heartbeat CPU 0 instructions: 10000001 cycles: 2908402 heartbeat IPC: 3.43831 cumulative IPC: 3.43831 (Simulation time: 0 hr 7 min 27 sec) 
Heartbeat CPU 0 instructions: 20000001 cycles: 5816148 heartbeat IPC: 3.43909 cumulative IPC: 3.4387 (Simulation time: 0 hr 14 min 18 sec) 
Heartbeat CPU 0 instructions: 30000001 cycles: 8726698 heartbeat IPC: 3.43578 cumulative IPC: 3.43773 (Simulation time: 0 hr 19 min 53 sec) 
Heartbeat CPU 0 instructions: 40000003 cycles: 11641971 heartbeat IPC: 3.43021 cumulative IPC: 3.43584 (Simulation time: 0 hr 25 min 1 sec) 
Heartbeat CPU 0 instructions: 50000002 cycles: 14564769 heartbeat IPC: 3.42138 cumulative IPC: 3.43294 (Simulation time: 0 hr 30 min 4 sec) 

Warmup complete CPU 0 instructions: 50000002 cycles: 14564769 (Simulation time: 0 hr 30 min 4 sec) 

% increase in all ip prefetch 234.627
% increase in all ip prefetch -0.0638022
Heartbeat CPU 0 instructions: 60000002 cycles: 24758335 heartbeat IPC: 0.981011 cumulative IPC: 0.981011 (Simulation time: 0 hr 34 min 9 sec) 
Heartbeat CPU 0 instructions: 70000002 cycles: 34957039 heartbeat IPC: 0.980517 cumulative IPC: 0.980764 (Simulation time: 0 hr 37 min 46 sec) 
Heartbeat CPU 0 instructions: 80000003 cycles: 45150602 heartbeat IPC: 0.981011 cumulative IPC: 0.980846 (Simulation time: 0 hr 41 min 12 sec) 
Heartbeat CPU 0 instructions: 90000001 cycles: 55339961 heartbeat IPC: 0.981416 cumulative IPC: 0.980989 (Simulation time: 0 hr 44 min 24 sec) 
Heartbeat CPU 0 instructions: 100000001 cycles: 65496038 heartbeat IPC: 0.984632 cumulative IPC: 0.981715 (Simulation time: 0 hr 47 min 18 sec) 
Heartbeat CPU 0 instructions: 110000000 cycles: 75673562 heartbeat IPC: 0.982557 cumulative IPC: 0.981855 (Simulation time: 0 hr 50 min 12 sec) 
Heartbeat CPU 0 instructions: 120000000 cycles: 85857725 heartbeat IPC: 0.981917 cumulative IPC: 0.981864 (Simulation time: 0 hr 52 min 57 sec) 
Heartbeat CPU 0 instructions: 130000003 cycles: 96037962 heartbeat IPC: 0.982296 cumulative IPC: 0.981918 (Simulation time: 0 hr 55 min 31 sec) 
Heartbeat CPU 0 instructions: 140000002 cycles: 106230828 heartbeat IPC: 0.981078 cumulative IPC: 0.981825 (Simulation time: 1 hr 1 min 3 sec) 
Heartbeat CPU 0 instructions: 150000001 cycles: 116422316 heartbeat IPC: 0.981211 cumulative IPC: 0.981763 (Simulation time: 1 hr 6 min 55 sec) 
Finished CPU 0 instructions: 100000000 cycles: 101857548 cumulative IPC: 0.981763 (Simulation time: 1 hr 6 min 55 sec) 

ChampSim completed all CPUs

Region of Interest Statistics

CPU 0 cumulative IPC: 0.981763 instructions: 100000000 cycles: 101857548

CPU 0 Average Load ROB stall cycles: 1.45025e+07
CPU 0 Fraction of times ROB stalled by Loads: 22.1219
CPU 0 Percentage of Load stall cycles in Total stall cycles: 2.94577e+08
 Total stall cycles: 62046565
 Total load stall cycles: 182775080243827
CPU 0 NUM of IPS identified critical: 2
CPU 0 Num of Load IPs stalling ROB: 114
Threshold modification factor: -1
Max PIST entries: 46
Min PIST entries: 0
Avg PIST entries: 26.3133
Trouble in retire width: 0.73421
MaC = Marked as critical.
lt_50_percent_before_Mac: 2
gt_90_percent_before_Mac: 0
gt_75_percent_before_Mac: 0
gt_50_percent_before_Mac: 0
stall_proportion_bin_same_before_after: 0
stall_proportion_bin_lower_before_after: 0
stall_proportion_bin_upper_before_after: 0
average_stall_proportion_before: 0.227785
average_stall_proportion_after: 0.229061
Critical IP stalls, total frequency: 525010
Non-critical IP stalls, total frequency: 2262910
Critical_IP_ROB_Stalls_Bucket_0: 11876
Non-critical_IP_ROB_Stalls_Bucket_0: 2123880
Critical_IP_ROB_Stalls_Bucket_1: 505097
Non-critical_IP_ROB_Stalls_Bucket_1: 80972
Critical_IP_ROB_Stalls_Bucket_2: 1711
Non-critical_IP_ROB_Stalls_Bucket_2: 15835
Critical_IP_ROB_Stalls_Bucket_3: 2860
Non-critical_IP_ROB_Stalls_Bucket_3: 15734
Critical_IP_ROB_Stalls_Bucket_4: 1424
Non-critical_IP_ROB_Stalls_Bucket_4: 10462
Critical_IP_ROB_Stalls_Bucket_5: 1330
Non-critical_IP_ROB_Stalls_Bucket_5: 10083
Critical_IP_ROB_Stalls_Bucket_6: 712
Non-critical_IP_ROB_Stalls_Bucket_6: 6046
0 => IPs accounting for >50 percent of stalls, 1 => 55, 2 => 60, 3 => 65 and so on till 90.
percent50: 50.4113 num IPs:3
percent55: 64.8559 num IPs:4
percent60: 64.8559 num IPs:4
percent65: 78.2322 num IPs:5
percent70: 78.2322 num IPs:5
percent75: 78.2322 num IPs:5
percent80: 81.8279 num IPs:6
percent85: 86.1994 num IPs:8
percent90: 90.8951 num IPs:11
Critical_ROB_Stalls_Percent_0_Bucket_0: 898603
Non-critical_ROB_Stalls_Percent_0_Bucket_0: 1237153
Critical_ROB_Stalls_Percent_0_Bucket_1: 501542
Non-critical_ROB_Stalls_Percent_0_Bucket_1: 84527
Critical_ROB_Stalls_Percent_0_Bucket_2: 1568
Non-critical_ROB_Stalls_Percent_0_Bucket_2: 15978
Critical_ROB_Stalls_Percent_0_Bucket_3: 1156
Non-critical_ROB_Stalls_Percent_0_Bucket_3: 17438
Critical_ROB_Stalls_Percent_0_Bucket_4: 1157
Non-critical_ROB_Stalls_Percent_0_Bucket_4: 10729
Critical_ROB_Stalls_Percent_0_Bucket_5: 751
Non-critical_ROB_Stalls_Percent_0_Bucket_5: 10662
Critical_ROB_Stalls_Percent_0_Bucket_6: 650
Non-critical_ROB_Stalls_Percent_0_Bucket_6: 6108
Critical_ROB_Stalls_Percent_1_Bucket_0: 1287466
Non-critical_ROB_Stalls_Percent_1_Bucket_0: 848290
Critical_ROB_Stalls_Percent_1_Bucket_1: 509463
Non-critical_ROB_Stalls_Percent_1_Bucket_1: 76606
Critical_ROB_Stalls_Percent_1_Bucket_2: 2547
Non-critical_ROB_Stalls_Percent_1_Bucket_2: 14999
Critical_ROB_Stalls_Percent_1_Bucket_3: 2770
Non-critical_ROB_Stalls_Percent_1_Bucket_3: 15824
Critical_ROB_Stalls_Percent_1_Bucket_4: 2228
Non-critical_ROB_Stalls_Percent_1_Bucket_4: 9658
Critical_ROB_Stalls_Percent_1_Bucket_5: 2551
Non-critical_ROB_Stalls_Percent_1_Bucket_5: 8862
Critical_ROB_Stalls_Percent_1_Bucket_6: 1105
Non-critical_ROB_Stalls_Percent_1_Bucket_6: 5653
Critical_ROB_Stalls_Percent_2_Bucket_0: 1287466
Non-critical_ROB_Stalls_Percent_2_Bucket_0: 848290
Critical_ROB_Stalls_Percent_2_Bucket_1: 509463
Non-critical_ROB_Stalls_Percent_2_Bucket_1: 76606
Critical_ROB_Stalls_Percent_2_Bucket_2: 2547
Non-critical_ROB_Stalls_Percent_2_Bucket_2: 14999
Critical_ROB_Stalls_Percent_2_Bucket_3: 2770
Non-critical_ROB_Stalls_Percent_2_Bucket_3: 15824
Critical_ROB_Stalls_Percent_2_Bucket_4: 2228
Non-critical_ROB_Stalls_Percent_2_Bucket_4: 9658
Critical_ROB_Stalls_Percent_2_Bucket_5: 2551
Non-critical_ROB_Stalls_Percent_2_Bucket_5: 8862
Critical_ROB_Stalls_Percent_2_Bucket_6: 1105
Non-critical_ROB_Stalls_Percent_2_Bucket_6: 5653
Critical_ROB_Stalls_Percent_3_Bucket_0: 1653522
Non-critical_ROB_Stalls_Percent_3_Bucket_0: 482234
Critical_ROB_Stalls_Percent_3_Bucket_1: 510863
Non-critical_ROB_Stalls_Percent_3_Bucket_1: 75206
Critical_ROB_Stalls_Percent_3_Bucket_2: 3499
Non-critical_ROB_Stalls_Percent_3_Bucket_2: 14047
Critical_ROB_Stalls_Percent_3_Bucket_3: 5226
Non-critical_ROB_Stalls_Percent_3_Bucket_3: 13368
Critical_ROB_Stalls_Percent_3_Bucket_4: 3057
Non-critical_ROB_Stalls_Percent_3_Bucket_4: 8829
Critical_ROB_Stalls_Percent_3_Bucket_5: 3768
Non-critical_ROB_Stalls_Percent_3_Bucket_5: 7645
Critical_ROB_Stalls_Percent_3_Bucket_6: 1116
Non-critical_ROB_Stalls_Percent_3_Bucket_6: 5642
Critical_ROB_Stalls_Percent_4_Bucket_0: 1653522
Non-critical_ROB_Stalls_Percent_4_Bucket_0: 482234
Critical_ROB_Stalls_Percent_4_Bucket_1: 510863
Non-critical_ROB_Stalls_Percent_4_Bucket_1: 75206
Critical_ROB_Stalls_Percent_4_Bucket_2: 3499
Non-critical_ROB_Stalls_Percent_4_Bucket_2: 14047
Critical_ROB_Stalls_Percent_4_Bucket_3: 5226
Non-critical_ROB_Stalls_Percent_4_Bucket_3: 13368
Critical_ROB_Stalls_Percent_4_Bucket_4: 3057
Non-critical_ROB_Stalls_Percent_4_Bucket_4: 8829
Critical_ROB_Stalls_Percent_4_Bucket_5: 3768
Non-critical_ROB_Stalls_Percent_4_Bucket_5: 7645
Critical_ROB_Stalls_Percent_4_Bucket_6: 1116
Non-critical_ROB_Stalls_Percent_4_Bucket_6: 5642
Critical_ROB_Stalls_Percent_5_Bucket_0: 1653522
Non-critical_ROB_Stalls_Percent_5_Bucket_0: 482234
Critical_ROB_Stalls_Percent_5_Bucket_1: 510863
Non-critical_ROB_Stalls_Percent_5_Bucket_1: 75206
Critical_ROB_Stalls_Percent_5_Bucket_2: 3499
Non-critical_ROB_Stalls_Percent_5_Bucket_2: 14047
Critical_ROB_Stalls_Percent_5_Bucket_3: 5226
Non-critical_ROB_Stalls_Percent_5_Bucket_3: 13368
Critical_ROB_Stalls_Percent_5_Bucket_4: 3057
Non-critical_ROB_Stalls_Percent_5_Bucket_4: 8829
Critical_ROB_Stalls_Percent_5_Bucket_5: 3768
Non-critical_ROB_Stalls_Percent_5_Bucket_5: 7645
Critical_ROB_Stalls_Percent_5_Bucket_6: 1116
Non-critical_ROB_Stalls_Percent_5_Bucket_6: 5642
Critical_ROB_Stalls_Percent_6_Bucket_0: 1753751
Non-critical_ROB_Stalls_Percent_6_Bucket_0: 382005
Critical_ROB_Stalls_Percent_6_Bucket_1: 510871
Non-critical_ROB_Stalls_Percent_6_Bucket_1: 75198
Critical_ROB_Stalls_Percent_6_Bucket_2: 3501
Non-critical_ROB_Stalls_Percent_6_Bucket_2: 14045
Critical_ROB_Stalls_Percent_6_Bucket_3: 5227
Non-critical_ROB_Stalls_Percent_6_Bucket_3: 13367
Critical_ROB_Stalls_Percent_6_Bucket_4: 3058
Non-critical_ROB_Stalls_Percent_6_Bucket_4: 8828
Critical_ROB_Stalls_Percent_6_Bucket_5: 3772
Non-critical_ROB_Stalls_Percent_6_Bucket_5: 7641
Critical_ROB_Stalls_Percent_6_Bucket_6: 1117
Non-critical_ROB_Stalls_Percent_6_Bucket_6: 5641
Critical_ROB_Stalls_Percent_7_Bucket_0: 1867649
Non-critical_ROB_Stalls_Percent_7_Bucket_0: 268107
Critical_ROB_Stalls_Percent_7_Bucket_1: 513214
Non-critical_ROB_Stalls_Percent_7_Bucket_1: 72855
Critical_ROB_Stalls_Percent_7_Bucket_2: 6483
Non-critical_ROB_Stalls_Percent_7_Bucket_2: 11063
Critical_ROB_Stalls_Percent_7_Bucket_3: 6061
Non-critical_ROB_Stalls_Percent_7_Bucket_3: 12533
Critical_ROB_Stalls_Percent_7_Bucket_4: 4486
Non-critical_ROB_Stalls_Percent_7_Bucket_4: 7400
Critical_ROB_Stalls_Percent_7_Bucket_5: 4040
Non-critical_ROB_Stalls_Percent_7_Bucket_5: 7373
Critical_ROB_Stalls_Percent_7_Bucket_6: 1237
Non-critical_ROB_Stalls_Percent_7_Bucket_6: 5521
Critical_ROB_Stalls_Percent_8_Bucket_0: 1974286
Non-critical_ROB_Stalls_Percent_8_Bucket_0: 161470
Critical_ROB_Stalls_Percent_8_Bucket_1: 530799
Non-critical_ROB_Stalls_Percent_8_Bucket_1: 55270
Critical_ROB_Stalls_Percent_8_Bucket_2: 7753
Non-critical_ROB_Stalls_Percent_8_Bucket_2: 9793
Critical_ROB_Stalls_Percent_8_Bucket_3: 8273
Non-critical_ROB_Stalls_Percent_8_Bucket_3: 10321
Critical_ROB_Stalls_Percent_8_Bucket_4: 5719
Non-critical_ROB_Stalls_Percent_8_Bucket_4: 6167
Critical_ROB_Stalls_Percent_8_Bucket_5: 5474
Non-critical_ROB_Stalls_Percent_8_Bucket_5: 5939
Critical_ROB_Stalls_Percent_8_Bucket_6: 1778
Non-critical_ROB_Stalls_Percent_8_Bucket_6: 4980
Average ROB occupancy Load Stall Begin: 35.9222
Average ROB occupancy Load Stall End: 39.4443
Min ROB occupancy Load Stall Begin: 2
Max ROB occupancy Load Stall Begin: 351
Min ROB occupancy Load Stall End: 2
Max ROB occupancy Load Stall End: 352
Average ROB occupancy Critical Load Stall Begin: 52.7032
Average ROB occupancy Critical Load Stall End: 53.011
Min ROB occupancy Critical Load Stall Begin: 35
Max ROB occupancy Critical Load Stall Begin: 351
Min ROB occupancy Critical Load Stall End: 35
Max ROB occupancy Critical Load Stall End: 352
 ROB Load Stall Begin Bucket Count 0: 2171061
 ROB Load Stall End Bucket Count 0: 2135756
 ROB Critical Load Stall Begin Bucket Count 0: 7578
 ROB Critical Load Stall End Bucket Count 0: 7422
 ROB Load Stall Begin Bucket Count 1: 555276
 ROB Load Stall End Bucket Count 1: 586069
 ROB Critical Load Stall Begin Bucket Count 1: 477950
 ROB Critical Load Stall End Bucket Count 1: 477973
 ROB Load Stall Begin Bucket Count 2: 17843
 ROB Load Stall End Bucket Count 2: 17546
 ROB Critical Load Stall Begin Bucket Count 2: 1106
 ROB Critical Load Stall End Bucket Count 2: 1109
 ROB Load Stall Begin Bucket Count 3: 18279
 ROB Load Stall End Bucket Count 3: 18594
 ROB Critical Load Stall Begin Bucket Count 3: 1601
 ROB Critical Load Stall End Bucket Count 3: 1559
 ROB Load Stall Begin Bucket Count 4: 11498
 ROB Load Stall End Bucket Count 4: 11886
 ROB Critical Load Stall Begin Bucket Count 4: 884
 ROB Critical Load Stall End Bucket Count 4: 930
 ROB Load Stall Begin Bucket Count 5: 10139
 ROB Load Stall End Bucket Count 5: 11413
 ROB Critical Load Stall Begin Bucket Count 5: 918
 ROB Critical Load Stall End Bucket Count 5: 895
 ROB Load Stall Begin Bucket Count 6: 3926
 ROB Load Stall End Bucket Count 6: 6758
 ROB Critical Load Stall Begin Bucket Count 6: 410
 ROB Critical Load Stall End Bucket Count 6: 559
PIST Tag Read Accesses: 251570
PIST Read Accesses: 125785
PIST Tag Write Accesses: 251570
PIST Write Accesses: 125785
Criticality detector called times: 1979969
Max global_stall_cycles_count: 153833
Threshold Modified: 1 times, factor: -1
ITLB TOTAL     ACCESS:   12175960  HIT:   12175960  MISS:          0  HIT %:        100  MISS %:          0   MPKI: 0
ITLB LOAD TRANSLATION ACCESS:   12175960  HIT:   12175960  MISS:          0  HIT %:        100  MISS %:          0   MPKI: 0
ITLB PREFETCH  REQUESTED:          0  ISSUED:          0  USEFUL:          0  USELESS:          0
ITLB USEFUL LOAD PREFETCHES:          0 PREFETCH ISSUED TO LOWER LEVEL:          0  ACCURACY: -nan
ITLB TIMELY PREFETCHES:          0 LATE PREFETCHES: 0 DROPPED PREFETCHES: 0
ITLB PREFETCHES SAME FILL-ORIGIN LEVEL: 0 DIFFERENT FILL-ORIGIN LEVEL: 0
ITLB AVERAGE MISS LATENCY: -nan cycles
ITLB RQ	ACCESS:   14882995	FORWARD:          0	MERGED:    2707035	TO_CACHE:   12175960

DTLB TOTAL     ACCESS:   26473372  HIT:   26388512  MISS:      84860  HIT %:    99.6795  MISS %:   0.320549   MPKI: 0.8486
DTLB LOAD TRANSLATION ACCESS:   26473372  HIT:   26388512  MISS:      84860  HIT %:    99.6795  MISS %:   0.320549   MPKI: 0.8486
DTLB PREFETCH  REQUESTED:          0  ISSUED:          0  USEFUL:          0  USELESS:          0
DTLB USEFUL LOAD PREFETCHES:          0 PREFETCH ISSUED TO LOWER LEVEL:          0  ACCURACY: -nan
DTLB TIMELY PREFETCHES:          0 LATE PREFETCHES: 0 DROPPED PREFETCHES: 0
DTLB PREFETCHES SAME FILL-ORIGIN LEVEL: 0 DIFFERENT FILL-ORIGIN LEVEL: 0
DTLB AVERAGE MISS LATENCY: 52.0334 cycles
DTLB RQ	ACCESS:   29086286	FORWARD:          0	MERGED:    2611456	TO_CACHE:   26474830

STLB TOTAL     ACCESS:    2097516  HIT:    2070218  MISS:      27298  HIT %:    98.6986  MISS %:    1.30144   MPKI: 0.27298
STLB LOAD TRANSLATION ACCESS:      84860  HIT:      57562  MISS:      27298  HIT %:    67.8317  MISS %:    32.1683   MPKI: 0.27298
STLB TRANSLATION FROM L1D PREFETCHER ACCESS:    2012656  HIT:    2012656  MISS:          0  HIT %:        100  MISS %:          0   MPKI: 0
STLB PREFETCH  REQUESTED:          0  ISSUED:          0  USEFUL:          0  USELESS:          0
STLB USEFUL LOAD PREFETCHES:          0 PREFETCH ISSUED TO LOWER LEVEL:          0  ACCURACY: -nan
STLB TIMELY PREFETCHES:          0 LATE PREFETCHES: 0 DROPPED PREFETCHES: 0
STLB PREFETCHES SAME FILL-ORIGIN LEVEL: 0 DIFFERENT FILL-ORIGIN LEVEL: 0
STLB AVERAGE MISS LATENCY: 132.904 cycles
STLB RQ	ACCESS:   10845122	FORWARD:          0	MERGED:    8747606	TO_CACHE:    2097516

STLB Hit, L1D data hit: 0
STLB Hit, L2C data hit: 0
STLB Hit, LLC data hit: 0
STLB Hit, LLC data miss: 0
STLB STLB hints to L2: 0
L1D TOTAL     ACCESS:   39837174  HIT:   38097583  MISS:    1739591  HIT %:    95.6332  MISS %:    4.36675   MPKI: 17.3959
L1D LOAD      ACCESS:   24163159  HIT:   23943015  MISS:     220144  HIT %:    99.0889  MISS %:   0.911073   MPKI: 2.20144
L1D RFO       ACCESS:    4917222  HIT:    4917222  MISS:          0  HIT %:        100  MISS %:          0   MPKI: 0
L1D PREFETCH  ACCESS:   10756793  HIT:    9237346  MISS:    1519447  HIT %:    85.8745  MISS %:    14.1255   MPKI: 15.1945
L1D PREFETCH  REQUESTED:   21825199  ISSUED:   21520553  USEFUL:    1418110  USELESS:     101345
L1D USEFUL LOAD PREFETCHES:    1418110 PREFETCH ISSUED TO LOWER LEVEL:    1522812  ACCURACY: 93.1244
L1D TIMELY PREFETCHES:    1418110 LATE PREFETCHES: 452 DROPPED PREFETCHES: 0
L1D PREFETCHES SAME FILL-ORIGIN LEVEL: 1522812 DIFFERENT FILL-ORIGIN LEVEL: 0
L1D AVERAGE MISS LATENCY: 16386.6 cycles
L1D RQ	ACCESS:   35131419	FORWARD:          0	MERGED:   10936308	TO_CACHE:   24169065
L1D WQ	ACCESS:    4917221	FORWARD:      26046	MERGED:          0	TO_CACHE:    4917221
L1D PQ	ACCESS:   10760291	FORWARD:          0	MERGED:         29	TO_CACHE:   10760262

L1D UNIQUE REGIONS ACCESSED: 0
L1D REGIONS CONFLICTS: 0
L1D Cross Page Prefetch Requests: 0
L1D Same Page Prefetch Requests: 16111290
L1D ROI Sum of L1D PQ occupancy: 155030365
L1D PREFETCHES PUSHED FROM L2C: 0
L1I TOTAL     ACCESS:   14882994  HIT:   14882994  MISS:          0  HIT %:        100  MISS %:          0   MPKI: 0
L1I LOAD      ACCESS:   14882994  HIT:   14882994  MISS:          0  HIT %:        100  MISS %:          0   MPKI: 0
L1I PREFETCH  REQUESTED:          0  ISSUED:          0  USEFUL:          0  USELESS:          0
L1I USEFUL LOAD PREFETCHES:          0 PREFETCH ISSUED TO LOWER LEVEL:          0  ACCURACY: -nan
L1I TIMELY PREFETCHES:          0 LATE PREFETCHES: 0 DROPPED PREFETCHES: 0
L1I PREFETCHES SAME FILL-ORIGIN LEVEL: 0 DIFFERENT FILL-ORIGIN LEVEL: 0
L1I AVERAGE MISS LATENCY: -nan cycles
L1I RQ	ACCESS:   21662437	FORWARD:          0	MERGED:    6779442	TO_CACHE:   14882995

BTB TOTAL     ACCESS:     673550  HIT:     673547  MISS:          3  HIT %:    99.9996  MISS %: 0.000445401   MPKI: 3e-05
BTB BRANCH_DIRECT_JUMP	ACCESS:          0  HIT:          0  MISS:          0
BTB BRANCH_INDIRECT	ACCESS:          0  HIT:          0  MISS:          0
BTB BRANCH_CONDITIONAL	ACCESS:     673550  HIT:     673547  MISS:          3
BTB BRANCH_DIRECT_CALL	ACCESS:          0  HIT:          0  MISS:          0
BTB BRANCH_INDIRECT_CALL	ACCESS:          0  HIT:          0  MISS:          0
BTB BRANCH_RETURN	ACCESS:          0  HIT:          0  MISS:          0
BTB BRANCH_OTHER ACCESS:          0  HIT:          0  MISS:          0

L2C TOTAL     ACCESS:    8931952  HIT:    7192162  MISS:    1739790  HIT %:    80.5217  MISS %:    19.4783   MPKI: 17.3979
L2C LOAD      ACCESS:     219692  HIT:     174060  MISS:      45632  HIT %:    79.2291  MISS %:    20.7709   MPKI: 0.45632
L2C DATA LOAD MPKI: 0.45632
L2C INSTRUCTION LOAD MPKI: 0
L2C PREFETCH  ACCESS:    8165387  HIT:    6475672  MISS:    1689715  HIT %:    79.3064  MISS %:    20.6936   MPKI: 16.8971
L2C DATA PREFETCH MPKI: 16.8971
L2C INSTRUCTION PREFETCH MPKI: 0
L2C WRITEBACK ACCESS:     519573  HIT:     518866  MISS:        707  HIT %:    99.8639  MISS %:   0.136073   MPKI: 0.00707
L2C LOAD TRANSLATION ACCESS:      27300  HIT:      23564  MISS:       3736  HIT %:     86.315  MISS %:     13.685   MPKI: 0.03736
L2C PREFETCH  REQUESTED:    8073683  ISSUED:    8041865  USEFUL:     173457  USELESS:    1516429
L2C USEFUL LOAD PREFETCHES:     173457 PREFETCH ISSUED TO LOWER LEVEL:    1690532  ACCURACY: 10.2605
L2C TIMELY PREFETCHES:     173457 LATE PREFETCHES: 813 DROPPED PREFETCHES: 0
L2C PREFETCHES SAME FILL-ORIGIN LEVEL: 1477936 DIFFERENT FILL-ORIGIN LEVEL: 0
L2C AVERAGE MISS LATENCY: 221.458 cycles
L2C RQ	ACCESS:     246992	FORWARD:          0	MERGED:          0	TO_CACHE:     246992
L2C WQ	ACCESS:     519573	FORWARD:          0	MERGED:          0	TO_CACHE:     519573
L2C PQ	ACCESS:    9561764	FORWARD:          0	MERGED:    1370224	TO_CACHE:    8191540

L2C Instructions Evicting Data 0
L2C Translations Evicting Data 3732
L2C Data Evicting Data 1731611
L2C Instructions Evicting Instructions 0
L2C Translations Evicting Instructions 0
L2C Data Evicting Instructions 0
L2C Instructions Evicting Translations 0
L2C Translations Evicting Translations 4
L2C Data Evicting Translations 3736
L2C Dense regions hint from L2: 0
PSCL5 TOTAL     ACCESS:      27298  HIT:      27298  MISS:          0  HIT %:        100  MISS %:          0   MPKI: 0
PSCL5 LOAD TRANSLATION ACCESS:      27298  HIT:      27298  MISS:          0  HIT %:        100  MISS %:          0   MPKI: 0
PSCL5 PREFETCH  REQUESTED:          0  ISSUED:          0  USEFUL:          0  USELESS:          0
PSCL5 USEFUL LOAD PREFETCHES:          0 PREFETCH ISSUED TO LOWER LEVEL:          0  ACCURACY: -nan
PSCL5 TIMELY PREFETCHES:          0 LATE PREFETCHES: 0 DROPPED PREFETCHES: 0
PSCL5 PREFETCHES SAME FILL-ORIGIN LEVEL: 0 DIFFERENT FILL-ORIGIN LEVEL: 0

PSCL4 TOTAL     ACCESS:      27298  HIT:      27298  MISS:          0  HIT %:        100  MISS %:          0   MPKI: 0
PSCL4 LOAD TRANSLATION ACCESS:      27298  HIT:      27298  MISS:          0  HIT %:        100  MISS %:          0   MPKI: 0
PSCL4 PREFETCH  REQUESTED:          0  ISSUED:          0  USEFUL:          0  USELESS:          0
PSCL4 USEFUL LOAD PREFETCHES:          0 PREFETCH ISSUED TO LOWER LEVEL:          0  ACCURACY: -nan
PSCL4 TIMELY PREFETCHES:          0 LATE PREFETCHES: 0 DROPPED PREFETCHES: 0
PSCL4 PREFETCHES SAME FILL-ORIGIN LEVEL: 0 DIFFERENT FILL-ORIGIN LEVEL: 0

PSCL3 TOTAL     ACCESS:      27298  HIT:      27298  MISS:          0  HIT %:        100  MISS %:          0   MPKI: 0
PSCL3 LOAD TRANSLATION ACCESS:      27298  HIT:      27298  MISS:          0  HIT %:        100  MISS %:          0   MPKI: 0
PSCL3 PREFETCH  REQUESTED:          0  ISSUED:          0  USEFUL:          0  USELESS:          0
PSCL3 USEFUL LOAD PREFETCHES:          0 PREFETCH ISSUED TO LOWER LEVEL:          0  ACCURACY: -nan
PSCL3 TIMELY PREFETCHES:          0 LATE PREFETCHES: 0 DROPPED PREFETCHES: 0
PSCL3 PREFETCHES SAME FILL-ORIGIN LEVEL: 0 DIFFERENT FILL-ORIGIN LEVEL: 0

PSCL2 TOTAL     ACCESS:      27298  HIT:      27253  MISS:         45  HIT %:    99.8352  MISS %:   0.164847   MPKI: 0.00045
PSCL2 LOAD TRANSLATION ACCESS:      27298  HIT:      27253  MISS:         45  HIT %:    99.8352  MISS %:   0.164847   MPKI: 0.00045
PSCL2 PREFETCH  REQUESTED:          0  ISSUED:          0  USEFUL:          0  USELESS:          0
PSCL2 USEFUL LOAD PREFETCHES:          0 PREFETCH ISSUED TO LOWER LEVEL:          0  ACCURACY: -nan
PSCL2 TIMELY PREFETCHES:          0 LATE PREFETCHES: 0 DROPPED PREFETCHES: 0
PSCL2 PREFETCHES SAME FILL-ORIGIN LEVEL: 0 DIFFERENT FILL-ORIGIN LEVEL: 0

LLC TOTAL     ACCESS:    2258296  HIT:     513372  MISS:    1744924  HIT %:    22.7327  MISS %:    77.2673   MPKI: 17.4492
LLC LOAD      ACCESS:      44819  HIT:        129  MISS:      44690  HIT %:   0.287824  MISS %:    99.7122   MPKI: 0.4469
LLC PREFETCH  ACCESS:    1690528  HIT:       1701  MISS:    1688827  HIT %:   0.100619  MISS %:    99.8994   MPKI: 16.8883
LLC WRITEBACK ACCESS:     519213  HIT:     511310  MISS:       7903  HIT %:    98.4779  MISS %:    1.52211   MPKI: 0.07903
LLC LOAD TRANSLATION ACCESS:       3736  HIT:        232  MISS:       3504  HIT %:    6.20985  MISS %:    93.7901   MPKI: 0.03504
LLC PREFETCH  REQUESTED:          0  ISSUED:          0  USEFUL:         32  USELESS:    1688598
LLC USEFUL LOAD PREFETCHES:         32 PREFETCH ISSUED TO LOWER LEVEL:    1688831  ACCURACY: 0.0018948
LLC TIMELY PREFETCHES:         32 LATE PREFETCHES: 0 DROPPED PREFETCHES: 0
LLC PREFETCHES SAME FILL-ORIGIN LEVEL: 0 DIFFERENT FILL-ORIGIN LEVEL: 0
LLC AVERAGE MISS LATENCY: 190.029 cycles
LLC RQ	ACCESS:      48555	FORWARD:          0	MERGED:          0	TO_CACHE:      48555
LLC WQ	ACCESS:     519213	FORWARD:          0	MERGED:          0	TO_CACHE:     519213
LLC PQ	ACCESS:    1690532	FORWARD:          0	MERGED:          0	TO_CACHE:    1690532

LLC Dense regions hint to LLC: 0

RAW hits: 241458
Loads Generated: 35372880
Loads sent to L1D: 35131419
Stores Generated: 4917220
Stores sent to L1D: 4917221
Major fault: 0 Minor fault: 33266
Allocated PAGES: 33266

stream: 
stream:times selected: 4164249
stream:pref_filled: 2250678
stream:pref_useful: 2104024
stream:pref_late: 304
stream:misses: 84
stream:misses_by_poll: 0

CS: 
CS:times selected: 3323936
CS:pref_filled: 9495
CS:pref_useful: 9144
CS:pref_late: 3
CS:misses: 34532
CS:misses_by_poll: 8

CPLX: 
CPLX:times selected: 840205
CPLX:pref_filled: 12394
CPLX:pref_useful: 7422
CPLX:pref_late: 2
CPLX:misses: 2034
CPLX:misses_by_poll: 2

NL_L1: 
NL:times selected: 7
NL:pref_filled: 6
NL:pref_useful: 6
NL:pref_late: 0
NL:misses: 0
NL:misses_by_poll: 0

total selections: 8328397
total_filled: 1519447
total_useful: 1418110
total_late: 473
total_polluted: 10
total_misses_after_warmup: 226054
conflicts: 1178177
Degree Incremented Times: 371297
Degree Decremented Times: 0

L1 IP Table Write Accesses: 19937484
L1 IP Table Read Accesses: 18759307
L1 RST Write Accesses: 2813789
L1 RST Read Accesses: 5627578
L1 CSPT Write Accesses: 2813789
L1 CSPT Read Accesses: 4262824
L1 RR Filter Tag Write Accesses: 11064937
L1 RR Filter Tag Read Accesses: 662439139
L1 IP Table Tag Write Accesses: 24169069
L1 IP Table Tag Read Accesses: 24169069
L1 RST Tag Write Accesses: 0
L1 RST Tag Read Accesses: 26221920
L1 RR Filter Write Accesses: 0
L1 RR Filter Read Accesses: 24189730
test: 78860
L2 IP Table Read Accesses: 3047605
L2 IP Table Write Accesses: 3030508
L2 IP Table Tag Read Accesses: 1618450
L2 IP Table Tag Write Accesses: 1618450

DRAM Statistics
 CHANNEL 0
 RQ ROW_BUFFER_HIT:     463386  ROW_BUFFER_MISS:    1273636
 DBUS_CONGESTED:       1148
 WQ ROW_BUFFER_HIT:     189819  ROW_BUFFER_MISS:     329304  FULL:          0

 AVG_CONGESTED_CYCLE: 5
 All warmup complete: 2
Channel 0 Bank busy for read cycles: 0
Channel 0 Bank busy for write cycles: 0
Channel 0
Rank 0
0banks busy for read cycles: 472960
0banks busy for write cycles: 2361
1banks busy for read cycles: 25481379
1banks busy for write cycles: 469165
2banks busy for read cycles: 23525125
2banks busy for write cycles: 506858
3banks busy for read cycles: 13781256
3banks busy for write cycles: 544675
4banks busy for read cycles: 6378796
4banks busy for write cycles: 593523
5banks busy for read cycles: 2923081
5banks busy for write cycles: 698623
6banks busy for read cycles: 1942343
6banks busy for write cycles: 958341
7banks busy for read cycles: 3737531
7banks busy for write cycles: 2177761
8banks busy for read cycles: 2943944
8banks busy for write cycles: 14719827

CPU 0 Branch Prediction Accuracy: 99.9983% MPKI: 0.00012 Average ROB Occupancy at Mispredict: 86.0833
Branch types
NOT_BRANCH: 99309279 99.3093%
BRANCH_DIRECT_JUMP: 0 0%
BRANCH_INDIRECT: 0 0%
BRANCH_CONDITIONAL: 690401 0.690401%
BRANCH_DIRECT_CALL: 0 0%
BRANCH_INDIRECT_CALL: 0 0%
BRANCH_RETURN: 0 0%
BRANCH_OTHER: 0 0%

DRAM PAGES: 1048576
Allocated PAGES: 33266
