
*** ChampSim Multicore Out-of-Order Simulator ***

Warmup Instructions: 50000000
Simulation Instructions: 100000000
Number of CPUs: 1
LLC sets: 2048
LLC ways: 16
Off-chip DRAM Size: 4096 MB Channels: 1 Width: 64-bit Data Rate: 6400 MT/s
CPU 0 runs ../SPEC2017//649.fotonik3d_s-7084B.champsimtrace.xz
.xz
NUM_OF_IPS_IN_CRITICAL_IP_TRAINING: 64
NUM_OF_CRITICAL_IP_TRAINING_TABLE_WAYS: 2
NUM_OF_CRITICAL_IP_TRAINING_TABLE_SETS: 32
WOBBLY_CRITICAL_IP_CACHE_SETS: 32
WOBBLY_CRITICAL_IP_CACHE_WAYS: 4
BTB has LRU replacement policy
ITLB has LRU replacement policy
DTLB has LRU replacement policy
STLB has LRU replacement policy
L1I has LRU replacement policy
IP Table Entries: 256
L1D has LRU replacement policy
Initialize SRRIP state for L2C
Initialize DRRIP state for LLC
Heartbeat CPU 0 instructions: 10000001 cycles: 2908374 heartbeat IPC: 3.43835 cumulative IPC: 3.43835 (Simulation time: 0 hr 3 min 9 sec) 
Heartbeat CPU 0 instructions: 20000001 cycles: 5816080 heartbeat IPC: 3.43914 cumulative IPC: 3.43874 (Simulation time: 0 hr 6 min 15 sec) 
Heartbeat CPU 0 instructions: 30000001 cycles: 8726273 heartbeat IPC: 3.4362 cumulative IPC: 3.43789 (Simulation time: 0 hr 9 min 23 sec) 
Heartbeat CPU 0 instructions: 40000003 cycles: 11641288 heartbeat IPC: 3.43051 cumulative IPC: 3.43605 (Simulation time: 0 hr 12 min 30 sec) 
Heartbeat CPU 0 instructions: 50000002 cycles: 14563866 heartbeat IPC: 3.42164 cumulative IPC: 3.43315 (Simulation time: 0 hr 15 min 34 sec) 

Warmup complete CPU 0 instructions: 50000002 cycles: 14563866 (Simulation time: 0 hr 15 min 34 sec) 

% increase in all ip prefetch 241.096
% increase in all ip prefetch 0.559848
Heartbeat CPU 0 instructions: 60000002 cycles: 24810874 heartbeat IPC: 0.975895 cumulative IPC: 0.975895 (Simulation time: 0 hr 18 min 17 sec) 
Heartbeat CPU 0 instructions: 70000002 cycles: 35048241 heartbeat IPC: 0.976814 cumulative IPC: 0.976354 (Simulation time: 0 hr 20 min 55 sec) 
Heartbeat CPU 0 instructions: 80000003 cycles: 45289531 heartbeat IPC: 0.97644 cumulative IPC: 0.976382 (Simulation time: 0 hr 23 min 31 sec) 
Heartbeat CPU 0 instructions: 90000001 cycles: 55534683 heartbeat IPC: 0.976071 cumulative IPC: 0.976305 (Simulation time: 0 hr 26 min 6 sec) 
Heartbeat CPU 0 instructions: 100000001 cycles: 65757767 heartbeat IPC: 0.978178 cumulative IPC: 0.976679 (Simulation time: 0 hr 28 min 45 sec) 
Heartbeat CPU 0 instructions: 110000000 cycles: 75984663 heartbeat IPC: 0.977814 cumulative IPC: 0.976868 (Simulation time: 0 hr 31 min 15 sec) 
Heartbeat CPU 0 instructions: 120000000 cycles: 86199460 heartbeat IPC: 0.978972 cumulative IPC: 0.977168 (Simulation time: 0 hr 33 min 48 sec) 
Heartbeat CPU 0 instructions: 130000003 cycles: 96415175 heartbeat IPC: 0.978884 cumulative IPC: 0.977382 (Simulation time: 0 hr 36 min 13 sec) 
Heartbeat CPU 0 instructions: 140000001 cycles: 106651799 heartbeat IPC: 0.976884 cumulative IPC: 0.977327 (Simulation time: 0 hr 41 min 48 sec) 
Heartbeat CPU 0 instructions: 150000001 cycles: 116873694 heartbeat IPC: 0.978292 cumulative IPC: 0.977423 (Simulation time: 0 hr 47 min 17 sec) 
Finished CPU 0 instructions: 100000000 cycles: 102309829 cumulative IPC: 0.977423 (Simulation time: 0 hr 47 min 17 sec) 

ChampSim completed all CPUs

Region of Interest Statistics

CPU 0 cumulative IPC: 0.977423 instructions: 100000000 cycles: 102309829

CPU 0 Average Load ROB stall cycles: 2.36074e+07
CPU 0 Fraction of times ROB stalled by Loads: 36.0073
CPU 0 Percentage of Load stall cycles in Total stall cycles: 3.62923e+08
Issued all: 53499213
Issued LT all: 37446450
rob_not_full_when_issued_lt_all: 34790214
Issued LT one: 34459813
rob_not_full_when_issued_lt_one: 32076271
 Total stall cycles: 79755848
 Total load stall cycles: 289452062945487
CPU 0 NUM of IPS identified critical: 0
CPU 0 Num of Load IPs stalling ROB: 170
Threshold modification factor: -1
Max PIST entries: 61
Min PIST entries: 0
Avg PIST entries: 35.3867
Trouble in retire width: 0.733431
MaC = Marked as critical.
lt_50_percent_before_Mac: 0
gt_90_percent_before_Mac: 0
gt_75_percent_before_Mac: 0
gt_50_percent_before_Mac: 0
stall_proportion_bin_same_before_after: 0
stall_proportion_bin_lower_before_after: 0
stall_proportion_bin_upper_before_after: 0
average_stall_proportion_before: -nan
average_stall_proportion_after: -nan
Critical IP stalls, total frequency: 0
Non-critical IP stalls, total frequency: 4414881
Total Freq all stalling IPs: 4414881
stat_90_percent_critical_ip_stalls_freq: 4015952
stat_90_percent_non_critical_ip_stalls_freq: 398929
Critical_IP_ROB_Stalls_Bucket_0: 0
Non-critical_IP_ROB_Stalls_Bucket_0: 2789125
Critical_IP_ROB_Stalls_Bucket_1: 0
Non-critical_IP_ROB_Stalls_Bucket_1: 1059801
Critical_IP_ROB_Stalls_Bucket_2: 0
Non-critical_IP_ROB_Stalls_Bucket_2: 119520
Critical_IP_ROB_Stalls_Bucket_3: 0
Non-critical_IP_ROB_Stalls_Bucket_3: 132254
Critical_IP_ROB_Stalls_Bucket_4: 0
Non-critical_IP_ROB_Stalls_Bucket_4: 161164
Critical_IP_ROB_Stalls_Bucket_5: 0
Non-critical_IP_ROB_Stalls_Bucket_5: 82949
Critical_IP_ROB_Stalls_Bucket_6: 0
Non-critical_IP_ROB_Stalls_Bucket_6: 70068
0 => IPs accounting for >50 percent of stalls, 1 => 55, 2 => 60, 3 => 65 and so on till 90.
percent50: 53.7528 num IPs:  6
percent55: 61.331 num IPs: 7
percent60: 61.331 num IPs: 7
percent65: 68.825 num IPs: 8
percent70: 75.6478 num IPs: 9
percent75: 75.6478 num IPs: 9
percent80: 80.9645 num IPs: 11
percent85: 85.1262 num IPs: 13
percent90: 90.964 num IPs: 18
Critical_ROB_Stalls_Percent_0_Bucket_0: 1467855
Non-critical_ROB_Stalls_Percent_0_Bucket_0: 1321270
Critical_ROB_Stalls_Percent_0_Bucket_1: 812964
Non-critical_ROB_Stalls_Percent_0_Bucket_1: 246837
Critical_ROB_Stalls_Percent_0_Bucket_2: 30301
Non-critical_ROB_Stalls_Percent_0_Bucket_2: 89219
Critical_ROB_Stalls_Percent_0_Bucket_3: 15787
Non-critical_ROB_Stalls_Percent_0_Bucket_3: 116467
Critical_ROB_Stalls_Percent_0_Bucket_4: 18338
Non-critical_ROB_Stalls_Percent_0_Bucket_4: 142826
Critical_ROB_Stalls_Percent_0_Bucket_5: 16717
Non-critical_ROB_Stalls_Percent_0_Bucket_5: 66232
Critical_ROB_Stalls_Percent_0_Bucket_6: 11162
Non-critical_ROB_Stalls_Percent_0_Bucket_6: 58906
Critical_ROB_Stalls_Percent_1_Bucket_0: 1776015
Non-critical_ROB_Stalls_Percent_1_Bucket_0: 1013110
Critical_ROB_Stalls_Percent_1_Bucket_1: 826350
Non-critical_ROB_Stalls_Percent_1_Bucket_1: 233451
Critical_ROB_Stalls_Percent_1_Bucket_2: 32903
Non-critical_ROB_Stalls_Percent_1_Bucket_2: 86617
Critical_ROB_Stalls_Percent_1_Bucket_3: 20523
Non-critical_ROB_Stalls_Percent_1_Bucket_3: 111731
Critical_ROB_Stalls_Percent_1_Bucket_4: 20228
Non-critical_ROB_Stalls_Percent_1_Bucket_4: 140936
Critical_ROB_Stalls_Percent_1_Bucket_5: 19224
Non-critical_ROB_Stalls_Percent_1_Bucket_5: 63725
Critical_ROB_Stalls_Percent_1_Bucket_6: 12447
Non-critical_ROB_Stalls_Percent_1_Bucket_6: 57621
Critical_ROB_Stalls_Percent_2_Bucket_0: 1776015
Non-critical_ROB_Stalls_Percent_2_Bucket_0: 1013110
Critical_ROB_Stalls_Percent_2_Bucket_1: 826350
Non-critical_ROB_Stalls_Percent_2_Bucket_1: 233451
Critical_ROB_Stalls_Percent_2_Bucket_2: 32903
Non-critical_ROB_Stalls_Percent_2_Bucket_2: 86617
Critical_ROB_Stalls_Percent_2_Bucket_3: 20523
Non-critical_ROB_Stalls_Percent_2_Bucket_3: 111731
Critical_ROB_Stalls_Percent_2_Bucket_4: 20228
Non-critical_ROB_Stalls_Percent_2_Bucket_4: 140936
Critical_ROB_Stalls_Percent_2_Bucket_5: 19224
Non-critical_ROB_Stalls_Percent_2_Bucket_5: 63725
Critical_ROB_Stalls_Percent_2_Bucket_6: 12447
Non-critical_ROB_Stalls_Percent_2_Bucket_6: 57621
Critical_ROB_Stalls_Percent_3_Bucket_0: 2078826
Non-critical_ROB_Stalls_Percent_3_Bucket_0: 710299
Critical_ROB_Stalls_Percent_3_Bucket_1: 843566
Non-critical_ROB_Stalls_Percent_3_Bucket_1: 216235
Critical_ROB_Stalls_Percent_3_Bucket_2: 34707
Non-critical_ROB_Stalls_Percent_3_Bucket_2: 84813
Critical_ROB_Stalls_Percent_3_Bucket_3: 24705
Non-critical_ROB_Stalls_Percent_3_Bucket_3: 107549
Critical_ROB_Stalls_Percent_3_Bucket_4: 22078
Non-critical_ROB_Stalls_Percent_3_Bucket_4: 139086
Critical_ROB_Stalls_Percent_3_Bucket_5: 20916
Non-critical_ROB_Stalls_Percent_3_Bucket_5: 62033
Critical_ROB_Stalls_Percent_3_Bucket_6: 13745
Non-critical_ROB_Stalls_Percent_3_Bucket_6: 56323
Critical_ROB_Stalls_Percent_4_Bucket_0: 2371679
Non-critical_ROB_Stalls_Percent_4_Bucket_0: 417446
Critical_ROB_Stalls_Percent_4_Bucket_1: 844899
Non-critical_ROB_Stalls_Percent_4_Bucket_1: 214902
Critical_ROB_Stalls_Percent_4_Bucket_2: 37234
Non-critical_ROB_Stalls_Percent_4_Bucket_2: 82286
Critical_ROB_Stalls_Percent_4_Bucket_3: 25921
Non-critical_ROB_Stalls_Percent_4_Bucket_3: 106333
Critical_ROB_Stalls_Percent_4_Bucket_4: 24122
Non-critical_ROB_Stalls_Percent_4_Bucket_4: 137042
Critical_ROB_Stalls_Percent_4_Bucket_5: 21580
Non-critical_ROB_Stalls_Percent_4_Bucket_5: 61369
Critical_ROB_Stalls_Percent_4_Bucket_6: 14326
Non-critical_ROB_Stalls_Percent_4_Bucket_6: 55742
Critical_ROB_Stalls_Percent_5_Bucket_0: 2371679
Non-critical_ROB_Stalls_Percent_5_Bucket_0: 417446
Critical_ROB_Stalls_Percent_5_Bucket_1: 844899
Non-critical_ROB_Stalls_Percent_5_Bucket_1: 214902
Critical_ROB_Stalls_Percent_5_Bucket_2: 37234
Non-critical_ROB_Stalls_Percent_5_Bucket_2: 82286
Critical_ROB_Stalls_Percent_5_Bucket_3: 25921
Non-critical_ROB_Stalls_Percent_5_Bucket_3: 106333
Critical_ROB_Stalls_Percent_5_Bucket_4: 24122
Non-critical_ROB_Stalls_Percent_5_Bucket_4: 137042
Critical_ROB_Stalls_Percent_5_Bucket_5: 21580
Non-critical_ROB_Stalls_Percent_5_Bucket_5: 61369
Critical_ROB_Stalls_Percent_5_Bucket_6: 14326
Non-critical_ROB_Stalls_Percent_5_Bucket_6: 55742
Critical_ROB_Stalls_Percent_6_Bucket_0: 2459532
Non-critical_ROB_Stalls_Percent_6_Bucket_0: 329593
Critical_ROB_Stalls_Percent_6_Bucket_1: 875783
Non-critical_ROB_Stalls_Percent_6_Bucket_1: 184018
Critical_ROB_Stalls_Percent_6_Bucket_2: 53969
Non-critical_ROB_Stalls_Percent_6_Bucket_2: 65551
Critical_ROB_Stalls_Percent_6_Bucket_3: 42353
Non-critical_ROB_Stalls_Percent_6_Bucket_3: 89901
Critical_ROB_Stalls_Percent_6_Bucket_4: 68979
Non-critical_ROB_Stalls_Percent_6_Bucket_4: 92185
Critical_ROB_Stalls_Percent_6_Bucket_5: 41987
Non-critical_ROB_Stalls_Percent_6_Bucket_5: 40962
Critical_ROB_Stalls_Percent_6_Bucket_6: 31883
Non-critical_ROB_Stalls_Percent_6_Bucket_6: 38185
Critical_ROB_Stalls_Percent_7_Bucket_0: 2538484
Non-critical_ROB_Stalls_Percent_7_Bucket_0: 250641
Critical_ROB_Stalls_Percent_7_Bucket_1: 891902
Non-critical_ROB_Stalls_Percent_7_Bucket_1: 167899
Critical_ROB_Stalls_Percent_7_Bucket_2: 63132
Non-critical_ROB_Stalls_Percent_7_Bucket_2: 56388
Critical_ROB_Stalls_Percent_7_Bucket_3: 49939
Non-critical_ROB_Stalls_Percent_7_Bucket_3: 82315
Critical_ROB_Stalls_Percent_7_Bucket_4: 113270
Non-critical_ROB_Stalls_Percent_7_Bucket_4: 47894
Critical_ROB_Stalls_Percent_7_Bucket_5: 53471
Non-critical_ROB_Stalls_Percent_7_Bucket_5: 29478
Critical_ROB_Stalls_Percent_7_Bucket_6: 48023
Non-critical_ROB_Stalls_Percent_7_Bucket_6: 22045
Critical_ROB_Stalls_Percent_8_Bucket_0: 2654034
Non-critical_ROB_Stalls_Percent_8_Bucket_0: 135091
Critical_ROB_Stalls_Percent_8_Bucket_1: 950304
Non-critical_ROB_Stalls_Percent_8_Bucket_1: 109497
Critical_ROB_Stalls_Percent_8_Bucket_2: 76303
Non-critical_ROB_Stalls_Percent_8_Bucket_2: 43217
Critical_ROB_Stalls_Percent_8_Bucket_3: 88701
Non-critical_ROB_Stalls_Percent_8_Bucket_3: 43553
Critical_ROB_Stalls_Percent_8_Bucket_4: 127450
Non-critical_ROB_Stalls_Percent_8_Bucket_4: 33714
Critical_ROB_Stalls_Percent_8_Bucket_5: 65151
Non-critical_ROB_Stalls_Percent_8_Bucket_5: 17798
Critical_ROB_Stalls_Percent_8_Bucket_6: 54009
Non-critical_ROB_Stalls_Percent_8_Bucket_6: 16059
Average ROB occupancy Load Stall Begin: 48.8821
Average ROB occupancy Load Stall End: 61.0723
Min ROB occupancy Load Stall Begin: 2
Max ROB occupancy Load Stall Begin: 352
Min ROB occupancy Load Stall End: 2
Max ROB occupancy Load Stall End: 352
Average ROB occupancy Critical Load Stall Begin: -nan
Average ROB occupancy Critical Load Stall End: -nan
Min ROB occupancy Critical Load Stall Begin: 400
Max ROB occupancy Critical Load Stall Begin: 0
Min ROB occupancy Critical Load Stall End: 400
Max ROB occupancy Critical Load Stall End: 0
 ROB Load Stall Begin Bucket Count 0: 3364063
 ROB Load Stall End Bucket Count 0: 2789125
 ROB Critical Load Stall Begin Bucket Count 0: 0
 ROB Critical Load Stall End Bucket Count 0: 0
 ROB Load Stall Begin Bucket Count 1: 592621
 ROB Load Stall End Bucket Count 1: 1059801
 ROB Critical Load Stall Begin Bucket Count 1: 0
 ROB Critical Load Stall End Bucket Count 1: 0
 ROB Load Stall Begin Bucket Count 2: 121565
 ROB Load Stall End Bucket Count 2: 119520
 ROB Critical Load Stall Begin Bucket Count 2: 0
 ROB Critical Load Stall End Bucket Count 2: 0
 ROB Load Stall Begin Bucket Count 3: 124760
 ROB Load Stall End Bucket Count 3: 132254
 ROB Critical Load Stall Begin Bucket Count 3: 0
 ROB Critical Load Stall End Bucket Count 3: 0
 ROB Load Stall Begin Bucket Count 4: 122481
 ROB Load Stall End Bucket Count 4: 161164
 ROB Critical Load Stall Begin Bucket Count 4: 0
 ROB Critical Load Stall End Bucket Count 4: 0
 ROB Load Stall Begin Bucket Count 5: 52111
 ROB Load Stall End Bucket Count 5: 82949
 ROB Critical Load Stall Begin Bucket Count 5: 0
 ROB Critical Load Stall End Bucket Count 5: 0
 ROB Load Stall Begin Bucket Count 6: 37280
 ROB Load Stall End Bucket Count 6: 70068
 ROB Critical Load Stall Begin Bucket Count 6: 0
 ROB Critical Load Stall End Bucket Count 6: 0
PIST Tag Read Accesses: 836570
PIST Read Accesses: 418285
PIST Tag Write Accesses: 836570
PIST Write Accesses: 418285
Criticality detector called times: 1551431
Max global_stall_cycles_count: 900970
Threshold Modified: 1 times, factor: -1
Sturdy critical IP cache stats: 
 Unused entries: 0
CIC Tag Read Accesses: 0
CIC Read Accesses: 0
CIC Tag Write Accesses: 0
CIC Write Accesses: 0
Wobbly critical IP cache stats: 
 Unused entries: 105
CIC Tag Read Accesses: 190541524
CIC Read Accesses: 0
CIC Tag Write Accesses: 1753570
CIC Write Accesses: 0
ITLB TOTAL     ACCESS:   12180003  HIT:   12180003  MISS:          0  HIT %:        100  MISS %:          0   MPKI: 0
ITLB LOAD TRANSLATION ACCESS:   12180003  HIT:   12180003  MISS:          0  HIT %:        100  MISS %:          0   MPKI: 0
ITLB PREFETCH  REQUESTED:          0  ISSUED:          0  USEFUL:          0  USELESS:          0
ITLB USEFUL LOAD PREFETCHES:          0 PREFETCH ISSUED TO LOWER LEVEL:          0  ACCURACY: -nan
ITLB TIMELY PREFETCHES:          0 LATE PREFETCHES: 0 DROPPED PREFETCHES: 0
ITLB PREFETCHES SAME FILL-ORIGIN LEVEL: 0 DIFFERENT FILL-ORIGIN LEVEL: 0
ITLB AVERAGE MISS LATENCY: -nan cycles
ITLB RQ	ACCESS:   14882486	FORWARD:          0	MERGED:    2702483	TO_CACHE:   12180003

DTLB TOTAL     ACCESS:   25495309  HIT:   25412039  MISS:      83270  HIT %:    99.6734  MISS %:   0.326609   MPKI: 0.8327
DTLB LOAD TRANSLATION ACCESS:   25495309  HIT:   25412039  MISS:      83270  HIT %:    99.6734  MISS %:   0.326609   MPKI: 0.8327
DTLB PREFETCH  REQUESTED:          0  ISSUED:          0  USEFUL:          0  USELESS:          0
DTLB USEFUL LOAD PREFETCHES:          0 PREFETCH ISSUED TO LOWER LEVEL:          0  ACCURACY: -nan
DTLB TIMELY PREFETCHES:          0 LATE PREFETCHES: 0 DROPPED PREFETCHES: 0
DTLB PREFETCHES SAME FILL-ORIGIN LEVEL: 0 DIFFERENT FILL-ORIGIN LEVEL: 0
DTLB AVERAGE MISS LATENCY: 52.6403 cycles
DTLB RQ	ACCESS:   28288568	FORWARD:          0	MERGED:    2791266	TO_CACHE:   25497302

STLB TOTAL     ACCESS:    1927270  HIT:    1899971  MISS:      27299  HIT %:    98.5835  MISS %:    1.41646   MPKI: 0.27299
STLB LOAD TRANSLATION ACCESS:      83270  HIT:      55971  MISS:      27299  HIT %:    67.2163  MISS %:    32.7837   MPKI: 0.27299
STLB TRANSLATION FROM L1D PREFETCHER ACCESS:    1844000  HIT:    1844000  MISS:          0  HIT %:        100  MISS %:          0   MPKI: 0
STLB PREFETCH  REQUESTED:          0  ISSUED:          0  USEFUL:          0  USELESS:          0
STLB USEFUL LOAD PREFETCHES:          0 PREFETCH ISSUED TO LOWER LEVEL:          0  ACCURACY: -nan
STLB TIMELY PREFETCHES:          0 LATE PREFETCHES: 0 DROPPED PREFETCHES: 0
STLB PREFETCHES SAME FILL-ORIGIN LEVEL: 0 DIFFERENT FILL-ORIGIN LEVEL: 0
STLB AVERAGE MISS LATENCY: 132.268 cycles
STLB RQ	ACCESS:   10127856	FORWARD:          0	MERGED:    8200586	TO_CACHE:    1927270

STLB Hit, L1D data hit: 0
STLB Hit, L2C data hit: 0
STLB Hit, LLC data hit: 0
STLB Hit, LLC data miss: 0
STLB STLB hints to L2: 0
L1D TOTAL     ACCESS:   38301461  HIT:   36548708  MISS:    1752753  HIT %:    95.4238  MISS %:     4.5762   MPKI: 17.5275
L1D LOAD      ACCESS:   23364966  HIT:   23248645  MISS:     116321  HIT %:    99.5022  MISS %:   0.497844   MPKI: 1.16321
L1D RFO       ACCESS:    4917222  HIT:    4917222  MISS:          0  HIT %:        100  MISS %:          0   MPKI: 0
L1D PREFETCH  ACCESS:   10019273  HIT:    8382841  MISS:    1636432  HIT %:    83.6672  MISS %:    16.3328   MPKI: 16.3643
L1D PREFETCH  REQUESTED:   20512449  ISSUED:   20089250  USEFUL:    1522649  USELESS:     113792
L1D USEFUL LOAD PREFETCHES:    1522649 PREFETCH ISSUED TO LOWER LEVEL:    1638460  ACCURACY: 92.9317
L1D TIMELY PREFETCHES:    1522649 LATE PREFETCHES: 2027 DROPPED PREFETCHES: 0
L1D PREFETCHES SAME FILL-ORIGIN LEVEL: 1638460 DIFFERENT FILL-ORIGIN LEVEL: 0
L1D AVERAGE MISS LATENCY: 74751.4 cycles
L1D RQ	ACCESS:   34880149	FORWARD:          0	MERGED:   11463570	TO_CACHE:   23371347
L1D WQ	ACCESS:    4917221	FORWARD:      45232	MERGED:          0	TO_CACHE:    4917221
L1D PQ	ACCESS:   10044664	FORWARD:          0	MERGED:         78	TO_CACHE:   10044586

L1D UNIQUE REGIONS ACCESSED: 0
L1D REGIONS CONFLICTS: 0
L1D Cross Page Prefetch Requests: 0
L1D Same Page Prefetch Requests: 16523045
L1D ROI Sum of L1D PQ occupancy: 155025230
L1D PREFETCHES PUSHED FROM L2C: 0
L1I TOTAL     ACCESS:   14882485  HIT:   14882485  MISS:          0  HIT %:        100  MISS %:          0   MPKI: 0
L1I LOAD      ACCESS:   14882485  HIT:   14882485  MISS:          0  HIT %:        100  MISS %:          0   MPKI: 0
L1I PREFETCH  REQUESTED:          0  ISSUED:          0  USEFUL:          0  USELESS:          0
L1I USEFUL LOAD PREFETCHES:          0 PREFETCH ISSUED TO LOWER LEVEL:          0  ACCURACY: -nan
L1I TIMELY PREFETCHES:          0 LATE PREFETCHES: 0 DROPPED PREFETCHES: 0
L1I PREFETCHES SAME FILL-ORIGIN LEVEL: 0 DIFFERENT FILL-ORIGIN LEVEL: 0
L1I AVERAGE MISS LATENCY: -nan cycles
L1I RQ	ACCESS:   21688514	FORWARD:          0	MERGED:    6806028	TO_CACHE:   14882486

BTB TOTAL     ACCESS:     673550  HIT:     673547  MISS:          3  HIT %:    99.9996  MISS %: 0.000445401   MPKI: 3e-05
BTB BRANCH_DIRECT_JUMP	ACCESS:          0  HIT:          0  MISS:          0
BTB BRANCH_INDIRECT	ACCESS:          0  HIT:          0  MISS:          0
BTB BRANCH_CONDITIONAL	ACCESS:     673550  HIT:     673547  MISS:          3
BTB BRANCH_DIRECT_CALL	ACCESS:          0  HIT:          0  MISS:          0
BTB BRANCH_INDIRECT_CALL	ACCESS:          0  HIT:          0  MISS:          0
BTB BRANCH_RETURN	ACCESS:          0  HIT:          0  MISS:          0
BTB BRANCH_OTHER ACCESS:          0  HIT:          0  MISS:          0

L2C TOTAL     ACCESS:    2299587  HIT:     554888  MISS:    1744699  HIT %:    24.1299  MISS %:    75.8701   MPKI: 17.447
L2C LOAD      ACCESS:     114292  HIT:       1405  MISS:     112887  HIT %:    1.22931  MISS %:    98.7707   MPKI: 1.12887
L2C DATA LOAD MPKI: 1.12887
L2C INSTRUCTION LOAD MPKI: 0
L2C PREFETCH  ACCESS:    1638459  HIT:      10240  MISS:    1628219  HIT %:   0.624977  MISS %:     99.375   MPKI: 16.2822
L2C DATA PREFETCH MPKI: 16.2822
L2C INSTRUCTION PREFETCH MPKI: 0
L2C WRITEBACK ACCESS:     519535  HIT:     519453  MISS:         82  HIT %:    99.9842  MISS %:  0.0157833   MPKI: 0.00082
L2C LOAD TRANSLATION ACCESS:      27301  HIT:      23790  MISS:       3511  HIT %:    87.1397  MISS %:    12.8603   MPKI: 0.03511
L2C PREFETCH  REQUESTED:          0  ISSUED:          0  USEFUL:        819  USELESS:    1627708
L2C USEFUL LOAD PREFETCHES:        819 PREFETCH ISSUED TO LOWER LEVEL:    1628220  ACCURACY: 0.0503003
L2C TIMELY PREFETCHES:        819 LATE PREFETCHES: 0 DROPPED PREFETCHES: 0
L2C PREFETCHES SAME FILL-ORIGIN LEVEL: 0 DIFFERENT FILL-ORIGIN LEVEL: 0
L2C AVERAGE MISS LATENCY: 216.811 cycles
L2C RQ	ACCESS:     141595	FORWARD:          0	MERGED:          0	TO_CACHE:     141593
L2C WQ	ACCESS:     519535	FORWARD:          2	MERGED:          0	TO_CACHE:     519535
L2C PQ	ACCESS:    1638460	FORWARD:          0	MERGED:          0	TO_CACHE:    1638460

L2C Instructions Evicting Data 0
L2C Translations Evicting Data 3510
L2C Data Evicting Data 1737589
L2C Instructions Evicting Instructions 0
L2C Translations Evicting Instructions 0
L2C Data Evicting Instructions 0
L2C Instructions Evicting Translations 0
L2C Translations Evicting Translations 1
L2C Data Evicting Translations 3517
L2C Dense regions hint from L2: 0
PSCL5 TOTAL     ACCESS:      27299  HIT:      27299  MISS:          0  HIT %:        100  MISS %:          0   MPKI: 0
PSCL5 LOAD TRANSLATION ACCESS:      27299  HIT:      27299  MISS:          0  HIT %:        100  MISS %:          0   MPKI: 0
PSCL5 PREFETCH  REQUESTED:          0  ISSUED:          0  USEFUL:          0  USELESS:          0
PSCL5 USEFUL LOAD PREFETCHES:          0 PREFETCH ISSUED TO LOWER LEVEL:          0  ACCURACY: -nan
PSCL5 TIMELY PREFETCHES:          0 LATE PREFETCHES: 0 DROPPED PREFETCHES: 0
PSCL5 PREFETCHES SAME FILL-ORIGIN LEVEL: 0 DIFFERENT FILL-ORIGIN LEVEL: 0

PSCL4 TOTAL     ACCESS:      27299  HIT:      27299  MISS:          0  HIT %:        100  MISS %:          0   MPKI: 0
PSCL4 LOAD TRANSLATION ACCESS:      27299  HIT:      27299  MISS:          0  HIT %:        100  MISS %:          0   MPKI: 0
PSCL4 PREFETCH  REQUESTED:          0  ISSUED:          0  USEFUL:          0  USELESS:          0
PSCL4 USEFUL LOAD PREFETCHES:          0 PREFETCH ISSUED TO LOWER LEVEL:          0  ACCURACY: -nan
PSCL4 TIMELY PREFETCHES:          0 LATE PREFETCHES: 0 DROPPED PREFETCHES: 0
PSCL4 PREFETCHES SAME FILL-ORIGIN LEVEL: 0 DIFFERENT FILL-ORIGIN LEVEL: 0

PSCL3 TOTAL     ACCESS:      27299  HIT:      27299  MISS:          0  HIT %:        100  MISS %:          0   MPKI: 0
PSCL3 LOAD TRANSLATION ACCESS:      27299  HIT:      27299  MISS:          0  HIT %:        100  MISS %:          0   MPKI: 0
PSCL3 PREFETCH  REQUESTED:          0  ISSUED:          0  USEFUL:          0  USELESS:          0
PSCL3 USEFUL LOAD PREFETCHES:          0 PREFETCH ISSUED TO LOWER LEVEL:          0  ACCURACY: -nan
PSCL3 TIMELY PREFETCHES:          0 LATE PREFETCHES: 0 DROPPED PREFETCHES: 0
PSCL3 PREFETCHES SAME FILL-ORIGIN LEVEL: 0 DIFFERENT FILL-ORIGIN LEVEL: 0

PSCL2 TOTAL     ACCESS:      27299  HIT:      27254  MISS:         45  HIT %:    99.8352  MISS %:   0.164841   MPKI: 0.00045
PSCL2 LOAD TRANSLATION ACCESS:      27299  HIT:      27254  MISS:         45  HIT %:    99.8352  MISS %:   0.164841   MPKI: 0.00045
PSCL2 PREFETCH  REQUESTED:          0  ISSUED:          0  USEFUL:          0  USELESS:          0
PSCL2 USEFUL LOAD PREFETCHES:          0 PREFETCH ISSUED TO LOWER LEVEL:          0  ACCURACY: -nan
PSCL2 TIMELY PREFETCHES:          0 LATE PREFETCHES: 0 DROPPED PREFETCHES: 0
PSCL2 PREFETCHES SAME FILL-ORIGIN LEVEL: 0 DIFFERENT FILL-ORIGIN LEVEL: 0

LLC TOTAL     ACCESS:    2263724  HIT:     511185  MISS:    1752539  HIT %:    22.5816  MISS %:    77.4184   MPKI: 17.5254
LLC LOAD      ACCESS:     112887  HIT:         84  MISS:     112803  HIT %:  0.0744107  MISS %:    99.9256   MPKI: 1.12803
LLC PREFETCH  ACCESS:    1628219  HIT:        249  MISS:    1627970  HIT %:  0.0152928  MISS %:    99.9847   MPKI: 16.2797
LLC WRITEBACK ACCESS:     519107  HIT:     510845  MISS:       8262  HIT %:    98.4084  MISS %:    1.59158   MPKI: 0.08262
LLC LOAD TRANSLATION ACCESS:       3511  HIT:          7  MISS:       3504  HIT %:   0.199373  MISS %:    99.8006   MPKI: 0.03504
LLC PREFETCH  REQUESTED:          0  ISSUED:          0  USEFUL:          0  USELESS:    1629302
LLC USEFUL LOAD PREFETCHES:          0 PREFETCH ISSUED TO LOWER LEVEL:    1627971  ACCURACY: 0
LLC TIMELY PREFETCHES:          0 LATE PREFETCHES: 0 DROPPED PREFETCHES: 0
LLC PREFETCHES SAME FILL-ORIGIN LEVEL: 0 DIFFERENT FILL-ORIGIN LEVEL: 0
LLC AVERAGE MISS LATENCY: 185.077 cycles
LLC RQ	ACCESS:     116398	FORWARD:          0	MERGED:          0	TO_CACHE:     116398
LLC WQ	ACCESS:     519107	FORWARD:          0	MERGED:          0	TO_CACHE:     519107
LLC PQ	ACCESS:    1628220	FORWARD:          0	MERGED:          0	TO_CACHE:    1628220

LLC Dense regions hint to LLC: 0

RAW hits: 492728
Loads Generated: 35372880
Loads sent to L1D: 34880149
Stores Generated: 4917220
Stores sent to L1D: 4917221
Major fault: 0 Minor fault: 33266
Allocated PAGES: 33266

stream: 
stream:times selected: 5215416
stream:pref_filled: 2480458
stream:pref_useful: 2311942
stream:pref_late: 1850
stream:misses: 164
stream:misses_by_poll: 0

CS: 
CS:times selected: 4523789
CS:pref_filled: 13413
CS:pref_useful: 12781
CS:pref_late: 135
CS:misses: 135056
CS:misses_by_poll: 40

CPLX: 
CPLX:times selected: 691515
CPLX:pref_filled: 4551
CPLX:pref_useful: 2531
CPLX:pref_late: 17
CPLX:misses: 599
CPLX:misses_by_poll: 1

NL_L1: 
NL:times selected: 10
NL:pref_filled: 6
NL:pref_useful: 6
NL:pref_late: 0
NL:misses: 0
NL:misses_by_poll: 0

total selections: 10430730
total_filled: 1636432
total_useful: 1522649
total_late: 2041
total_polluted: 41
total_misses_after_warmup: 122706
conflicts: 49997
Degree Incremented Times: 253404
Degree Decremented Times: 0

L1 IP Table Write Accesses: 22566203
L1 IP Table Read Accesses: 22516206
L1 RST Write Accesses: 3465403
L1 RST Read Accesses: 6930806
L1 CSPT Write Accesses: 3465403
L1 CSPT Read Accesses: 4877784
L1 RR Filter Tag Write Accesses: 10467863
L1 RR Filter Tag Read Accesses: 545055132
L1 IP Table Tag Write Accesses: 23371351
L1 IP Table Tag Read Accesses: 23371351
L1 RST Tag Write Accesses: 0
L1 RST Tag Read Accesses: 32038791
L1 RR Filter Write Accesses: 0
L1 RR Filter Read Accesses: 18878356
test: 117116

DRAM Statistics
 CHANNEL 0
 RQ ROW_BUFFER_HIT:     440163  ROW_BUFFER_MISS:    1304114
 DBUS_CONGESTED:        864
 WQ ROW_BUFFER_HIT:     168562  ROW_BUFFER_MISS:     350443  FULL:          0

 AVG_CONGESTED_CYCLE: 5
 All warmup complete: 2
Channel 0 Bank busy for read cycles: 0
Channel 0 Bank busy for write cycles: 0
Channel 0
Rank 0
0banks busy for read cycles: 314455
0banks busy for write cycles: 1316
1banks busy for read cycles: 22147679
1banks busy for write cycles: 303507
2banks busy for read cycles: 23521551
2banks busy for write cycles: 335582
3banks busy for read cycles: 17201187
3banks busy for write cycles: 387734
4banks busy for read cycles: 9227333
4banks busy for write cycles: 429138
5banks busy for read cycles: 4005661
5banks busy for write cycles: 496227
6banks busy for read cycles: 2107195
6banks busy for write cycles: 699435
7banks busy for read cycles: 2833037
7banks busy for write cycles: 1871813
8banks busy for read cycles: 1014701
8banks busy for write cycles: 15412279

CPU 0 Branch Prediction Accuracy: 99.9983% MPKI: 0.00012 Average ROB Occupancy at Mispredict: 170.5
Branch types
NOT_BRANCH: 99309279 99.3093%
BRANCH_DIRECT_JUMP: 0 0%
BRANCH_INDIRECT: 0 0%
BRANCH_CONDITIONAL: 690401 0.690401%
BRANCH_DIRECT_CALL: 0 0%
BRANCH_INDIRECT_CALL: 0 0%
BRANCH_RETURN: 0 0%
BRANCH_OTHER: 0 0%

DRAM PAGES: 1048576
Allocated PAGES: 33266
