Initialize SIGNATURE TABLE
ST_SET: 1
ST_WAY: 16
ST_TAG_BIT: 16
ST_TAG_MASK: ffff

Initialize PATTERN TABLE
PT_SET: 16
PT_WAY: 4
SIG_DELTA_BIT: 7
C_SIG_BIT: 4
C_DELTA_BIT: 4

Initialize PREFETCH FILTER
FILTER_SET: 1024

Initialize PERCEPTRON
PERC_ENTRIES: 4096
PERC_FEATURES: 9

*** ChampSim Multicore Out-of-Order Simulator ***

Warmup Instructions: 50000000
Simulation Instructions: 100000000
Number of CPUs: 1
LLC sets: 2048
LLC ways: 16
Off-chip DRAM Size: 4096 MB Channels: 1 Width: 64-bit Data Rate: 6400 MT/s
CPU 0 runs ../SPEC2017//649.fotonik3d_s-8225B.champsimtrace.xz
.xz
BTB has LRU replacement policy
ITLB has LRU replacement policy
DTLB has LRU replacement policy
STLB has LRU replacement policy
L1I has LRU replacement policy
L1D has LRU replacement policy
Initialize SRRIP state for L2C
Initialize DRRIP state for LLC
Heartbeat CPU 0 instructions: 10000001 cycles: 2910593 heartbeat IPC: 3.43573 cumulative IPC: 3.43573 (Simulation time: 0 hr 6 min 34 sec) 
Heartbeat CPU 0 instructions: 20000001 cycles: 5821125 heartbeat IPC: 3.4358 cumulative IPC: 3.43576 (Simulation time: 0 hr 12 min 34 sec) 
Heartbeat CPU 0 instructions: 30000000 cycles: 8731657 heartbeat IPC: 3.4358 cumulative IPC: 3.43577 (Simulation time: 0 hr 17 min 57 sec) 
Heartbeat CPU 0 instructions: 40000002 cycles: 11642185 heartbeat IPC: 3.4358 cumulative IPC: 3.43578 (Simulation time: 0 hr 22 min 54 sec) 
Heartbeat CPU 0 instructions: 50000001 cycles: 14552681 heartbeat IPC: 3.43584 cumulative IPC: 3.43579 (Simulation time: 0 hr 27 min 42 sec) 

Warmup complete CPU 0 instructions: 50000001 cycles: 14552681 (Simulation time: 0 hr 27 min 42 sec) 

Heartbeat CPU 0 instructions: 60000000 cycles: 31805907 heartbeat IPC: 0.579602 cumulative IPC: 0.579602 (Simulation time: 0 hr 34 min 18 sec) 
Heartbeat CPU 0 instructions: 70000001 cycles: 49073925 heartbeat IPC: 0.579105 cumulative IPC: 0.579353 (Simulation time: 0 hr 40 min 36 sec) 
Heartbeat CPU 0 instructions: 80000001 cycles: 66351625 heartbeat IPC: 0.578781 cumulative IPC: 0.579162 (Simulation time: 0 hr 46 min 42 sec) 
Heartbeat CPU 0 instructions: 90000000 cycles: 83636227 heartbeat IPC: 0.57855 cumulative IPC: 0.579009 (Simulation time: 0 hr 52 min 6 sec) 
Heartbeat CPU 0 instructions: 100000000 cycles: 100924231 heartbeat IPC: 0.578436 cumulative IPC: 0.578894 (Simulation time: 0 hr 57 min 9 sec) 
Heartbeat CPU 0 instructions: 110000000 cycles: 118222902 heartbeat IPC: 0.578079 cumulative IPC: 0.578758 (Simulation time: 1 hr 1 min 41 sec) 
Heartbeat CPU 0 instructions: 120000002 cycles: 135517344 heartbeat IPC: 0.578221 cumulative IPC: 0.578681 (Simulation time: 1 hr 6 min 2 sec) 
Heartbeat CPU 0 instructions: 130000000 cycles: 152819535 heartbeat IPC: 0.577961 cumulative IPC: 0.578591 (Simulation time: 1 hr 14 min 25 sec) 
Heartbeat CPU 0 instructions: 140000001 cycles: 170141760 heartbeat IPC: 0.577293 cumulative IPC: 0.578447 (Simulation time: 1 hr 25 min 36 sec) 
Heartbeat CPU 0 instructions: 150000003 cycles: 187476405 heartbeat IPC: 0.57688 cumulative IPC: 0.57829 (Simulation time: 1 hr 36 min 10 sec) 
Finished CPU 0 instructions: 100000002 cycles: 172923724 cumulative IPC: 0.57829 (Simulation time: 1 hr 36 min 10 sec) 

ChampSim completed all CPUs

Region of Interest Statistics

CPU 0 cumulative IPC: 0.57829 instructions: 100000002 cycles: 172923724

CPU 0 Average Load ROB stall cycles: 3.94353e+07
CPU 0 Fraction of times ROB stalled by Loads: 38.9925
CPU 0 Percentage of Load stall cycles in Total stall cycles: 1.24904e+08
Issued all: 136671929
Issued LT all: 127169454
rob_not_full_when_issued_lt_all: 29812641
Issued LT one: 113893783
rob_not_full_when_issued_lt_one: 24260582
 Total stall cycles: 148165735
 Total load stall cycles: 185064566028588
Unique Load IPs: 147
CPU 0 NUM of IPS identified critical: 6
CPU 0 Num of Load IPs stalling ROB: 0
Threshold modification factor: 0
Trouble in retire width: -nan
MaC = Marked as critical.
lt_50_percent_before_Mac: 5
gt_90_percent_before_Mac: 0
gt_75_percent_before_Mac: 0
gt_50_percent_before_Mac: 1
stall_proportion_bin_same_before_after: 0
stall_proportion_bin_lower_before_after: 0
stall_proportion_bin_upper_before_after: 0
average_stall_proportion_before: 0.0113202
average_stall_proportion_after: 0.0113257
Critical_IP_Detector_Accuracy_70: 0
Critical_IP_Detector_Accuracy_80: 0
Critical_IP_Detector_Accuracy_90: 0
Critical_IP_Detector_Coverage_70: 0
Critical_IP_Detector_Coverage_80: 0
Critical_IP_Detector_Coverage_90: 0
stat_90_percent_critical_ip_stalls_freq: 489641
stat_90_percent_non_critical_ip_stalls_freq: 18446744073709061975
AVERAGE_ROB_Occupancy_90_Percent_Critical_IP_Stalls: 337.697
AVERAGE_ROB_Occupancy_90_Percent_Non_Critical_IP_Stalls: 2.42332e-11
Critical_IP_ROB_Stalls_Bucket_0: 15
Non-critical_IP_ROB_Stalls_Bucket_0: 129
Critical_IP_ROB_Stalls_Bucket_1: 16
Non-critical_IP_ROB_Stalls_Bucket_1: 578
Critical_IP_ROB_Stalls_Bucket_2: 18
Non-critical_IP_ROB_Stalls_Bucket_2: 637
Critical_IP_ROB_Stalls_Bucket_3: 15
Non-critical_IP_ROB_Stalls_Bucket_3: 397
Critical_IP_ROB_Stalls_Bucket_4: 40
Non-critical_IP_ROB_Stalls_Bucket_4: 937
Critical_IP_ROB_Stalls_Bucket_5: 310
Non-critical_IP_ROB_Stalls_Bucket_5: 209629
Critical_IP_ROB_Stalls_Bucket_6: 69332
Non-critical_IP_ROB_Stalls_Bucket_6: 1547815
0 => IPs accounting for >50 percent of stalls, 1 => 55, 2 => 60, 3 => 65 and so on till 90.
percent50: inf num IPs:  1
percent55: inf num IPs: 1
percent60: inf num IPs: 1
percent65: inf num IPs: 1
percent70: inf num IPs: 1
percent75: inf num IPs: 1
percent80: inf num IPs: 1
percent85: inf num IPs: 1
percent90: inf num IPs: 1
Critical_ROB_Stalls_Percent_0_Bucket_0: 30
Non-critical_ROB_Stalls_Percent_0_Bucket_0: 114
Critical_ROB_Stalls_Percent_0_Bucket_1: 52
Non-critical_ROB_Stalls_Percent_0_Bucket_1: 542
Critical_ROB_Stalls_Percent_0_Bucket_2: 97
Non-critical_ROB_Stalls_Percent_0_Bucket_2: 558
Critical_ROB_Stalls_Percent_0_Bucket_3: 124
Non-critical_ROB_Stalls_Percent_0_Bucket_3: 288
Critical_ROB_Stalls_Percent_0_Bucket_4: 151
Non-critical_ROB_Stalls_Percent_0_Bucket_4: 826
Critical_ROB_Stalls_Percent_0_Bucket_5: 37028
Non-critical_ROB_Stalls_Percent_0_Bucket_5: 172911
Critical_ROB_Stalls_Percent_0_Bucket_6: 452159
Non-critical_ROB_Stalls_Percent_0_Bucket_6: 1164988
Critical_ROB_Stalls_Percent_1_Bucket_0: 30
Non-critical_ROB_Stalls_Percent_1_Bucket_0: 114
Critical_ROB_Stalls_Percent_1_Bucket_1: 52
Non-critical_ROB_Stalls_Percent_1_Bucket_1: 542
Critical_ROB_Stalls_Percent_1_Bucket_2: 97
Non-critical_ROB_Stalls_Percent_1_Bucket_2: 558
Critical_ROB_Stalls_Percent_1_Bucket_3: 124
Non-critical_ROB_Stalls_Percent_1_Bucket_3: 288
Critical_ROB_Stalls_Percent_1_Bucket_4: 151
Non-critical_ROB_Stalls_Percent_1_Bucket_4: 826
Critical_ROB_Stalls_Percent_1_Bucket_5: 37028
Non-critical_ROB_Stalls_Percent_1_Bucket_5: 172911
Critical_ROB_Stalls_Percent_1_Bucket_6: 452159
Non-critical_ROB_Stalls_Percent_1_Bucket_6: 1164988
Critical_ROB_Stalls_Percent_2_Bucket_0: 30
Non-critical_ROB_Stalls_Percent_2_Bucket_0: 114
Critical_ROB_Stalls_Percent_2_Bucket_1: 52
Non-critical_ROB_Stalls_Percent_2_Bucket_1: 542
Critical_ROB_Stalls_Percent_2_Bucket_2: 97
Non-critical_ROB_Stalls_Percent_2_Bucket_2: 558
Critical_ROB_Stalls_Percent_2_Bucket_3: 124
Non-critical_ROB_Stalls_Percent_2_Bucket_3: 288
Critical_ROB_Stalls_Percent_2_Bucket_4: 151
Non-critical_ROB_Stalls_Percent_2_Bucket_4: 826
Critical_ROB_Stalls_Percent_2_Bucket_5: 37028
Non-critical_ROB_Stalls_Percent_2_Bucket_5: 172911
Critical_ROB_Stalls_Percent_2_Bucket_6: 452159
Non-critical_ROB_Stalls_Percent_2_Bucket_6: 1164988
Critical_ROB_Stalls_Percent_3_Bucket_0: 30
Non-critical_ROB_Stalls_Percent_3_Bucket_0: 114
Critical_ROB_Stalls_Percent_3_Bucket_1: 52
Non-critical_ROB_Stalls_Percent_3_Bucket_1: 542
Critical_ROB_Stalls_Percent_3_Bucket_2: 97
Non-critical_ROB_Stalls_Percent_3_Bucket_2: 558
Critical_ROB_Stalls_Percent_3_Bucket_3: 124
Non-critical_ROB_Stalls_Percent_3_Bucket_3: 288
Critical_ROB_Stalls_Percent_3_Bucket_4: 151
Non-critical_ROB_Stalls_Percent_3_Bucket_4: 826
Critical_ROB_Stalls_Percent_3_Bucket_5: 37028
Non-critical_ROB_Stalls_Percent_3_Bucket_5: 172911
Critical_ROB_Stalls_Percent_3_Bucket_6: 452159
Non-critical_ROB_Stalls_Percent_3_Bucket_6: 1164988
Critical_ROB_Stalls_Percent_4_Bucket_0: 30
Non-critical_ROB_Stalls_Percent_4_Bucket_0: 114
Critical_ROB_Stalls_Percent_4_Bucket_1: 52
Non-critical_ROB_Stalls_Percent_4_Bucket_1: 542
Critical_ROB_Stalls_Percent_4_Bucket_2: 97
Non-critical_ROB_Stalls_Percent_4_Bucket_2: 558
Critical_ROB_Stalls_Percent_4_Bucket_3: 124
Non-critical_ROB_Stalls_Percent_4_Bucket_3: 288
Critical_ROB_Stalls_Percent_4_Bucket_4: 151
Non-critical_ROB_Stalls_Percent_4_Bucket_4: 826
Critical_ROB_Stalls_Percent_4_Bucket_5: 37028
Non-critical_ROB_Stalls_Percent_4_Bucket_5: 172911
Critical_ROB_Stalls_Percent_4_Bucket_6: 452159
Non-critical_ROB_Stalls_Percent_4_Bucket_6: 1164988
Critical_ROB_Stalls_Percent_5_Bucket_0: 30
Non-critical_ROB_Stalls_Percent_5_Bucket_0: 114
Critical_ROB_Stalls_Percent_5_Bucket_1: 52
Non-critical_ROB_Stalls_Percent_5_Bucket_1: 542
Critical_ROB_Stalls_Percent_5_Bucket_2: 97
Non-critical_ROB_Stalls_Percent_5_Bucket_2: 558
Critical_ROB_Stalls_Percent_5_Bucket_3: 124
Non-critical_ROB_Stalls_Percent_5_Bucket_3: 288
Critical_ROB_Stalls_Percent_5_Bucket_4: 151
Non-critical_ROB_Stalls_Percent_5_Bucket_4: 826
Critical_ROB_Stalls_Percent_5_Bucket_5: 37028
Non-critical_ROB_Stalls_Percent_5_Bucket_5: 172911
Critical_ROB_Stalls_Percent_5_Bucket_6: 452159
Non-critical_ROB_Stalls_Percent_5_Bucket_6: 1164988
Critical_ROB_Stalls_Percent_6_Bucket_0: 30
Non-critical_ROB_Stalls_Percent_6_Bucket_0: 114
Critical_ROB_Stalls_Percent_6_Bucket_1: 52
Non-critical_ROB_Stalls_Percent_6_Bucket_1: 542
Critical_ROB_Stalls_Percent_6_Bucket_2: 97
Non-critical_ROB_Stalls_Percent_6_Bucket_2: 558
Critical_ROB_Stalls_Percent_6_Bucket_3: 124
Non-critical_ROB_Stalls_Percent_6_Bucket_3: 288
Critical_ROB_Stalls_Percent_6_Bucket_4: 151
Non-critical_ROB_Stalls_Percent_6_Bucket_4: 826
Critical_ROB_Stalls_Percent_6_Bucket_5: 37028
Non-critical_ROB_Stalls_Percent_6_Bucket_5: 172911
Critical_ROB_Stalls_Percent_6_Bucket_6: 452159
Non-critical_ROB_Stalls_Percent_6_Bucket_6: 1164988
Critical_ROB_Stalls_Percent_7_Bucket_0: 30
Non-critical_ROB_Stalls_Percent_7_Bucket_0: 114
Critical_ROB_Stalls_Percent_7_Bucket_1: 52
Non-critical_ROB_Stalls_Percent_7_Bucket_1: 542
Critical_ROB_Stalls_Percent_7_Bucket_2: 97
Non-critical_ROB_Stalls_Percent_7_Bucket_2: 558
Critical_ROB_Stalls_Percent_7_Bucket_3: 124
Non-critical_ROB_Stalls_Percent_7_Bucket_3: 288
Critical_ROB_Stalls_Percent_7_Bucket_4: 151
Non-critical_ROB_Stalls_Percent_7_Bucket_4: 826
Critical_ROB_Stalls_Percent_7_Bucket_5: 37028
Non-critical_ROB_Stalls_Percent_7_Bucket_5: 172911
Critical_ROB_Stalls_Percent_7_Bucket_6: 452159
Non-critical_ROB_Stalls_Percent_7_Bucket_6: 1164988
Critical_ROB_Stalls_Percent_8_Bucket_0: 30
Non-critical_ROB_Stalls_Percent_8_Bucket_0: 114
Critical_ROB_Stalls_Percent_8_Bucket_1: 52
Non-critical_ROB_Stalls_Percent_8_Bucket_1: 542
Critical_ROB_Stalls_Percent_8_Bucket_2: 97
Non-critical_ROB_Stalls_Percent_8_Bucket_2: 558
Critical_ROB_Stalls_Percent_8_Bucket_3: 124
Non-critical_ROB_Stalls_Percent_8_Bucket_3: 288
Critical_ROB_Stalls_Percent_8_Bucket_4: 151
Non-critical_ROB_Stalls_Percent_8_Bucket_4: 826
Critical_ROB_Stalls_Percent_8_Bucket_5: 37028
Non-critical_ROB_Stalls_Percent_8_Bucket_5: 172911
Critical_ROB_Stalls_Percent_8_Bucket_6: 452159
Non-critical_ROB_Stalls_Percent_8_Bucket_6: 1164988
Average ROB occupancy Load Stall Begin: 307.023
Average ROB occupancy Load Stall End: 334.654
Min ROB occupancy Load Stall Begin: 8
Max ROB occupancy Load Stall Begin: 352
Min ROB occupancy Load Stall End: 8
Max ROB occupancy Load Stall End: 352
Average ROB occupancy Critical Load Stall Begin: 326.632
Average ROB occupancy Critical Load Stall End: 334.605
Min ROB occupancy Critical Load Stall Begin: 12
Max ROB occupancy Critical Load Stall Begin: 352
Min ROB occupancy Critical Load Stall End: 12
Max ROB occupancy Critical Load Stall End: 352
 ROB Load Stall Begin Bucket Count 0: 365
 ROB Load Stall End Bucket Count 0: 144
 ROB Critical Load Stall Begin Bucket Count 0: 10
 ROB Critical Load Stall End Bucket Count 0: 10
 ROB Load Stall Begin Bucket Count 1: 798
 ROB Load Stall End Bucket Count 1: 594
 ROB Critical Load Stall Begin Bucket Count 1: 12
 ROB Critical Load Stall End Bucket Count 1: 10
 ROB Load Stall Begin Bucket Count 2: 687
 ROB Load Stall End Bucket Count 2: 655
 ROB Critical Load Stall Begin Bucket Count 2: 13
 ROB Critical Load Stall End Bucket Count 2: 13
 ROB Load Stall Begin Bucket Count 3: 506
 ROB Load Stall End Bucket Count 3: 412
 ROB Critical Load Stall Begin Bucket Count 3: 13
 ROB Critical Load Stall End Bucket Count 3: 11
 ROB Load Stall Begin Bucket Count 4: 170665
 ROB Load Stall End Bucket Count 4: 977
 ROB Critical Load Stall Begin Bucket Count 4: 28
 ROB Critical Load Stall End Bucket Count 4: 27
 ROB Load Stall Begin Bucket Count 5: 615105
 ROB Load Stall End Bucket Count 5: 209939
 ROB Critical Load Stall Begin Bucket Count 5: 1922
 ROB Critical Load Stall End Bucket Count 5: 206
 ROB Load Stall Begin Bucket Count 6: 1041742
 ROB Load Stall End Bucket Count 6: 1617147
 ROB Critical Load Stall Begin Bucket Count 6: 46859
 ROB Critical Load Stall End Bucket Count 6: 48580
PIST Tag Read Accesses: 0
PIST Read Accesses: 0
PIST Tag Write Accesses: 0
PIST Write Accesses: 0
Criticality detector called times: 0
Max global_stall_cycles_count: 0
Threshold Modified: 0 times, factor: 0
Sturdy critical IP cache stats: 
 Unused entries: 0
CIC Tag Read Accesses: 0
CIC Read Accesses: 0
CIC Tag Write Accesses: 0
CIC Write Accesses: 0
Wobbly critical IP cache stats: 
 Unused entries: 25
CIC Tag Read Accesses: 343260156
CIC Read Accesses: 0
CIC Tag Write Accesses: 1078
CIC Write Accesses: 0
ITLB TOTAL     ACCESS:   14219307  HIT:   14219307  MISS:          0  HIT %:        100  MISS %:          0   MPKI: 0
ITLB LOAD TRANSLATION ACCESS:   14219307  HIT:   14219307  MISS:          0  HIT %:        100  MISS %:          0   MPKI: 0
ITLB PREFETCH  REQUESTED:          0  ISSUED:          0  USEFUL:          0  USELESS:          0
ITLB USEFUL LOAD PREFETCHES:          0 PREFETCH ISSUED TO LOWER LEVEL:          0  ACCURACY: -nan
ITLB TIMELY PREFETCHES:          0 LATE PREFETCHES: 0 DROPPED PREFETCHES: 0
ITLB PREFETCHES SAME FILL-ORIGIN LEVEL: 0 DIFFERENT FILL-ORIGIN LEVEL: 0
ITLB AVERAGE MISS LATENCY: -nan cycles
ITLB RQ	ACCESS:   17741169	FORWARD:          0	MERGED:    3521862	TO_CACHE:   14219307

DTLB TOTAL     ACCESS:   13051756  HIT:   13028301  MISS:      23455  HIT %:    99.8203  MISS %:   0.179708   MPKI: 0.23455
DTLB LOAD TRANSLATION ACCESS:   13051756  HIT:   13028301  MISS:      23455  HIT %:    99.8203  MISS %:   0.179708   MPKI: 0.23455
DTLB PREFETCH  REQUESTED:          0  ISSUED:          0  USEFUL:          0  USELESS:          0
DTLB USEFUL LOAD PREFETCHES:          0 PREFETCH ISSUED TO LOWER LEVEL:          0  ACCURACY: -nan
DTLB TIMELY PREFETCHES:          0 LATE PREFETCHES: 0 DROPPED PREFETCHES: 0
DTLB PREFETCHES SAME FILL-ORIGIN LEVEL: 0 DIFFERENT FILL-ORIGIN LEVEL: 0
DTLB AVERAGE MISS LATENCY: 89.5069 cycles
DTLB RQ	ACCESS:   19902405	FORWARD:          0	MERGED:    6849730	TO_CACHE:   13052675

STLB TOTAL     ACCESS:      23455  HIT:       9729  MISS:      13726  HIT %:    41.4794  MISS %:    58.5206   MPKI: 0.13726
STLB LOAD TRANSLATION ACCESS:      23455  HIT:       9729  MISS:      13726  HIT %:    41.4794  MISS %:    58.5206   MPKI: 0.13726
STLB PREFETCH  REQUESTED:          0  ISSUED:          0  USEFUL:          0  USELESS:          0
STLB USEFUL LOAD PREFETCHES:          0 PREFETCH ISSUED TO LOWER LEVEL:          0  ACCURACY: -nan
STLB TIMELY PREFETCHES:          0 LATE PREFETCHES: 0 DROPPED PREFETCHES: 0
STLB PREFETCHES SAME FILL-ORIGIN LEVEL: 0 DIFFERENT FILL-ORIGIN LEVEL: 0
STLB AVERAGE MISS LATENCY: 137.517 cycles
STLB RQ	ACCESS:      23455	FORWARD:          0	MERGED:          0	TO_CACHE:      23455

STLB Hit, L1D data hit: 0
STLB Hit, L2C data hit: 0
STLB Hit, LLC data hit: 0
STLB Hit, LLC data miss: 0
STLB STLB hints to L2: 0
L1D TOTAL     ACCESS:   18860958  HIT:   17537588  MISS:    1323370  HIT %:    92.9835  MISS %:    7.01645   MPKI: 13.2337
L1D LOAD      ACCESS:   11842243  HIT:   10520189  MISS:    1322054  HIT %:    88.8361  MISS %:    11.1639   MPKI: 13.2205
L1D RFO       ACCESS:    7018715  HIT:    7017399  MISS:       1316  HIT %:    99.9813  MISS %:  0.0187499   MPKI: 0.01316
L1D PREFETCH  REQUESTED:          0  ISSUED:          0  USEFUL:          0  USELESS:          0
L1D USEFUL LOAD PREFETCHES:          0 PREFETCH ISSUED TO LOWER LEVEL:          0  ACCURACY: -nan
L1D TIMELY PREFETCHES:          0 LATE PREFETCHES: 0 DROPPED PREFETCHES: 0
L1D PREFETCHES SAME FILL-ORIGIN LEVEL: 0 DIFFERENT FILL-ORIGIN LEVEL: 0
L1D AVERAGE MISS LATENCY: 150.215 cycles
L1D RQ	ACCESS:   35082848	FORWARD:          0	MERGED:   22200731	TO_CACHE:   12881857
L1D WQ	ACCESS:    7020548	FORWARD:        260	MERGED:          0	TO_CACHE:    7020548

L1D UNIQUE REGIONS ACCESSED: 0
L1D REGIONS CONFLICTS: 0
L1D Cross Page Prefetch Requests: 0
L1D Same Page Prefetch Requests: 0
L1D ROI Sum of L1D PQ occupancy: 0
L1D PREFETCHES PUSHED FROM L2C: 0
L1I TOTAL     ACCESS:   17741169  HIT:   17741169  MISS:          0  HIT %:        100  MISS %:          0   MPKI: 0
L1I LOAD      ACCESS:   17741169  HIT:   17741169  MISS:          0  HIT %:        100  MISS %:          0   MPKI: 0
L1I PREFETCH  REQUESTED:          0  ISSUED:          0  USEFUL:          0  USELESS:          0
L1I USEFUL LOAD PREFETCHES:          0 PREFETCH ISSUED TO LOWER LEVEL:          0  ACCURACY: -nan
L1I TIMELY PREFETCHES:          0 LATE PREFETCHES: 0 DROPPED PREFETCHES: 0
L1I PREFETCHES SAME FILL-ORIGIN LEVEL: 0 DIFFERENT FILL-ORIGIN LEVEL: 0
L1I AVERAGE MISS LATENCY: -nan cycles
L1I RQ	ACCESS:   24411332	FORWARD:          0	MERGED:    6670163	TO_CACHE:   17741169

BTB TOTAL     ACCESS:    1754588  HIT:    1754579  MISS:          9  HIT %:    99.9995  MISS %: 0.000512941   MPKI: 9e-05
BTB BRANCH_DIRECT_JUMP	ACCESS:        438  HIT:        436  MISS:          2
BTB BRANCH_INDIRECT	ACCESS:          0  HIT:          0  MISS:          0
BTB BRANCH_CONDITIONAL	ACCESS:    1753274  HIT:    1753271  MISS:          3
BTB BRANCH_DIRECT_CALL	ACCESS:        438  HIT:        436  MISS:          2
BTB BRANCH_INDIRECT_CALL	ACCESS:          0  HIT:          0  MISS:          0
BTB BRANCH_RETURN	ACCESS:        438  HIT:        436  MISS:          2
BTB BRANCH_OTHER ACCESS:          0  HIT:          0  MISS:          0

L2C TOTAL     ACCESS:    2216045  HIT:    1210208  MISS:    1005837  HIT %:    54.6112  MISS %:    45.3888   MPKI: 10.0584
L2C LOAD      ACCESS:    1322053  HIT:     323432  MISS:     998621  HIT %:    24.4644  MISS %:    75.5356   MPKI: 9.98621
L2C DATA LOAD MPKI: 9.98621
L2C INSTRUCTION LOAD MPKI: 0
L2C RFO       ACCESS:       1316  HIT:       1306  MISS:         10  HIT %:    99.2401  MISS %:   0.759878   MPKI: 0.0001
L2C PREFETCH  ACCESS:        226  HIT:        223  MISS:          3  HIT %:    98.6726  MISS %:    1.32743   MPKI: 3e-05
L2C DATA PREFETCH MPKI: 3e-05
L2C INSTRUCTION PREFETCH MPKI: 0
L2C WRITEBACK ACCESS:     878717  HIT:     873341  MISS:       5376  HIT %:    99.3882  MISS %:   0.611801   MPKI: 0.05376
L2C LOAD TRANSLATION ACCESS:      13733  HIT:      11906  MISS:       1827  HIT %:    86.6963  MISS %:    13.3037   MPKI: 0.01827
L2C PREFETCH  REQUESTED:        338  ISSUED:        338  USEFUL:          6  USELESS:         20
L2C USEFUL LOAD PREFETCHES:          6 PREFETCH ISSUED TO LOWER LEVEL:         13  ACCURACY: 46.1538
L2C TIMELY PREFETCHES:          6 LATE PREFETCHES: 0 DROPPED PREFETCHES: 0
L2C PREFETCHES SAME FILL-ORIGIN LEVEL: 3 DIFFERENT FILL-ORIGIN LEVEL: 10
L2C AVERAGE MISS LATENCY: 178.166 cycles
L2C RQ	ACCESS:    1337102	FORWARD:          0	MERGED:          0	TO_CACHE:    1337102
L2C WQ	ACCESS:     878717	FORWARD:          0	MERGED:          0	TO_CACHE:     878717
L2C PQ	ACCESS:        338	FORWARD:          0	MERGED:         88	TO_CACHE:        250

L2C Instructions Evicting Data 0
L2C Translations Evicting Data 1827
L2C Data Evicting Data 996835
L2C Instructions Evicting Instructions 0
L2C Translations Evicting Instructions 0
L2C Data Evicting Instructions 0
L2C Instructions Evicting Translations 0
L2C Translations Evicting Translations 0
L2C Data Evicting Translations 1799
L2C Dense regions hint from L2: 0
PSCL5 TOTAL     ACCESS:      13726  HIT:      13726  MISS:          0  HIT %:        100  MISS %:          0   MPKI: 0
PSCL5 LOAD TRANSLATION ACCESS:      13726  HIT:      13726  MISS:          0  HIT %:        100  MISS %:          0   MPKI: 0
PSCL5 PREFETCH  REQUESTED:          0  ISSUED:          0  USEFUL:          0  USELESS:          0
PSCL5 USEFUL LOAD PREFETCHES:          0 PREFETCH ISSUED TO LOWER LEVEL:          0  ACCURACY: -nan
PSCL5 TIMELY PREFETCHES:          0 LATE PREFETCHES: 0 DROPPED PREFETCHES: 0
PSCL5 PREFETCHES SAME FILL-ORIGIN LEVEL: 0 DIFFERENT FILL-ORIGIN LEVEL: 0

PSCL4 TOTAL     ACCESS:      13726  HIT:      13726  MISS:          0  HIT %:        100  MISS %:          0   MPKI: 0
PSCL4 LOAD TRANSLATION ACCESS:      13726  HIT:      13726  MISS:          0  HIT %:        100  MISS %:          0   MPKI: 0
PSCL4 PREFETCH  REQUESTED:          0  ISSUED:          0  USEFUL:          0  USELESS:          0
PSCL4 USEFUL LOAD PREFETCHES:          0 PREFETCH ISSUED TO LOWER LEVEL:          0  ACCURACY: -nan
PSCL4 TIMELY PREFETCHES:          0 LATE PREFETCHES: 0 DROPPED PREFETCHES: 0
PSCL4 PREFETCHES SAME FILL-ORIGIN LEVEL: 0 DIFFERENT FILL-ORIGIN LEVEL: 0

PSCL3 TOTAL     ACCESS:      13574  HIT:      13569  MISS:          5  HIT %:    99.9632  MISS %:  0.0368351   MPKI: 5e-05
PSCL3 LOAD TRANSLATION ACCESS:      13574  HIT:      13569  MISS:          5  HIT %:    99.9632  MISS %:  0.0368351   MPKI: 5e-05
PSCL3 PREFETCH  REQUESTED:          0  ISSUED:          0  USEFUL:          0  USELESS:          0
PSCL3 USEFUL LOAD PREFETCHES:          0 PREFETCH ISSUED TO LOWER LEVEL:          0  ACCURACY: -nan
PSCL3 TIMELY PREFETCHES:          0 LATE PREFETCHES: 0 DROPPED PREFETCHES: 0
PSCL3 PREFETCHES SAME FILL-ORIGIN LEVEL: 0 DIFFERENT FILL-ORIGIN LEVEL: 0

PSCL2 TOTAL     ACCESS:      13726  HIT:      13678  MISS:         48  HIT %:    99.6503  MISS %:   0.349701   MPKI: 0.00048
PSCL2 LOAD TRANSLATION ACCESS:      13726  HIT:      13678  MISS:         48  HIT %:    99.6503  MISS %:   0.349701   MPKI: 0.00048
PSCL2 PREFETCH  REQUESTED:          0  ISSUED:          0  USEFUL:          0  USELESS:          0
PSCL2 USEFUL LOAD PREFETCHES:          0 PREFETCH ISSUED TO LOWER LEVEL:          0  ACCURACY: -nan
PSCL2 TIMELY PREFETCHES:          0 LATE PREFETCHES: 0 DROPPED PREFETCHES: 0
PSCL2 PREFETCHES SAME FILL-ORIGIN LEVEL: 0 DIFFERENT FILL-ORIGIN LEVEL: 0

LLC TOTAL     ACCESS:    1876741  HIT:     983560  MISS:     893181  HIT %:    52.4079  MISS %:    47.5921   MPKI: 8.93181
LLC LOAD      ACCESS:     998621  HIT:     120484  MISS:     878137  HIT %:     12.065  MISS %:     87.935   MPKI: 8.78137
LLC RFO       ACCESS:         10  HIT:         10  MISS:          0  HIT %:        100  MISS %:          0   MPKI: 0
LLC PREFETCH  ACCESS:         13  HIT:         11  MISS:          2  HIT %:    84.6154  MISS %:    15.3846   MPKI: 2e-05
LLC WRITEBACK ACCESS:     876270  HIT:     863004  MISS:      13266  HIT %:    98.4861  MISS %:    1.51392   MPKI: 0.13266
LLC LOAD TRANSLATION ACCESS:       1827  HIT:         51  MISS:       1776  HIT %:    2.79146  MISS %:    97.2085   MPKI: 0.01776
LLC PREFETCH  REQUESTED:          0  ISSUED:          0  USEFUL:        150  USELESS:      31073
LLC USEFUL LOAD PREFETCHES:        150 PREFETCH ISSUED TO LOWER LEVEL:          2  ACCURACY: 7500
LLC TIMELY PREFETCHES:        150 LATE PREFETCHES: 0 DROPPED PREFETCHES: 0
LLC PREFETCHES SAME FILL-ORIGIN LEVEL: 2 DIFFERENT FILL-ORIGIN LEVEL: 0
LLC AVERAGE MISS LATENCY: 166.994 cycles
LLC RQ	ACCESS:    1000458	FORWARD:          0	MERGED:          0	TO_CACHE:    1000458
LLC WQ	ACCESS:     876270	FORWARD:          0	MERGED:          0	TO_CACHE:     876270
LLC PQ	ACCESS:         13	FORWARD:          0	MERGED:          0	TO_CACHE:         13

LLC Dense regions hint to LLC: 0

RAW hits: 1708
Loads Generated: 35084561
Loads sent to L1D: 35082848
Stores Generated: 7020542
Stores sent to L1D: 7020548
Major fault: 0 Minor fault: 20724
Allocated PAGES: 20724
------------------
Depth Distribution
------------------
depth 0: 449
depth 1: 332
depth 2: 123
depth 3: 515
depth 4: 8672
depth 5: 141651
depth 6: 144520
depth 7: 182432
depth 8: 42945
depth 9: 14957
depth 10: 352
depth 11: 300
depth 12: 0
depth 13: 0
depth 14: 0
depth 15: 0
depth 16: 0
depth 17: 0
depth 18: 0
depth 19: 0
depth 20: 0
depth 21: 0
depth 22: 0
depth 23: 0
depth 24: 0
depth 25: 0
depth 26: 0
depth 27: 0
depth 28: 0
depth 29: 0
Total: 537248
------------------
ST read accesses: 383
ST write accesses: 1
PT read accesses: 5408
PT write accesses: 536
FILTER read accesses: 946683
FILTER write accesses: 1889952
GHR read accesses: 8
GHR write accesses: 0
PERC read accesses: 35946
PERC write accesses: 1670
GHR counter read accesses: 768
GHR counter write accesses: 506
GHR ip read accesses: 2952
GHR ip write accesses: 1536
ST tag read accesses: 11168
ST tag write accesses: 399

DRAM Statistics
 CHANNEL 0
 RQ ROW_BUFFER_HIT:       4508  ROW_BUFFER_MISS:     875407
 DBUS_CONGESTED:        102
 WQ ROW_BUFFER_HIT:     764962  ROW_BUFFER_MISS:     111907  FULL:          0

 AVG_CONGESTED_CYCLE: 6
 All warmup complete: 2
Channel 0 Bank busy for read cycles: 0
Channel 0 Bank busy for write cycles: 0
Channel 0
Rank 0
0banks busy for read cycles: 1570626
0banks busy for write cycles: 25647
1banks busy for read cycles: 71103512
1banks busy for write cycles: 6566910
2banks busy for read cycles: 30216221
2banks busy for write cycles: 27618363
3banks busy for read cycles: 383
3banks busy for write cycles: 25443875
4banks busy for read cycles: 0
4banks busy for write cycles: 5954020
5banks busy for read cycles: 0
5banks busy for write cycles: 3892898
6banks busy for read cycles: 0
6banks busy for write cycles: 420264
7banks busy for read cycles: 0
7banks busy for write cycles: 108025
8banks busy for read cycles: 0
8banks busy for write cycles: 2981

CPU 0 Branch Prediction Accuracy: 99.9751% MPKI: 0.00438 Average ROB Occupancy at Mispredict: 313.203
Branch types
NOT_BRANCH: 98243818 98.2438%
BRANCH_DIRECT_JUMP: 438 0.000438%
BRANCH_INDIRECT: 0 0%
BRANCH_CONDITIONAL: 1754807 1.75481%
BRANCH_DIRECT_CALL: 438 0.000438%
BRANCH_INDIRECT_CALL: 0 0%
BRANCH_RETURN: 438 0.000438%
BRANCH_OTHER: 0 0%

DRAM PAGES: 1048576
Allocated PAGES: 20724
