
*** ChampSim Multicore Out-of-Order Simulator ***

Warmup Instructions: 50000000
Simulation Instructions: 100000000
Number of CPUs: 1
LLC sets: 2048
LLC ways: 16
Off-chip DRAM Size: 4096 MB Channels: 1 Width: 64-bit Data Rate: 6400 MT/s
CPU 0 runs ../SPEC2017//649.fotonik3d_s-1176B.champsimtrace.xz
.xz
NUM_OF_IPS_IN_CRITICAL_IP_TRAINING: 64
NUM_OF_CRITICAL_IP_TRAINING_TABLE_WAYS: 2
NUM_OF_CRITICAL_IP_TRAINING_TABLE_SETS: 32
WOBBLY_CRITICAL_IP_CACHE_SETS: 32
WOBBLY_CRITICAL_IP_CACHE_WAYS: 4
BTB has LRU replacement policy
ITLB has LRU replacement policy
DTLB has LRU replacement policy
STLB has LRU replacement policy
L1I has LRU replacement policy
IP Table Entries: 64
L1D has LRU replacement policy
Initialize SRRIP state for L2C
Initialize DRRIP state for LLC
Heartbeat CPU 0 instructions: 10000000 cycles: 2902912 heartbeat IPC: 3.44482 cumulative IPC: 3.44482 (Simulation time: 0 hr 6 min 40 sec) 
Heartbeat CPU 0 instructions: 20000002 cycles: 5805788 heartbeat IPC: 3.44486 cumulative IPC: 3.44484 (Simulation time: 0 hr 12 min 54 sec) 
Heartbeat CPU 0 instructions: 30000001 cycles: 8708621 heartbeat IPC: 3.44491 cumulative IPC: 3.44486 (Simulation time: 0 hr 17 min 45 sec) 
Heartbeat CPU 0 instructions: 40000003 cycles: 11611482 heartbeat IPC: 3.44488 cumulative IPC: 3.44487 (Simulation time: 0 hr 22 min 28 sec) 
Heartbeat CPU 0 instructions: 50000001 cycles: 14514295 heartbeat IPC: 3.44493 cumulative IPC: 3.44488 (Simulation time: 0 hr 27 min 6 sec) 

Warmup complete CPU 0 instructions: 50000001 cycles: 14514295 (Simulation time: 0 hr 27 min 6 sec) 

% increase in all ip prefetch 228.92
% increase in all ip prefetch 0.0175816
Heartbeat CPU 0 instructions: 60000003 cycles: 24533205 heartbeat IPC: 0.998113 cumulative IPC: 0.998113 (Simulation time: 0 hr 30 min 16 sec) 
Heartbeat CPU 0 instructions: 70000000 cycles: 34542485 heartbeat IPC: 0.999073 cumulative IPC: 0.998592 (Simulation time: 0 hr 33 min 14 sec) 
Heartbeat CPU 0 instructions: 80000001 cycles: 44569790 heartbeat IPC: 0.997277 cumulative IPC: 0.998154 (Simulation time: 0 hr 36 min 1 sec) 
Heartbeat CPU 0 instructions: 90000001 cycles: 54578917 heartbeat IPC: 0.999088 cumulative IPC: 0.998387 (Simulation time: 0 hr 38 min 36 sec) 
Heartbeat CPU 0 instructions: 100000000 cycles: 64603337 heartbeat IPC: 0.997564 cumulative IPC: 0.998222 (Simulation time: 0 hr 41 min 7 sec) 
Heartbeat CPU 0 instructions: 110000000 cycles: 74608725 heartbeat IPC: 0.999461 cumulative IPC: 0.998429 (Simulation time: 0 hr 43 min 29 sec) 
Heartbeat CPU 0 instructions: 120000001 cycles: 84629575 heartbeat IPC: 0.997919 cumulative IPC: 0.998356 (Simulation time: 0 hr 45 min 46 sec) 
Heartbeat CPU 0 instructions: 130000002 cycles: 94636622 heartbeat IPC: 0.999296 cumulative IPC: 0.998473 (Simulation time: 0 hr 47 min 59 sec) 
Heartbeat CPU 0 instructions: 140000003 cycles: 104662070 heartbeat IPC: 0.997462 cumulative IPC: 0.998361 (Simulation time: 0 hr 50 min 9 sec) 
Heartbeat CPU 0 instructions: 150000000 cycles: 114667494 heartbeat IPC: 0.999458 cumulative IPC: 0.99847 (Simulation time: 0 hr 52 min 14 sec) 
Finished CPU 0 instructions: 100000001 cycles: 100153208 cumulative IPC: 0.99847 (Simulation time: 0 hr 52 min 14 sec) 

ChampSim completed all CPUs

Region of Interest Statistics

CPU 0 cumulative IPC: 0.99847 instructions: 100000001 cycles: 100153208

CPU 0 Average Load ROB stall cycles: 1.79518e+06
CPU 0 Fraction of times ROB stalled by Loads: 2.77961
CPU 0 Percentage of Load stall cycles in Total stall cycles: 2.90352e+07
 Total stall cycles: 55841774
 Total load stall cycles: 16213761007951
CPU 0 NUM of IPS identified critical: 2
CPU 0 Num of Load IPs stalling ROB: 60
Threshold modification factor: -1
Max PIST entries: 28
Min PIST entries: 0
Avg PIST entries: 15.54
Trouble in retire width: 0.996999
MaC = Marked as critical.
lt_50_percent_before_Mac: 2
gt_90_percent_before_Mac: 0
gt_75_percent_before_Mac: 0
gt_50_percent_before_Mac: 0
stall_proportion_bin_same_before_after: 0
stall_proportion_bin_lower_before_after: 0
stall_proportion_bin_upper_before_after: 0
average_stall_proportion_before: 0.0488718
average_stall_proportion_after: 0.0486772
Critical IP stalls, total frequency: 163367
Non-critical IP stalls, total frequency: 87674
Critical_IP_ROB_Stalls_Bucket_0: 81287
Non-critical_IP_ROB_Stalls_Bucket_0: 12231
Critical_IP_ROB_Stalls_Bucket_1: 79821
Non-critical_IP_ROB_Stalls_Bucket_1: 65035
Critical_IP_ROB_Stalls_Bucket_2: 1271
Non-critical_IP_ROB_Stalls_Bucket_2: 3765
Critical_IP_ROB_Stalls_Bucket_3: 467
Non-critical_IP_ROB_Stalls_Bucket_3: 2429
Critical_IP_ROB_Stalls_Bucket_4: 249
Non-critical_IP_ROB_Stalls_Bucket_4: 1759
Critical_IP_ROB_Stalls_Bucket_5: 229
Non-critical_IP_ROB_Stalls_Bucket_5: 1085
Critical_IP_ROB_Stalls_Bucket_6: 43
Non-critical_IP_ROB_Stalls_Bucket_6: 1379
0 => IPs accounting for >50 percent of stalls, 1 => 55, 2 => 60, 3 => 65 and so on till 90.
percent50: 65.0758 num IPs:2
percent55: 65.0758 num IPs:2
percent60: 65.0758 num IPs:2
percent65: 65.0758 num IPs:2
percent70: 70.0388 num IPs:3
percent75: 79.9559 num IPs:5
percent80: 84.9124 num IPs:6
percent85: 87.4319 num IPs:7
percent90: 90.6804 num IPs:9
Critical_ROB_Stalls_Percent_0_Bucket_0: 81287
Non-critical_ROB_Stalls_Percent_0_Bucket_0: 12231
Critical_ROB_Stalls_Percent_0_Bucket_1: 79821
Non-critical_ROB_Stalls_Percent_0_Bucket_1: 65035
Critical_ROB_Stalls_Percent_0_Bucket_2: 1271
Non-critical_ROB_Stalls_Percent_0_Bucket_2: 3765
Critical_ROB_Stalls_Percent_0_Bucket_3: 467
Non-critical_ROB_Stalls_Percent_0_Bucket_3: 2429
Critical_ROB_Stalls_Percent_0_Bucket_4: 249
Non-critical_ROB_Stalls_Percent_0_Bucket_4: 1759
Critical_ROB_Stalls_Percent_0_Bucket_5: 229
Non-critical_ROB_Stalls_Percent_0_Bucket_5: 1085
Critical_ROB_Stalls_Percent_0_Bucket_6: 43
Non-critical_ROB_Stalls_Percent_0_Bucket_6: 1379
Critical_ROB_Stalls_Percent_1_Bucket_0: 81287
Non-critical_ROB_Stalls_Percent_1_Bucket_0: 12231
Critical_ROB_Stalls_Percent_1_Bucket_1: 79821
Non-critical_ROB_Stalls_Percent_1_Bucket_1: 65035
Critical_ROB_Stalls_Percent_1_Bucket_2: 1271
Non-critical_ROB_Stalls_Percent_1_Bucket_2: 3765
Critical_ROB_Stalls_Percent_1_Bucket_3: 467
Non-critical_ROB_Stalls_Percent_1_Bucket_3: 2429
Critical_ROB_Stalls_Percent_1_Bucket_4: 249
Non-critical_ROB_Stalls_Percent_1_Bucket_4: 1759
Critical_ROB_Stalls_Percent_1_Bucket_5: 229
Non-critical_ROB_Stalls_Percent_1_Bucket_5: 1085
Critical_ROB_Stalls_Percent_1_Bucket_6: 43
Non-critical_ROB_Stalls_Percent_1_Bucket_6: 1379
Critical_ROB_Stalls_Percent_2_Bucket_0: 81287
Non-critical_ROB_Stalls_Percent_2_Bucket_0: 12231
Critical_ROB_Stalls_Percent_2_Bucket_1: 79821
Non-critical_ROB_Stalls_Percent_2_Bucket_1: 65035
Critical_ROB_Stalls_Percent_2_Bucket_2: 1271
Non-critical_ROB_Stalls_Percent_2_Bucket_2: 3765
Critical_ROB_Stalls_Percent_2_Bucket_3: 467
Non-critical_ROB_Stalls_Percent_2_Bucket_3: 2429
Critical_ROB_Stalls_Percent_2_Bucket_4: 249
Non-critical_ROB_Stalls_Percent_2_Bucket_4: 1759
Critical_ROB_Stalls_Percent_2_Bucket_5: 229
Non-critical_ROB_Stalls_Percent_2_Bucket_5: 1085
Critical_ROB_Stalls_Percent_2_Bucket_6: 43
Non-critical_ROB_Stalls_Percent_2_Bucket_6: 1379
Critical_ROB_Stalls_Percent_3_Bucket_0: 81287
Non-critical_ROB_Stalls_Percent_3_Bucket_0: 12231
Critical_ROB_Stalls_Percent_3_Bucket_1: 79821
Non-critical_ROB_Stalls_Percent_3_Bucket_1: 65035
Critical_ROB_Stalls_Percent_3_Bucket_2: 1271
Non-critical_ROB_Stalls_Percent_3_Bucket_2: 3765
Critical_ROB_Stalls_Percent_3_Bucket_3: 467
Non-critical_ROB_Stalls_Percent_3_Bucket_3: 2429
Critical_ROB_Stalls_Percent_3_Bucket_4: 249
Non-critical_ROB_Stalls_Percent_3_Bucket_4: 1759
Critical_ROB_Stalls_Percent_3_Bucket_5: 229
Non-critical_ROB_Stalls_Percent_3_Bucket_5: 1085
Critical_ROB_Stalls_Percent_3_Bucket_6: 43
Non-critical_ROB_Stalls_Percent_3_Bucket_6: 1379
Critical_ROB_Stalls_Percent_4_Bucket_0: 81292
Non-critical_ROB_Stalls_Percent_4_Bucket_0: 12226
Critical_ROB_Stalls_Percent_4_Bucket_1: 91446
Non-critical_ROB_Stalls_Percent_4_Bucket_1: 53410
Critical_ROB_Stalls_Percent_4_Bucket_2: 1472
Non-critical_ROB_Stalls_Percent_4_Bucket_2: 3564
Critical_ROB_Stalls_Percent_4_Bucket_3: 687
Non-critical_ROB_Stalls_Percent_4_Bucket_3: 2209
Critical_ROB_Stalls_Percent_4_Bucket_4: 452
Non-critical_ROB_Stalls_Percent_4_Bucket_4: 1556
Critical_ROB_Stalls_Percent_4_Bucket_5: 353
Non-critical_ROB_Stalls_Percent_4_Bucket_5: 961
Critical_ROB_Stalls_Percent_4_Bucket_6: 124
Non-critical_ROB_Stalls_Percent_4_Bucket_6: 1298
Critical_ROB_Stalls_Percent_5_Bucket_0: 81294
Non-critical_ROB_Stalls_Percent_5_Bucket_0: 12224
Critical_ROB_Stalls_Percent_5_Bucket_1: 114772
Non-critical_ROB_Stalls_Percent_5_Bucket_1: 30084
Critical_ROB_Stalls_Percent_5_Bucket_2: 1911
Non-critical_ROB_Stalls_Percent_5_Bucket_2: 3125
Critical_ROB_Stalls_Percent_5_Bucket_3: 1080
Non-critical_ROB_Stalls_Percent_5_Bucket_3: 1816
Critical_ROB_Stalls_Percent_5_Bucket_4: 819
Non-critical_ROB_Stalls_Percent_5_Bucket_4: 1189
Critical_ROB_Stalls_Percent_5_Bucket_5: 576
Non-critical_ROB_Stalls_Percent_5_Bucket_5: 738
Critical_ROB_Stalls_Percent_5_Bucket_6: 270
Non-critical_ROB_Stalls_Percent_5_Bucket_6: 1152
Critical_ROB_Stalls_Percent_6_Bucket_0: 81298
Non-critical_ROB_Stalls_Percent_6_Bucket_0: 12220
Critical_ROB_Stalls_Percent_6_Bucket_1: 126446
Non-critical_ROB_Stalls_Percent_6_Bucket_1: 18410
Critical_ROB_Stalls_Percent_6_Bucket_2: 2172
Non-critical_ROB_Stalls_Percent_6_Bucket_2: 2864
Critical_ROB_Stalls_Percent_6_Bucket_3: 1250
Non-critical_ROB_Stalls_Percent_6_Bucket_3: 1646
Critical_ROB_Stalls_Percent_6_Bucket_4: 972
Non-critical_ROB_Stalls_Percent_6_Bucket_4: 1036
Critical_ROB_Stalls_Percent_6_Bucket_5: 690
Non-critical_ROB_Stalls_Percent_6_Bucket_5: 624
Critical_ROB_Stalls_Percent_6_Bucket_6: 337
Non-critical_ROB_Stalls_Percent_6_Bucket_6: 1085
Critical_ROB_Stalls_Percent_7_Bucket_0: 83314
Non-critical_ROB_Stalls_Percent_7_Bucket_0: 10204
Critical_ROB_Stalls_Percent_7_Bucket_1: 128383
Non-critical_ROB_Stalls_Percent_7_Bucket_1: 16473
Critical_ROB_Stalls_Percent_7_Bucket_2: 3424
Non-critical_ROB_Stalls_Percent_7_Bucket_2: 1612
Critical_ROB_Stalls_Percent_7_Bucket_3: 1768
Non-critical_ROB_Stalls_Percent_7_Bucket_3: 1128
Critical_ROB_Stalls_Percent_7_Bucket_4: 1245
Non-critical_ROB_Stalls_Percent_7_Bucket_4: 763
Critical_ROB_Stalls_Percent_7_Bucket_5: 839
Non-critical_ROB_Stalls_Percent_7_Bucket_5: 475
Critical_ROB_Stalls_Percent_7_Bucket_6: 517
Non-critical_ROB_Stalls_Percent_7_Bucket_6: 905
Critical_ROB_Stalls_Percent_8_Bucket_0: 87143
Non-critical_ROB_Stalls_Percent_8_Bucket_0: 6375
Critical_ROB_Stalls_Percent_8_Bucket_1: 130373
Non-critical_ROB_Stalls_Percent_8_Bucket_1: 14483
Critical_ROB_Stalls_Percent_8_Bucket_2: 4691
Non-critical_ROB_Stalls_Percent_8_Bucket_2: 345
Critical_ROB_Stalls_Percent_8_Bucket_3: 2283
Non-critical_ROB_Stalls_Percent_8_Bucket_3: 613
Critical_ROB_Stalls_Percent_8_Bucket_4: 1506
Non-critical_ROB_Stalls_Percent_8_Bucket_4: 502
Critical_ROB_Stalls_Percent_8_Bucket_5: 963
Non-critical_ROB_Stalls_Percent_8_Bucket_5: 351
Critical_ROB_Stalls_Percent_8_Bucket_6: 686
Non-critical_ROB_Stalls_Percent_8_Bucket_6: 736
Average ROB occupancy Load Stall Begin: 51.5025
Average ROB occupancy Load Stall End: 58.6236
Min ROB occupancy Load Stall Begin: 2
Max ROB occupancy Load Stall Begin: 351
Min ROB occupancy Load Stall End: 12
Max ROB occupancy Load Stall End: 352
Average ROB occupancy Critical Load Stall Begin: 47.3859
Average ROB occupancy Critical Load Stall End: 52.377
Min ROB occupancy Critical Load Stall Begin: 30
Max ROB occupancy Critical Load Stall Begin: 346
Min ROB occupancy Critical Load Stall End: 35
Max ROB occupancy Critical Load Stall End: 352
 ROB Load Stall Begin Bucket Count 0: 210641
 ROB Load Stall End Bucket Count 0: 93518
 ROB Critical Load Stall Begin Bucket Count 0: 145407
 ROB Critical Load Stall End Bucket Count 0: 80534
 ROB Load Stall Begin Bucket Count 1: 28155
 ROB Load Stall End Bucket Count 1: 144856
 ROB Critical Load Stall Begin Bucket Count 1: 14252
 ROB Critical Load Stall End Bucket Count 1: 79091
 ROB Load Stall Begin Bucket Count 2: 5113
 ROB Load Stall End Bucket Count 2: 5036
 ROB Critical Load Stall Begin Bucket Count 2: 1270
 ROB Critical Load Stall End Bucket Count 2: 1259
 ROB Load Stall Begin Bucket Count 3: 2817
 ROB Load Stall End Bucket Count 3: 2896
 ROB Critical Load Stall Begin Bucket Count 3: 449
 ROB Critical Load Stall End Bucket Count 3: 459
 ROB Load Stall Begin Bucket Count 4: 1790
 ROB Load Stall End Bucket Count 4: 2008
 ROB Critical Load Stall Begin Bucket Count 4: 218
 ROB Critical Load Stall End Bucket Count 4: 245
 ROB Load Stall Begin Bucket Count 5: 1493
 ROB Load Stall End Bucket Count 5: 1314
 ROB Critical Load Stall Begin Bucket Count 5: 231
 ROB Critical Load Stall End Bucket Count 5: 228
 ROB Load Stall Begin Bucket Count 6: 1041
 ROB Load Stall End Bucket Count 6: 1422
 ROB Critical Load Stall Begin Bucket Count 6: 32
 ROB Critical Load Stall End Bucket Count 6: 43
PIST Tag Read Accesses: 164418
PIST Read Accesses: 82209
PIST Tag Write Accesses: 164418
PIST Write Accesses: 82209
Criticality detector called times: 84155
Max global_stall_cycles_count: 67312
Threshold Modified: 1 times, factor: -1
ITLB TOTAL     ACCESS:   14036640  HIT:   14036640  MISS:          0  HIT %:        100  MISS %:          0   MPKI: 0
ITLB LOAD TRANSLATION ACCESS:   14036640  HIT:   14036640  MISS:          0  HIT %:        100  MISS %:          0   MPKI: 0
ITLB PREFETCH  REQUESTED:          0  ISSUED:          0  USEFUL:          0  USELESS:          0
ITLB USEFUL LOAD PREFETCHES:          0 PREFETCH ISSUED TO LOWER LEVEL:          0  ACCURACY: -nan
ITLB TIMELY PREFETCHES:          0 LATE PREFETCHES: 0 DROPPED PREFETCHES: 0
ITLB PREFETCHES SAME FILL-ORIGIN LEVEL: 0 DIFFERENT FILL-ORIGIN LEVEL: 0
ITLB AVERAGE MISS LATENCY: -nan cycles
ITLB RQ	ACCESS:   17546719	FORWARD:          0	MERGED:    3510080	TO_CACHE:   14036639

DTLB TOTAL     ACCESS:   16226771  HIT:   16203172  MISS:      23599  HIT %:    99.8546  MISS %:   0.145433   MPKI: 0.23599
DTLB LOAD TRANSLATION ACCESS:   16226771  HIT:   16203172  MISS:      23599  HIT %:    99.8546  MISS %:   0.145433   MPKI: 0.23599
DTLB PREFETCH  REQUESTED:          0  ISSUED:          0  USEFUL:          0  USELESS:          0
DTLB USEFUL LOAD PREFETCHES:          0 PREFETCH ISSUED TO LOWER LEVEL:          0  ACCURACY: -nan
DTLB TIMELY PREFETCHES:          0 LATE PREFETCHES: 0 DROPPED PREFETCHES: 0
DTLB PREFETCHES SAME FILL-ORIGIN LEVEL: 0 DIFFERENT FILL-ORIGIN LEVEL: 0
DTLB AVERAGE MISS LATENCY: 88.7152 cycles
DTLB RQ	ACCESS:   25113098	FORWARD:          0	MERGED:    8885124	TO_CACHE:   16227974

STLB TOTAL     ACCESS:    1212410  HIT:    1198692  MISS:      13718  HIT %:    98.8685  MISS %:    1.13147   MPKI: 0.13718
STLB LOAD TRANSLATION ACCESS:      23599  HIT:       9881  MISS:      13718  HIT %:    41.8704  MISS %:    58.1296   MPKI: 0.13718
STLB TRANSLATION FROM L1D PREFETCHER ACCESS:    1188811  HIT:    1188811  MISS:          0  HIT %:        100  MISS %:          0   MPKI: 0
STLB PREFETCH  REQUESTED:          0  ISSUED:          0  USEFUL:          0  USELESS:          0
STLB USEFUL LOAD PREFETCHES:          0 PREFETCH ISSUED TO LOWER LEVEL:          0  ACCURACY: -nan
STLB TIMELY PREFETCHES:          0 LATE PREFETCHES: 0 DROPPED PREFETCHES: 0
STLB PREFETCHES SAME FILL-ORIGIN LEVEL: 0 DIFFERENT FILL-ORIGIN LEVEL: 0
STLB AVERAGE MISS LATENCY: 136.838 cycles
STLB RQ	ACCESS:    1334942	FORWARD:          0	MERGED:     122532	TO_CACHE:    1212410

STLB Hit, L1D data hit: 0
STLB Hit, L2C data hit: 0
STLB Hit, LLC data hit: 0
STLB Hit, LLC data miss: 0
STLB STLB hints to L2: 0
L1D TOTAL     ACCESS:   26367820  HIT:   25039805  MISS:    1328015  HIT %:    94.9635  MISS %:     5.0365   MPKI: 13.2801
L1D LOAD      ACCESS:   18051339  HIT:   18004519  MISS:      46820  HIT %:    99.7406  MISS %:   0.259371   MPKI: 0.4682
L1D RFO       ACCESS:    7018344  HIT:    7016811  MISS:       1533  HIT %:    99.9782  MISS %:  0.0218428   MPKI: 0.01533
L1D PREFETCH  ACCESS:    1298137  HIT:      18475  MISS:    1279662  HIT %:    1.42319  MISS %:    98.5768   MPKI: 12.7966
L1D PREFETCH  REQUESTED:    2622686  ISSUED:    2622686  USEFUL:    1275019  USELESS:       4662
L1D USEFUL LOAD PREFETCHES:    1275019 PREFETCH ISSUED TO LOWER LEVEL:    1291539  ACCURACY: 98.7209
L1D TIMELY PREFETCHES:    1275019 LATE PREFETCHES: 11875 DROPPED PREFETCHES: 0
L1D PREFETCHES SAME FILL-ORIGIN LEVEL: 1291539 DIFFERENT FILL-ORIGIN LEVEL: 0
L1D AVERAGE MISS LATENCY: 578774 cycles
L1D RQ	ACCESS:   35082797	FORWARD:          0	MERGED:   16989944	TO_CACHE:   18092550
L1D WQ	ACCESS:    7020548	FORWARD:        303	MERGED:          0	TO_CACHE:    7020548
L1D PQ	ACCESS:    1311343	FORWARD:          0	MERGED:          0	TO_CACHE:    1311343

L1D UNIQUE REGIONS ACCESSED: 0
L1D REGIONS CONFLICTS: 0
L1D Cross Page Prefetch Requests: 0
L1D Same Page Prefetch Requests: 1964767
L1D ROI Sum of L1D PQ occupancy: 17243589
L1D PREFETCHES PUSHED FROM L2C: 0
L1I TOTAL     ACCESS:   17546719  HIT:   17546719  MISS:          0  HIT %:        100  MISS %:          0   MPKI: 0
L1I LOAD      ACCESS:   17546719  HIT:   17546719  MISS:          0  HIT %:        100  MISS %:          0   MPKI: 0
L1I PREFETCH  REQUESTED:          0  ISSUED:          0  USEFUL:          0  USELESS:          0
L1I USEFUL LOAD PREFETCHES:          0 PREFETCH ISSUED TO LOWER LEVEL:          0  ACCURACY: -nan
L1I TIMELY PREFETCHES:          0 LATE PREFETCHES: 0 DROPPED PREFETCHES: 0
L1I PREFETCHES SAME FILL-ORIGIN LEVEL: 0 DIFFERENT FILL-ORIGIN LEVEL: 0
L1I AVERAGE MISS LATENCY: -nan cycles
L1I RQ	ACCESS:   22822334	FORWARD:          0	MERGED:    5275615	TO_CACHE:   17546719

BTB TOTAL     ACCESS:    1754584  HIT:    1754575  MISS:          9  HIT %:    99.9995  MISS %: 0.000512942   MPKI: 9e-05
BTB BRANCH_DIRECT_JUMP	ACCESS:        438  HIT:        436  MISS:          2
BTB BRANCH_INDIRECT	ACCESS:          0  HIT:          0  MISS:          0
BTB BRANCH_CONDITIONAL	ACCESS:    1753270  HIT:    1753267  MISS:          3
BTB BRANCH_DIRECT_CALL	ACCESS:        438  HIT:        436  MISS:          2
BTB BRANCH_INDIRECT_CALL	ACCESS:          0  HIT:          0  MISS:          0
BTB BRANCH_RETURN	ACCESS:        438  HIT:        436  MISS:          2
BTB BRANCH_OTHER ACCESS:          0  HIT:          0  MISS:          0

L2C TOTAL     ACCESS:    2220227  HIT:    1133048  MISS:    1087179  HIT %:     51.033  MISS %:     48.967   MPKI: 10.8718
L2C LOAD      ACCESS:      34945  HIT:       7171  MISS:      27774  HIT %:    20.5208  MISS %:    79.4792   MPKI: 0.27774
L2C DATA LOAD MPKI: 0.27774
L2C INSTRUCTION LOAD MPKI: 0
L2C RFO       ACCESS:       1533  HIT:       1533  MISS:          0  HIT %:        100  MISS %:          0   MPKI: 0
L2C PREFETCH  ACCESS:    1291537  HIT:     238028  MISS:    1053509  HIT %:    18.4298  MISS %:    81.5702   MPKI: 10.5351
L2C DATA PREFETCH MPKI: 10.5351
L2C INSTRUCTION PREFETCH MPKI: 0
L2C WRITEBACK ACCESS:     878491  HIT:     874399  MISS:       4092  HIT %:    99.5342  MISS %:   0.465799   MPKI: 0.04092
L2C LOAD TRANSLATION ACCESS:      13721  HIT:      11917  MISS:       1804  HIT %:    86.8523  MISS %:    13.1477   MPKI: 0.01804
L2C PREFETCH  REQUESTED:          0  ISSUED:          0  USEFUL:       1789  USELESS:    1051972
L2C USEFUL LOAD PREFETCHES:       1789 PREFETCH ISSUED TO LOWER LEVEL:    1053511  ACCURACY: 0.169813
L2C TIMELY PREFETCHES:       1789 LATE PREFETCHES: 0 DROPPED PREFETCHES: 0
L2C PREFETCHES SAME FILL-ORIGIN LEVEL: 0 DIFFERENT FILL-ORIGIN LEVEL: 0
L2C AVERAGE MISS LATENCY: 165.048 cycles
L2C RQ	ACCESS:      50199	FORWARD:          0	MERGED:          0	TO_CACHE:      50199
L2C WQ	ACCESS:     878491	FORWARD:          0	MERGED:          0	TO_CACHE:     878491
L2C PQ	ACCESS:    1291539	FORWARD:          0	MERGED:          0	TO_CACHE:    1291539

L2C Instructions Evicting Data 0
L2C Translations Evicting Data 1797
L2C Data Evicting Data 1079506
L2C Instructions Evicting Instructions 0
L2C Translations Evicting Instructions 0
L2C Data Evicting Instructions 0
L2C Instructions Evicting Translations 0
L2C Translations Evicting Translations 7
L2C Data Evicting Translations 1777
L2C Dense regions hint from L2: 0
PSCL5 TOTAL     ACCESS:      13718  HIT:      13718  MISS:          0  HIT %:        100  MISS %:          0   MPKI: 0
PSCL5 LOAD TRANSLATION ACCESS:      13718  HIT:      13718  MISS:          0  HIT %:        100  MISS %:          0   MPKI: 0
PSCL5 PREFETCH  REQUESTED:          0  ISSUED:          0  USEFUL:          0  USELESS:          0
PSCL5 USEFUL LOAD PREFETCHES:          0 PREFETCH ISSUED TO LOWER LEVEL:          0  ACCURACY: -nan
PSCL5 TIMELY PREFETCHES:          0 LATE PREFETCHES: 0 DROPPED PREFETCHES: 0
PSCL5 PREFETCHES SAME FILL-ORIGIN LEVEL: 0 DIFFERENT FILL-ORIGIN LEVEL: 0

PSCL4 TOTAL     ACCESS:      13718  HIT:      13718  MISS:          0  HIT %:        100  MISS %:          0   MPKI: 0
PSCL4 LOAD TRANSLATION ACCESS:      13718  HIT:      13718  MISS:          0  HIT %:        100  MISS %:          0   MPKI: 0
PSCL4 PREFETCH  REQUESTED:          0  ISSUED:          0  USEFUL:          0  USELESS:          0
PSCL4 USEFUL LOAD PREFETCHES:          0 PREFETCH ISSUED TO LOWER LEVEL:          0  ACCURACY: -nan
PSCL4 TIMELY PREFETCHES:          0 LATE PREFETCHES: 0 DROPPED PREFETCHES: 0
PSCL4 PREFETCHES SAME FILL-ORIGIN LEVEL: 0 DIFFERENT FILL-ORIGIN LEVEL: 0

PSCL3 TOTAL     ACCESS:      13718  HIT:      13716  MISS:          2  HIT %:    99.9854  MISS %:  0.0145794   MPKI: 2e-05
PSCL3 LOAD TRANSLATION ACCESS:      13718  HIT:      13716  MISS:          2  HIT %:    99.9854  MISS %:  0.0145794   MPKI: 2e-05
PSCL3 PREFETCH  REQUESTED:          0  ISSUED:          0  USEFUL:          0  USELESS:          0
PSCL3 USEFUL LOAD PREFETCHES:          0 PREFETCH ISSUED TO LOWER LEVEL:          0  ACCURACY: -nan
PSCL3 TIMELY PREFETCHES:          0 LATE PREFETCHES: 0 DROPPED PREFETCHES: 0
PSCL3 PREFETCHES SAME FILL-ORIGIN LEVEL: 0 DIFFERENT FILL-ORIGIN LEVEL: 0

PSCL2 TOTAL     ACCESS:      13718  HIT:      13674  MISS:         44  HIT %:    99.6793  MISS %:   0.320746   MPKI: 0.00044
PSCL2 LOAD TRANSLATION ACCESS:      13718  HIT:      13674  MISS:         44  HIT %:    99.6793  MISS %:   0.320746   MPKI: 0.00044
PSCL2 PREFETCH  REQUESTED:          0  ISSUED:          0  USEFUL:          0  USELESS:          0
PSCL2 USEFUL LOAD PREFETCHES:          0 PREFETCH ISSUED TO LOWER LEVEL:          0  ACCURACY: -nan
PSCL2 TIMELY PREFETCHES:          0 LATE PREFETCHES: 0 DROPPED PREFETCHES: 0
PSCL2 PREFETCHES SAME FILL-ORIGIN LEVEL: 0 DIFFERENT FILL-ORIGIN LEVEL: 0

LLC TOTAL     ACCESS:    1959824  HIT:    1066439  MISS:     893385  HIT %:     54.415  MISS %:     45.585   MPKI: 8.93385
LLC LOAD      ACCESS:      27774  HIT:      10078  MISS:      17696  HIT %:    36.2857  MISS %:    63.7143   MPKI: 0.17696
LLC PREFETCH  ACCESS:    1053509  HIT:     192860  MISS:     860649  HIT %:    18.3064  MISS %:    81.6936   MPKI: 8.60649
LLC WRITEBACK ACCESS:     876737  HIT:     863461  MISS:      13276  HIT %:    98.4857  MISS %:    1.51425   MPKI: 0.13276
LLC LOAD TRANSLATION ACCESS:       1804  HIT:         40  MISS:       1764  HIT %:    2.21729  MISS %:    97.7827   MPKI: 0.01764
LLC PREFETCH  REQUESTED:          0  ISSUED:          0  USEFUL:        671  USELESS:     860009
LLC USEFUL LOAD PREFETCHES:        671 PREFETCH ISSUED TO LOWER LEVEL:     860651  ACCURACY: 0.0779642
LLC TIMELY PREFETCHES:        671 LATE PREFETCHES: 0 DROPPED PREFETCHES: 0
LLC PREFETCHES SAME FILL-ORIGIN LEVEL: 0 DIFFERENT FILL-ORIGIN LEVEL: 0
LLC AVERAGE MISS LATENCY: 164.395 cycles
LLC RQ	ACCESS:      29578	FORWARD:          0	MERGED:          0	TO_CACHE:      29578
LLC WQ	ACCESS:     876737	FORWARD:          0	MERGED:          0	TO_CACHE:     876737
LLC PQ	ACCESS:    1053511	FORWARD:          0	MERGED:          0	TO_CACHE:    1053511

LLC Dense regions hint to LLC: 0

RAW hits: 1731
Loads Generated: 35084535
Loads sent to L1D: 35082797
Stores Generated: 7020542
Stores sent to L1D: 7020548
Major fault: 0 Minor fault: 20726
Allocated PAGES: 20726

stream: 
stream:times selected: 3982340
stream:pref_filled: 1883344
stream:pref_useful: 1876440
stream:pref_late: 10664
stream:misses: 316
stream:misses_by_poll: 0

CS: 
CS:times selected: 3217432
CS:pref_filled: 13751
CS:pref_useful: 13697
CS:pref_late: 1003
CS:misses: 57575
CS:misses_by_poll: 34

CPLX: 
CPLX:times selected: 764805
CPLX:pref_filled: 28841
CPLX:pref_useful: 28601
CPLX:pref_late: 372
CPLX:misses: 8853
CPLX:misses_by_poll: 24

NL_L1: 
NL:times selected: 41
NL:pref_filled: 10
NL:pref_useful: 10
NL:pref_late: 1
NL:misses: 1
NL:misses_by_poll: 0

total selections: 7964618
total_filled: 1279662
total_useful: 1275019
total_late: 12150
total_polluted: 58
total_misses_after_warmup: 88031
conflicts: 83996
Degree Incremented Times: 325639
Degree Decremented Times: 0

L1 IP Table Write Accesses: 17219466
L1 IP Table Read Accesses: 17135470
L1 RST Write Accesses: 2477702
L1 RST Read Accesses: 4955404
L1 CSPT Write Accesses: 2477702
L1 CSPT Read Accesses: 3335714
L1 RR Filter Tag Write Accesses: 1311343
L1 RR Filter Tag Read Accesses: 556984713
L1 IP Table Tag Write Accesses: 18092550
L1 IP Table Tag Read Accesses: 18092550
L1 RST Tag Write Accesses: 0
L1 RST Tag Read Accesses: 22347187
L1 RR Filter Write Accesses: 0
L1 RR Filter Read Accesses: 21188784
test: 95597

DRAM Statistics
 CHANNEL 0
 RQ ROW_BUFFER_HIT:      69803  ROW_BUFFER_MISS:     810306
 DBUS_CONGESTED:        173
 WQ ROW_BUFFER_HIT:     394151  ROW_BUFFER_MISS:     481759  FULL:          0

 AVG_CONGESTED_CYCLE: 5
 All warmup complete: 2
Channel 0 Bank busy for read cycles: 0
Channel 0 Bank busy for write cycles: 0
Channel 0
Rank 0
0banks busy for read cycles: 398660
0banks busy for write cycles: 3753
1banks busy for read cycles: 47900664
1banks busy for write cycles: 458633
2banks busy for read cycles: 27626475
2banks busy for write cycles: 510047
3banks busy for read cycles: 2275860
3banks busy for write cycles: 553438
4banks busy for read cycles: 222466
4banks busy for write cycles: 590425
5banks busy for read cycles: 108672
5banks busy for write cycles: 655971
6banks busy for read cycles: 236287
6banks busy for write cycles: 769491
7banks busy for read cycles: 1334962
7banks busy for write cycles: 2099520
8banks busy for read cycles: 359051
8banks busy for write cycles: 14048834

CPU 0 Branch Prediction Accuracy: 99.9751% MPKI: 0.00438 Average ROB Occupancy at Mispredict: 49.9954
Branch types
NOT_BRANCH: 98243563 98.2436%
BRANCH_DIRECT_JUMP: 438 0.000438%
BRANCH_INDIRECT: 0 0%
BRANCH_CONDITIONAL: 1754803 1.7548%
BRANCH_DIRECT_CALL: 438 0.000438%
BRANCH_INDIRECT_CALL: 0 0%
BRANCH_RETURN: 438 0.000438%
BRANCH_OTHER: 0 0%

DRAM PAGES: 1048576
Allocated PAGES: 20726
