Initialize SIGNATURE TABLE
ST_SET: 1
ST_WAY: 16
ST_TAG_BIT: 16
ST_TAG_MASK: ffff

Initialize PATTERN TABLE
PT_SET: 16
PT_WAY: 4
SIG_DELTA_BIT: 7
C_SIG_BIT: 4
C_DELTA_BIT: 4

Initialize PREFETCH FILTER
FILTER_SET: 1024

Initialize PERCEPTRON
PERC_ENTRIES: 4096
PERC_FEATURES: 9

*** ChampSim Multicore Out-of-Order Simulator ***

Warmup Instructions: 50000000
Simulation Instructions: 100000000
Number of CPUs: 1
LLC sets: 2048
LLC ways: 16
Off-chip DRAM Size: 4096 MB Channels: 1 Width: 64-bit Data Rate: 6400 MT/s
CPU 0 runs ../SPEC2017//649.fotonik3d_s-1176B.champsimtrace.xz
.xz
BTB has LRU replacement policy
ITLB has LRU replacement policy
DTLB has LRU replacement policy
STLB has LRU replacement policy
L1I has LRU replacement policy
L1D has LRU replacement policy
Initialize SRRIP state for L2C
Initialize DRRIP state for LLC
Heartbeat CPU 0 instructions: 10000000 cycles: 2911363 heartbeat IPC: 3.43482 cumulative IPC: 3.43482 (Simulation time: 0 hr 6 min 30 sec) 
Heartbeat CPU 0 instructions: 20000002 cycles: 5822632 heartbeat IPC: 3.43493 cumulative IPC: 3.43487 (Simulation time: 0 hr 12 min 54 sec) 
Heartbeat CPU 0 instructions: 30000001 cycles: 8733904 heartbeat IPC: 3.43492 cumulative IPC: 3.43489 (Simulation time: 0 hr 18 min 20 sec) 
Heartbeat CPU 0 instructions: 40000003 cycles: 11645161 heartbeat IPC: 3.43494 cumulative IPC: 3.4349 (Simulation time: 0 hr 23 min 15 sec) 
Heartbeat CPU 0 instructions: 50000001 cycles: 14556431 heartbeat IPC: 3.43493 cumulative IPC: 3.43491 (Simulation time: 0 hr 28 min 0 sec) 

Warmup complete CPU 0 instructions: 50000001 cycles: 14556431 (Simulation time: 0 hr 28 min 0 sec) 

Heartbeat CPU 0 instructions: 60000000 cycles: 31675134 heartbeat IPC: 0.584156 cumulative IPC: 0.584156 (Simulation time: 0 hr 35 min 22 sec) 
Heartbeat CPU 0 instructions: 70000001 cycles: 48820249 heartbeat IPC: 0.583257 cumulative IPC: 0.583706 (Simulation time: 0 hr 41 min 44 sec) 
Heartbeat CPU 0 instructions: 80000002 cycles: 65994986 heartbeat IPC: 0.582251 cumulative IPC: 0.58322 (Simulation time: 0 hr 47 min 46 sec) 
Heartbeat CPU 0 instructions: 90000000 cycles: 83173577 heartbeat IPC: 0.58212 cumulative IPC: 0.582945 (Simulation time: 0 hr 52 min 59 sec) 
Heartbeat CPU 0 instructions: 100000000 cycles: 100364497 heartbeat IPC: 0.581702 cumulative IPC: 0.582696 (Simulation time: 0 hr 57 min 58 sec) 
Heartbeat CPU 0 instructions: 110000000 cycles: 117547744 heartbeat IPC: 0.581962 cumulative IPC: 0.582573 (Simulation time: 1 hr 2 min 22 sec) 
Heartbeat CPU 0 instructions: 120000001 cycles: 134739518 heartbeat IPC: 0.581674 cumulative IPC: 0.582445 (Simulation time: 1 hr 6 min 42 sec) 
Heartbeat CPU 0 instructions: 130000003 cycles: 151936069 heartbeat IPC: 0.581512 cumulative IPC: 0.582328 (Simulation time: 1 hr 16 min 7 sec) 
Heartbeat CPU 0 instructions: 140000003 cycles: 169135975 heartbeat IPC: 0.581399 cumulative IPC: 0.582225 (Simulation time: 1 hr 27 min 14 sec) 
Heartbeat CPU 0 instructions: 150000001 cycles: 186331405 heartbeat IPC: 0.58155 cumulative IPC: 0.582157 (Simulation time: 1 hr 37 min 41 sec) 
Finished CPU 0 instructions: 100000000 cycles: 171774974 cumulative IPC: 0.582157 (Simulation time: 1 hr 37 min 41 sec) 

ChampSim completed all CPUs

Region of Interest Statistics

CPU 0 cumulative IPC: 0.582157 instructions: 100000000 cycles: 171774974

CPU 0 Average Load ROB stall cycles: 3.89885e+07
CPU 0 Fraction of times ROB stalled by Loads: 38.7796
CPU 0 Percentage of Load stall cycles in Total stall cycles: 1.22945e+08
Issued all: 135398166
Issued LT all: 125857568
rob_not_full_when_issued_lt_all: 29905350
Issued LT one: 112663977
rob_not_full_when_issued_lt_one: 24335150
 Total stall cycles: 146976215
 Total load stall cycles: 180699709045710
Unique Load IPs: 147
CPU 0 NUM of IPS identified critical: 5
CPU 0 Num of Load IPs stalling ROB: 0
Threshold modification factor: 0
Trouble in retire width: -nan
MaC = Marked as critical.
lt_50_percent_before_Mac: 4
gt_90_percent_before_Mac: 0
gt_75_percent_before_Mac: 0
gt_50_percent_before_Mac: 1
stall_proportion_bin_same_before_after: 0
stall_proportion_bin_lower_before_after: 0
stall_proportion_bin_upper_before_after: 0
average_stall_proportion_before: 0.014682
average_stall_proportion_after: 0.0146924
Critical_IP_Detector_Accuracy_70: 0
Critical_IP_Detector_Accuracy_80: 0
Critical_IP_Detector_Accuracy_90: 0
Critical_IP_Detector_Coverage_70: 0
Critical_IP_Detector_Coverage_80: 0
Critical_IP_Detector_Coverage_90: 0
stat_90_percent_critical_ip_stalls_freq: 489302
stat_90_percent_non_critical_ip_stalls_freq: 18446744073709062314
AVERAGE_ROB_Occupancy_90_Percent_Critical_IP_Stalls: 337.189
AVERAGE_ROB_Occupancy_90_Percent_Non_Critical_IP_Stalls: 2.36098e-11
Critical_IP_ROB_Stalls_Bucket_0: 15
Non-critical_IP_ROB_Stalls_Bucket_0: 114
Critical_IP_ROB_Stalls_Bucket_1: 22
Non-critical_IP_ROB_Stalls_Bucket_1: 607
Critical_IP_ROB_Stalls_Bucket_2: 11
Non-critical_IP_ROB_Stalls_Bucket_2: 650
Critical_IP_ROB_Stalls_Bucket_3: 18
Non-critical_IP_ROB_Stalls_Bucket_3: 444
Critical_IP_ROB_Stalls_Bucket_4: 31
Non-critical_IP_ROB_Stalls_Bucket_4: 883
Critical_IP_ROB_Stalls_Bucket_5: 330
Non-critical_IP_ROB_Stalls_Bucket_5: 225235
Critical_IP_ROB_Stalls_Bucket_6: 76830
Non-critical_IP_ROB_Stalls_Bucket_6: 1492124
0 => IPs accounting for >50 percent of stalls, 1 => 55, 2 => 60, 3 => 65 and so on till 90.
percent50: inf num IPs:  1
percent55: inf num IPs: 1
percent60: inf num IPs: 1
percent65: inf num IPs: 1
percent70: inf num IPs: 1
percent75: inf num IPs: 1
percent80: inf num IPs: 1
percent85: inf num IPs: 1
percent90: inf num IPs: 1
Critical_ROB_Stalls_Percent_0_Bucket_0: 29
Non-critical_ROB_Stalls_Percent_0_Bucket_0: 100
Critical_ROB_Stalls_Percent_0_Bucket_1: 52
Non-critical_ROB_Stalls_Percent_0_Bucket_1: 577
Critical_ROB_Stalls_Percent_0_Bucket_2: 95
Non-critical_ROB_Stalls_Percent_0_Bucket_2: 566
Critical_ROB_Stalls_Percent_0_Bucket_3: 125
Non-critical_ROB_Stalls_Percent_0_Bucket_3: 337
Critical_ROB_Stalls_Percent_0_Bucket_4: 158
Non-critical_ROB_Stalls_Percent_0_Bucket_4: 756
Critical_ROB_Stalls_Percent_0_Bucket_5: 41414
Non-critical_ROB_Stalls_Percent_0_Bucket_5: 184151
Critical_ROB_Stalls_Percent_0_Bucket_6: 447429
Non-critical_ROB_Stalls_Percent_0_Bucket_6: 1121525
Critical_ROB_Stalls_Percent_1_Bucket_0: 29
Non-critical_ROB_Stalls_Percent_1_Bucket_0: 100
Critical_ROB_Stalls_Percent_1_Bucket_1: 52
Non-critical_ROB_Stalls_Percent_1_Bucket_1: 577
Critical_ROB_Stalls_Percent_1_Bucket_2: 95
Non-critical_ROB_Stalls_Percent_1_Bucket_2: 566
Critical_ROB_Stalls_Percent_1_Bucket_3: 125
Non-critical_ROB_Stalls_Percent_1_Bucket_3: 337
Critical_ROB_Stalls_Percent_1_Bucket_4: 158
Non-critical_ROB_Stalls_Percent_1_Bucket_4: 756
Critical_ROB_Stalls_Percent_1_Bucket_5: 41414
Non-critical_ROB_Stalls_Percent_1_Bucket_5: 184151
Critical_ROB_Stalls_Percent_1_Bucket_6: 447429
Non-critical_ROB_Stalls_Percent_1_Bucket_6: 1121525
Critical_ROB_Stalls_Percent_2_Bucket_0: 29
Non-critical_ROB_Stalls_Percent_2_Bucket_0: 100
Critical_ROB_Stalls_Percent_2_Bucket_1: 52
Non-critical_ROB_Stalls_Percent_2_Bucket_1: 577
Critical_ROB_Stalls_Percent_2_Bucket_2: 95
Non-critical_ROB_Stalls_Percent_2_Bucket_2: 566
Critical_ROB_Stalls_Percent_2_Bucket_3: 125
Non-critical_ROB_Stalls_Percent_2_Bucket_3: 337
Critical_ROB_Stalls_Percent_2_Bucket_4: 158
Non-critical_ROB_Stalls_Percent_2_Bucket_4: 756
Critical_ROB_Stalls_Percent_2_Bucket_5: 41414
Non-critical_ROB_Stalls_Percent_2_Bucket_5: 184151
Critical_ROB_Stalls_Percent_2_Bucket_6: 447429
Non-critical_ROB_Stalls_Percent_2_Bucket_6: 1121525
Critical_ROB_Stalls_Percent_3_Bucket_0: 29
Non-critical_ROB_Stalls_Percent_3_Bucket_0: 100
Critical_ROB_Stalls_Percent_3_Bucket_1: 52
Non-critical_ROB_Stalls_Percent_3_Bucket_1: 577
Critical_ROB_Stalls_Percent_3_Bucket_2: 95
Non-critical_ROB_Stalls_Percent_3_Bucket_2: 566
Critical_ROB_Stalls_Percent_3_Bucket_3: 125
Non-critical_ROB_Stalls_Percent_3_Bucket_3: 337
Critical_ROB_Stalls_Percent_3_Bucket_4: 158
Non-critical_ROB_Stalls_Percent_3_Bucket_4: 756
Critical_ROB_Stalls_Percent_3_Bucket_5: 41414
Non-critical_ROB_Stalls_Percent_3_Bucket_5: 184151
Critical_ROB_Stalls_Percent_3_Bucket_6: 447429
Non-critical_ROB_Stalls_Percent_3_Bucket_6: 1121525
Critical_ROB_Stalls_Percent_4_Bucket_0: 29
Non-critical_ROB_Stalls_Percent_4_Bucket_0: 100
Critical_ROB_Stalls_Percent_4_Bucket_1: 52
Non-critical_ROB_Stalls_Percent_4_Bucket_1: 577
Critical_ROB_Stalls_Percent_4_Bucket_2: 95
Non-critical_ROB_Stalls_Percent_4_Bucket_2: 566
Critical_ROB_Stalls_Percent_4_Bucket_3: 125
Non-critical_ROB_Stalls_Percent_4_Bucket_3: 337
Critical_ROB_Stalls_Percent_4_Bucket_4: 158
Non-critical_ROB_Stalls_Percent_4_Bucket_4: 756
Critical_ROB_Stalls_Percent_4_Bucket_5: 41414
Non-critical_ROB_Stalls_Percent_4_Bucket_5: 184151
Critical_ROB_Stalls_Percent_4_Bucket_6: 447429
Non-critical_ROB_Stalls_Percent_4_Bucket_6: 1121525
Critical_ROB_Stalls_Percent_5_Bucket_0: 29
Non-critical_ROB_Stalls_Percent_5_Bucket_0: 100
Critical_ROB_Stalls_Percent_5_Bucket_1: 52
Non-critical_ROB_Stalls_Percent_5_Bucket_1: 577
Critical_ROB_Stalls_Percent_5_Bucket_2: 95
Non-critical_ROB_Stalls_Percent_5_Bucket_2: 566
Critical_ROB_Stalls_Percent_5_Bucket_3: 125
Non-critical_ROB_Stalls_Percent_5_Bucket_3: 337
Critical_ROB_Stalls_Percent_5_Bucket_4: 158
Non-critical_ROB_Stalls_Percent_5_Bucket_4: 756
Critical_ROB_Stalls_Percent_5_Bucket_5: 41414
Non-critical_ROB_Stalls_Percent_5_Bucket_5: 184151
Critical_ROB_Stalls_Percent_5_Bucket_6: 447429
Non-critical_ROB_Stalls_Percent_5_Bucket_6: 1121525
Critical_ROB_Stalls_Percent_6_Bucket_0: 29
Non-critical_ROB_Stalls_Percent_6_Bucket_0: 100
Critical_ROB_Stalls_Percent_6_Bucket_1: 52
Non-critical_ROB_Stalls_Percent_6_Bucket_1: 577
Critical_ROB_Stalls_Percent_6_Bucket_2: 95
Non-critical_ROB_Stalls_Percent_6_Bucket_2: 566
Critical_ROB_Stalls_Percent_6_Bucket_3: 125
Non-critical_ROB_Stalls_Percent_6_Bucket_3: 337
Critical_ROB_Stalls_Percent_6_Bucket_4: 158
Non-critical_ROB_Stalls_Percent_6_Bucket_4: 756
Critical_ROB_Stalls_Percent_6_Bucket_5: 41414
Non-critical_ROB_Stalls_Percent_6_Bucket_5: 184151
Critical_ROB_Stalls_Percent_6_Bucket_6: 447429
Non-critical_ROB_Stalls_Percent_6_Bucket_6: 1121525
Critical_ROB_Stalls_Percent_7_Bucket_0: 29
Non-critical_ROB_Stalls_Percent_7_Bucket_0: 100
Critical_ROB_Stalls_Percent_7_Bucket_1: 52
Non-critical_ROB_Stalls_Percent_7_Bucket_1: 577
Critical_ROB_Stalls_Percent_7_Bucket_2: 95
Non-critical_ROB_Stalls_Percent_7_Bucket_2: 566
Critical_ROB_Stalls_Percent_7_Bucket_3: 125
Non-critical_ROB_Stalls_Percent_7_Bucket_3: 337
Critical_ROB_Stalls_Percent_7_Bucket_4: 158
Non-critical_ROB_Stalls_Percent_7_Bucket_4: 756
Critical_ROB_Stalls_Percent_7_Bucket_5: 41414
Non-critical_ROB_Stalls_Percent_7_Bucket_5: 184151
Critical_ROB_Stalls_Percent_7_Bucket_6: 447429
Non-critical_ROB_Stalls_Percent_7_Bucket_6: 1121525
Critical_ROB_Stalls_Percent_8_Bucket_0: 29
Non-critical_ROB_Stalls_Percent_8_Bucket_0: 100
Critical_ROB_Stalls_Percent_8_Bucket_1: 52
Non-critical_ROB_Stalls_Percent_8_Bucket_1: 577
Critical_ROB_Stalls_Percent_8_Bucket_2: 95
Non-critical_ROB_Stalls_Percent_8_Bucket_2: 566
Critical_ROB_Stalls_Percent_8_Bucket_3: 125
Non-critical_ROB_Stalls_Percent_8_Bucket_3: 337
Critical_ROB_Stalls_Percent_8_Bucket_4: 158
Non-critical_ROB_Stalls_Percent_8_Bucket_4: 756
Critical_ROB_Stalls_Percent_8_Bucket_5: 41414
Non-critical_ROB_Stalls_Percent_8_Bucket_5: 184151
Critical_ROB_Stalls_Percent_8_Bucket_6: 447429
Non-critical_ROB_Stalls_Percent_8_Bucket_6: 1121525
Average ROB occupancy Load Stall Begin: 306.073
Average ROB occupancy Load Stall End: 334.115
Min ROB occupancy Load Stall Begin: 9
Max ROB occupancy Load Stall Begin: 352
Min ROB occupancy Load Stall End: 9
Max ROB occupancy Load Stall End: 352
Average ROB occupancy Critical Load Stall Begin: 327.396
Average ROB occupancy Critical Load Stall End: 335.681
Min ROB occupancy Critical Load Stall Begin: 12
Max ROB occupancy Critical Load Stall Begin: 352
Min ROB occupancy Critical Load Stall End: 12
Max ROB occupancy Critical Load Stall End: 352
 ROB Load Stall Begin Bucket Count 0: 335
 ROB Load Stall End Bucket Count 0: 129
 ROB Critical Load Stall Begin Bucket Count 0: 11
 ROB Critical Load Stall End Bucket Count 0: 11
 ROB Load Stall Begin Bucket Count 1: 875
 ROB Load Stall End Bucket Count 1: 629
 ROB Critical Load Stall Begin Bucket Count 1: 18
 ROB Critical Load Stall End Bucket Count 1: 18
 ROB Load Stall Begin Bucket Count 2: 676
 ROB Load Stall End Bucket Count 2: 661
 ROB Critical Load Stall Begin Bucket Count 2: 8
 ROB Critical Load Stall End Bucket Count 2: 8
 ROB Load Stall Begin Bucket Count 3: 548
 ROB Load Stall End Bucket Count 3: 462
 ROB Critical Load Stall Begin Bucket Count 3: 17
 ROB Critical Load Stall End Bucket Count 3: 15
 ROB Load Stall Begin Bucket Count 4: 189383
 ROB Load Stall End Bucket Count 4: 914
 ROB Critical Load Stall Begin Bucket Count 4: 22
 ROB Critical Load Stall End Bucket Count 4: 24
 ROB Load Stall Begin Bucket Count 5: 594384
 ROB Load Stall End Bucket Count 5: 225565
 ROB Critical Load Stall Begin Bucket Count 5: 2205
 ROB Critical Load Stall End Bucket Count 5: 245
 ROB Load Stall Begin Bucket Count 6: 1011113
 ROB Load Stall End Bucket Count 6: 1568954
 ROB Critical Load Stall Begin Bucket Count 6: 58717
 ROB Critical Load Stall End Bucket Count 6: 60677
PIST Tag Read Accesses: 0
PIST Read Accesses: 0
PIST Tag Write Accesses: 0
PIST Write Accesses: 0
Criticality detector called times: 0
Max global_stall_cycles_count: 0
Threshold Modified: 0 times, factor: 0
Sturdy critical IP cache stats: 
 Unused entries: 0
CIC Tag Read Accesses: 0
CIC Read Accesses: 0
CIC Tag Write Accesses: 0
CIC Write Accesses: 0
Wobbly critical IP cache stats: 
 Unused entries: 24
CIC Tag Read Accesses: 346837974
CIC Read Accesses: 0
CIC Tag Write Accesses: 3377269
CIC Write Accesses: 0
ITLB TOTAL     ACCESS:   14217570  HIT:   14217570  MISS:          0  HIT %:        100  MISS %:          0   MPKI: 0
ITLB LOAD TRANSLATION ACCESS:   14217570  HIT:   14217570  MISS:          0  HIT %:        100  MISS %:          0   MPKI: 0
ITLB PREFETCH  REQUESTED:          0  ISSUED:          0  USEFUL:          0  USELESS:          0
ITLB USEFUL LOAD PREFETCHES:          0 PREFETCH ISSUED TO LOWER LEVEL:          0  ACCURACY: -nan
ITLB TIMELY PREFETCHES:          0 LATE PREFETCHES: 0 DROPPED PREFETCHES: 0
ITLB PREFETCHES SAME FILL-ORIGIN LEVEL: 0 DIFFERENT FILL-ORIGIN LEVEL: 0
ITLB AVERAGE MISS LATENCY: -nan cycles
ITLB RQ	ACCESS:   17742675	FORWARD:          0	MERGED:    3525106	TO_CACHE:   14217569

DTLB TOTAL     ACCESS:   13022690  HIT:   12999088  MISS:      23602  HIT %:    99.8188  MISS %:   0.181238   MPKI: 0.23602
DTLB LOAD TRANSLATION ACCESS:   13022690  HIT:   12999088  MISS:      23602  HIT %:    99.8188  MISS %:   0.181238   MPKI: 0.23602
DTLB PREFETCH  REQUESTED:          0  ISSUED:          0  USEFUL:          0  USELESS:          0
DTLB USEFUL LOAD PREFETCHES:          0 PREFETCH ISSUED TO LOWER LEVEL:          0  ACCURACY: -nan
DTLB TIMELY PREFETCHES:          0 LATE PREFETCHES: 0 DROPPED PREFETCHES: 0
DTLB PREFETCHES SAME FILL-ORIGIN LEVEL: 0 DIFFERENT FILL-ORIGIN LEVEL: 0
DTLB AVERAGE MISS LATENCY: 88.8994 cycles
DTLB RQ	ACCESS:   19889332	FORWARD:          0	MERGED:    6865343	TO_CACHE:   13023989

STLB TOTAL     ACCESS:      23602  HIT:       9884  MISS:      13718  HIT %:    41.8778  MISS %:    58.1222   MPKI: 0.13718
STLB LOAD TRANSLATION ACCESS:      23602  HIT:       9884  MISS:      13718  HIT %:    41.8778  MISS %:    58.1222   MPKI: 0.13718
STLB PREFETCH  REQUESTED:          0  ISSUED:          0  USEFUL:          0  USELESS:          0
STLB USEFUL LOAD PREFETCHES:          0 PREFETCH ISSUED TO LOWER LEVEL:          0  ACCURACY: -nan
STLB TIMELY PREFETCHES:          0 LATE PREFETCHES: 0 DROPPED PREFETCHES: 0
STLB PREFETCHES SAME FILL-ORIGIN LEVEL: 0 DIFFERENT FILL-ORIGIN LEVEL: 0
STLB AVERAGE MISS LATENCY: 137.377 cycles
STLB RQ	ACCESS:      23602	FORWARD:          0	MERGED:          0	TO_CACHE:      23602

STLB Hit, L1D data hit: 0
STLB Hit, L2C data hit: 0
STLB Hit, LLC data hit: 0
STLB Hit, LLC data miss: 0
STLB STLB hints to L2: 0
L1D TOTAL     ACCESS:   18912128  HIT:   17588756  MISS:    1323372  HIT %:    93.0025  MISS %:    6.99748   MPKI: 13.2337
L1D LOAD      ACCESS:   11894250  HIT:   10572411  MISS:    1321839  HIT %:    88.8867  MISS %:    11.1133   MPKI: 13.2184
L1D RFO       ACCESS:    7017878  HIT:    7016345  MISS:       1533  HIT %:    99.9782  MISS %:  0.0218442   MPKI: 0.01533
L1D PREFETCH  REQUESTED:          0  ISSUED:          0  USEFUL:          0  USELESS:          0
L1D USEFUL LOAD PREFETCHES:          0 PREFETCH ISSUED TO LOWER LEVEL:          0  ACCURACY: -nan
L1D TIMELY PREFETCHES:          0 LATE PREFETCHES: 0 DROPPED PREFETCHES: 0
L1D PREFETCHES SAME FILL-ORIGIN LEVEL: 0 DIFFERENT FILL-ORIGIN LEVEL: 0
L1D AVERAGE MISS LATENCY: 148.539 cycles
L1D RQ	ACCESS:   35082821	FORWARD:          0	MERGED:   22213690	TO_CACHE:   12868784
L1D WQ	ACCESS:    7020548	FORWARD:        347	MERGED:          0	TO_CACHE:    7020548

L1D UNIQUE REGIONS ACCESSED: 0
L1D REGIONS CONFLICTS: 0
L1D Cross Page Prefetch Requests: 0
L1D Same Page Prefetch Requests: 0
L1D ROI Sum of L1D PQ occupancy: 0
L1D PREFETCHES PUSHED FROM L2C: 0
L1I TOTAL     ACCESS:   17742674  HIT:   17742674  MISS:          0  HIT %:        100  MISS %:          0   MPKI: 0
L1I LOAD      ACCESS:   17742674  HIT:   17742674  MISS:          0  HIT %:        100  MISS %:          0   MPKI: 0
L1I PREFETCH  REQUESTED:          0  ISSUED:          0  USEFUL:          0  USELESS:          0
L1I USEFUL LOAD PREFETCHES:          0 PREFETCH ISSUED TO LOWER LEVEL:          0  ACCURACY: -nan
L1I TIMELY PREFETCHES:          0 LATE PREFETCHES: 0 DROPPED PREFETCHES: 0
L1I PREFETCHES SAME FILL-ORIGIN LEVEL: 0 DIFFERENT FILL-ORIGIN LEVEL: 0
L1I AVERAGE MISS LATENCY: -nan cycles
L1I RQ	ACCESS:   24392175	FORWARD:          0	MERGED:    6649500	TO_CACHE:   17742675

BTB TOTAL     ACCESS:    1754589  HIT:    1754580  MISS:          9  HIT %:    99.9995  MISS %: 0.000512941   MPKI: 9e-05
BTB BRANCH_DIRECT_JUMP	ACCESS:        438  HIT:        436  MISS:          2
BTB BRANCH_INDIRECT	ACCESS:          0  HIT:          0  MISS:          0
BTB BRANCH_CONDITIONAL	ACCESS:    1753275  HIT:    1753272  MISS:          3
BTB BRANCH_DIRECT_CALL	ACCESS:        438  HIT:        436  MISS:          2
BTB BRANCH_INDIRECT_CALL	ACCESS:          0  HIT:          0  MISS:          0
BTB BRANCH_RETURN	ACCESS:        438  HIT:        436  MISS:          2
BTB BRANCH_OTHER ACCESS:          0  HIT:          0  MISS:          0

L2C TOTAL     ACCESS:    2215598  HIT:    1280404  MISS:     935194  HIT %:    57.7904  MISS %:    42.2096   MPKI: 9.35194
L2C LOAD      ACCESS:    1321839  HIT:     395913  MISS:     925926  HIT %:    29.9517  MISS %:    70.0483   MPKI: 9.25926
L2C DATA LOAD MPKI: 9.25926
L2C INSTRUCTION LOAD MPKI: 0
L2C RFO       ACCESS:       1533  HIT:       1531  MISS:          2  HIT %:    99.8695  MISS %:   0.130463   MPKI: 2e-05
L2C PREFETCH  ACCESS:          3  HIT:          2  MISS:          1  HIT %:    66.6667  MISS %:    33.3333   MPKI: 1e-05
L2C DATA PREFETCH MPKI: 1e-05
L2C INSTRUCTION PREFETCH MPKI: 0
L2C WRITEBACK ACCESS:     878502  HIT:     871049  MISS:       7453  HIT %:    99.1516  MISS %:   0.848376   MPKI: 0.07453
L2C LOAD TRANSLATION ACCESS:      13721  HIT:      11909  MISS:       1812  HIT %:     86.794  MISS %:     13.206   MPKI: 0.01812
L2C PREFETCH  REQUESTED:          4  ISSUED:          4  USEFUL:         15  USELESS:         41
L2C USEFUL LOAD PREFETCHES:         15 PREFETCH ISSUED TO LOWER LEVEL:          1  ACCURACY: 1500
L2C TIMELY PREFETCHES:         15 LATE PREFETCHES: 0 DROPPED PREFETCHES: 0
L2C PREFETCHES SAME FILL-ORIGIN LEVEL: 1 DIFFERENT FILL-ORIGIN LEVEL: 0
L2C AVERAGE MISS LATENCY: 189.245 cycles
L2C RQ	ACCESS:    1337094	FORWARD:          0	MERGED:          0	TO_CACHE:    1337094
L2C WQ	ACCESS:     878502	FORWARD:          0	MERGED:          0	TO_CACHE:     878502
L2C PQ	ACCESS:          4	FORWARD:          0	MERGED:          1	TO_CACHE:          3

L2C Instructions Evicting Data 0
L2C Translations Evicting Data 1804
L2C Data Evicting Data 924149
L2C Instructions Evicting Instructions 0
L2C Translations Evicting Instructions 0
L2C Data Evicting Instructions 0
L2C Instructions Evicting Translations 0
L2C Translations Evicting Translations 8
L2C Data Evicting Translations 1780
L2C Dense regions hint from L2: 0
PSCL5 TOTAL     ACCESS:      13718  HIT:      13718  MISS:          0  HIT %:        100  MISS %:          0   MPKI: 0
PSCL5 LOAD TRANSLATION ACCESS:      13718  HIT:      13718  MISS:          0  HIT %:        100  MISS %:          0   MPKI: 0
PSCL5 PREFETCH  REQUESTED:          0  ISSUED:          0  USEFUL:          0  USELESS:          0
PSCL5 USEFUL LOAD PREFETCHES:          0 PREFETCH ISSUED TO LOWER LEVEL:          0  ACCURACY: -nan
PSCL5 TIMELY PREFETCHES:          0 LATE PREFETCHES: 0 DROPPED PREFETCHES: 0
PSCL5 PREFETCHES SAME FILL-ORIGIN LEVEL: 0 DIFFERENT FILL-ORIGIN LEVEL: 0

PSCL4 TOTAL     ACCESS:      13718  HIT:      13718  MISS:          0  HIT %:        100  MISS %:          0   MPKI: 0
PSCL4 LOAD TRANSLATION ACCESS:      13718  HIT:      13718  MISS:          0  HIT %:        100  MISS %:          0   MPKI: 0
PSCL4 PREFETCH  REQUESTED:          0  ISSUED:          0  USEFUL:          0  USELESS:          0
PSCL4 USEFUL LOAD PREFETCHES:          0 PREFETCH ISSUED TO LOWER LEVEL:          0  ACCURACY: -nan
PSCL4 TIMELY PREFETCHES:          0 LATE PREFETCHES: 0 DROPPED PREFETCHES: 0
PSCL4 PREFETCHES SAME FILL-ORIGIN LEVEL: 0 DIFFERENT FILL-ORIGIN LEVEL: 0

PSCL3 TOTAL     ACCESS:      13718  HIT:      13716  MISS:          2  HIT %:    99.9854  MISS %:  0.0145794   MPKI: 2e-05
PSCL3 LOAD TRANSLATION ACCESS:      13718  HIT:      13716  MISS:          2  HIT %:    99.9854  MISS %:  0.0145794   MPKI: 2e-05
PSCL3 PREFETCH  REQUESTED:          0  ISSUED:          0  USEFUL:          0  USELESS:          0
PSCL3 USEFUL LOAD PREFETCHES:          0 PREFETCH ISSUED TO LOWER LEVEL:          0  ACCURACY: -nan
PSCL3 TIMELY PREFETCHES:          0 LATE PREFETCHES: 0 DROPPED PREFETCHES: 0
PSCL3 PREFETCHES SAME FILL-ORIGIN LEVEL: 0 DIFFERENT FILL-ORIGIN LEVEL: 0

PSCL2 TOTAL     ACCESS:      13718  HIT:      13674  MISS:         44  HIT %:    99.6793  MISS %:   0.320746   MPKI: 0.00044
PSCL2 LOAD TRANSLATION ACCESS:      13718  HIT:      13674  MISS:         44  HIT %:    99.6793  MISS %:   0.320746   MPKI: 0.00044
PSCL2 PREFETCH  REQUESTED:          0  ISSUED:          0  USEFUL:          0  USELESS:          0
PSCL2 USEFUL LOAD PREFETCHES:          0 PREFETCH ISSUED TO LOWER LEVEL:          0  ACCURACY: -nan
PSCL2 TIMELY PREFETCHES:          0 LATE PREFETCHES: 0 DROPPED PREFETCHES: 0
PSCL2 PREFETCHES SAME FILL-ORIGIN LEVEL: 0 DIFFERENT FILL-ORIGIN LEVEL: 0

LLC TOTAL     ACCESS:    1804068  HIT:     911088  MISS:     892980  HIT %:    50.5019  MISS %:    49.4981   MPKI: 8.9298
LLC LOAD      ACCESS:     925926  HIT:      47978  MISS:     877948  HIT %:    5.18162  MISS %:    94.8184   MPKI: 8.77948
LLC RFO       ACCESS:          2  HIT:          2  MISS:          0  HIT %:        100  MISS %:          0   MPKI: 0
LLC PREFETCH  ACCESS:          1  HIT:          0  MISS:          1  HIT %:          0  MISS %:        100   MPKI: 1e-05
LLC WRITEBACK ACCESS:     876327  HIT:     863060  MISS:      13267  HIT %:    98.4861  MISS %:    1.51393   MPKI: 0.13267
LLC LOAD TRANSLATION ACCESS:       1812  HIT:         48  MISS:       1764  HIT %:    2.64901  MISS %:     97.351   MPKI: 0.01764
LLC PREFETCH  REQUESTED:          0  ISSUED:          0  USEFUL:         22  USELESS:      31270
LLC USEFUL LOAD PREFETCHES:         22 PREFETCH ISSUED TO LOWER LEVEL:          1  ACCURACY: 2200
LLC TIMELY PREFETCHES:         22 LATE PREFETCHES: 0 DROPPED PREFETCHES: 0
LLC PREFETCHES SAME FILL-ORIGIN LEVEL: 0 DIFFERENT FILL-ORIGIN LEVEL: 0
LLC AVERAGE MISS LATENCY: 167.004 cycles
LLC RQ	ACCESS:     927741	FORWARD:          0	MERGED:          0	TO_CACHE:     927741
LLC WQ	ACCESS:     876327	FORWARD:          0	MERGED:          0	TO_CACHE:     876327
LLC PQ	ACCESS:          1	FORWARD:          0	MERGED:          0	TO_CACHE:          1

LLC Dense regions hint to LLC: 0

RAW hits: 1731
Loads Generated: 35084556
Loads sent to L1D: 35082821
Stores Generated: 7020544
Stores sent to L1D: 7020548
Major fault: 0 Minor fault: 20726
Allocated PAGES: 20726
------------------
Depth Distribution
------------------
depth 0: 453
depth 1: 173
depth 2: 114
depth 3: 812
depth 4: 9374
depth 5: 110999
depth 6: 116665
depth 7: 202861
depth 8: 69104
depth 9: 30637
depth 10: 1770
depth 11: 1425
depth 12: 25
depth 13: 0
depth 14: 0
depth 15: 0
depth 16: 0
depth 17: 0
depth 18: 0
depth 19: 0
depth 20: 0
depth 21: 0
depth 22: 0
depth 23: 0
depth 24: 0
depth 25: 0
depth 26: 0
depth 27: 0
depth 28: 0
depth 29: 0
Total: 544412
------------------
ST read accesses: 153
ST write accesses: 0
PT read accesses: 638
PT write accesses: 1
FILTER read accesses: 657127
FILTER write accesses: 1313327
GHR read accesses: 0
GHR write accesses: 0
PERC read accesses: 5706
PERC write accesses: 34
GHR counter read accesses: 306
GHR counter write accesses: 157
GHR ip read accesses: 1392
GHR ip write accesses: 612
ST tag read accesses: 2907
ST tag write accesses: 158

DRAM Statistics
 CHANNEL 0
 RQ ROW_BUFFER_HIT:       4403  ROW_BUFFER_MISS:     875311
 DBUS_CONGESTED:        135
 WQ ROW_BUFFER_HIT:     783672  ROW_BUFFER_MISS:      93008  FULL:          0

 AVG_CONGESTED_CYCLE: 6
 All warmup complete: 2
Channel 0 Bank busy for read cycles: 0
Channel 0 Bank busy for write cycles: 0
Channel 0
Rank 0
0banks busy for read cycles: 1418183
0banks busy for write cycles: 15182
1banks busy for read cycles: 70229044
1banks busy for write cycles: 5696656
2banks busy for read cycles: 30643056
2banks busy for write cycles: 27177552
3banks busy for read cycles: 826
3banks busy for write cycles: 25826759
4banks busy for read cycles: 0
4banks busy for write cycles: 6124354
5banks busy for read cycles: 0
5banks busy for write cycles: 4081710
6banks busy for read cycles: 0
6banks busy for write cycles: 464162
7banks busy for read cycles: 0
7banks busy for write cycles: 93276
8banks busy for read cycles: 0
8banks busy for write cycles: 4215

CPU 0 Branch Prediction Accuracy: 99.9751% MPKI: 0.00438 Average ROB Occupancy at Mispredict: 313.043
Branch types
NOT_BRANCH: 98243848 98.2438%
BRANCH_DIRECT_JUMP: 438 0.000438%
BRANCH_INDIRECT: 0 0%
BRANCH_CONDITIONAL: 1754808 1.75481%
BRANCH_DIRECT_CALL: 438 0.000438%
BRANCH_INDIRECT_CALL: 0 0%
BRANCH_RETURN: 438 0.000438%
BRANCH_OTHER: 0 0%

DRAM PAGES: 1048576
Allocated PAGES: 20726
