Initialize SIGNATURE TABLE
ST_SET: 1
ST_WAY: 256
ST_TAG_BIT: 16
ST_TAG_MASK: ffff

Initialize PATTERN TABLE
PT_SET: 512
PT_WAY: 4
SIG_DELTA_BIT: 7
C_SIG_BIT: 4
C_DELTA_BIT: 4

Initialize PREFETCH FILTER
FILTER_SET: 1024

*** ChampSim Multicore Out-of-Order Simulator ***

Warmup Instructions: 50000000
Simulation Instructions: 100000000
Number of CPUs: 1
LLC sets: 2048
LLC ways: 16
Off-chip DRAM Size: 4096 MB Channels: 1 Width: 64-bit Data Rate: 6400 MT/s
CPU 0 runs ../SPEC2017//649.fotonik3d_s-7084B.champsimtrace.xz
.xz
BTB has LRU replacement policy
ITLB has LRU replacement policy
DTLB has LRU replacement policy
STLB has LRU replacement policy
L1I has LRU replacement policy
L1D has LRU replacement policy
Initialize SRRIP state for L2C
Initialize DRRIP state for LLC
Heartbeat CPU 0 instructions: 10000001 cycles: 2917180 heartbeat IPC: 3.42797 cumulative IPC: 3.42797 (Simulation time: 0 hr 6 min 2 sec) 
Heartbeat CPU 0 instructions: 20000001 cycles: 5834072 heartbeat IPC: 3.42831 cumulative IPC: 3.42814 (Simulation time: 0 hr 11 min 26 sec) 
Heartbeat CPU 0 instructions: 30000001 cycles: 8754597 heartbeat IPC: 3.42404 cumulative IPC: 3.42677 (Simulation time: 0 hr 16 min 15 sec) 
Heartbeat CPU 0 instructions: 40000003 cycles: 11679536 heartbeat IPC: 3.41888 cumulative IPC: 3.42479 (Simulation time: 0 hr 20 min 50 sec) 
Heartbeat CPU 0 instructions: 50000002 cycles: 14611691 heartbeat IPC: 3.41046 cumulative IPC: 3.42192 (Simulation time: 0 hr 25 min 25 sec) 

Warmup complete CPU 0 instructions: 50000002 cycles: 14611691 (Simulation time: 0 hr 25 min 25 sec) 

Heartbeat CPU 0 instructions: 60000000 cycles: 24885193 heartbeat IPC: 0.973378 cumulative IPC: 0.973378 (Simulation time: 0 hr 31 min 8 sec) 
Heartbeat CPU 0 instructions: 70000002 cycles: 35110226 heartbeat IPC: 0.977992 cumulative IPC: 0.975679 (Simulation time: 0 hr 36 min 14 sec) 
Heartbeat CPU 0 instructions: 80000001 cycles: 45333722 heartbeat IPC: 0.978139 cumulative IPC: 0.976498 (Simulation time: 0 hr 40 min 53 sec) 
Heartbeat CPU 0 instructions: 90000001 cycles: 55569859 heartbeat IPC: 0.976931 cumulative IPC: 0.976606 (Simulation time: 0 hr 45 min 25 sec) 
Heartbeat CPU 0 instructions: 100000003 cycles: 65794578 heartbeat IPC: 0.978022 cumulative IPC: 0.976889 (Simulation time: 0 hr 49 min 39 sec) 
Heartbeat CPU 0 instructions: 110000000 cycles: 76016551 heartbeat IPC: 0.978284 cumulative IPC: 0.977121 (Simulation time: 0 hr 53 min 36 sec) 
Heartbeat CPU 0 instructions: 120000000 cycles: 86225909 heartbeat IPC: 0.979493 cumulative IPC: 0.977459 (Simulation time: 0 hr 57 min 17 sec) 
Heartbeat CPU 0 instructions: 130000003 cycles: 96429064 heartbeat IPC: 0.980089 cumulative IPC: 0.977787 (Simulation time: 1 hr 0 min 39 sec) 
Heartbeat CPU 0 instructions: 140000001 cycles: 106658969 heartbeat IPC: 0.977526 cumulative IPC: 0.977758 (Simulation time: 1 hr 3 min 54 sec) 
Heartbeat CPU 0 instructions: 150000001 cycles: 116884892 heartbeat IPC: 0.977907 cumulative IPC: 0.977773 (Simulation time: 1 hr 9 min 4 sec) 
Finished CPU 0 instructions: 100000000 cycles: 102273202 cumulative IPC: 0.977773 (Simulation time: 1 hr 9 min 4 sec) 

ChampSim completed all CPUs

Region of Interest Statistics

CPU 0 cumulative IPC: 0.977773 instructions: 100000000 cycles: 102273202

CPU 0 Average Load ROB stall cycles: 2.30799e+07
CPU 0 Fraction of times ROB stalled by Loads: 34.9863
CPU 0 Percentage of Load stall cycles in Total stall cycles: 2.83002e+08
Issued all: 53540793
Issued LT all: 37516774
rob_not_full_when_issued_lt_all: 34732469
Issued LT one: 34479442
rob_not_full_when_issued_lt_one: 32023240
FVP critical_dynamic_instances_0: 21282663
FVP unique_critical_ips_0: 74
 Total stall cycles: 78646102
 Total load stall cycles: 222569801263363
Unique Load IPs: 242
CPU 0 NUM of IPS identified critical: 0
CPU 0 Num of Load IPs stalling ROB: 0
Threshold modification factor: 0
Trouble in retire width: -nan
MaC = Marked as critical.
lt_50_percent_before_Mac: 0
gt_90_percent_before_Mac: 0
gt_75_percent_before_Mac: 0
gt_50_percent_before_Mac: 0
stall_proportion_bin_same_before_after: 0
stall_proportion_bin_lower_before_after: 0
stall_proportion_bin_upper_before_after: 0
average_stall_proportion_before: -nan
average_stall_proportion_after: -nan
Critical IP stalls, total frequency: 0
Non-critical IP stalls, total frequency: 0
Total Freq all stalling IPs: 0
Critical_IP_Detector_Accuracy_70: 0.0135135
Critical_IP_Detector_Accuracy_80: 0.0135135
Critical_IP_Detector_Accuracy_90: 0.0135135
Critical_IP_Detector_Coverage_70: 1
Critical_IP_Detector_Coverage_80: 1
Critical_IP_Detector_Coverage_90: 1
stat_90_percent_critical_ip_stalls_freq: 360138
stat_90_percent_non_critical_ip_stalls_freq: 18446744073709191478
AVERAGE_ROB_Occupancy_90_Percent_Critical_IP_Stalls: 66.5872
AVERAGE_ROB_Occupancy_90_Percent_Non_Critical_IP_Stalls: 1.47812e-11
Critical_IP_ROB_Stalls_Bucket_0: 0
Non-critical_IP_ROB_Stalls_Bucket_0: 1469920
Critical_IP_ROB_Stalls_Bucket_1: 0
Non-critical_IP_ROB_Stalls_Bucket_1: 1049061
Critical_IP_ROB_Stalls_Bucket_2: 0
Non-critical_IP_ROB_Stalls_Bucket_2: 224303
Critical_IP_ROB_Stalls_Bucket_3: 0
Non-critical_IP_ROB_Stalls_Bucket_3: 185383
Critical_IP_ROB_Stalls_Bucket_4: 0
Non-critical_IP_ROB_Stalls_Bucket_4: 224223
Critical_IP_ROB_Stalls_Bucket_5: 0
Non-critical_IP_ROB_Stalls_Bucket_5: 125056
Critical_IP_ROB_Stalls_Bucket_6: 0
Non-critical_IP_ROB_Stalls_Bucket_6: 95937
0 => IPs accounting for >50 percent of stalls, 1 => 55, 2 => 60, 3 => 65 and so on till 90.
percent50: inf num IPs:  1
percent55: inf num IPs: 1
percent60: inf num IPs: 1
percent65: inf num IPs: 1
percent70: inf num IPs: 1
percent75: inf num IPs: 1
percent80: inf num IPs: 1
percent85: inf num IPs: 1
percent90: inf num IPs: 1
Critical_ROB_Stalls_Percent_0_Bucket_0: 243778
Non-critical_ROB_Stalls_Percent_0_Bucket_0: 1226142
Critical_ROB_Stalls_Percent_0_Bucket_1: 58983
Non-critical_ROB_Stalls_Percent_0_Bucket_1: 990078
Critical_ROB_Stalls_Percent_0_Bucket_2: 20931
Non-critical_ROB_Stalls_Percent_0_Bucket_2: 203372
Critical_ROB_Stalls_Percent_0_Bucket_3: 15173
Non-critical_ROB_Stalls_Percent_0_Bucket_3: 170210
Critical_ROB_Stalls_Percent_0_Bucket_4: 8851
Non-critical_ROB_Stalls_Percent_0_Bucket_4: 215372
Critical_ROB_Stalls_Percent_0_Bucket_5: 8458
Non-critical_ROB_Stalls_Percent_0_Bucket_5: 116598
Critical_ROB_Stalls_Percent_0_Bucket_6: 3964
Non-critical_ROB_Stalls_Percent_0_Bucket_6: 91973
Critical_ROB_Stalls_Percent_1_Bucket_0: 243778
Non-critical_ROB_Stalls_Percent_1_Bucket_0: 1226142
Critical_ROB_Stalls_Percent_1_Bucket_1: 58983
Non-critical_ROB_Stalls_Percent_1_Bucket_1: 990078
Critical_ROB_Stalls_Percent_1_Bucket_2: 20931
Non-critical_ROB_Stalls_Percent_1_Bucket_2: 203372
Critical_ROB_Stalls_Percent_1_Bucket_3: 15173
Non-critical_ROB_Stalls_Percent_1_Bucket_3: 170210
Critical_ROB_Stalls_Percent_1_Bucket_4: 8851
Non-critical_ROB_Stalls_Percent_1_Bucket_4: 215372
Critical_ROB_Stalls_Percent_1_Bucket_5: 8458
Non-critical_ROB_Stalls_Percent_1_Bucket_5: 116598
Critical_ROB_Stalls_Percent_1_Bucket_6: 3964
Non-critical_ROB_Stalls_Percent_1_Bucket_6: 91973
Critical_ROB_Stalls_Percent_2_Bucket_0: 243778
Non-critical_ROB_Stalls_Percent_2_Bucket_0: 1226142
Critical_ROB_Stalls_Percent_2_Bucket_1: 58983
Non-critical_ROB_Stalls_Percent_2_Bucket_1: 990078
Critical_ROB_Stalls_Percent_2_Bucket_2: 20931
Non-critical_ROB_Stalls_Percent_2_Bucket_2: 203372
Critical_ROB_Stalls_Percent_2_Bucket_3: 15173
Non-critical_ROB_Stalls_Percent_2_Bucket_3: 170210
Critical_ROB_Stalls_Percent_2_Bucket_4: 8851
Non-critical_ROB_Stalls_Percent_2_Bucket_4: 215372
Critical_ROB_Stalls_Percent_2_Bucket_5: 8458
Non-critical_ROB_Stalls_Percent_2_Bucket_5: 116598
Critical_ROB_Stalls_Percent_2_Bucket_6: 3964
Non-critical_ROB_Stalls_Percent_2_Bucket_6: 91973
Critical_ROB_Stalls_Percent_3_Bucket_0: 243778
Non-critical_ROB_Stalls_Percent_3_Bucket_0: 1226142
Critical_ROB_Stalls_Percent_3_Bucket_1: 58983
Non-critical_ROB_Stalls_Percent_3_Bucket_1: 990078
Critical_ROB_Stalls_Percent_3_Bucket_2: 20931
Non-critical_ROB_Stalls_Percent_3_Bucket_2: 203372
Critical_ROB_Stalls_Percent_3_Bucket_3: 15173
Non-critical_ROB_Stalls_Percent_3_Bucket_3: 170210
Critical_ROB_Stalls_Percent_3_Bucket_4: 8851
Non-critical_ROB_Stalls_Percent_3_Bucket_4: 215372
Critical_ROB_Stalls_Percent_3_Bucket_5: 8458
Non-critical_ROB_Stalls_Percent_3_Bucket_5: 116598
Critical_ROB_Stalls_Percent_3_Bucket_6: 3964
Non-critical_ROB_Stalls_Percent_3_Bucket_6: 91973
Critical_ROB_Stalls_Percent_4_Bucket_0: 243778
Non-critical_ROB_Stalls_Percent_4_Bucket_0: 1226142
Critical_ROB_Stalls_Percent_4_Bucket_1: 58983
Non-critical_ROB_Stalls_Percent_4_Bucket_1: 990078
Critical_ROB_Stalls_Percent_4_Bucket_2: 20931
Non-critical_ROB_Stalls_Percent_4_Bucket_2: 203372
Critical_ROB_Stalls_Percent_4_Bucket_3: 15173
Non-critical_ROB_Stalls_Percent_4_Bucket_3: 170210
Critical_ROB_Stalls_Percent_4_Bucket_4: 8851
Non-critical_ROB_Stalls_Percent_4_Bucket_4: 215372
Critical_ROB_Stalls_Percent_4_Bucket_5: 8458
Non-critical_ROB_Stalls_Percent_4_Bucket_5: 116598
Critical_ROB_Stalls_Percent_4_Bucket_6: 3964
Non-critical_ROB_Stalls_Percent_4_Bucket_6: 91973
Critical_ROB_Stalls_Percent_5_Bucket_0: 243778
Non-critical_ROB_Stalls_Percent_5_Bucket_0: 1226142
Critical_ROB_Stalls_Percent_5_Bucket_1: 58983
Non-critical_ROB_Stalls_Percent_5_Bucket_1: 990078
Critical_ROB_Stalls_Percent_5_Bucket_2: 20931
Non-critical_ROB_Stalls_Percent_5_Bucket_2: 203372
Critical_ROB_Stalls_Percent_5_Bucket_3: 15173
Non-critical_ROB_Stalls_Percent_5_Bucket_3: 170210
Critical_ROB_Stalls_Percent_5_Bucket_4: 8851
Non-critical_ROB_Stalls_Percent_5_Bucket_4: 215372
Critical_ROB_Stalls_Percent_5_Bucket_5: 8458
Non-critical_ROB_Stalls_Percent_5_Bucket_5: 116598
Critical_ROB_Stalls_Percent_5_Bucket_6: 3964
Non-critical_ROB_Stalls_Percent_5_Bucket_6: 91973
Critical_ROB_Stalls_Percent_6_Bucket_0: 243778
Non-critical_ROB_Stalls_Percent_6_Bucket_0: 1226142
Critical_ROB_Stalls_Percent_6_Bucket_1: 58983
Non-critical_ROB_Stalls_Percent_6_Bucket_1: 990078
Critical_ROB_Stalls_Percent_6_Bucket_2: 20931
Non-critical_ROB_Stalls_Percent_6_Bucket_2: 203372
Critical_ROB_Stalls_Percent_6_Bucket_3: 15173
Non-critical_ROB_Stalls_Percent_6_Bucket_3: 170210
Critical_ROB_Stalls_Percent_6_Bucket_4: 8851
Non-critical_ROB_Stalls_Percent_6_Bucket_4: 215372
Critical_ROB_Stalls_Percent_6_Bucket_5: 8458
Non-critical_ROB_Stalls_Percent_6_Bucket_5: 116598
Critical_ROB_Stalls_Percent_6_Bucket_6: 3964
Non-critical_ROB_Stalls_Percent_6_Bucket_6: 91973
Critical_ROB_Stalls_Percent_7_Bucket_0: 243778
Non-critical_ROB_Stalls_Percent_7_Bucket_0: 1226142
Critical_ROB_Stalls_Percent_7_Bucket_1: 58983
Non-critical_ROB_Stalls_Percent_7_Bucket_1: 990078
Critical_ROB_Stalls_Percent_7_Bucket_2: 20931
Non-critical_ROB_Stalls_Percent_7_Bucket_2: 203372
Critical_ROB_Stalls_Percent_7_Bucket_3: 15173
Non-critical_ROB_Stalls_Percent_7_Bucket_3: 170210
Critical_ROB_Stalls_Percent_7_Bucket_4: 8851
Non-critical_ROB_Stalls_Percent_7_Bucket_4: 215372
Critical_ROB_Stalls_Percent_7_Bucket_5: 8458
Non-critical_ROB_Stalls_Percent_7_Bucket_5: 116598
Critical_ROB_Stalls_Percent_7_Bucket_6: 3964
Non-critical_ROB_Stalls_Percent_7_Bucket_6: 91973
Critical_ROB_Stalls_Percent_8_Bucket_0: 243778
Non-critical_ROB_Stalls_Percent_8_Bucket_0: 1226142
Critical_ROB_Stalls_Percent_8_Bucket_1: 58983
Non-critical_ROB_Stalls_Percent_8_Bucket_1: 990078
Critical_ROB_Stalls_Percent_8_Bucket_2: 20931
Non-critical_ROB_Stalls_Percent_8_Bucket_2: 203372
Critical_ROB_Stalls_Percent_8_Bucket_3: 15173
Non-critical_ROB_Stalls_Percent_8_Bucket_3: 170210
Critical_ROB_Stalls_Percent_8_Bucket_4: 8851
Non-critical_ROB_Stalls_Percent_8_Bucket_4: 215372
Critical_ROB_Stalls_Percent_8_Bucket_5: 8458
Non-critical_ROB_Stalls_Percent_8_Bucket_5: 116598
Critical_ROB_Stalls_Percent_8_Bucket_6: 3964
Non-critical_ROB_Stalls_Percent_8_Bucket_6: 91973
Average ROB occupancy Load Stall Begin: 70.6239
Average ROB occupancy Load Stall End: 87.9239
Min ROB occupancy Load Stall Begin: 2
Max ROB occupancy Load Stall Begin: 352
Min ROB occupancy Load Stall End: 2
Max ROB occupancy Load Stall End: 352
Average ROB occupancy Critical Load Stall Begin: -nan
Average ROB occupancy Critical Load Stall End: -nan
Min ROB occupancy Critical Load Stall Begin: 400
Max ROB occupancy Critical Load Stall Begin: 0
Min ROB occupancy Critical Load Stall End: 400
Max ROB occupancy Critical Load Stall End: 0
 ROB Load Stall Begin Bucket Count 0: 2016425
 ROB Load Stall End Bucket Count 0: 1469920
 ROB Critical Load Stall Begin Bucket Count 0: 0
 ROB Critical Load Stall End Bucket Count 0: 0
 ROB Load Stall Begin Bucket Count 1: 662571
 ROB Load Stall End Bucket Count 1: 1049061
 ROB Critical Load Stall Begin Bucket Count 1: 0
 ROB Critical Load Stall End Bucket Count 1: 0
 ROB Load Stall Begin Bucket Count 2: 199032
 ROB Load Stall End Bucket Count 2: 224303
 ROB Critical Load Stall Begin Bucket Count 2: 0
 ROB Critical Load Stall End Bucket Count 2: 0
 ROB Load Stall Begin Bucket Count 3: 182292
 ROB Load Stall End Bucket Count 3: 185383
 ROB Critical Load Stall Begin Bucket Count 3: 0
 ROB Critical Load Stall End Bucket Count 3: 0
 ROB Load Stall Begin Bucket Count 4: 180334
 ROB Load Stall End Bucket Count 4: 224223
 ROB Critical Load Stall Begin Bucket Count 4: 0
 ROB Critical Load Stall End Bucket Count 4: 0
 ROB Load Stall Begin Bucket Count 5: 81185
 ROB Load Stall End Bucket Count 5: 125056
 ROB Critical Load Stall Begin Bucket Count 5: 0
 ROB Critical Load Stall End Bucket Count 5: 0
 ROB Load Stall Begin Bucket Count 6: 52044
 ROB Load Stall End Bucket Count 6: 95937
 ROB Critical Load Stall Begin Bucket Count 6: 0
 ROB Critical Load Stall End Bucket Count 6: 0
PIST Tag Read Accesses: 0
PIST Read Accesses: 0
PIST Tag Write Accesses: 0
PIST Write Accesses: 0
Criticality detector called times: 0
Max global_stall_cycles_count: 0
Threshold Modified: 0 times, factor: 0
ITLB TOTAL     ACCESS:   12181526  HIT:   12181526  MISS:          0  HIT %:        100  MISS %:          0   MPKI: 0
ITLB LOAD TRANSLATION ACCESS:   12181526  HIT:   12181526  MISS:          0  HIT %:        100  MISS %:          0   MPKI: 0
ITLB PREFETCH  REQUESTED:          0  ISSUED:          0  USEFUL:          0  USELESS:          0
ITLB USEFUL LOAD PREFETCHES:          0 PREFETCH ISSUED TO LOWER LEVEL:          0  ACCURACY: -nan
ITLB TIMELY PREFETCHES:          0 LATE PREFETCHES: 0 DROPPED PREFETCHES: 0
ITLB PREFETCHES SAME FILL-ORIGIN LEVEL: 0 DIFFERENT FILL-ORIGIN LEVEL: 0
ITLB AVERAGE MISS LATENCY: -nan cycles
ITLB RQ	ACCESS:   14883077	FORWARD:          0	MERGED:    2701551	TO_CACHE:   12181526

DTLB TOTAL     ACCESS:   24933166  HIT:   24851661  MISS:      81505  HIT %:    99.6731  MISS %:   0.326894   MPKI: 0.81505
DTLB LOAD TRANSLATION ACCESS:   24933166  HIT:   24851661  MISS:      81505  HIT %:    99.6731  MISS %:   0.326894   MPKI: 0.81505
DTLB PREFETCH  REQUESTED:          0  ISSUED:          0  USEFUL:          0  USELESS:          0
DTLB USEFUL LOAD PREFETCHES:          0 PREFETCH ISSUED TO LOWER LEVEL:          0  ACCURACY: -nan
DTLB TIMELY PREFETCHES:          0 LATE PREFETCHES: 0 DROPPED PREFETCHES: 0
DTLB PREFETCHES SAME FILL-ORIGIN LEVEL: 0 DIFFERENT FILL-ORIGIN LEVEL: 0
DTLB AVERAGE MISS LATENCY: 53.13 cycles
DTLB RQ	ACCESS:   27763944	FORWARD:          0	MERGED:    2828735	TO_CACHE:   24935209

STLB TOTAL     ACCESS:      81505  HIT:      54199  MISS:      27306  HIT %:    66.4978  MISS %:    33.5022   MPKI: 0.27306
STLB LOAD TRANSLATION ACCESS:      81505  HIT:      54199  MISS:      27306  HIT %:    66.4978  MISS %:    33.5022   MPKI: 0.27306
STLB PREFETCH  REQUESTED:          0  ISSUED:          0  USEFUL:          0  USELESS:          0
STLB USEFUL LOAD PREFETCHES:          0 PREFETCH ISSUED TO LOWER LEVEL:          0  ACCURACY: -nan
STLB TIMELY PREFETCHES:          0 LATE PREFETCHES: 0 DROPPED PREFETCHES: 0
STLB PREFETCHES SAME FILL-ORIGIN LEVEL: 0 DIFFERENT FILL-ORIGIN LEVEL: 0
STLB AVERAGE MISS LATENCY: 130.719 cycles
STLB RQ	ACCESS:      81505	FORWARD:          0	MERGED:          0	TO_CACHE:      81505

STLB Hit, L1D data hit: 0
STLB Hit, L2C data hit: 0
STLB Hit, LLC data hit: 0
STLB Hit, LLC data miss: 0
STLB STLB hints to L2: 0
L1D TOTAL     ACCESS:   27687456  HIT:   26050013  MISS:    1637443  HIT %:     94.086  MISS %:    5.91402   MPKI: 16.3744
L1D LOAD      ACCESS:   22770234  HIT:   21132791  MISS:    1637443  HIT %:    92.8088  MISS %:    7.19116   MPKI: 16.3744
L1D RFO       ACCESS:    4917222  HIT:    4917222  MISS:          0  HIT %:        100  MISS %:          0   MPKI: 0
L1D PREFETCH  REQUESTED:          0  ISSUED:          0  USEFUL:          0  USELESS:          0
L1D USEFUL LOAD PREFETCHES:          0 PREFETCH ISSUED TO LOWER LEVEL:          0  ACCURACY: -nan
L1D TIMELY PREFETCHES:          0 LATE PREFETCHES: 0 DROPPED PREFETCHES: 0
L1D PREFETCHES SAME FILL-ORIGIN LEVEL: 0 DIFFERENT FILL-ORIGIN LEVEL: 0
L1D AVERAGE MISS LATENCY: 42.0493 cycles
L1D RQ	ACCESS:   34686212	FORWARD:          0	MERGED:   11779184	TO_CACHE:   22846723
L1D WQ	ACCESS:    4917221	FORWARD:      60305	MERGED:          0	TO_CACHE:    4917221

L1D UNIQUE REGIONS ACCESSED: 0
L1D REGIONS CONFLICTS: 0
L1D Cross Page Prefetch Requests: 0
L1D Same Page Prefetch Requests: 0
L1D ROI Sum of L1D PQ occupancy: 0
L1D PREFETCHES PUSHED FROM L2C: 0
L1I TOTAL     ACCESS:   14883076  HIT:   14883076  MISS:          0  HIT %:        100  MISS %:          0   MPKI: 0
L1I LOAD      ACCESS:   14883076  HIT:   14883076  MISS:          0  HIT %:        100  MISS %:          0   MPKI: 0
L1I PREFETCH  REQUESTED:          0  ISSUED:          0  USEFUL:          0  USELESS:          0
L1I USEFUL LOAD PREFETCHES:          0 PREFETCH ISSUED TO LOWER LEVEL:          0  ACCURACY: -nan
L1I TIMELY PREFETCHES:          0 LATE PREFETCHES: 0 DROPPED PREFETCHES: 0
L1I PREFETCHES SAME FILL-ORIGIN LEVEL: 0 DIFFERENT FILL-ORIGIN LEVEL: 0
L1I AVERAGE MISS LATENCY: -nan cycles
L1I RQ	ACCESS:   21700000	FORWARD:          0	MERGED:    6816923	TO_CACHE:   14883077

BTB TOTAL     ACCESS:     673550  HIT:     673547  MISS:          3  HIT %:    99.9996  MISS %: 0.000445401   MPKI: 3e-05
BTB BRANCH_DIRECT_JUMP	ACCESS:          0  HIT:          0  MISS:          0
BTB BRANCH_INDIRECT	ACCESS:          0  HIT:          0  MISS:          0
BTB BRANCH_CONDITIONAL	ACCESS:     673550  HIT:     673547  MISS:          3
BTB BRANCH_DIRECT_CALL	ACCESS:          0  HIT:          0  MISS:          0
BTB BRANCH_INDIRECT_CALL	ACCESS:          0  HIT:          0  MISS:          0
BTB BRANCH_RETURN	ACCESS:          0  HIT:          0  MISS:          0
BTB BRANCH_OTHER ACCESS:          0  HIT:          0  MISS:          0

L2C TOTAL     ACCESS:    3164790  HIT:    1497707  MISS:    1667083  HIT %:    47.3241  MISS %:    52.6759   MPKI: 16.6708
L2C LOAD      ACCESS:    1637443  HIT:     955387  MISS:     682056  HIT %:    58.3463  MISS %:    41.6537   MPKI: 6.82056
L2C DATA LOAD MPKI: 6.82056
L2C INSTRUCTION LOAD MPKI: 0
L2C PREFETCH  ACCESS:     980815  HIT:        185  MISS:     980630  HIT %:  0.0188619  MISS %:    99.9811   MPKI: 9.8063
L2C DATA PREFETCH MPKI: 9.8063
L2C INSTRUCTION PREFETCH MPKI: 0
L2C WRITEBACK ACCESS:     519223  HIT:     518428  MISS:        795  HIT %:    99.8469  MISS %:   0.153113   MPKI: 0.00795
L2C LOAD TRANSLATION ACCESS:      27309  HIT:      23707  MISS:       3602  HIT %:    86.8102  MISS %:    13.1898   MPKI: 0.03602
L2C PREFETCH  REQUESTED:    8344860  ISSUED:    8079479  USEFUL:     955284  USELESS:      25281
L2C USEFUL LOAD PREFETCHES:     955284 PREFETCH ISSUED TO LOWER LEVEL:    8077411  ACCURACY: 11.8266
L2C TIMELY PREFETCHES:     955284 LATE PREFETCHES: 38 DROPPED PREFETCHES: 0
L2C PREFETCHES SAME FILL-ORIGIN LEVEL: 980668 DIFFERENT FILL-ORIGIN LEVEL: 7096743
L2C AVERAGE MISS LATENCY: 46.2436 cycles
L2C RQ	ACCESS:    1664752	FORWARD:          0	MERGED:          0	TO_CACHE:    1664752
L2C WQ	ACCESS:     519223	FORWARD:          0	MERGED:          0	TO_CACHE:     519223
L2C PQ	ACCESS:    8079479	FORWARD:          0	MERGED:       1397	TO_CACHE:    8078082

L2C Instructions Evicting Data 0
L2C Translations Evicting Data 3602
L2C Data Evicting Data 1659074
L2C Instructions Evicting Instructions 0
L2C Translations Evicting Instructions 0
L2C Data Evicting Instructions 0
L2C Instructions Evicting Translations 0
L2C Translations Evicting Translations 0
L2C Data Evicting Translations 3612
L2C Dense regions hint from L2: 0
PSCL5 TOTAL     ACCESS:      27306  HIT:      27306  MISS:          0  HIT %:        100  MISS %:          0   MPKI: 0
PSCL5 LOAD TRANSLATION ACCESS:      27306  HIT:      27306  MISS:          0  HIT %:        100  MISS %:          0   MPKI: 0
PSCL5 PREFETCH  REQUESTED:          0  ISSUED:          0  USEFUL:          0  USELESS:          0
PSCL5 USEFUL LOAD PREFETCHES:          0 PREFETCH ISSUED TO LOWER LEVEL:          0  ACCURACY: -nan
PSCL5 TIMELY PREFETCHES:          0 LATE PREFETCHES: 0 DROPPED PREFETCHES: 0
PSCL5 PREFETCHES SAME FILL-ORIGIN LEVEL: 0 DIFFERENT FILL-ORIGIN LEVEL: 0

PSCL4 TOTAL     ACCESS:      27306  HIT:      27306  MISS:          0  HIT %:        100  MISS %:          0   MPKI: 0
PSCL4 LOAD TRANSLATION ACCESS:      27306  HIT:      27306  MISS:          0  HIT %:        100  MISS %:          0   MPKI: 0
PSCL4 PREFETCH  REQUESTED:          0  ISSUED:          0  USEFUL:          0  USELESS:          0
PSCL4 USEFUL LOAD PREFETCHES:          0 PREFETCH ISSUED TO LOWER LEVEL:          0  ACCURACY: -nan
PSCL4 TIMELY PREFETCHES:          0 LATE PREFETCHES: 0 DROPPED PREFETCHES: 0
PSCL4 PREFETCHES SAME FILL-ORIGIN LEVEL: 0 DIFFERENT FILL-ORIGIN LEVEL: 0

PSCL3 TOTAL     ACCESS:      27306  HIT:      27306  MISS:          0  HIT %:        100  MISS %:          0   MPKI: 0
PSCL3 LOAD TRANSLATION ACCESS:      27306  HIT:      27306  MISS:          0  HIT %:        100  MISS %:          0   MPKI: 0
PSCL3 PREFETCH  REQUESTED:          0  ISSUED:          0  USEFUL:          0  USELESS:          0
PSCL3 USEFUL LOAD PREFETCHES:          0 PREFETCH ISSUED TO LOWER LEVEL:          0  ACCURACY: -nan
PSCL3 TIMELY PREFETCHES:          0 LATE PREFETCHES: 0 DROPPED PREFETCHES: 0
PSCL3 PREFETCHES SAME FILL-ORIGIN LEVEL: 0 DIFFERENT FILL-ORIGIN LEVEL: 0

PSCL2 TOTAL     ACCESS:      27306  HIT:      27260  MISS:         46  HIT %:    99.8315  MISS %:   0.168461   MPKI: 0.00046
PSCL2 LOAD TRANSLATION ACCESS:      27306  HIT:      27260  MISS:         46  HIT %:    99.8315  MISS %:   0.168461   MPKI: 0.00046
PSCL2 PREFETCH  REQUESTED:          0  ISSUED:          0  USEFUL:          0  USELESS:          0
PSCL2 USEFUL LOAD PREFETCHES:          0 PREFETCH ISSUED TO LOWER LEVEL:          0  ACCURACY: -nan
PSCL2 TIMELY PREFETCHES:          0 LATE PREFETCHES: 0 DROPPED PREFETCHES: 0
PSCL2 PREFETCHES SAME FILL-ORIGIN LEVEL: 0 DIFFERENT FILL-ORIGIN LEVEL: 0

LLC TOTAL     ACCESS:    9274966  HIT:    7530078  MISS:    1744888  HIT %:    81.1871  MISS %:    18.8129   MPKI: 17.4489
LLC LOAD      ACCESS:     682018  HIT:     557322  MISS:     124696  HIT %:    81.7166  MISS %:    18.2834   MPKI: 1.24696
LLC PREFETCH  ACCESS:    8068793  HIT:    6453513  MISS:    1615280  HIT %:    79.9811  MISS %:    20.0189   MPKI: 16.1528
LLC WRITEBACK ACCESS:     520553  HIT:     519154  MISS:       1399  HIT %:    99.7312  MISS %:   0.268753   MPKI: 0.01399
LLC LOAD TRANSLATION ACCESS:       3602  HIT:         89  MISS:       3513  HIT %:    2.47085  MISS %:    97.5292   MPKI: 0.03513
LLC PREFETCH  REQUESTED:          0  ISSUED:          0  USEFUL:     557309  USELESS:    1037477
LLC USEFUL LOAD PREFETCHES:     557309 PREFETCH ISSUED TO LOWER LEVEL:    1615407  ACCURACY: 34.4996
LLC TIMELY PREFETCHES:     557309 LATE PREFETCHES: 127 DROPPED PREFETCHES: 0
LLC PREFETCHES SAME FILL-ORIGIN LEVEL: 1598318 DIFFERENT FILL-ORIGIN LEVEL: 0
LLC AVERAGE MISS LATENCY: 176.561 cycles
LLC RQ	ACCESS:     685620	FORWARD:          0	MERGED:          0	TO_CACHE:     685620
LLC WQ	ACCESS:     520553	FORWARD:          0	MERGED:          0	TO_CACHE:     520553
LLC PQ	ACCESS:    8077411	FORWARD:          0	MERGED:         17	TO_CACHE:    8077394

LLC Dense regions hint to LLC: 0

RAW hits: 686665
Loads Generated: 35372880
Loads sent to L1D: 34686212
Stores Generated: 4917220
Stores sent to L1D: 4917221
Major fault: 0 Minor fault: 33266
Allocated PAGES: 33266
 All Calls: 2456276
 Critical Calls: 1550920
------------------
Depth Distribution
------------------
depth 0: 0
depth 1: 1494961
depth 2: 1429929
depth 3: 1309174
depth 4: 1174612
depth 5: 1088820
depth 6: 927672
depth 7: 494714
depth 8: 160208
depth 9: 79
depth 10: 0
depth 11: 0
depth 12: 0
depth 13: 0
depth 14: 0
depth 15: 0
depth 16: 0
depth 17: 0
depth 18: 0
depth 19: 0
depth 20: 0
depth 21: 0
depth 22: 0
depth 23: 0
depth 24: 0
depth 25: 0
depth 26: 0
depth 27: 0
depth 28: 0
depth 29: 0
Total: 8080169
-----------------------------
-----------------------------
	Captured at Filter
-----------------------------
depth 0: 0
depth 1: 8965
depth 2: 8535
depth 3: 7844
depth 4: 7129
depth 5: 6641
depth 6: 5701
depth 7: 3042
depth 8: 1003
depth 9: 1
depth 10: 0
depth 11: 0
depth 12: 0
depth 13: 0
depth 14: 0
depth 15: 0
depth 16: 0
depth 17: 0
depth 18: 0
depth 19: 0
depth 20: 0
depth 21: 0
depth 22: 0
depth 23: 0
depth 24: 0
depth 25: 0
depth 26: 0
depth 27: 0
depth 28: 0
depth 29: 0
-----------------------------
-----------------------------
		Lost at Page
-----------------------------
depth 0: 0
depth 1: 25046
depth 2: 47503
depth 3: 66786
depth 4: 81876
depth 5: 97044
depth 6: 101932
depth 7: 65424
depth 8: 25259
depth 9: 24
depth 10: 0
depth 11: 0
depth 12: 0
depth 13: 0
depth 14: 0
depth 15: 0
depth 16: 0
depth 17: 0
depth 18: 0
depth 19: 0
depth 20: 0
depth 21: 0
depth 22: 0
depth 23: 0
depth 24: 0
depth 25: 0
depth 26: 0
depth 27: 0
depth 28: 0
depth 29: 0
-----------------------------
-----------------------------
	Lost due to PQ Size
-----------------------------
265381
-----------------------------
ST read accesses: 1498099
ST write accesses: 25818
PT read accesses: 53369980
PT write accesses: 2246873
FILTER read accesses: 11584702
FILTER write accesses: 3585695
GHR read accesses: 2728814
GHR write accesses: 510822
GHR counter read accesses: 44645534
GHR counter write accesses: 3482965
ST tag read accesses: 599080361
ST tag write accesses: 19853409

DRAM Statistics
 CHANNEL 0
 RQ ROW_BUFFER_HIT:     437535  ROW_BUFFER_MISS:    1305954
 DBUS_CONGESTED:       1914
 WQ ROW_BUFFER_HIT:     167067  ROW_BUFFER_MISS:     358333  FULL:          0

 AVG_CONGESTED_CYCLE: 5
 All warmup complete: 2
Channel 0 Bank busy for read cycles: 0
Channel 0 Bank busy for write cycles: 0
Channel 0
Rank 0
0banks busy for read cycles: 781414
0banks busy for write cycles: 4756
1banks busy for read cycles: 22335816
1banks busy for write cycles: 783723
2banks busy for read cycles: 20736256
2banks busy for write cycles: 893528
3banks busy for read cycles: 14802821
3banks busy for write cycles: 1000086
4banks busy for read cycles: 9571752
4banks busy for write cycles: 1183067
5banks busy for read cycles: 5204490
5banks busy for write cycles: 1453642
6banks busy for read cycles: 2951104
6banks busy for write cycles: 1964043
7banks busy for read cycles: 2136905
7banks busy for write cycles: 3526721
8banks busy for read cycles: 1592271
8banks busy for write cycles: 11350808

CPU 0 Branch Prediction Accuracy: 99.9983% MPKI: 0.00012 Average ROB Occupancy at Mispredict: 205.583
Branch types
NOT_BRANCH: 99309279 99.3093%
BRANCH_DIRECT_JUMP: 0 0%
BRANCH_INDIRECT: 0 0%
BRANCH_CONDITIONAL: 690401 0.690401%
BRANCH_DIRECT_CALL: 0 0%
BRANCH_INDIRECT_CALL: 0 0%
BRANCH_RETURN: 0 0%
BRANCH_OTHER: 0 0%

DRAM PAGES: 1048576
Allocated PAGES: 33266
