Initialize SIGNATURE TABLE
ST_SET: 1
ST_WAY: 16
ST_TAG_BIT: 16
ST_TAG_MASK: ffff

Initialize PATTERN TABLE
PT_SET: 16
PT_WAY: 4
SIG_DELTA_BIT: 7
C_SIG_BIT: 4
C_DELTA_BIT: 4

Initialize PREFETCH FILTER
FILTER_SET: 1024

Initialize PERCEPTRON
PERC_ENTRIES: 4096
PERC_FEATURES: 9

*** ChampSim Multicore Out-of-Order Simulator ***

Warmup Instructions: 50000000
Simulation Instructions: 100000000
Number of CPUs: 1
LLC sets: 2048
LLC ways: 16
Off-chip DRAM Size: 4096 MB Channels: 1 Width: 64-bit Data Rate: 6400 MT/s
CPU 0 runs ../SPEC2017//649.fotonik3d_s-1176B.champsimtrace.xz
.xz
BTB has LRU replacement policy
ITLB has LRU replacement policy
DTLB has LRU replacement policy
STLB has LRU replacement policy
L1I has LRU replacement policy
L1D has LRU replacement policy
Initialize SRRIP state for L2C
Initialize DRRIP state for LLC
Heartbeat CPU 0 instructions: 10000000 cycles: 2924281 heartbeat IPC: 3.41964 cumulative IPC: 3.41964 (Simulation time: 0 hr 6 min 13 sec) 
Heartbeat CPU 0 instructions: 20000002 cycles: 5848159 heartbeat IPC: 3.42012 cumulative IPC: 3.41988 (Simulation time: 0 hr 11 min 30 sec) 
Heartbeat CPU 0 instructions: 30000000 cycles: 8772096 heartbeat IPC: 3.42005 cumulative IPC: 3.41994 (Simulation time: 0 hr 16 min 33 sec) 
Heartbeat CPU 0 instructions: 40000003 cycles: 11696121 heartbeat IPC: 3.41994 cumulative IPC: 3.41994 (Simulation time: 0 hr 21 min 16 sec) 
Heartbeat CPU 0 instructions: 50000001 cycles: 14620271 heartbeat IPC: 3.4198 cumulative IPC: 3.41991 (Simulation time: 0 hr 25 min 45 sec) 

Warmup complete CPU 0 instructions: 50000001 cycles: 14620271 (Simulation time: 0 hr 25 min 45 sec) 

Heartbeat CPU 0 instructions: 60000000 cycles: 24636597 heartbeat IPC: 0.99837 cumulative IPC: 0.99837 (Simulation time: 0 hr 30 min 29 sec) 
Heartbeat CPU 0 instructions: 70000000 cycles: 34649890 heartbeat IPC: 0.998672 cumulative IPC: 0.998521 (Simulation time: 0 hr 34 min 57 sec) 
Heartbeat CPU 0 instructions: 80000002 cycles: 44668846 heartbeat IPC: 0.998108 cumulative IPC: 0.998383 (Simulation time: 0 hr 39 min 22 sec) 
Heartbeat CPU 0 instructions: 90000000 cycles: 54683677 heartbeat IPC: 0.998519 cumulative IPC: 0.998417 (Simulation time: 0 hr 43 min 24 sec) 
Heartbeat CPU 0 instructions: 100000000 cycles: 64696215 heartbeat IPC: 0.998748 cumulative IPC: 0.998483 (Simulation time: 0 hr 47 min 10 sec) 
Heartbeat CPU 0 instructions: 110000000 cycles: 74710906 heartbeat IPC: 0.998533 cumulative IPC: 0.998492 (Simulation time: 0 hr 50 min 38 sec) 
Heartbeat CPU 0 instructions: 120000001 cycles: 84722824 heartbeat IPC: 0.99881 cumulative IPC: 0.998537 (Simulation time: 0 hr 53 min 51 sec) 
Heartbeat CPU 0 instructions: 130000002 cycles: 94745983 heartbeat IPC: 0.99769 cumulative IPC: 0.998431 (Simulation time: 0 hr 57 min 0 sec) 
Heartbeat CPU 0 instructions: 140000003 cycles: 104764760 heartbeat IPC: 0.998126 cumulative IPC: 0.998397 (Simulation time: 1 hr 0 min 9 sec) 
Heartbeat CPU 0 instructions: 150000000 cycles: 114774676 heartbeat IPC: 0.999009 cumulative IPC: 0.998458 (Simulation time: 1 hr 2 min 59 sec) 
Finished CPU 0 instructions: 100000001 cycles: 100154413 cumulative IPC: 0.998458 (Simulation time: 1 hr 2 min 59 sec) 

ChampSim completed all CPUs

Region of Interest Statistics

CPU 0 cumulative IPC: 0.998458 instructions: 100000001 cycles: 100154413

CPU 0 Average Load ROB stall cycles: 2.60024e+07
CPU 0 Fraction of times ROB stalled by Loads: 40.188
CPU 0 Percentage of Load stall cycles in Total stall cycles: 3.1124e+08
Issued all: 51566804
Issued LT all: 37576609
rob_not_full_when_issued_lt_all: 36780899
Issued LT one: 32234720
rob_not_full_when_issued_lt_one: 31512974
FVP critical_dynamic_instances_0: 23028530
FVP unique_critical_ips_0: 64
 Total stall cycles: 77496087
 Total load stall cycles: 241199030436503
Unique Load IPs: 147
CPU 0 NUM of IPS identified critical: 0
CPU 0 Num of Load IPs stalling ROB: 0
Threshold modification factor: 0
Trouble in retire width: -nan
MaC = Marked as critical.
lt_50_percent_before_Mac: 0
gt_90_percent_before_Mac: 0
gt_75_percent_before_Mac: 0
gt_50_percent_before_Mac: 0
stall_proportion_bin_same_before_after: 0
stall_proportion_bin_lower_before_after: 0
stall_proportion_bin_upper_before_after: 0
average_stall_proportion_before: -nan
average_stall_proportion_after: -nan
Critical IP stalls, total frequency: 0
Non-critical IP stalls, total frequency: 0
Total Freq all stalling IPs: 0
Critical_IP_Detector_Accuracy_70: 0.015625
Critical_IP_Detector_Accuracy_80: 0.015625
Critical_IP_Detector_Accuracy_90: 0.015625
Critical_IP_Detector_Coverage_70: 1
Critical_IP_Detector_Coverage_80: 1
Critical_IP_Detector_Coverage_90: 1
stat_90_percent_critical_ip_stalls_freq: 686017
stat_90_percent_non_critical_ip_stalls_freq: 18446744073708865599
AVERAGE_ROB_Occupancy_90_Percent_Critical_IP_Stalls: 61.8957
AVERAGE_ROB_Occupancy_90_Percent_Non_Critical_IP_Stalls: 1.0566e-11
Critical_IP_ROB_Stalls_Bucket_0: 0
Non-critical_IP_ROB_Stalls_Bucket_0: 1554137
Critical_IP_ROB_Stalls_Bucket_1: 0
Non-critical_IP_ROB_Stalls_Bucket_1: 1906648
Critical_IP_ROB_Stalls_Bucket_2: 0
Non-critical_IP_ROB_Stalls_Bucket_2: 87173
Critical_IP_ROB_Stalls_Bucket_3: 0
Non-critical_IP_ROB_Stalls_Bucket_3: 63519
Critical_IP_ROB_Stalls_Bucket_4: 0
Non-critical_IP_ROB_Stalls_Bucket_4: 45270
Critical_IP_ROB_Stalls_Bucket_5: 0
Non-critical_IP_ROB_Stalls_Bucket_5: 49750
Critical_IP_ROB_Stalls_Bucket_6: 0
Non-critical_IP_ROB_Stalls_Bucket_6: 21348
0 => IPs accounting for >50 percent of stalls, 1 => 55, 2 => 60, 3 => 65 and so on till 90.
percent50: inf num IPs:  1
percent55: inf num IPs: 1
percent60: inf num IPs: 1
percent65: inf num IPs: 1
percent70: inf num IPs: 1
percent75: inf num IPs: 1
percent80: inf num IPs: 1
percent85: inf num IPs: 1
percent90: inf num IPs: 1
Critical_ROB_Stalls_Percent_0_Bucket_0: 386626
Non-critical_ROB_Stalls_Percent_0_Bucket_0: 1167511
Critical_ROB_Stalls_Percent_0_Bucket_1: 256897
Non-critical_ROB_Stalls_Percent_0_Bucket_1: 1649751
Critical_ROB_Stalls_Percent_0_Bucket_2: 17284
Non-critical_ROB_Stalls_Percent_0_Bucket_2: 69889
Critical_ROB_Stalls_Percent_0_Bucket_3: 11479
Non-critical_ROB_Stalls_Percent_0_Bucket_3: 52040
Critical_ROB_Stalls_Percent_0_Bucket_4: 6990
Non-critical_ROB_Stalls_Percent_0_Bucket_4: 38280
Critical_ROB_Stalls_Percent_0_Bucket_5: 5164
Non-critical_ROB_Stalls_Percent_0_Bucket_5: 44586
Critical_ROB_Stalls_Percent_0_Bucket_6: 1577
Non-critical_ROB_Stalls_Percent_0_Bucket_6: 19771
Critical_ROB_Stalls_Percent_1_Bucket_0: 386626
Non-critical_ROB_Stalls_Percent_1_Bucket_0: 1167511
Critical_ROB_Stalls_Percent_1_Bucket_1: 256897
Non-critical_ROB_Stalls_Percent_1_Bucket_1: 1649751
Critical_ROB_Stalls_Percent_1_Bucket_2: 17284
Non-critical_ROB_Stalls_Percent_1_Bucket_2: 69889
Critical_ROB_Stalls_Percent_1_Bucket_3: 11479
Non-critical_ROB_Stalls_Percent_1_Bucket_3: 52040
Critical_ROB_Stalls_Percent_1_Bucket_4: 6990
Non-critical_ROB_Stalls_Percent_1_Bucket_4: 38280
Critical_ROB_Stalls_Percent_1_Bucket_5: 5164
Non-critical_ROB_Stalls_Percent_1_Bucket_5: 44586
Critical_ROB_Stalls_Percent_1_Bucket_6: 1577
Non-critical_ROB_Stalls_Percent_1_Bucket_6: 19771
Critical_ROB_Stalls_Percent_2_Bucket_0: 386626
Non-critical_ROB_Stalls_Percent_2_Bucket_0: 1167511
Critical_ROB_Stalls_Percent_2_Bucket_1: 256897
Non-critical_ROB_Stalls_Percent_2_Bucket_1: 1649751
Critical_ROB_Stalls_Percent_2_Bucket_2: 17284
Non-critical_ROB_Stalls_Percent_2_Bucket_2: 69889
Critical_ROB_Stalls_Percent_2_Bucket_3: 11479
Non-critical_ROB_Stalls_Percent_2_Bucket_3: 52040
Critical_ROB_Stalls_Percent_2_Bucket_4: 6990
Non-critical_ROB_Stalls_Percent_2_Bucket_4: 38280
Critical_ROB_Stalls_Percent_2_Bucket_5: 5164
Non-critical_ROB_Stalls_Percent_2_Bucket_5: 44586
Critical_ROB_Stalls_Percent_2_Bucket_6: 1577
Non-critical_ROB_Stalls_Percent_2_Bucket_6: 19771
Critical_ROB_Stalls_Percent_3_Bucket_0: 386626
Non-critical_ROB_Stalls_Percent_3_Bucket_0: 1167511
Critical_ROB_Stalls_Percent_3_Bucket_1: 256897
Non-critical_ROB_Stalls_Percent_3_Bucket_1: 1649751
Critical_ROB_Stalls_Percent_3_Bucket_2: 17284
Non-critical_ROB_Stalls_Percent_3_Bucket_2: 69889
Critical_ROB_Stalls_Percent_3_Bucket_3: 11479
Non-critical_ROB_Stalls_Percent_3_Bucket_3: 52040
Critical_ROB_Stalls_Percent_3_Bucket_4: 6990
Non-critical_ROB_Stalls_Percent_3_Bucket_4: 38280
Critical_ROB_Stalls_Percent_3_Bucket_5: 5164
Non-critical_ROB_Stalls_Percent_3_Bucket_5: 44586
Critical_ROB_Stalls_Percent_3_Bucket_6: 1577
Non-critical_ROB_Stalls_Percent_3_Bucket_6: 19771
Critical_ROB_Stalls_Percent_4_Bucket_0: 386626
Non-critical_ROB_Stalls_Percent_4_Bucket_0: 1167511
Critical_ROB_Stalls_Percent_4_Bucket_1: 256897
Non-critical_ROB_Stalls_Percent_4_Bucket_1: 1649751
Critical_ROB_Stalls_Percent_4_Bucket_2: 17284
Non-critical_ROB_Stalls_Percent_4_Bucket_2: 69889
Critical_ROB_Stalls_Percent_4_Bucket_3: 11479
Non-critical_ROB_Stalls_Percent_4_Bucket_3: 52040
Critical_ROB_Stalls_Percent_4_Bucket_4: 6990
Non-critical_ROB_Stalls_Percent_4_Bucket_4: 38280
Critical_ROB_Stalls_Percent_4_Bucket_5: 5164
Non-critical_ROB_Stalls_Percent_4_Bucket_5: 44586
Critical_ROB_Stalls_Percent_4_Bucket_6: 1577
Non-critical_ROB_Stalls_Percent_4_Bucket_6: 19771
Critical_ROB_Stalls_Percent_5_Bucket_0: 386626
Non-critical_ROB_Stalls_Percent_5_Bucket_0: 1167511
Critical_ROB_Stalls_Percent_5_Bucket_1: 256897
Non-critical_ROB_Stalls_Percent_5_Bucket_1: 1649751
Critical_ROB_Stalls_Percent_5_Bucket_2: 17284
Non-critical_ROB_Stalls_Percent_5_Bucket_2: 69889
Critical_ROB_Stalls_Percent_5_Bucket_3: 11479
Non-critical_ROB_Stalls_Percent_5_Bucket_3: 52040
Critical_ROB_Stalls_Percent_5_Bucket_4: 6990
Non-critical_ROB_Stalls_Percent_5_Bucket_4: 38280
Critical_ROB_Stalls_Percent_5_Bucket_5: 5164
Non-critical_ROB_Stalls_Percent_5_Bucket_5: 44586
Critical_ROB_Stalls_Percent_5_Bucket_6: 1577
Non-critical_ROB_Stalls_Percent_5_Bucket_6: 19771
Critical_ROB_Stalls_Percent_6_Bucket_0: 386626
Non-critical_ROB_Stalls_Percent_6_Bucket_0: 1167511
Critical_ROB_Stalls_Percent_6_Bucket_1: 256897
Non-critical_ROB_Stalls_Percent_6_Bucket_1: 1649751
Critical_ROB_Stalls_Percent_6_Bucket_2: 17284
Non-critical_ROB_Stalls_Percent_6_Bucket_2: 69889
Critical_ROB_Stalls_Percent_6_Bucket_3: 11479
Non-critical_ROB_Stalls_Percent_6_Bucket_3: 52040
Critical_ROB_Stalls_Percent_6_Bucket_4: 6990
Non-critical_ROB_Stalls_Percent_6_Bucket_4: 38280
Critical_ROB_Stalls_Percent_6_Bucket_5: 5164
Non-critical_ROB_Stalls_Percent_6_Bucket_5: 44586
Critical_ROB_Stalls_Percent_6_Bucket_6: 1577
Non-critical_ROB_Stalls_Percent_6_Bucket_6: 19771
Critical_ROB_Stalls_Percent_7_Bucket_0: 386626
Non-critical_ROB_Stalls_Percent_7_Bucket_0: 1167511
Critical_ROB_Stalls_Percent_7_Bucket_1: 256897
Non-critical_ROB_Stalls_Percent_7_Bucket_1: 1649751
Critical_ROB_Stalls_Percent_7_Bucket_2: 17284
Non-critical_ROB_Stalls_Percent_7_Bucket_2: 69889
Critical_ROB_Stalls_Percent_7_Bucket_3: 11479
Non-critical_ROB_Stalls_Percent_7_Bucket_3: 52040
Critical_ROB_Stalls_Percent_7_Bucket_4: 6990
Non-critical_ROB_Stalls_Percent_7_Bucket_4: 38280
Critical_ROB_Stalls_Percent_7_Bucket_5: 5164
Non-critical_ROB_Stalls_Percent_7_Bucket_5: 44586
Critical_ROB_Stalls_Percent_7_Bucket_6: 1577
Non-critical_ROB_Stalls_Percent_7_Bucket_6: 19771
Critical_ROB_Stalls_Percent_8_Bucket_0: 386626
Non-critical_ROB_Stalls_Percent_8_Bucket_0: 1167511
Critical_ROB_Stalls_Percent_8_Bucket_1: 256897
Non-critical_ROB_Stalls_Percent_8_Bucket_1: 1649751
Critical_ROB_Stalls_Percent_8_Bucket_2: 17284
Non-critical_ROB_Stalls_Percent_8_Bucket_2: 69889
Critical_ROB_Stalls_Percent_8_Bucket_3: 11479
Non-critical_ROB_Stalls_Percent_8_Bucket_3: 52040
Critical_ROB_Stalls_Percent_8_Bucket_4: 6990
Non-critical_ROB_Stalls_Percent_8_Bucket_4: 38280
Critical_ROB_Stalls_Percent_8_Bucket_5: 5164
Non-critical_ROB_Stalls_Percent_8_Bucket_5: 44586
Critical_ROB_Stalls_Percent_8_Bucket_6: 1577
Non-critical_ROB_Stalls_Percent_8_Bucket_6: 19771
Average ROB occupancy Load Stall Begin: 49.8625
Average ROB occupancy Load Stall End: 63.6748
Min ROB occupancy Load Stall Begin: 9
Max ROB occupancy Load Stall Begin: 352
Min ROB occupancy Load Stall End: 9
Max ROB occupancy Load Stall End: 352
Average ROB occupancy Critical Load Stall Begin: -nan
Average ROB occupancy Critical Load Stall End: -nan
Min ROB occupancy Critical Load Stall Begin: 400
Max ROB occupancy Critical Load Stall Begin: 0
Min ROB occupancy Critical Load Stall End: 400
Max ROB occupancy Critical Load Stall End: 0
 ROB Load Stall Begin Bucket Count 0: 2858271
 ROB Load Stall End Bucket Count 0: 1554137
 ROB Critical Load Stall Begin Bucket Count 0: 0
 ROB Critical Load Stall End Bucket Count 0: 0
 ROB Load Stall Begin Bucket Count 1: 665313
 ROB Load Stall End Bucket Count 1: 1906648
 ROB Critical Load Stall Begin Bucket Count 1: 0
 ROB Critical Load Stall End Bucket Count 1: 0
 ROB Load Stall Begin Bucket Count 2: 67333
 ROB Load Stall End Bucket Count 2: 87173
 ROB Critical Load Stall Begin Bucket Count 2: 0
 ROB Critical Load Stall End Bucket Count 2: 0
 ROB Load Stall Begin Bucket Count 3: 65134
 ROB Load Stall End Bucket Count 3: 63519
 ROB Critical Load Stall Begin Bucket Count 3: 0
 ROB Critical Load Stall End Bucket Count 3: 0
 ROB Load Stall Begin Bucket Count 4: 37022
 ROB Load Stall End Bucket Count 4: 45270
 ROB Critical Load Stall Begin Bucket Count 4: 0
 ROB Critical Load Stall End Bucket Count 4: 0
 ROB Load Stall Begin Bucket Count 5: 26233
 ROB Load Stall End Bucket Count 5: 49750
 ROB Critical Load Stall Begin Bucket Count 5: 0
 ROB Critical Load Stall End Bucket Count 5: 0
 ROB Load Stall Begin Bucket Count 6: 8539
 ROB Load Stall End Bucket Count 6: 21348
 ROB Critical Load Stall Begin Bucket Count 6: 0
 ROB Critical Load Stall End Bucket Count 6: 0
PIST Tag Read Accesses: 0
PIST Read Accesses: 0
PIST Tag Write Accesses: 0
PIST Write Accesses: 0
Criticality detector called times: 0
Max global_stall_cycles_count: 0
Threshold Modified: 0 times, factor: 0
ITLB TOTAL     ACCESS:   14036302  HIT:   14036302  MISS:          0  HIT %:        100  MISS %:          0   MPKI: 0
ITLB LOAD TRANSLATION ACCESS:   14036302  HIT:   14036302  MISS:          0  HIT %:        100  MISS %:          0   MPKI: 0
ITLB PREFETCH  REQUESTED:          0  ISSUED:          0  USEFUL:          0  USELESS:          0
ITLB USEFUL LOAD PREFETCHES:          0 PREFETCH ISSUED TO LOWER LEVEL:          0  ACCURACY: -nan
ITLB TIMELY PREFETCHES:          0 LATE PREFETCHES: 0 DROPPED PREFETCHES: 0
ITLB PREFETCHES SAME FILL-ORIGIN LEVEL: 0 DIFFERENT FILL-ORIGIN LEVEL: 0
ITLB AVERAGE MISS LATENCY: -nan cycles
ITLB RQ	ACCESS:   17546376	FORWARD:          0	MERGED:    3510075	TO_CACHE:   14036301

DTLB TOTAL     ACCESS:   15552826  HIT:   15529234  MISS:      23592  HIT %:    99.8483  MISS %:   0.151689   MPKI: 0.23592
DTLB LOAD TRANSLATION ACCESS:   15552826  HIT:   15529234  MISS:      23592  HIT %:    99.8483  MISS %:   0.151689   MPKI: 0.23592
DTLB PREFETCH  REQUESTED:          0  ISSUED:          0  USEFUL:          0  USELESS:          0
DTLB USEFUL LOAD PREFETCHES:          0 PREFETCH ISSUED TO LOWER LEVEL:          0  ACCURACY: -nan
DTLB TIMELY PREFETCHES:          0 LATE PREFETCHES: 0 DROPPED PREFETCHES: 0
DTLB PREFETCHES SAME FILL-ORIGIN LEVEL: 0 DIFFERENT FILL-ORIGIN LEVEL: 0
DTLB AVERAGE MISS LATENCY: 88.7349 cycles
DTLB RQ	ACCESS:   24464741	FORWARD:          0	MERGED:    8910671	TO_CACHE:   15554070

STLB TOTAL     ACCESS:      23592  HIT:       9874  MISS:      13718  HIT %:    41.8532  MISS %:    58.1468   MPKI: 0.13718
STLB LOAD TRANSLATION ACCESS:      23592  HIT:       9874  MISS:      13718  HIT %:    41.8532  MISS %:    58.1468   MPKI: 0.13718
STLB PREFETCH  REQUESTED:          0  ISSUED:          0  USEFUL:          0  USELESS:          0
STLB USEFUL LOAD PREFETCHES:          0 PREFETCH ISSUED TO LOWER LEVEL:          0  ACCURACY: -nan
STLB TIMELY PREFETCHES:          0 LATE PREFETCHES: 0 DROPPED PREFETCHES: 0
STLB PREFETCHES SAME FILL-ORIGIN LEVEL: 0 DIFFERENT FILL-ORIGIN LEVEL: 0
STLB AVERAGE MISS LATENCY: 136.831 cycles
STLB RQ	ACCESS:      23592	FORWARD:          0	MERGED:          0	TO_CACHE:      23592

STLB Hit, L1D data hit: 0
STLB Hit, L2C data hit: 0
STLB Hit, LLC data hit: 0
STLB Hit, LLC data miss: 0
STLB STLB hints to L2: 0
L1D TOTAL     ACCESS:   24312364  HIT:   22988992  MISS:    1323372  HIT %:    94.5568  MISS %:    5.44321   MPKI: 13.2337
L1D LOAD      ACCESS:   17294022  HIT:   15972183  MISS:    1321839  HIT %:    92.3567  MISS %:    7.64333   MPKI: 13.2184
L1D RFO       ACCESS:    7018342  HIT:    7016809  MISS:       1533  HIT %:    99.9782  MISS %:  0.0218428   MPKI: 0.01533
L1D PREFETCH  REQUESTED:          0  ISSUED:          0  USEFUL:          0  USELESS:          0
L1D USEFUL LOAD PREFETCHES:          0 PREFETCH ISSUED TO LOWER LEVEL:          0  ACCURACY: -nan
L1D TIMELY PREFETCHES:          0 LATE PREFETCHES: 0 DROPPED PREFETCHES: 0
L1D PREFETCHES SAME FILL-ORIGIN LEVEL: 0 DIFFERENT FILL-ORIGIN LEVEL: 0
L1D AVERAGE MISS LATENCY: 21.5417 cycles
L1D RQ	ACCESS:   35082799	FORWARD:          0	MERGED:   17638385	TO_CACHE:   17444193
L1D WQ	ACCESS:    7020548	FORWARD:        221	MERGED:          0	TO_CACHE:    7020548

L1D UNIQUE REGIONS ACCESSED: 0
L1D REGIONS CONFLICTS: 0
L1D Cross Page Prefetch Requests: 0
L1D Same Page Prefetch Requests: 0
L1D ROI Sum of L1D PQ occupancy: 0
L1D PREFETCHES PUSHED FROM L2C: 0
L1I TOTAL     ACCESS:   17546376  HIT:   17546376  MISS:          0  HIT %:        100  MISS %:          0   MPKI: 0
L1I LOAD      ACCESS:   17546376  HIT:   17546376  MISS:          0  HIT %:        100  MISS %:          0   MPKI: 0
L1I PREFETCH  REQUESTED:          0  ISSUED:          0  USEFUL:          0  USELESS:          0
L1I USEFUL LOAD PREFETCHES:          0 PREFETCH ISSUED TO LOWER LEVEL:          0  ACCURACY: -nan
L1I TIMELY PREFETCHES:          0 LATE PREFETCHES: 0 DROPPED PREFETCHES: 0
L1I PREFETCHES SAME FILL-ORIGIN LEVEL: 0 DIFFERENT FILL-ORIGIN LEVEL: 0
L1I AVERAGE MISS LATENCY: -nan cycles
L1I RQ	ACCESS:   22823799	FORWARD:          0	MERGED:    5277423	TO_CACHE:   17546376

BTB TOTAL     ACCESS:    1754584  HIT:    1754575  MISS:          9  HIT %:    99.9995  MISS %: 0.000512942   MPKI: 9e-05
BTB BRANCH_DIRECT_JUMP	ACCESS:        438  HIT:        436  MISS:          2
BTB BRANCH_INDIRECT	ACCESS:          0  HIT:          0  MISS:          0
BTB BRANCH_CONDITIONAL	ACCESS:    1753270  HIT:    1753267  MISS:          3
BTB BRANCH_DIRECT_CALL	ACCESS:        438  HIT:        436  MISS:          2
BTB BRANCH_INDIRECT_CALL	ACCESS:          0  HIT:          0  MISS:          0
BTB BRANCH_RETURN	ACCESS:        438  HIT:        436  MISS:          2
BTB BRANCH_OTHER ACCESS:          0  HIT:          0  MISS:          0

L2C TOTAL     ACCESS:    3595374  HIT:    2700434  MISS:     894940  HIT %:    75.1086  MISS %:    24.8914   MPKI: 8.9494
L2C LOAD      ACCESS:    1321839  HIT:    1264319  MISS:      57520  HIT %:    95.6485  MISS %:    4.35151   MPKI: 0.5752
L2C DATA LOAD MPKI: 0.5752
L2C INSTRUCTION LOAD MPKI: 0
L2C RFO       ACCESS:       1533  HIT:       1526  MISS:          7  HIT %:    99.5434  MISS %:   0.456621   MPKI: 7e-05
L2C PREFETCH  ACCESS:    1379779  HIT:     544475  MISS:     835304  HIT %:     39.461  MISS %:     60.539   MPKI: 8.35304
L2C DATA PREFETCH MPKI: 8.35304
L2C INSTRUCTION PREFETCH MPKI: 0
L2C WRITEBACK ACCESS:     878502  HIT:     878203  MISS:        299  HIT %:     99.966  MISS %:  0.0340352   MPKI: 0.00299
L2C LOAD TRANSLATION ACCESS:      13721  HIT:      11911  MISS:       1810  HIT %:    86.8085  MISS %:    13.1915   MPKI: 0.0181
L2C PREFETCH  REQUESTED:    1405657  ISSUED:    1405657  USEFUL:     830687  USELESS:       4585
L2C USEFUL LOAD PREFETCHES:     830687 PREFETCH ISSUED TO LOWER LEVEL:     850322  ACCURACY: 97.6909
L2C TIMELY PREFETCHES:     830687 LATE PREFETCHES: 14199 DROPPED PREFETCHES: 0
L2C PREFETCHES SAME FILL-ORIGIN LEVEL: 849504 DIFFERENT FILL-ORIGIN LEVEL: 818
L2C AVERAGE MISS LATENCY: 193.189 cycles
L2C RQ	ACCESS:    1337093	FORWARD:          0	MERGED:          0	TO_CACHE:    1337093
L2C WQ	ACCESS:     878502	FORWARD:          0	MERGED:          0	TO_CACHE:     878502
L2C PQ	ACCESS:    1405657	FORWARD:          0	MERGED:       1112	TO_CACHE:    1404545

L2C Instructions Evicting Data 0
L2C Translations Evicting Data 1801
L2C Data Evicting Data 891031
L2C Instructions Evicting Instructions 0
L2C Translations Evicting Instructions 0
L2C Data Evicting Instructions 0
L2C Instructions Evicting Translations 0
L2C Translations Evicting Translations 9
L2C Data Evicting Translations 1800
L2C Dense regions hint from L2: 0
PSCL5 TOTAL     ACCESS:      13718  HIT:      13718  MISS:          0  HIT %:        100  MISS %:          0   MPKI: 0
PSCL5 LOAD TRANSLATION ACCESS:      13718  HIT:      13718  MISS:          0  HIT %:        100  MISS %:          0   MPKI: 0
PSCL5 PREFETCH  REQUESTED:          0  ISSUED:          0  USEFUL:          0  USELESS:          0
PSCL5 USEFUL LOAD PREFETCHES:          0 PREFETCH ISSUED TO LOWER LEVEL:          0  ACCURACY: -nan
PSCL5 TIMELY PREFETCHES:          0 LATE PREFETCHES: 0 DROPPED PREFETCHES: 0
PSCL5 PREFETCHES SAME FILL-ORIGIN LEVEL: 0 DIFFERENT FILL-ORIGIN LEVEL: 0

PSCL4 TOTAL     ACCESS:      13718  HIT:      13718  MISS:          0  HIT %:        100  MISS %:          0   MPKI: 0
PSCL4 LOAD TRANSLATION ACCESS:      13718  HIT:      13718  MISS:          0  HIT %:        100  MISS %:          0   MPKI: 0
PSCL4 PREFETCH  REQUESTED:          0  ISSUED:          0  USEFUL:          0  USELESS:          0
PSCL4 USEFUL LOAD PREFETCHES:          0 PREFETCH ISSUED TO LOWER LEVEL:          0  ACCURACY: -nan
PSCL4 TIMELY PREFETCHES:          0 LATE PREFETCHES: 0 DROPPED PREFETCHES: 0
PSCL4 PREFETCHES SAME FILL-ORIGIN LEVEL: 0 DIFFERENT FILL-ORIGIN LEVEL: 0

PSCL3 TOTAL     ACCESS:      13718  HIT:      13716  MISS:          2  HIT %:    99.9854  MISS %:  0.0145794   MPKI: 2e-05
PSCL3 LOAD TRANSLATION ACCESS:      13718  HIT:      13716  MISS:          2  HIT %:    99.9854  MISS %:  0.0145794   MPKI: 2e-05
PSCL3 PREFETCH  REQUESTED:          0  ISSUED:          0  USEFUL:          0  USELESS:          0
PSCL3 USEFUL LOAD PREFETCHES:          0 PREFETCH ISSUED TO LOWER LEVEL:          0  ACCURACY: -nan
PSCL3 TIMELY PREFETCHES:          0 LATE PREFETCHES: 0 DROPPED PREFETCHES: 0
PSCL3 PREFETCHES SAME FILL-ORIGIN LEVEL: 0 DIFFERENT FILL-ORIGIN LEVEL: 0

PSCL2 TOTAL     ACCESS:      13718  HIT:      13674  MISS:         44  HIT %:    99.6793  MISS %:   0.320746   MPKI: 0.00044
PSCL2 LOAD TRANSLATION ACCESS:      13718  HIT:      13674  MISS:         44  HIT %:    99.6793  MISS %:   0.320746   MPKI: 0.00044
PSCL2 PREFETCH  REQUESTED:          0  ISSUED:          0  USEFUL:          0  USELESS:          0
PSCL2 USEFUL LOAD PREFETCHES:          0 PREFETCH ISSUED TO LOWER LEVEL:          0  ACCURACY: -nan
PSCL2 TIMELY PREFETCHES:          0 LATE PREFETCHES: 0 DROPPED PREFETCHES: 0
PSCL2 PREFETCHES SAME FILL-ORIGIN LEVEL: 0 DIFFERENT FILL-ORIGIN LEVEL: 0

LLC TOTAL     ACCESS:    1772526  HIT:     878571  MISS:     893955  HIT %:     49.566  MISS %:     50.434   MPKI: 8.93955
LLC LOAD      ACCESS:      43321  HIT:       7909  MISS:      35412  HIT %:    18.2567  MISS %:    81.7433   MPKI: 0.35412
LLC RFO       ACCESS:          7  HIT:          7  MISS:          0  HIT %:        100  MISS %:          0   MPKI: 0
LLC PREFETCH  ACCESS:     850321  HIT:       6826  MISS:     843495  HIT %:   0.802756  MISS %:    99.1972   MPKI: 8.43495
LLC WRITEBACK ACCESS:     877067  HIT:     863784  MISS:      13283  HIT %:    98.4855  MISS %:    1.51448   MPKI: 0.13283
LLC LOAD TRANSLATION ACCESS:       1810  HIT:         45  MISS:       1765  HIT %:    2.48619  MISS %:    97.5138   MPKI: 0.01765
LLC PREFETCH  REQUESTED:          0  ISSUED:          0  USEFUL:        259  USELESS:     812317
LLC USEFUL LOAD PREFETCHES:        259 PREFETCH ISSUED TO LOWER LEVEL:     843496  ACCURACY: 0.0307055
LLC TIMELY PREFETCHES:        259 LATE PREFETCHES: 0 DROPPED PREFETCHES: 0
LLC PREFETCHES SAME FILL-ORIGIN LEVEL: 61 DIFFERENT FILL-ORIGIN LEVEL: 0
LLC AVERAGE MISS LATENCY: 164.824 cycles
LLC RQ	ACCESS:      45138	FORWARD:          0	MERGED:          0	TO_CACHE:      45138
LLC WQ	ACCESS:     877067	FORWARD:          0	MERGED:          0	TO_CACHE:     877067
LLC PQ	ACCESS:     850322	FORWARD:          0	MERGED:          0	TO_CACHE:     850322

LLC Dense regions hint to LLC: 0

RAW hits: 1731
Loads Generated: 35084535
Loads sent to L1D: 35082799
Stores Generated: 7020542
Stores sent to L1D: 7020548
Major fault: 0 Minor fault: 20726
Allocated PAGES: 20726
------------------
Depth Distribution
------------------
depth 0: 3241
depth 1: 3527
depth 2: 251
depth 3: 1975
depth 4: 17970
depth 5: 53824
depth 6: 87038
depth 7: 174881
depth 8: 123786
depth 9: 170084
depth 10: 45959
depth 11: 250572
depth 12: 131416
depth 13: 28510
depth 14: 48558
depth 15: 732
depth 16: 188
depth 17: 19
depth 18: 1
depth 19: 0
depth 20: 0
depth 21: 0
depth 22: 0
depth 23: 0
depth 24: 0
depth 25: 0
depth 26: 0
depth 27: 0
depth 28: 0
depth 29: 0
Total: 1142532
------------------
ST read accesses: 1113789
ST write accesses: 22441
PT read accesses: 61190605
PT write accesses: 1669043
FILTER read accesses: 12177186
FILTER write accesses: 4281528
GHR read accesses: 5713401
GHR write accesses: 948533
PERC read accesses: 419756778
PERC write accesses: 12185179
GHR counter read accesses: 2272460
GHR counter write accesses: 3714365
GHR ip read accesses: 7631100
GHR ip write accesses: 4544920
ST tag read accesses: 28562547
ST tag write accesses: 2234170

DRAM Statistics
 CHANNEL 0
 RQ ROW_BUFFER_HIT:      45953  ROW_BUFFER_MISS:     834719
 DBUS_CONGESTED:        393
 WQ ROW_BUFFER_HIT:     271239  ROW_BUFFER_MISS:     604321  FULL:          0

 AVG_CONGESTED_CYCLE: 5
 All warmup complete: 2
Channel 0 Bank busy for read cycles: 0
Channel 0 Bank busy for write cycles: 0
Channel 0
Rank 0
0banks busy for read cycles: 13255328
0banks busy for write cycles: 51175
1banks busy for read cycles: 26691514
1banks busy for write cycles: 2502618
2banks busy for read cycles: 17432420
2banks busy for write cycles: 1809659
3banks busy for read cycles: 8303238
3banks busy for write cycles: 1642142
4banks busy for read cycles: 2996880
4banks busy for write cycles: 1701558
5banks busy for read cycles: 1579800
5banks busy for write cycles: 2024503
6banks busy for read cycles: 1822343
6banks busy for write cycles: 2674757
7banks busy for read cycles: 543353
7banks busy for write cycles: 2662375
8banks busy for read cycles: 802563
8banks busy for write cycles: 11658188

CPU 0 Branch Prediction Accuracy: 99.9751% MPKI: 0.00438 Average ROB Occupancy at Mispredict: 71.6461
Branch types
NOT_BRANCH: 98243563 98.2436%
BRANCH_DIRECT_JUMP: 438 0.000438%
BRANCH_INDIRECT: 0 0%
BRANCH_CONDITIONAL: 1754803 1.7548%
BRANCH_DIRECT_CALL: 438 0.000438%
BRANCH_INDIRECT_CALL: 0 0%
BRANCH_RETURN: 438 0.000438%
BRANCH_OTHER: 0 0%

DRAM PAGES: 1048576
Allocated PAGES: 20726
