Initialize SIGNATURE TABLE
ST_SET: 1
ST_WAY: 16
ST_TAG_BIT: 16
ST_TAG_MASK: ffff

Initialize PATTERN TABLE
PT_SET: 16
PT_WAY: 4
SIG_DELTA_BIT: 7
C_SIG_BIT: 4
C_DELTA_BIT: 4

Initialize PREFETCH FILTER
FILTER_SET: 1024

Initialize PERCEPTRON
PERC_ENTRIES: 64
PERC_FEATURES: 9

*** ChampSim Multicore Out-of-Order Simulator ***

Warmup Instructions: 50000000
Simulation Instructions: 100000000
Number of CPUs: 1
LLC sets: 2048
LLC ways: 16
Off-chip DRAM Size: 4096 MB Channels: 1 Width: 64-bit Data Rate: 6400 MT/s
CPU 0 runs ../SPEC2017//649.fotonik3d_s-7084B.champsimtrace.xz
.xz
NUM_OF_IPS_IN_CRITICAL_IP_TRAINING: 64
NUM_OF_CRITICAL_IP_TRAINING_TABLE_WAYS: 2
NUM_OF_CRITICAL_IP_TRAINING_TABLE_SETS: 32
WOBBLY_CRITICAL_IP_CACHE_SETS: 32
WOBBLY_CRITICAL_IP_CACHE_WAYS: 4
BTB has LRU replacement policy
ITLB has LRU replacement policy
DTLB has LRU replacement policy
STLB has LRU replacement policy
L1I has LRU replacement policy
L1D has LRU replacement policy
Initialize SRRIP state for L2C
Initialize DRRIP state for LLC
Heartbeat CPU 0 instructions: 10000001 cycles: 2917184 heartbeat IPC: 3.42796 cumulative IPC: 3.42796 (Simulation time: 0 hr 5 min 52 sec) 
Heartbeat CPU 0 instructions: 20000001 cycles: 5834089 heartbeat IPC: 3.42829 cumulative IPC: 3.42813 (Simulation time: 0 hr 11 min 7 sec) 
Heartbeat CPU 0 instructions: 30000001 cycles: 8754616 heartbeat IPC: 3.42404 cumulative IPC: 3.42676 (Simulation time: 0 hr 15 min 35 sec) 
Heartbeat CPU 0 instructions: 40000003 cycles: 11679559 heartbeat IPC: 3.41887 cumulative IPC: 3.42479 (Simulation time: 0 hr 19 min 21 sec) 
Heartbeat CPU 0 instructions: 50000002 cycles: 14611715 heartbeat IPC: 3.41046 cumulative IPC: 3.42191 (Simulation time: 0 hr 23 min 11 sec) 

Warmup complete CPU 0 instructions: 50000002 cycles: 14611715 (Simulation time: 0 hr 23 min 11 sec) 

Heartbeat CPU 0 instructions: 60000000 cycles: 25484837 heartbeat IPC: 0.919699 cumulative IPC: 0.919699 (Simulation time: 0 hr 28 min 8 sec) 
Heartbeat CPU 0 instructions: 70000001 cycles: 36285514 heartbeat IPC: 0.925868 cumulative IPC: 0.922773 (Simulation time: 0 hr 32 min 49 sec) 
Heartbeat CPU 0 instructions: 80000001 cycles: 46632251 heartbeat IPC: 0.966488 cumulative IPC: 0.936899 (Simulation time: 0 hr 36 min 47 sec) 
Heartbeat CPU 0 instructions: 90000001 cycles: 56792512 heartbeat IPC: 0.984227 cumulative IPC: 0.948299 (Simulation time: 0 hr 40 min 10 sec) 
Heartbeat CPU 0 instructions: 100000003 cycles: 66944848 heartbeat IPC: 0.984995 cumulative IPC: 0.955418 (Simulation time: 0 hr 43 min 5 sec) 
Heartbeat CPU 0 instructions: 110000000 cycles: 77108710 heartbeat IPC: 0.983878 cumulative IPC: 0.960046 (Simulation time: 0 hr 45 min 48 sec) 
Heartbeat CPU 0 instructions: 120000000 cycles: 87266595 heartbeat IPC: 0.984457 cumulative IPC: 0.963459 (Simulation time: 0 hr 48 min 28 sec) 
Heartbeat CPU 0 instructions: 130000003 cycles: 97416484 heartbeat IPC: 0.985233 cumulative IPC: 0.966128 (Simulation time: 0 hr 50 min 51 sec) 
Heartbeat CPU 0 instructions: 140000002 cycles: 107576133 heartbeat IPC: 0.984286 cumulative IPC: 0.968112 (Simulation time: 0 hr 56 min 10 sec) 
Heartbeat CPU 0 instructions: 150000001 cycles: 117729754 heartbeat IPC: 0.98487 cumulative IPC: 0.969762 (Simulation time: 1 hr 2 min 34 sec) 
Finished CPU 0 instructions: 100000000 cycles: 103118040 cumulative IPC: 0.969762 (Simulation time: 1 hr 2 min 34 sec) 

ChampSim completed all CPUs

Region of Interest Statistics

CPU 0 cumulative IPC: 0.969762 instructions: 100000000 cycles: 103118040

CPU 0 Average Load ROB stall cycles: 2.66682e+07
CPU 0 Fraction of times ROB stalled by Loads: 36.6538
CPU 0 Percentage of Load stall cycles in Total stall cycles: 3.95129e+08
Issued all: 54436634
Issued LT all: 38439486
rob_not_full_when_issued_lt_all: 34730458
Issued LT one: 35355118
rob_not_full_when_issued_lt_one: 32001634
 Total stall cycles: 80178935
 Total load stall cycles: 316810268326006
CPU 0 NUM of IPS identified critical: 0
CPU 0 Num of Load IPs stalling ROB: 169
Threshold modification factor: 0
Max PIST entries: 58
Min PIST entries: 0
Avg PIST entries: 34.24
Trouble in retire width: 0.72947
MaC = Marked as critical.
lt_50_percent_before_Mac: 0
gt_90_percent_before_Mac: 0
gt_75_percent_before_Mac: 0
gt_50_percent_before_Mac: 0
stall_proportion_bin_same_before_after: 0
stall_proportion_bin_lower_before_after: 0
stall_proportion_bin_upper_before_after: 0
average_stall_proportion_before: -nan
average_stall_proportion_after: -nan
Critical IP stalls, total frequency: 0
Non-critical IP stalls, total frequency: 4354354
Total Freq all stalling IPs: 4354354
stat_90_percent_critical_ip_stalls_freq: 3937580
stat_90_percent_non_critical_ip_stalls_freq: 416774
Critical_IP_ROB_Stalls_Bucket_0: 0
Non-critical_IP_ROB_Stalls_Bucket_0: 2648254
Critical_IP_ROB_Stalls_Bucket_1: 0
Non-critical_IP_ROB_Stalls_Bucket_1: 1181437
Critical_IP_ROB_Stalls_Bucket_2: 0
Non-critical_IP_ROB_Stalls_Bucket_2: 110350
Critical_IP_ROB_Stalls_Bucket_3: 0
Non-critical_IP_ROB_Stalls_Bucket_3: 109946
Critical_IP_ROB_Stalls_Bucket_4: 0
Non-critical_IP_ROB_Stalls_Bucket_4: 96733
Critical_IP_ROB_Stalls_Bucket_5: 0
Non-critical_IP_ROB_Stalls_Bucket_5: 112802
Critical_IP_ROB_Stalls_Bucket_6: 0
Non-critical_IP_ROB_Stalls_Bucket_6: 94832
0 => IPs accounting for >50 percent of stalls, 1 => 55, 2 => 60, 3 => 65 and so on till 90.
percent50: 52.8321 num IPs:  6
percent55: 60.0596 num IPs: 7
percent60: 60.0596 num IPs: 7
percent65: 65.902 num IPs: 8
percent70: 71.4111 num IPs: 9
percent75: 78.146 num IPs: 11
percent80: 81.3302 num IPs: 12
percent85: 85.8442 num IPs: 14
percent90: 90.4286 num IPs: 17
Critical_ROB_Stalls_Percent_0_Bucket_0: 1648975
Non-critical_ROB_Stalls_Percent_0_Bucket_0: 999279
Critical_ROB_Stalls_Percent_0_Bucket_1: 505711
Non-critical_ROB_Stalls_Percent_0_Bucket_1: 675726
Critical_ROB_Stalls_Percent_0_Bucket_2: 29495
Non-critical_ROB_Stalls_Percent_0_Bucket_2: 80855
Critical_ROB_Stalls_Percent_0_Bucket_3: 27663
Non-critical_ROB_Stalls_Percent_0_Bucket_3: 82283
Critical_ROB_Stalls_Percent_0_Bucket_4: 20718
Non-critical_ROB_Stalls_Percent_0_Bucket_4: 76015
Critical_ROB_Stalls_Percent_0_Bucket_5: 38467
Non-critical_ROB_Stalls_Percent_0_Bucket_5: 74335
Critical_ROB_Stalls_Percent_0_Bucket_6: 29469
Non-critical_ROB_Stalls_Percent_0_Bucket_6: 65363
Critical_ROB_Stalls_Percent_1_Bucket_0: 1687671
Non-critical_ROB_Stalls_Percent_1_Bucket_0: 960583
Critical_ROB_Stalls_Percent_1_Bucket_1: 757487
Non-critical_ROB_Stalls_Percent_1_Bucket_1: 423950
Critical_ROB_Stalls_Percent_1_Bucket_2: 35014
Non-critical_ROB_Stalls_Percent_1_Bucket_2: 75336
Critical_ROB_Stalls_Percent_1_Bucket_3: 32285
Non-critical_ROB_Stalls_Percent_1_Bucket_3: 77661
Critical_ROB_Stalls_Percent_1_Bucket_4: 25603
Non-critical_ROB_Stalls_Percent_1_Bucket_4: 71130
Critical_ROB_Stalls_Percent_1_Bucket_5: 44061
Non-critical_ROB_Stalls_Percent_1_Bucket_5: 68741
Critical_ROB_Stalls_Percent_1_Bucket_6: 33088
Non-critical_ROB_Stalls_Percent_1_Bucket_6: 61744
Critical_ROB_Stalls_Percent_2_Bucket_0: 1687671
Non-critical_ROB_Stalls_Percent_2_Bucket_0: 960583
Critical_ROB_Stalls_Percent_2_Bucket_1: 757487
Non-critical_ROB_Stalls_Percent_2_Bucket_1: 423950
Critical_ROB_Stalls_Percent_2_Bucket_2: 35014
Non-critical_ROB_Stalls_Percent_2_Bucket_2: 75336
Critical_ROB_Stalls_Percent_2_Bucket_3: 32285
Non-critical_ROB_Stalls_Percent_2_Bucket_3: 77661
Critical_ROB_Stalls_Percent_2_Bucket_4: 25603
Non-critical_ROB_Stalls_Percent_2_Bucket_4: 71130
Critical_ROB_Stalls_Percent_2_Bucket_5: 44061
Non-critical_ROB_Stalls_Percent_2_Bucket_5: 68741
Critical_ROB_Stalls_Percent_2_Bucket_6: 33088
Non-critical_ROB_Stalls_Percent_2_Bucket_6: 61744
Critical_ROB_Stalls_Percent_3_Bucket_0: 1837958
Non-critical_ROB_Stalls_Percent_3_Bucket_0: 810296
Critical_ROB_Stalls_Percent_3_Bucket_1: 820951
Non-critical_ROB_Stalls_Percent_3_Bucket_1: 360486
Critical_ROB_Stalls_Percent_3_Bucket_2: 45979
Non-critical_ROB_Stalls_Percent_3_Bucket_2: 64371
Critical_ROB_Stalls_Percent_3_Bucket_3: 43037
Non-critical_ROB_Stalls_Percent_3_Bucket_3: 66909
Critical_ROB_Stalls_Percent_3_Bucket_4: 31421
Non-critical_ROB_Stalls_Percent_3_Bucket_4: 65312
Critical_ROB_Stalls_Percent_3_Bucket_5: 53331
Non-critical_ROB_Stalls_Percent_3_Bucket_5: 59471
Critical_ROB_Stalls_Percent_3_Bucket_6: 36929
Non-critical_ROB_Stalls_Percent_3_Bucket_6: 57903
Critical_ROB_Stalls_Percent_4_Bucket_0: 2048179
Non-critical_ROB_Stalls_Percent_4_Bucket_0: 600075
Critical_ROB_Stalls_Percent_4_Bucket_1: 831924
Non-critical_ROB_Stalls_Percent_4_Bucket_1: 349513
Critical_ROB_Stalls_Percent_4_Bucket_2: 49967
Non-critical_ROB_Stalls_Percent_4_Bucket_2: 60383
Critical_ROB_Stalls_Percent_4_Bucket_3: 49486
Non-critical_ROB_Stalls_Percent_4_Bucket_3: 60460
Critical_ROB_Stalls_Percent_4_Bucket_4: 34044
Non-critical_ROB_Stalls_Percent_4_Bucket_4: 62689
Critical_ROB_Stalls_Percent_4_Bucket_5: 58458
Non-critical_ROB_Stalls_Percent_4_Bucket_5: 54344
Critical_ROB_Stalls_Percent_4_Bucket_6: 37436
Non-critical_ROB_Stalls_Percent_4_Bucket_6: 57396
Critical_ROB_Stalls_Percent_5_Bucket_0: 2175588
Non-critical_ROB_Stalls_Percent_5_Bucket_0: 472666
Critical_ROB_Stalls_Percent_5_Bucket_1: 958892
Non-critical_ROB_Stalls_Percent_5_Bucket_1: 222545
Critical_ROB_Stalls_Percent_5_Bucket_2: 58721
Non-critical_ROB_Stalls_Percent_5_Bucket_2: 51629
Critical_ROB_Stalls_Percent_5_Bucket_3: 58457
Non-critical_ROB_Stalls_Percent_5_Bucket_3: 51489
Critical_ROB_Stalls_Percent_5_Bucket_4: 41794
Non-critical_ROB_Stalls_Percent_5_Bucket_4: 54939
Critical_ROB_Stalls_Percent_5_Bucket_5: 67013
Non-critical_ROB_Stalls_Percent_5_Bucket_5: 45789
Critical_ROB_Stalls_Percent_5_Bucket_6: 42289
Non-critical_ROB_Stalls_Percent_5_Bucket_6: 52543
Critical_ROB_Stalls_Percent_6_Bucket_0: 2270642
Non-critical_ROB_Stalls_Percent_6_Bucket_0: 377612
Critical_ROB_Stalls_Percent_6_Bucket_1: 983438
Non-critical_ROB_Stalls_Percent_6_Bucket_1: 197999
Critical_ROB_Stalls_Percent_6_Bucket_2: 61464
Non-critical_ROB_Stalls_Percent_6_Bucket_2: 48886
Critical_ROB_Stalls_Percent_6_Bucket_3: 63967
Non-critical_ROB_Stalls_Percent_6_Bucket_3: 45979
Critical_ROB_Stalls_Percent_6_Bucket_4: 44501
Non-critical_ROB_Stalls_Percent_6_Bucket_4: 52232
Critical_ROB_Stalls_Percent_6_Bucket_5: 71488
Non-critical_ROB_Stalls_Percent_6_Bucket_5: 41314
Critical_ROB_Stalls_Percent_6_Bucket_6: 45903
Non-critical_ROB_Stalls_Percent_6_Bucket_6: 48929
Critical_ROB_Stalls_Percent_7_Bucket_0: 2382790
Non-critical_ROB_Stalls_Percent_7_Bucket_0: 265464
Critical_ROB_Stalls_Percent_7_Bucket_1: 1023128
Non-critical_ROB_Stalls_Percent_7_Bucket_1: 158309
Critical_ROB_Stalls_Percent_7_Bucket_2: 66108
Non-critical_ROB_Stalls_Percent_7_Bucket_2: 44242
Critical_ROB_Stalls_Percent_7_Bucket_3: 72301
Non-critical_ROB_Stalls_Percent_7_Bucket_3: 37645
Critical_ROB_Stalls_Percent_7_Bucket_4: 54809
Non-critical_ROB_Stalls_Percent_7_Bucket_4: 41924
Critical_ROB_Stalls_Percent_7_Bucket_5: 81052
Non-critical_ROB_Stalls_Percent_7_Bucket_5: 31750
Critical_ROB_Stalls_Percent_7_Bucket_6: 57773
Non-critical_ROB_Stalls_Percent_7_Bucket_6: 37059
Critical_ROB_Stalls_Percent_8_Bucket_0: 2537142
Non-critical_ROB_Stalls_Percent_8_Bucket_0: 111112
Critical_ROB_Stalls_Percent_8_Bucket_1: 1047118
Non-critical_ROB_Stalls_Percent_8_Bucket_1: 134319
Critical_ROB_Stalls_Percent_8_Bucket_2: 70017
Non-critical_ROB_Stalls_Percent_8_Bucket_2: 40333
Critical_ROB_Stalls_Percent_8_Bucket_3: 77500
Non-critical_ROB_Stalls_Percent_8_Bucket_3: 32446
Critical_ROB_Stalls_Percent_8_Bucket_4: 59684
Non-critical_ROB_Stalls_Percent_8_Bucket_4: 37049
Critical_ROB_Stalls_Percent_8_Bucket_5: 84451
Non-critical_ROB_Stalls_Percent_8_Bucket_5: 28351
Critical_ROB_Stalls_Percent_8_Bucket_6: 61668
Non-critical_ROB_Stalls_Percent_8_Bucket_6: 33164
Average ROB occupancy Load Stall Begin: 50.8674
Average ROB occupancy Load Stall End: 63.2443
Min ROB occupancy Load Stall Begin: 2
Max ROB occupancy Load Stall Begin: 352
Min ROB occupancy Load Stall End: 2
Max ROB occupancy Load Stall End: 352
Average ROB occupancy Critical Load Stall Begin: -nan
Average ROB occupancy Critical Load Stall End: -nan
Min ROB occupancy Critical Load Stall Begin: 400
Max ROB occupancy Critical Load Stall Begin: 0
Min ROB occupancy Critical Load Stall End: 400
Max ROB occupancy Critical Load Stall End: 0
 ROB Load Stall Begin Bucket Count 0: 3360066
 ROB Load Stall End Bucket Count 0: 2648254
 ROB Critical Load Stall Begin Bucket Count 0: 0
 ROB Critical Load Stall End Bucket Count 0: 0
 ROB Load Stall Begin Bucket Count 1: 547664
 ROB Load Stall End Bucket Count 1: 1181437
 ROB Critical Load Stall Begin Bucket Count 1: 0
 ROB Critical Load Stall End Bucket Count 1: 0
 ROB Load Stall Begin Bucket Count 2: 110267
 ROB Load Stall End Bucket Count 2: 110350
 ROB Critical Load Stall Begin Bucket Count 2: 0
 ROB Critical Load Stall End Bucket Count 2: 0
 ROB Load Stall Begin Bucket Count 3: 114687
 ROB Load Stall End Bucket Count 3: 109946
 ROB Critical Load Stall Begin Bucket Count 3: 0
 ROB Critical Load Stall End Bucket Count 3: 0
 ROB Load Stall Begin Bucket Count 4: 94575
 ROB Load Stall End Bucket Count 4: 96733
 ROB Critical Load Stall Begin Bucket Count 4: 0
 ROB Critical Load Stall End Bucket Count 4: 0
 ROB Load Stall Begin Bucket Count 5: 78622
 ROB Load Stall End Bucket Count 5: 112802
 ROB Critical Load Stall Begin Bucket Count 5: 0
 ROB Critical Load Stall End Bucket Count 5: 0
 ROB Load Stall Begin Bucket Count 6: 48473
 ROB Load Stall End Bucket Count 6: 94832
 ROB Critical Load Stall Begin Bucket Count 6: 0
 ROB Critical Load Stall End Bucket Count 6: 0
PIST Tag Read Accesses: 515744
PIST Read Accesses: 257872
PIST Tag Write Accesses: 515744
PIST Write Accesses: 257872
Criticality detector called times: 398975
Max global_stall_cycles_count: 2009186
Threshold Modified: 0 times, factor: 0
Sturdy critical IP cache stats: 
 Unused entries: 0
CIC Tag Read Accesses: 0
CIC Read Accesses: 0
CIC Tag Write Accesses: 0
CIC Write Accesses: 0
Wobbly critical IP cache stats: 
 Unused entries: 102
CIC Tag Read Accesses: 280459889
CIC Read Accesses: 0
CIC Tag Write Accesses: 8067319
CIC Write Accesses: 0
ITLB TOTAL     ACCESS:   12180801  HIT:   12180801  MISS:          0  HIT %:        100  MISS %:          0   MPKI: 0
ITLB LOAD TRANSLATION ACCESS:   12180801  HIT:   12180801  MISS:          0  HIT %:        100  MISS %:          0   MPKI: 0
ITLB PREFETCH  REQUESTED:          0  ISSUED:          0  USEFUL:          0  USELESS:          0
ITLB USEFUL LOAD PREFETCHES:          0 PREFETCH ISSUED TO LOWER LEVEL:          0  ACCURACY: -nan
ITLB TIMELY PREFETCHES:          0 LATE PREFETCHES: 0 DROPPED PREFETCHES: 0
ITLB PREFETCHES SAME FILL-ORIGIN LEVEL: 0 DIFFERENT FILL-ORIGIN LEVEL: 0
ITLB AVERAGE MISS LATENCY: -nan cycles
ITLB RQ	ACCESS:   14882010	FORWARD:          0	MERGED:    2701209	TO_CACHE:   12180801

DTLB TOTAL     ACCESS:   25638847  HIT:   25559284  MISS:      79563  HIT %:    99.6897  MISS %:   0.310322   MPKI: 0.79563
DTLB LOAD TRANSLATION ACCESS:   25638847  HIT:   25559284  MISS:      79563  HIT %:    99.6897  MISS %:   0.310322   MPKI: 0.79563
DTLB PREFETCH  REQUESTED:          0  ISSUED:          0  USEFUL:          0  USELESS:          0
DTLB USEFUL LOAD PREFETCHES:          0 PREFETCH ISSUED TO LOWER LEVEL:          0  ACCURACY: -nan
DTLB TIMELY PREFETCHES:          0 LATE PREFETCHES: 0 DROPPED PREFETCHES: 0
DTLB PREFETCHES SAME FILL-ORIGIN LEVEL: 0 DIFFERENT FILL-ORIGIN LEVEL: 0
DTLB AVERAGE MISS LATENCY: 54.7179 cycles
DTLB RQ	ACCESS:   28389084	FORWARD:          0	MERGED:    2747532	TO_CACHE:   25641552

STLB TOTAL     ACCESS:      79563  HIT:      52260  MISS:      27303  HIT %:    65.6838  MISS %:    34.3162   MPKI: 0.27303
STLB LOAD TRANSLATION ACCESS:      79563  HIT:      52260  MISS:      27303  HIT %:    65.6838  MISS %:    34.3162   MPKI: 0.27303
STLB PREFETCH  REQUESTED:          0  ISSUED:          0  USEFUL:          0  USELESS:          0
STLB USEFUL LOAD PREFETCHES:          0 PREFETCH ISSUED TO LOWER LEVEL:          0  ACCURACY: -nan
STLB TIMELY PREFETCHES:          0 LATE PREFETCHES: 0 DROPPED PREFETCHES: 0
STLB PREFETCHES SAME FILL-ORIGIN LEVEL: 0 DIFFERENT FILL-ORIGIN LEVEL: 0
STLB AVERAGE MISS LATENCY: 132.057 cycles
STLB RQ	ACCESS:      79563	FORWARD:          0	MERGED:          0	TO_CACHE:      79563

STLB Hit, L1D data hit: 0
STLB Hit, L2C data hit: 0
STLB Hit, LLC data hit: 0
STLB Hit, LLC data miss: 0
STLB STLB hints to L2: 0
L1D TOTAL     ACCESS:   28342385  HIT:   26704942  MISS:    1637443  HIT %:    94.2226  MISS %:    5.77736   MPKI: 16.3744
L1D LOAD      ACCESS:   23425163  HIT:   21787720  MISS:    1637443  HIT %:    93.0099  MISS %:     6.9901   MPKI: 16.3744
L1D RFO       ACCESS:    4917222  HIT:    4917222  MISS:          0  HIT %:        100  MISS %:          0   MPKI: 0
L1D PREFETCH  REQUESTED:          0  ISSUED:          0  USEFUL:          0  USELESS:          0
L1D USEFUL LOAD PREFETCHES:          0 PREFETCH ISSUED TO LOWER LEVEL:          0  ACCURACY: -nan
L1D TIMELY PREFETCHES:          0 LATE PREFETCHES: 0 DROPPED PREFETCHES: 0
L1D PREFETCHES SAME FILL-ORIGIN LEVEL: 0 DIFFERENT FILL-ORIGIN LEVEL: 0
L1D AVERAGE MISS LATENCY: 28.2633 cycles
L1D RQ	ACCESS:   34946731	FORWARD:          0	MERGED:   11427374	TO_CACHE:   23471863
L1D WQ	ACCESS:    4917221	FORWARD:      47494	MERGED:          0	TO_CACHE:    4917221

L1D UNIQUE REGIONS ACCESSED: 0
L1D REGIONS CONFLICTS: 0
L1D Cross Page Prefetch Requests: 0
L1D Same Page Prefetch Requests: 0
L1D ROI Sum of L1D PQ occupancy: 0
L1D PREFETCHES PUSHED FROM L2C: 0
L1I TOTAL     ACCESS:   14882009  HIT:   14882009  MISS:          0  HIT %:        100  MISS %:          0   MPKI: 0
L1I LOAD      ACCESS:   14882009  HIT:   14882009  MISS:          0  HIT %:        100  MISS %:          0   MPKI: 0
L1I PREFETCH  REQUESTED:          0  ISSUED:          0  USEFUL:          0  USELESS:          0
L1I USEFUL LOAD PREFETCHES:          0 PREFETCH ISSUED TO LOWER LEVEL:          0  ACCURACY: -nan
L1I TIMELY PREFETCHES:          0 LATE PREFETCHES: 0 DROPPED PREFETCHES: 0
L1I PREFETCHES SAME FILL-ORIGIN LEVEL: 0 DIFFERENT FILL-ORIGIN LEVEL: 0
L1I AVERAGE MISS LATENCY: -nan cycles
L1I RQ	ACCESS:   21712088	FORWARD:          0	MERGED:    6830078	TO_CACHE:   14882010

BTB TOTAL     ACCESS:     673550  HIT:     673547  MISS:          3  HIT %:    99.9996  MISS %: 0.000445401   MPKI: 3e-05
BTB BRANCH_DIRECT_JUMP	ACCESS:          0  HIT:          0  MISS:          0
BTB BRANCH_INDIRECT	ACCESS:          0  HIT:          0  MISS:          0
BTB BRANCH_CONDITIONAL	ACCESS:     673550  HIT:     673547  MISS:          3
BTB BRANCH_DIRECT_CALL	ACCESS:          0  HIT:          0  MISS:          0
BTB BRANCH_INDIRECT_CALL	ACCESS:          0  HIT:          0  MISS:          0
BTB BRANCH_RETURN	ACCESS:          0  HIT:          0  MISS:          0
BTB BRANCH_OTHER ACCESS:          0  HIT:          0  MISS:          0

L2C TOTAL     ACCESS:    4305177  HIT:    2563127  MISS:    1742050  HIT %:    59.5359  MISS %:    40.4641   MPKI: 17.4205
L2C LOAD      ACCESS:    1637443  HIT:    1537544  MISS:      99899  HIT %:    93.8991  MISS %:    6.10091   MPKI: 0.99899
L2C DATA LOAD MPKI: 0.99899
L2C INSTRUCTION LOAD MPKI: 0
L2C PREFETCH  ACCESS:    2121205  HIT:     482830  MISS:    1638375  HIT %:    22.7621  MISS %:    77.2379   MPKI: 16.3837
L2C DATA PREFETCH MPKI: 16.3837
L2C INSTRUCTION PREFETCH MPKI: 0
L2C WRITEBACK ACCESS:     519223  HIT:     519153  MISS:         70  HIT %:    99.9865  MISS %:  0.0134817   MPKI: 0.0007
L2C LOAD TRANSLATION ACCESS:      27306  HIT:      23600  MISS:       3706  HIT %:    86.4279  MISS %:    13.5721   MPKI: 0.03706
L2C PREFETCH  REQUESTED:    2122796  ISSUED:    2122775  USEFUL:    1537447  USELESS:     100629
L2C USEFUL LOAD PREFETCHES:    1537447 PREFETCH ISSUED TO LOWER LEVEL:    1639142  ACCURACY: 93.7958
L2C TIMELY PREFETCHES:    1537447 LATE PREFETCHES: 762 DROPPED PREFETCHES: 0
L2C PREFETCHES SAME FILL-ORIGIN LEVEL: 1639142 DIFFERENT FILL-ORIGIN LEVEL: 0
L2C AVERAGE MISS LATENCY: 215.911 cycles
L2C RQ	ACCESS:    1664749	FORWARD:          0	MERGED:          0	TO_CACHE:    1664749
L2C WQ	ACCESS:     519223	FORWARD:          0	MERGED:          0	TO_CACHE:     519223
L2C PQ	ACCESS:    2122775	FORWARD:          0	MERGED:         34	TO_CACHE:    2122741

L2C Instructions Evicting Data 0
L2C Translations Evicting Data 3702
L2C Data Evicting Data 1734557
L2C Instructions Evicting Instructions 0
L2C Translations Evicting Instructions 0
L2C Data Evicting Instructions 0
L2C Instructions Evicting Translations 0
L2C Translations Evicting Translations 4
L2C Data Evicting Translations 3717
L2C Dense regions hint from L2: 0
PSCL5 TOTAL     ACCESS:      27303  HIT:      27303  MISS:          0  HIT %:        100  MISS %:          0   MPKI: 0
PSCL5 LOAD TRANSLATION ACCESS:      27303  HIT:      27303  MISS:          0  HIT %:        100  MISS %:          0   MPKI: 0
PSCL5 PREFETCH  REQUESTED:          0  ISSUED:          0  USEFUL:          0  USELESS:          0
PSCL5 USEFUL LOAD PREFETCHES:          0 PREFETCH ISSUED TO LOWER LEVEL:          0  ACCURACY: -nan
PSCL5 TIMELY PREFETCHES:          0 LATE PREFETCHES: 0 DROPPED PREFETCHES: 0
PSCL5 PREFETCHES SAME FILL-ORIGIN LEVEL: 0 DIFFERENT FILL-ORIGIN LEVEL: 0

PSCL4 TOTAL     ACCESS:      27303  HIT:      27303  MISS:          0  HIT %:        100  MISS %:          0   MPKI: 0
PSCL4 LOAD TRANSLATION ACCESS:      27303  HIT:      27303  MISS:          0  HIT %:        100  MISS %:          0   MPKI: 0
PSCL4 PREFETCH  REQUESTED:          0  ISSUED:          0  USEFUL:          0  USELESS:          0
PSCL4 USEFUL LOAD PREFETCHES:          0 PREFETCH ISSUED TO LOWER LEVEL:          0  ACCURACY: -nan
PSCL4 TIMELY PREFETCHES:          0 LATE PREFETCHES: 0 DROPPED PREFETCHES: 0
PSCL4 PREFETCHES SAME FILL-ORIGIN LEVEL: 0 DIFFERENT FILL-ORIGIN LEVEL: 0

PSCL3 TOTAL     ACCESS:      27303  HIT:      27303  MISS:          0  HIT %:        100  MISS %:          0   MPKI: 0
PSCL3 LOAD TRANSLATION ACCESS:      27303  HIT:      27303  MISS:          0  HIT %:        100  MISS %:          0   MPKI: 0
PSCL3 PREFETCH  REQUESTED:          0  ISSUED:          0  USEFUL:          0  USELESS:          0
PSCL3 USEFUL LOAD PREFETCHES:          0 PREFETCH ISSUED TO LOWER LEVEL:          0  ACCURACY: -nan
PSCL3 TIMELY PREFETCHES:          0 LATE PREFETCHES: 0 DROPPED PREFETCHES: 0
PSCL3 PREFETCHES SAME FILL-ORIGIN LEVEL: 0 DIFFERENT FILL-ORIGIN LEVEL: 0

PSCL2 TOTAL     ACCESS:      27303  HIT:      27257  MISS:         46  HIT %:    99.8315  MISS %:    0.16848   MPKI: 0.00046
PSCL2 LOAD TRANSLATION ACCESS:      27303  HIT:      27257  MISS:         46  HIT %:    99.8315  MISS %:    0.16848   MPKI: 0.00046
PSCL2 PREFETCH  REQUESTED:          0  ISSUED:          0  USEFUL:          0  USELESS:          0
PSCL2 USEFUL LOAD PREFETCHES:          0 PREFETCH ISSUED TO LOWER LEVEL:          0  ACCURACY: -nan
PSCL2 TIMELY PREFETCHES:          0 LATE PREFETCHES: 0 DROPPED PREFETCHES: 0
PSCL2 PREFETCHES SAME FILL-ORIGIN LEVEL: 0 DIFFERENT FILL-ORIGIN LEVEL: 0

LLC TOTAL     ACCESS:    2263018  HIT:     515376  MISS:    1747642  HIT %:    22.7738  MISS %:    77.2262   MPKI: 17.4764
LLC LOAD      ACCESS:      99137  HIT:        440  MISS:      98697  HIT %:    0.44383  MISS %:    99.5562   MPKI: 0.98697
LLC PREFETCH  ACCESS:    1639138  HIT:       1591  MISS:    1637547  HIT %:  0.0970632  MISS %:    99.9029   MPKI: 16.3755
LLC WRITEBACK ACCESS:     521037  HIT:     513148  MISS:       7889  HIT %:    98.4859  MISS %:     1.5141   MPKI: 0.07889
LLC LOAD TRANSLATION ACCESS:       3706  HIT:        197  MISS:       3509  HIT %:     5.3157  MISS %:    94.6843   MPKI: 0.03509
LLC PREFETCH  REQUESTED:          0  ISSUED:          0  USEFUL:        414  USELESS:    1605677
LLC USEFUL LOAD PREFETCHES:        414 PREFETCH ISSUED TO LOWER LEVEL:    1637551  ACCURACY: 0.0252817
LLC TIMELY PREFETCHES:        414 LATE PREFETCHES: 0 DROPPED PREFETCHES: 0
LLC PREFETCHES SAME FILL-ORIGIN LEVEL: 0 DIFFERENT FILL-ORIGIN LEVEL: 0
LLC AVERAGE MISS LATENCY: 184.601 cycles
LLC RQ	ACCESS:     102843	FORWARD:          0	MERGED:          0	TO_CACHE:     102843
LLC WQ	ACCESS:     521037	FORWARD:          0	MERGED:          0	TO_CACHE:     521037
LLC PQ	ACCESS:    1639142	FORWARD:          0	MERGED:          0	TO_CACHE:    1639142

LLC Dense regions hint to LLC: 0

RAW hits: 426146
Loads Generated: 35372880
Loads sent to L1D: 34946731
Stores Generated: 4917220
Stores sent to L1D: 4917221
Major fault: 0 Minor fault: 33266
Allocated PAGES: 33266
------------------
Depth Distribution
------------------
depth 0: 69
depth 1: 38
depth 2: 77
depth 3: 2283
depth 4: 45285
depth 5: 91540
depth 6: 146261
depth 7: 1032311
depth 8: 248181
depth 9: 155
depth 10: 0
depth 11: 0
depth 12: 0
depth 13: 0
depth 14: 0
depth 15: 0
depth 16: 0
depth 17: 0
depth 18: 0
depth 19: 0
depth 20: 0
depth 21: 0
depth 22: 0
depth 23: 0
depth 24: 0
depth 25: 0
depth 26: 0
depth 27: 0
depth 28: 0
depth 29: 0
Total: 1566200
------------------
ST read accesses: 1539348
ST write accesses: 26852
PT read accesses: 61548994
PT write accesses: 2308639
FILTER read accesses: 13071970
FILTER write accesses: 7037450
GHR read accesses: 3925562
GHR write accesses: 730953
PERC read accesses: 446284773
PERC write accesses: 17174477
GHR counter read accesses: 3132400
GHR counter write accesses: 5282983
GHR ip read accesses: 11066925
GHR ip write accesses: 6264800
ST tag read accesses: 39222569
ST tag write accesses: 14736563

DRAM Statistics
 CHANNEL 0
 RQ ROW_BUFFER_HIT:     443173  ROW_BUFFER_MISS:    1296580
 DBUS_CONGESTED:       1445
 WQ ROW_BUFFER_HIT:     207589  ROW_BUFFER_MISS:     313349  FULL:          0

 AVG_CONGESTED_CYCLE: 4
 All warmup complete: 2
Channel 0 Bank busy for read cycles: 0
Channel 0 Bank busy for write cycles: 0
Channel 0
Rank 0
0banks busy for read cycles: 330087
0banks busy for write cycles: 1241
1banks busy for read cycles: 20550197
1banks busy for write cycles: 348481
2banks busy for read cycles: 22173903
2banks busy for write cycles: 409020
3banks busy for read cycles: 18623238
3banks busy for write cycles: 478227
4banks busy for read cycles: 11632282
4banks busy for write cycles: 555309
5banks busy for read cycles: 5647332
5banks busy for write cycles: 723439
6banks busy for read cycles: 2214612
6banks busy for write cycles: 1041643
7banks busy for read cycles: 821382
7banks busy for write cycles: 2487533
8banks busy for read cycles: 313640
8banks busy for write cycles: 14766475

CPU 0 Branch Prediction Accuracy: 99.9983% MPKI: 0.00012 Average ROB Occupancy at Mispredict: 132.083
Branch types
NOT_BRANCH: 99309279 99.3093%
BRANCH_DIRECT_JUMP: 0 0%
BRANCH_INDIRECT: 0 0%
BRANCH_CONDITIONAL: 690401 0.690401%
BRANCH_DIRECT_CALL: 0 0%
BRANCH_INDIRECT_CALL: 0 0%
BRANCH_RETURN: 0 0%
BRANCH_OTHER: 0 0%

DRAM PAGES: 1048576
Allocated PAGES: 33266
