Initialize SIGNATURE TABLE
ST_SET: 1
ST_WAY: 16
ST_TAG_BIT: 16
ST_TAG_MASK: ffff

Initialize PATTERN TABLE
PT_SET: 16
PT_WAY: 4
SIG_DELTA_BIT: 7
C_SIG_BIT: 4
C_DELTA_BIT: 4

Initialize PREFETCH FILTER
FILTER_SET: 1024

Initialize PERCEPTRON
PERC_ENTRIES: 64
PERC_FEATURES: 9

*** ChampSim Multicore Out-of-Order Simulator ***

Warmup Instructions: 50000000
Simulation Instructions: 100000000
Number of CPUs: 1
LLC sets: 2048
LLC ways: 16
Off-chip DRAM Size: 4096 MB Channels: 1 Width: 64-bit Data Rate: 6400 MT/s
CPU 0 runs ../SPEC2017//649.fotonik3d_s-8225B.champsimtrace.xz
.xz
NUM_OF_IPS_IN_CRITICAL_IP_TRAINING: 64
NUM_OF_CRITICAL_IP_TRAINING_TABLE_WAYS: 2
NUM_OF_CRITICAL_IP_TRAINING_TABLE_SETS: 32
WOBBLY_CRITICAL_IP_CACHE_SETS: 32
WOBBLY_CRITICAL_IP_CACHE_WAYS: 4
BTB has LRU replacement policy
ITLB has LRU replacement policy
DTLB has LRU replacement policy
STLB has LRU replacement policy
L1I has LRU replacement policy
L1D has LRU replacement policy
Initialize SRRIP state for L2C
Initialize DRRIP state for LLC
Heartbeat CPU 0 instructions: 10000001 cycles: 2924670 heartbeat IPC: 3.41919 cumulative IPC: 3.41919 (Simulation time: 0 hr 5 min 25 sec) 
Heartbeat CPU 0 instructions: 20000001 cycles: 5849121 heartbeat IPC: 3.41945 cumulative IPC: 3.41932 (Simulation time: 0 hr 10 min 18 sec) 
Heartbeat CPU 0 instructions: 30000000 cycles: 8773552 heartbeat IPC: 3.41947 cumulative IPC: 3.41937 (Simulation time: 0 hr 14 min 20 sec) 
Heartbeat CPU 0 instructions: 40000002 cycles: 11697986 heartbeat IPC: 3.41947 cumulative IPC: 3.41939 (Simulation time: 0 hr 18 min 3 sec) 
Heartbeat CPU 0 instructions: 50000001 cycles: 14622414 heartbeat IPC: 3.41947 cumulative IPC: 3.41941 (Simulation time: 0 hr 21 min 28 sec) 

Warmup complete CPU 0 instructions: 50000001 cycles: 14622414 (Simulation time: 0 hr 21 min 28 sec) 

Heartbeat CPU 0 instructions: 60000000 cycles: 24686214 heartbeat IPC: 0.99366 cumulative IPC: 0.99366 (Simulation time: 0 hr 25 min 12 sec) 
Heartbeat CPU 0 instructions: 70000002 cycles: 34738148 heartbeat IPC: 0.994834 cumulative IPC: 0.994247 (Simulation time: 0 hr 28 min 46 sec) 
Heartbeat CPU 0 instructions: 80000002 cycles: 44791865 heartbeat IPC: 0.994657 cumulative IPC: 0.994383 (Simulation time: 0 hr 32 min 15 sec) 
Heartbeat CPU 0 instructions: 90000003 cycles: 54846397 heartbeat IPC: 0.994576 cumulative IPC: 0.994432 (Simulation time: 0 hr 35 min 29 sec) 
Heartbeat CPU 0 instructions: 100000000 cycles: 64902432 heartbeat IPC: 0.994427 cumulative IPC: 0.994431 (Simulation time: 0 hr 38 min 27 sec) 
Heartbeat CPU 0 instructions: 110000000 cycles: 74953599 heartbeat IPC: 0.994909 cumulative IPC: 0.994511 (Simulation time: 0 hr 41 min 5 sec) 
Heartbeat CPU 0 instructions: 120000002 cycles: 85001721 heartbeat IPC: 0.995211 cumulative IPC: 0.994611 (Simulation time: 0 hr 43 min 32 sec) 
Heartbeat CPU 0 instructions: 130000003 cycles: 95055764 heartbeat IPC: 0.994625 cumulative IPC: 0.994612 (Simulation time: 0 hr 45 min 53 sec) 
Heartbeat CPU 0 instructions: 140000002 cycles: 105106277 heartbeat IPC: 0.994974 cumulative IPC: 0.994653 (Simulation time: 0 hr 48 min 10 sec) 
Heartbeat CPU 0 instructions: 150000003 cycles: 115159340 heartbeat IPC: 0.994722 cumulative IPC: 0.994659 (Simulation time: 0 hr 50 min 16 sec) 
Finished CPU 0 instructions: 100000002 cycles: 100536926 cumulative IPC: 0.994659 (Simulation time: 0 hr 50 min 16 sec) 

ChampSim completed all CPUs

Region of Interest Statistics

CPU 0 cumulative IPC: 0.994659 instructions: 100000002 cycles: 100536926

CPU 0 Average Load ROB stall cycles: 2.60469e+07
CPU 0 Fraction of times ROB stalled by Loads: 40.1372
CPU 0 Percentage of Load stall cycles in Total stall cycles: 2.97764e+08
Issued all: 52029115
Issued LT all: 38070202
rob_not_full_when_issued_lt_all: 36739476
Issued LT one: 32674900
rob_not_full_when_issued_lt_one: 31466093
 Total stall cycles: 77618249
 Total load stall cycles: 231119438453591
CPU 0 NUM of IPS identified critical: 0
CPU 0 Num of Load IPs stalling ROB: 127
Threshold modification factor: 0
Max PIST entries: 44
Min PIST entries: 0
Avg PIST entries: 24.16
Trouble in retire width: 0.997594
MaC = Marked as critical.
lt_50_percent_before_Mac: 0
gt_90_percent_before_Mac: 0
gt_75_percent_before_Mac: 0
gt_50_percent_before_Mac: 0
stall_proportion_bin_same_before_after: 0
stall_proportion_bin_lower_before_after: 0
stall_proportion_bin_upper_before_after: 0
average_stall_proportion_before: -nan
average_stall_proportion_after: -nan
Critical IP stalls, total frequency: 0
Non-critical IP stalls, total frequency: 3561452
Total Freq all stalling IPs: 3561452
stat_90_percent_critical_ip_stalls_freq: 3255053
stat_90_percent_non_critical_ip_stalls_freq: 306399
Critical_IP_ROB_Stalls_Bucket_0: 0
Non-critical_IP_ROB_Stalls_Bucket_0: 1415063
Critical_IP_ROB_Stalls_Bucket_1: 0
Non-critical_IP_ROB_Stalls_Bucket_1: 1780029
Critical_IP_ROB_Stalls_Bucket_2: 0
Non-critical_IP_ROB_Stalls_Bucket_2: 115538
Critical_IP_ROB_Stalls_Bucket_3: 0
Non-critical_IP_ROB_Stalls_Bucket_3: 84031
Critical_IP_ROB_Stalls_Bucket_4: 0
Non-critical_IP_ROB_Stalls_Bucket_4: 60897
Critical_IP_ROB_Stalls_Bucket_5: 0
Non-critical_IP_ROB_Stalls_Bucket_5: 73639
Critical_IP_ROB_Stalls_Bucket_6: 0
Non-critical_IP_ROB_Stalls_Bucket_6: 32255
0 => IPs accounting for >50 percent of stalls, 1 => 55, 2 => 60, 3 => 65 and so on till 90.
percent50: 53.6973 num IPs:  3
percent55: 70.751 num IPs: 4
percent60: 70.751 num IPs: 4
percent65: 70.751 num IPs: 4
percent70: 70.751 num IPs: 4
percent75: 81.1133 num IPs: 5
percent80: 81.1133 num IPs: 5
percent85: 91.3968 num IPs: 6
percent90: 91.3968 num IPs: 6
Critical_ROB_Stalls_Percent_0_Bucket_0: 867928
Non-critical_ROB_Stalls_Percent_0_Bucket_0: 547135
Critical_ROB_Stalls_Percent_0_Bucket_1: 856558
Non-critical_ROB_Stalls_Percent_0_Bucket_1: 923471
Critical_ROB_Stalls_Percent_0_Bucket_2: 63043
Non-critical_ROB_Stalls_Percent_0_Bucket_2: 52495
Critical_ROB_Stalls_Percent_0_Bucket_3: 47886
Non-critical_ROB_Stalls_Percent_0_Bucket_3: 36145
Critical_ROB_Stalls_Percent_0_Bucket_4: 25607
Non-critical_ROB_Stalls_Percent_0_Bucket_4: 35290
Critical_ROB_Stalls_Percent_0_Bucket_5: 38164
Non-critical_ROB_Stalls_Percent_0_Bucket_5: 35475
Critical_ROB_Stalls_Percent_0_Bucket_6: 13218
Non-critical_ROB_Stalls_Percent_0_Bucket_6: 19037
Critical_ROB_Stalls_Percent_1_Bucket_0: 1049294
Non-critical_ROB_Stalls_Percent_1_Bucket_0: 365769
Critical_ROB_Stalls_Percent_1_Bucket_1: 1205335
Non-critical_ROB_Stalls_Percent_1_Bucket_1: 574694
Critical_ROB_Stalls_Percent_1_Bucket_2: 81685
Non-critical_ROB_Stalls_Percent_1_Bucket_2: 33853
Critical_ROB_Stalls_Percent_1_Bucket_3: 64334
Non-critical_ROB_Stalls_Percent_1_Bucket_3: 19697
Critical_ROB_Stalls_Percent_1_Bucket_4: 33863
Non-critical_ROB_Stalls_Percent_1_Bucket_4: 27034
Critical_ROB_Stalls_Percent_1_Bucket_5: 61545
Non-critical_ROB_Stalls_Percent_1_Bucket_5: 12094
Critical_ROB_Stalls_Percent_1_Bucket_6: 23707
Non-critical_ROB_Stalls_Percent_1_Bucket_6: 8548
Critical_ROB_Stalls_Percent_2_Bucket_0: 1049294
Non-critical_ROB_Stalls_Percent_2_Bucket_0: 365769
Critical_ROB_Stalls_Percent_2_Bucket_1: 1205335
Non-critical_ROB_Stalls_Percent_2_Bucket_1: 574694
Critical_ROB_Stalls_Percent_2_Bucket_2: 81685
Non-critical_ROB_Stalls_Percent_2_Bucket_2: 33853
Critical_ROB_Stalls_Percent_2_Bucket_3: 64334
Non-critical_ROB_Stalls_Percent_2_Bucket_3: 19697
Critical_ROB_Stalls_Percent_2_Bucket_4: 33863
Non-critical_ROB_Stalls_Percent_2_Bucket_4: 27034
Critical_ROB_Stalls_Percent_2_Bucket_5: 61545
Non-critical_ROB_Stalls_Percent_2_Bucket_5: 12094
Critical_ROB_Stalls_Percent_2_Bucket_6: 23707
Non-critical_ROB_Stalls_Percent_2_Bucket_6: 8548
Critical_ROB_Stalls_Percent_3_Bucket_0: 1049294
Non-critical_ROB_Stalls_Percent_3_Bucket_0: 365769
Critical_ROB_Stalls_Percent_3_Bucket_1: 1205335
Non-critical_ROB_Stalls_Percent_3_Bucket_1: 574694
Critical_ROB_Stalls_Percent_3_Bucket_2: 81685
Non-critical_ROB_Stalls_Percent_3_Bucket_2: 33853
Critical_ROB_Stalls_Percent_3_Bucket_3: 64334
Non-critical_ROB_Stalls_Percent_3_Bucket_3: 19697
Critical_ROB_Stalls_Percent_3_Bucket_4: 33863
Non-critical_ROB_Stalls_Percent_3_Bucket_4: 27034
Critical_ROB_Stalls_Percent_3_Bucket_5: 61545
Non-critical_ROB_Stalls_Percent_3_Bucket_5: 12094
Critical_ROB_Stalls_Percent_3_Bucket_6: 23707
Non-critical_ROB_Stalls_Percent_3_Bucket_6: 8548
Critical_ROB_Stalls_Percent_4_Bucket_0: 1049294
Non-critical_ROB_Stalls_Percent_4_Bucket_0: 365769
Critical_ROB_Stalls_Percent_4_Bucket_1: 1205335
Non-critical_ROB_Stalls_Percent_4_Bucket_1: 574694
Critical_ROB_Stalls_Percent_4_Bucket_2: 81685
Non-critical_ROB_Stalls_Percent_4_Bucket_2: 33853
Critical_ROB_Stalls_Percent_4_Bucket_3: 64334
Non-critical_ROB_Stalls_Percent_4_Bucket_3: 19697
Critical_ROB_Stalls_Percent_4_Bucket_4: 33863
Non-critical_ROB_Stalls_Percent_4_Bucket_4: 27034
Critical_ROB_Stalls_Percent_4_Bucket_5: 61545
Non-critical_ROB_Stalls_Percent_4_Bucket_5: 12094
Critical_ROB_Stalls_Percent_4_Bucket_6: 23707
Non-critical_ROB_Stalls_Percent_4_Bucket_6: 8548
Critical_ROB_Stalls_Percent_5_Bucket_0: 1227622
Non-critical_ROB_Stalls_Percent_5_Bucket_0: 187441
Critical_ROB_Stalls_Percent_5_Bucket_1: 1380110
Non-critical_ROB_Stalls_Percent_5_Bucket_1: 399919
Critical_ROB_Stalls_Percent_5_Bucket_2: 87210
Non-critical_ROB_Stalls_Percent_5_Bucket_2: 28328
Critical_ROB_Stalls_Percent_5_Bucket_3: 67480
Non-critical_ROB_Stalls_Percent_5_Bucket_3: 16551
Critical_ROB_Stalls_Percent_5_Bucket_4: 37686
Non-critical_ROB_Stalls_Percent_5_Bucket_4: 23211
Critical_ROB_Stalls_Percent_5_Bucket_5: 64263
Non-critical_ROB_Stalls_Percent_5_Bucket_5: 9376
Critical_ROB_Stalls_Percent_5_Bucket_6: 24440
Non-critical_ROB_Stalls_Percent_5_Bucket_6: 7815
Critical_ROB_Stalls_Percent_6_Bucket_0: 1227622
Non-critical_ROB_Stalls_Percent_6_Bucket_0: 187441
Critical_ROB_Stalls_Percent_6_Bucket_1: 1380110
Non-critical_ROB_Stalls_Percent_6_Bucket_1: 399919
Critical_ROB_Stalls_Percent_6_Bucket_2: 87210
Non-critical_ROB_Stalls_Percent_6_Bucket_2: 28328
Critical_ROB_Stalls_Percent_6_Bucket_3: 67480
Non-critical_ROB_Stalls_Percent_6_Bucket_3: 16551
Critical_ROB_Stalls_Percent_6_Bucket_4: 37686
Non-critical_ROB_Stalls_Percent_6_Bucket_4: 23211
Critical_ROB_Stalls_Percent_6_Bucket_5: 64263
Non-critical_ROB_Stalls_Percent_6_Bucket_5: 9376
Critical_ROB_Stalls_Percent_6_Bucket_6: 24440
Non-critical_ROB_Stalls_Percent_6_Bucket_6: 7815
Critical_ROB_Stalls_Percent_7_Bucket_0: 1404282
Non-critical_ROB_Stalls_Percent_7_Bucket_0: 10781
Critical_ROB_Stalls_Percent_7_Bucket_1: 1550285
Non-critical_ROB_Stalls_Percent_7_Bucket_1: 229744
Critical_ROB_Stalls_Percent_7_Bucket_2: 95776
Non-critical_ROB_Stalls_Percent_7_Bucket_2: 19762
Critical_ROB_Stalls_Percent_7_Bucket_3: 70376
Non-critical_ROB_Stalls_Percent_7_Bucket_3: 13655
Critical_ROB_Stalls_Percent_7_Bucket_4: 42229
Non-critical_ROB_Stalls_Percent_7_Bucket_4: 18668
Critical_ROB_Stalls_Percent_7_Bucket_5: 66758
Non-critical_ROB_Stalls_Percent_7_Bucket_5: 6881
Critical_ROB_Stalls_Percent_7_Bucket_6: 25347
Non-critical_ROB_Stalls_Percent_7_Bucket_6: 6908
Critical_ROB_Stalls_Percent_8_Bucket_0: 1404282
Non-critical_ROB_Stalls_Percent_8_Bucket_0: 10781
Critical_ROB_Stalls_Percent_8_Bucket_1: 1550285
Non-critical_ROB_Stalls_Percent_8_Bucket_1: 229744
Critical_ROB_Stalls_Percent_8_Bucket_2: 95776
Non-critical_ROB_Stalls_Percent_8_Bucket_2: 19762
Critical_ROB_Stalls_Percent_8_Bucket_3: 70376
Non-critical_ROB_Stalls_Percent_8_Bucket_3: 13655
Critical_ROB_Stalls_Percent_8_Bucket_4: 42229
Non-critical_ROB_Stalls_Percent_8_Bucket_4: 18668
Critical_ROB_Stalls_Percent_8_Bucket_5: 66758
Non-critical_ROB_Stalls_Percent_8_Bucket_5: 6881
Critical_ROB_Stalls_Percent_8_Bucket_6: 25347
Non-critical_ROB_Stalls_Percent_8_Bucket_6: 6908
Average ROB occupancy Load Stall Begin: 54.0287
Average ROB occupancy Load Stall End: 68.7141
Min ROB occupancy Load Stall Begin: 8
Max ROB occupancy Load Stall Begin: 352
Min ROB occupancy Load Stall End: 8
Max ROB occupancy Load Stall End: 352
Average ROB occupancy Critical Load Stall Begin: -nan
Average ROB occupancy Critical Load Stall End: -nan
Min ROB occupancy Critical Load Stall Begin: 400
Max ROB occupancy Critical Load Stall Begin: 0
Min ROB occupancy Critical Load Stall End: 400
Max ROB occupancy Critical Load Stall End: 0
 ROB Load Stall Begin Bucket Count 0: 2622434
 ROB Load Stall End Bucket Count 0: 1415063
 ROB Critical Load Stall Begin Bucket Count 0: 0
 ROB Critical Load Stall End Bucket Count 0: 0
 ROB Load Stall Begin Bucket Count 1: 654616
 ROB Load Stall End Bucket Count 1: 1780029
 ROB Critical Load Stall Begin Bucket Count 1: 0
 ROB Critical Load Stall End Bucket Count 1: 0
 ROB Load Stall Begin Bucket Count 2: 91596
 ROB Load Stall End Bucket Count 2: 115538
 ROB Critical Load Stall Begin Bucket Count 2: 0
 ROB Critical Load Stall End Bucket Count 2: 0
 ROB Load Stall Begin Bucket Count 3: 85483
 ROB Load Stall End Bucket Count 3: 84031
 ROB Critical Load Stall Begin Bucket Count 3: 0
 ROB Critical Load Stall End Bucket Count 3: 0
 ROB Load Stall Begin Bucket Count 4: 55043
 ROB Load Stall End Bucket Count 4: 60897
 ROB Critical Load Stall Begin Bucket Count 4: 0
 ROB Critical Load Stall End Bucket Count 4: 0
 ROB Load Stall Begin Bucket Count 5: 39908
 ROB Load Stall End Bucket Count 5: 73639
 ROB Critical Load Stall Begin Bucket Count 5: 0
 ROB Critical Load Stall End Bucket Count 5: 0
 ROB Load Stall Begin Bucket Count 6: 12372
 ROB Load Stall End Bucket Count 6: 32255
 ROB Critical Load Stall Begin Bucket Count 6: 0
 ROB Critical Load Stall End Bucket Count 6: 0
PIST Tag Read Accesses: 278716
PIST Read Accesses: 139358
PIST Tag Write Accesses: 278716
PIST Write Accesses: 139358
Criticality detector called times: 190025
Max global_stall_cycles_count: 366431
Threshold Modified: 0 times, factor: 0
Sturdy critical IP cache stats: 
 Unused entries: 0
CIC Tag Read Accesses: 0
CIC Read Accesses: 0
CIC Tag Write Accesses: 0
CIC Write Accesses: 0
Wobbly critical IP cache stats: 
 Unused entries: 118
CIC Tag Read Accesses: 278934675
CIC Read Accesses: 0
CIC Tag Write Accesses: 10
CIC Write Accesses: 0
ITLB TOTAL     ACCESS:   14036478  HIT:   14036478  MISS:          0  HIT %:        100  MISS %:          0   MPKI: 0
ITLB LOAD TRANSLATION ACCESS:   14036478  HIT:   14036478  MISS:          0  HIT %:        100  MISS %:          0   MPKI: 0
ITLB PREFETCH  REQUESTED:          0  ISSUED:          0  USEFUL:          0  USELESS:          0
ITLB USEFUL LOAD PREFETCHES:          0 PREFETCH ISSUED TO LOWER LEVEL:          0  ACCURACY: -nan
ITLB TIMELY PREFETCHES:          0 LATE PREFETCHES: 0 DROPPED PREFETCHES: 0
ITLB PREFETCHES SAME FILL-ORIGIN LEVEL: 0 DIFFERENT FILL-ORIGIN LEVEL: 0
ITLB AVERAGE MISS LATENCY: -nan cycles
ITLB RQ	ACCESS:   17546624	FORWARD:          0	MERGED:    3510146	TO_CACHE:   14036478

DTLB TOTAL     ACCESS:   15393001  HIT:   15369546  MISS:      23455  HIT %:    99.8476  MISS %:   0.152374   MPKI: 0.23455
DTLB LOAD TRANSLATION ACCESS:   15393001  HIT:   15369546  MISS:      23455  HIT %:    99.8476  MISS %:   0.152374   MPKI: 0.23455
DTLB PREFETCH  REQUESTED:          0  ISSUED:          0  USEFUL:          0  USELESS:          0
DTLB USEFUL LOAD PREFETCHES:          0 PREFETCH ISSUED TO LOWER LEVEL:          0  ACCURACY: -nan
DTLB TIMELY PREFETCHES:          0 LATE PREFETCHES: 0 DROPPED PREFETCHES: 0
DTLB PREFETCHES SAME FILL-ORIGIN LEVEL: 0 DIFFERENT FILL-ORIGIN LEVEL: 0
DTLB AVERAGE MISS LATENCY: 89.2633 cycles
DTLB RQ	ACCESS:   24156893	FORWARD:          0	MERGED:    8762547	TO_CACHE:   15394346

STLB TOTAL     ACCESS:      23455  HIT:       9729  MISS:      13726  HIT %:    41.4794  MISS %:    58.5206   MPKI: 0.13726
STLB LOAD TRANSLATION ACCESS:      23455  HIT:       9729  MISS:      13726  HIT %:    41.4794  MISS %:    58.5206   MPKI: 0.13726
STLB PREFETCH  REQUESTED:          0  ISSUED:          0  USEFUL:          0  USELESS:          0
STLB USEFUL LOAD PREFETCHES:          0 PREFETCH ISSUED TO LOWER LEVEL:          0  ACCURACY: -nan
STLB TIMELY PREFETCHES:          0 LATE PREFETCHES: 0 DROPPED PREFETCHES: 0
STLB PREFETCHES SAME FILL-ORIGIN LEVEL: 0 DIFFERENT FILL-ORIGIN LEVEL: 0
STLB AVERAGE MISS LATENCY: 136.94 cycles
STLB RQ	ACCESS:      23455	FORWARD:          0	MERGED:          0	TO_CACHE:      23455

STLB Hit, L1D data hit: 0
STLB Hit, L2C data hit: 0
STLB Hit, LLC data hit: 0
STLB Hit, LLC data miss: 0
STLB STLB hints to L2: 0
L1D TOTAL     ACCESS:   23947712  HIT:   22624342  MISS:    1323370  HIT %:    94.4739  MISS %:    5.52608   MPKI: 13.2337
L1D LOAD      ACCESS:   16929719  HIT:   15607665  MISS:    1322054  HIT %:    92.1909  MISS %:    7.80907   MPKI: 13.2205
L1D RFO       ACCESS:    7017993  HIT:    7016677  MISS:       1316  HIT %:    99.9812  MISS %:  0.0187518   MPKI: 0.01316
L1D PREFETCH  REQUESTED:          0  ISSUED:          0  USEFUL:          0  USELESS:          0
L1D USEFUL LOAD PREFETCHES:          0 PREFETCH ISSUED TO LOWER LEVEL:          0  ACCURACY: -nan
L1D TIMELY PREFETCHES:          0 LATE PREFETCHES: 0 DROPPED PREFETCHES: 0
L1D PREFETCHES SAME FILL-ORIGIN LEVEL: 0 DIFFERENT FILL-ORIGIN LEVEL: 0
L1D AVERAGE MISS LATENCY: 24.9255 cycles
L1D RQ	ACCESS:   35082927	FORWARD:          0	MERGED:   17946433	TO_CACHE:   17136345
L1D WQ	ACCESS:    7020548	FORWARD:        149	MERGED:          0	TO_CACHE:    7020548

L1D UNIQUE REGIONS ACCESSED: 0
L1D REGIONS CONFLICTS: 0
L1D Cross Page Prefetch Requests: 0
L1D Same Page Prefetch Requests: 0
L1D ROI Sum of L1D PQ occupancy: 0
L1D PREFETCHES PUSHED FROM L2C: 0
L1I TOTAL     ACCESS:   17546623  HIT:   17546623  MISS:          0  HIT %:        100  MISS %:          0   MPKI: 0
L1I LOAD      ACCESS:   17546623  HIT:   17546623  MISS:          0  HIT %:        100  MISS %:          0   MPKI: 0
L1I PREFETCH  REQUESTED:          0  ISSUED:          0  USEFUL:          0  USELESS:          0
L1I USEFUL LOAD PREFETCHES:          0 PREFETCH ISSUED TO LOWER LEVEL:          0  ACCURACY: -nan
L1I TIMELY PREFETCHES:          0 LATE PREFETCHES: 0 DROPPED PREFETCHES: 0
L1I PREFETCHES SAME FILL-ORIGIN LEVEL: 0 DIFFERENT FILL-ORIGIN LEVEL: 0
L1I AVERAGE MISS LATENCY: -nan cycles
L1I RQ	ACCESS:   22833485	FORWARD:          0	MERGED:    5286861	TO_CACHE:   17546624

BTB TOTAL     ACCESS:    1754584  HIT:    1754575  MISS:          9  HIT %:    99.9995  MISS %: 0.000512942   MPKI: 9e-05
BTB BRANCH_DIRECT_JUMP	ACCESS:        438  HIT:        436  MISS:          2
BTB BRANCH_INDIRECT	ACCESS:          0  HIT:          0  MISS:          0
BTB BRANCH_CONDITIONAL	ACCESS:    1753270  HIT:    1753267  MISS:          3
BTB BRANCH_DIRECT_CALL	ACCESS:        438  HIT:        436  MISS:          2
BTB BRANCH_INDIRECT_CALL	ACCESS:          0  HIT:          0  MISS:          0
BTB BRANCH_RETURN	ACCESS:        438  HIT:        436  MISS:          2
BTB BRANCH_OTHER ACCESS:          0  HIT:          0  MISS:          0

L2C TOTAL     ACCESS:    3485937  HIT:    2580513  MISS:     905424  HIT %:    74.0264  MISS %:    25.9736   MPKI: 9.05424
L2C LOAD      ACCESS:    1322054  HIT:    1233590  MISS:      88464  HIT %:    93.3086  MISS %:    6.69141   MPKI: 0.88464
L2C DATA LOAD MPKI: 0.88464
L2C INSTRUCTION LOAD MPKI: 0
L2C RFO       ACCESS:       1316  HIT:       1018  MISS:        298  HIT %:    77.3556  MISS %:    22.6444   MPKI: 0.00298
L2C PREFETCH  ACCESS:    1270117  HIT:     455807  MISS:     814310  HIT %:     35.887  MISS %:     64.113   MPKI: 8.1431
L2C DATA PREFETCH MPKI: 8.1431
L2C INSTRUCTION PREFETCH MPKI: 0
L2C WRITEBACK ACCESS:     878717  HIT:     878189  MISS:        528  HIT %:    99.9399  MISS %:  0.0600876   MPKI: 0.00528
L2C LOAD TRANSLATION ACCESS:      13733  HIT:      11909  MISS:       1824  HIT %:    86.7181  MISS %:    13.2819   MPKI: 0.01824
L2C PREFETCH  REQUESTED:    1305099  ISSUED:    1305099  USEFUL:     812948  USELESS:       1352
L2C USEFUL LOAD PREFETCHES:     812948 PREFETCH ISSUED TO LOWER LEVEL:     843192  ACCURACY: 96.4132
L2C TIMELY PREFETCHES:     812948 LATE PREFETCHES: 28878 DROPPED PREFETCHES: 0
L2C PREFETCHES SAME FILL-ORIGIN LEVEL: 843192 DIFFERENT FILL-ORIGIN LEVEL: 0
L2C AVERAGE MISS LATENCY: 189.587 cycles
L2C RQ	ACCESS:    1337102	FORWARD:          0	MERGED:          0	TO_CACHE:    1337102
L2C WQ	ACCESS:     878717	FORWARD:          0	MERGED:          0	TO_CACHE:     878717
L2C PQ	ACCESS:    1305099	FORWARD:          0	MERGED:        859	TO_CACHE:    1304240

L2C Instructions Evicting Data 0
L2C Translations Evicting Data 1824
L2C Data Evicting Data 901248
L2C Instructions Evicting Instructions 0
L2C Translations Evicting Instructions 0
L2C Data Evicting Instructions 0
L2C Instructions Evicting Translations 0
L2C Translations Evicting Translations 0
L2C Data Evicting Translations 1824
L2C Dense regions hint from L2: 0
PSCL5 TOTAL     ACCESS:      13726  HIT:      13726  MISS:          0  HIT %:        100  MISS %:          0   MPKI: 0
PSCL5 LOAD TRANSLATION ACCESS:      13726  HIT:      13726  MISS:          0  HIT %:        100  MISS %:          0   MPKI: 0
PSCL5 PREFETCH  REQUESTED:          0  ISSUED:          0  USEFUL:          0  USELESS:          0
PSCL5 USEFUL LOAD PREFETCHES:          0 PREFETCH ISSUED TO LOWER LEVEL:          0  ACCURACY: -nan
PSCL5 TIMELY PREFETCHES:          0 LATE PREFETCHES: 0 DROPPED PREFETCHES: 0
PSCL5 PREFETCHES SAME FILL-ORIGIN LEVEL: 0 DIFFERENT FILL-ORIGIN LEVEL: 0

PSCL4 TOTAL     ACCESS:      13726  HIT:      13726  MISS:          0  HIT %:        100  MISS %:          0   MPKI: 0
PSCL4 LOAD TRANSLATION ACCESS:      13726  HIT:      13726  MISS:          0  HIT %:        100  MISS %:          0   MPKI: 0
PSCL4 PREFETCH  REQUESTED:          0  ISSUED:          0  USEFUL:          0  USELESS:          0
PSCL4 USEFUL LOAD PREFETCHES:          0 PREFETCH ISSUED TO LOWER LEVEL:          0  ACCURACY: -nan
PSCL4 TIMELY PREFETCHES:          0 LATE PREFETCHES: 0 DROPPED PREFETCHES: 0
PSCL4 PREFETCHES SAME FILL-ORIGIN LEVEL: 0 DIFFERENT FILL-ORIGIN LEVEL: 0

PSCL3 TOTAL     ACCESS:      13574  HIT:      13569  MISS:          5  HIT %:    99.9632  MISS %:  0.0368351   MPKI: 5e-05
PSCL3 LOAD TRANSLATION ACCESS:      13574  HIT:      13569  MISS:          5  HIT %:    99.9632  MISS %:  0.0368351   MPKI: 5e-05
PSCL3 PREFETCH  REQUESTED:          0  ISSUED:          0  USEFUL:          0  USELESS:          0
PSCL3 USEFUL LOAD PREFETCHES:          0 PREFETCH ISSUED TO LOWER LEVEL:          0  ACCURACY: -nan
PSCL3 TIMELY PREFETCHES:          0 LATE PREFETCHES: 0 DROPPED PREFETCHES: 0
PSCL3 PREFETCHES SAME FILL-ORIGIN LEVEL: 0 DIFFERENT FILL-ORIGIN LEVEL: 0

PSCL2 TOTAL     ACCESS:      13726  HIT:      13678  MISS:         48  HIT %:    99.6503  MISS %:   0.349701   MPKI: 0.00048
PSCL2 LOAD TRANSLATION ACCESS:      13726  HIT:      13678  MISS:         48  HIT %:    99.6503  MISS %:   0.349701   MPKI: 0.00048
PSCL2 PREFETCH  REQUESTED:          0  ISSUED:          0  USEFUL:          0  USELESS:          0
PSCL2 USEFUL LOAD PREFETCHES:          0 PREFETCH ISSUED TO LOWER LEVEL:          0  ACCURACY: -nan
PSCL2 TIMELY PREFETCHES:          0 LATE PREFETCHES: 0 DROPPED PREFETCHES: 0
PSCL2 PREFETCHES SAME FILL-ORIGIN LEVEL: 0 DIFFERENT FILL-ORIGIN LEVEL: 0

LLC TOTAL     ACCESS:    1782409  HIT:     887444  MISS:     894965  HIT %:     49.789  MISS %:     50.211   MPKI: 8.94965
LLC LOAD      ACCESS:      59586  HIT:       7493  MISS:      52093  HIT %:    12.5751  MISS %:    87.4249   MPKI: 0.52093
LLC RFO       ACCESS:        298  HIT:        298  MISS:          0  HIT %:        100  MISS %:          0   MPKI: 0
LLC PREFETCH  ACCESS:     843188  HIT:      15368  MISS:     827820  HIT %:    1.82261  MISS %:    98.1774   MPKI: 8.2782
LLC WRITEBACK ACCESS:     877513  HIT:     864236  MISS:      13277  HIT %:     98.487  MISS %:    1.51303   MPKI: 0.13277
LLC LOAD TRANSLATION ACCESS:       1824  HIT:         49  MISS:       1775  HIT %:     2.6864  MISS %:    97.3136   MPKI: 0.01775
LLC PREFETCH  REQUESTED:          0  ISSUED:          0  USEFUL:        151  USELESS:     797511
LLC USEFUL LOAD PREFETCHES:        151 PREFETCH ISSUED TO LOWER LEVEL:     827823  ACCURACY: 0.0182406
LLC TIMELY PREFETCHES:        151 LATE PREFETCHES: 0 DROPPED PREFETCHES: 0
LLC PREFETCHES SAME FILL-ORIGIN LEVEL: 0 DIFFERENT FILL-ORIGIN LEVEL: 0
LLC AVERAGE MISS LATENCY: 164.867 cycles
LLC RQ	ACCESS:      61707	FORWARD:          0	MERGED:          0	TO_CACHE:      61707
LLC WQ	ACCESS:     877513	FORWARD:          0	MERGED:          0	TO_CACHE:     877513
LLC PQ	ACCESS:     843192	FORWARD:          0	MERGED:          0	TO_CACHE:     843192

LLC Dense regions hint to LLC: 0

RAW hits: 1609
Loads Generated: 35084538
Loads sent to L1D: 35082927
Stores Generated: 7020542
Stores sent to L1D: 7020548
Major fault: 0 Minor fault: 20724
Allocated PAGES: 20724
------------------
Depth Distribution
------------------
depth 0: 66
depth 1: 30
depth 2: 1016
depth 3: 20141
depth 4: 76719
depth 5: 168733
depth 6: 289059
depth 7: 385975
depth 8: 10436
depth 9: 0
depth 10: 0
depth 11: 0
depth 12: 0
depth 13: 0
depth 14: 0
depth 15: 0
depth 16: 0
depth 17: 0
depth 18: 0
depth 19: 0
depth 20: 0
depth 21: 0
depth 22: 0
depth 23: 0
depth 24: 0
depth 25: 0
depth 26: 0
depth 27: 0
depth 28: 0
depth 29: 0
Total: 952175
------------------
ST read accesses: 930644
ST write accesses: 21531
PT read accesses: 33898984
PT write accesses: 1394971
FILTER read accesses: 8423955
FILTER write accesses: 4019543
GHR read accesses: 2233526
GHR write accesses: 399222
PERC read accesses: 243539523
PERC write accesses: 12253581
GHR counter read accesses: 1904350
GHR counter write accesses: 3315913
GHR ip read accesses: 6771822
GHR ip write accesses: 3808700
ST tag read accesses: 24007349
ST tag write accesses: 1940244

DRAM Statistics
 CHANNEL 0
 RQ ROW_BUFFER_HIT:      27813  ROW_BUFFER_MISS:     853875
 DBUS_CONGESTED:         62
 WQ ROW_BUFFER_HIT:     185029  ROW_BUFFER_MISS:     690474  FULL:          0

 AVG_CONGESTED_CYCLE: 5
 All warmup complete: 2
Channel 0 Bank busy for read cycles: 0
Channel 0 Bank busy for write cycles: 0
Channel 0
Rank 0
0banks busy for read cycles: 15500766
0banks busy for write cycles: 85647
1banks busy for read cycles: 21244982
1banks busy for write cycles: 3432266
2banks busy for read cycles: 14849672
2banks busy for write cycles: 2830938
3banks busy for read cycles: 8382355
3banks busy for write cycles: 2930154
4banks busy for read cycles: 4425630
4banks busy for write cycles: 3050950
5banks busy for read cycles: 2476967
5banks busy for write cycles: 3120191
6banks busy for read cycles: 2473480
6banks busy for write cycles: 3333204
7banks busy for read cycles: 777002
7banks busy for write cycles: 2985362
8banks busy for read cycles: 377056
8banks busy for write cycles: 8260305

CPU 0 Branch Prediction Accuracy: 99.9751% MPKI: 0.00438 Average ROB Occupancy at Mispredict: 79.9909
Branch types
NOT_BRANCH: 98243570 98.2436%
BRANCH_DIRECT_JUMP: 438 0.000438%
BRANCH_INDIRECT: 0 0%
BRANCH_CONDITIONAL: 1754803 1.7548%
BRANCH_DIRECT_CALL: 438 0.000438%
BRANCH_INDIRECT_CALL: 0 0%
BRANCH_RETURN: 438 0.000438%
BRANCH_OTHER: 0 0%

DRAM PAGES: 1048576
Allocated PAGES: 20724
