Initialize SIGNATURE TABLE
ST_SET: 1
ST_WAY: 256
ST_TAG_BIT: 16
ST_TAG_MASK: ffff

Initialize PATTERN TABLE
PT_SET: 512
PT_WAY: 4
SIG_DELTA_BIT: 7
C_SIG_BIT: 4
C_DELTA_BIT: 4

Initialize PREFETCH FILTER
FILTER_SET: 1024

Initialize PERCEPTRON
PERC_ENTRIES: 4096
PERC_FEATURES: 9

*** ChampSim Multicore Out-of-Order Simulator ***

Warmup Instructions: 50000000
Simulation Instructions: 100000000
Number of CPUs: 1
LLC sets: 2048
LLC ways: 16
Off-chip DRAM Size: 4096 MB Channels: 1 Width: 64-bit Data Rate: 6400 MT/s
CPU 0 runs ../SPEC2017//649.fotonik3d_s-7084B.champsimtrace.xz
.xz
NUM_OF_IPS_IN_CRITICAL_IP_TRAINING: 64
NUM_OF_CRITICAL_IP_TRAINING_TABLE_WAYS: 2
NUM_OF_CRITICAL_IP_TRAINING_TABLE_SETS: 32
WOBBLY_CRITICAL_IP_CACHE_SETS: 32
WOBBLY_CRITICAL_IP_CACHE_WAYS: 4
BTB has LRU replacement policy
ITLB has LRU replacement policy
DTLB has LRU replacement policy
STLB has LRU replacement policy
L1I has LRU replacement policy
L1D has LRU replacement policy
Initialize SRRIP state for L2C
Initialize DRRIP state for LLC
Heartbeat CPU 0 instructions: 10000001 cycles: 2909193 heartbeat IPC: 3.43738 cumulative IPC: 3.43738 (Simulation time: 0 hr 4 min 59 sec) 
Heartbeat CPU 0 instructions: 20000001 cycles: 5817764 heartbeat IPC: 3.43811 cumulative IPC: 3.43775 (Simulation time: 0 hr 9 min 29 sec) 
Heartbeat CPU 0 instructions: 30000001 cycles: 8729714 heartbeat IPC: 3.43412 cumulative IPC: 3.43654 (Simulation time: 0 hr 13 min 37 sec) 
Heartbeat CPU 0 instructions: 40000003 cycles: 11646426 heartbeat IPC: 3.42852 cumulative IPC: 3.43453 (Simulation time: 0 hr 17 min 23 sec) 
Heartbeat CPU 0 instructions: 50000002 cycles: 14570632 heartbeat IPC: 3.41973 cumulative IPC: 3.43156 (Simulation time: 0 hr 20 min 56 sec) 

Warmup complete CPU 0 instructions: 50000002 cycles: 14570632 (Simulation time: 0 hr 20 min 56 sec) 

% increase in all ip prefetch 257.271
% increase in all ip prefetch -0.348008
Heartbeat CPU 0 instructions: 60000002 cycles: 24803179 heartbeat IPC: 0.977274 cumulative IPC: 0.977274 (Simulation time: 0 hr 25 min 2 sec) 
Heartbeat CPU 0 instructions: 70000002 cycles: 34960747 heartbeat IPC: 0.984488 cumulative IPC: 0.980867 (Simulation time: 0 hr 28 min 47 sec) 
Heartbeat CPU 0 instructions: 80000001 cycles: 45121494 heartbeat IPC: 0.984179 cumulative IPC: 0.981969 (Simulation time: 0 hr 32 min 18 sec) 
Heartbeat CPU 0 instructions: 90000001 cycles: 55282140 heartbeat IPC: 0.984189 cumulative IPC: 0.982523 (Simulation time: 0 hr 35 min 31 sec) 
Heartbeat CPU 0 instructions: 100000003 cycles: 65431520 heartbeat IPC: 0.985282 cumulative IPC: 0.983074 (Simulation time: 0 hr 38 min 37 sec) 
Heartbeat CPU 0 instructions: 110000000 cycles: 75597619 heartbeat IPC: 0.983661 cumulative IPC: 0.983172 (Simulation time: 0 hr 41 min 34 sec) 
Heartbeat CPU 0 instructions: 120000000 cycles: 85753321 heartbeat IPC: 0.984668 cumulative IPC: 0.983385 (Simulation time: 0 hr 44 min 25 sec) 
Heartbeat CPU 0 instructions: 130000003 cycles: 95907363 heartbeat IPC: 0.98483 cumulative IPC: 0.983566 (Simulation time: 0 hr 47 min 8 sec) 
Heartbeat CPU 0 instructions: 140000002 cycles: 106063384 heartbeat IPC: 0.984637 cumulative IPC: 0.983684 (Simulation time: 0 hr 51 min 31 sec) 
Heartbeat CPU 0 instructions: 150000001 cycles: 116216916 heartbeat IPC: 0.984879 cumulative IPC: 0.983804 (Simulation time: 0 hr 57 min 13 sec) 
Finished CPU 0 instructions: 100000000 cycles: 101646285 cumulative IPC: 0.983804 (Simulation time: 0 hr 57 min 13 sec) 

ChampSim completed all CPUs

Region of Interest Statistics

CPU 0 cumulative IPC: 0.983804 instructions: 100000000 cycles: 101646285

CPU 0 Average Load ROB stall cycles: 2.45819e+07
CPU 0 Fraction of times ROB stalled by Loads: 37.3529
CPU 0 Percentage of Load stall cycles in Total stall cycles: 4.13378e+08
Issued all: 52637266
Issued LT all: 36516182
rob_not_full_when_issued_lt_all: 34946702
Issued LT one: 33659982
rob_not_full_when_issued_lt_one: 32218893
 Total stall cycles: 79146452
 Total load stall cycles: 327174014396597
CPU 0 NUM of IPS identified critical: 0
CPU 0 Num of Load IPs stalling ROB: 169
Threshold modification factor: -1
Max PIST entries: 59
Min PIST entries: 0
Avg PIST entries: 35.5
Trouble in retire width: 0.692436
MaC = Marked as critical.
lt_50_percent_before_Mac: 0
gt_90_percent_before_Mac: 0
gt_75_percent_before_Mac: 0
gt_50_percent_before_Mac: 0
stall_proportion_bin_same_before_after: 0
stall_proportion_bin_lower_before_after: 0
stall_proportion_bin_upper_before_after: 0
average_stall_proportion_before: -nan
average_stall_proportion_after: -nan
Critical IP stalls, total frequency: 0
Non-critical IP stalls, total frequency: 4971503
Total Freq all stalling IPs: 4971503
stat_90_percent_critical_ip_stalls_freq: 4529128
stat_90_percent_non_critical_ip_stalls_freq: 442375
Critical_IP_ROB_Stalls_Bucket_0: 0
Non-critical_IP_ROB_Stalls_Bucket_0: 3273838
Critical_IP_ROB_Stalls_Bucket_1: 0
Non-critical_IP_ROB_Stalls_Bucket_1: 1435361
Critical_IP_ROB_Stalls_Bucket_2: 0
Non-critical_IP_ROB_Stalls_Bucket_2: 74533
Critical_IP_ROB_Stalls_Bucket_3: 0
Non-critical_IP_ROB_Stalls_Bucket_3: 61457
Critical_IP_ROB_Stalls_Bucket_4: 0
Non-critical_IP_ROB_Stalls_Bucket_4: 42770
Critical_IP_ROB_Stalls_Bucket_5: 0
Non-critical_IP_ROB_Stalls_Bucket_5: 51043
Critical_IP_ROB_Stalls_Bucket_6: 0
Non-critical_IP_ROB_Stalls_Bucket_6: 32501
0 => IPs accounting for >50 percent of stalls, 1 => 55, 2 => 60, 3 => 65 and so on till 90.
percent50: 54.9034 num IPs:  6
percent55: 62.3163 num IPs: 7
percent60: 62.3163 num IPs: 7
percent65: 67.9916 num IPs: 8
percent70: 73.6631 num IPs: 9
percent75: 77.1224 num IPs: 10
percent80: 80.4008 num IPs: 11
percent85: 85.8086 num IPs: 13
percent90: 91.1018 num IPs: 16
Critical_ROB_Stalls_Percent_0_Bucket_0: 2038244
Non-critical_ROB_Stalls_Percent_0_Bucket_0: 1235594
Critical_ROB_Stalls_Percent_0_Bucket_1: 625374
Non-critical_ROB_Stalls_Percent_0_Bucket_1: 809987
Critical_ROB_Stalls_Percent_0_Bucket_2: 18498
Non-critical_ROB_Stalls_Percent_0_Bucket_2: 56035
Critical_ROB_Stalls_Percent_0_Bucket_3: 14750
Non-critical_ROB_Stalls_Percent_0_Bucket_3: 46707
Critical_ROB_Stalls_Percent_0_Bucket_4: 10204
Non-critical_ROB_Stalls_Percent_0_Bucket_4: 32566
Critical_ROB_Stalls_Percent_0_Bucket_5: 14357
Non-critical_ROB_Stalls_Percent_0_Bucket_5: 36686
Critical_ROB_Stalls_Percent_0_Bucket_6: 8096
Non-critical_ROB_Stalls_Percent_0_Bucket_6: 24405
Critical_ROB_Stalls_Percent_1_Bucket_0: 2083104
Non-critical_ROB_Stalls_Percent_1_Bucket_0: 1190734
Critical_ROB_Stalls_Percent_1_Bucket_1: 936648
Non-critical_ROB_Stalls_Percent_1_Bucket_1: 498713
Critical_ROB_Stalls_Percent_1_Bucket_2: 21286
Non-critical_ROB_Stalls_Percent_1_Bucket_2: 53247
Critical_ROB_Stalls_Percent_1_Bucket_3: 16924
Non-critical_ROB_Stalls_Percent_1_Bucket_3: 44533
Critical_ROB_Stalls_Percent_1_Bucket_4: 11886
Non-critical_ROB_Stalls_Percent_1_Bucket_4: 30884
Critical_ROB_Stalls_Percent_1_Bucket_5: 17792
Non-critical_ROB_Stalls_Percent_1_Bucket_5: 33251
Critical_ROB_Stalls_Percent_1_Bucket_6: 10417
Non-critical_ROB_Stalls_Percent_1_Bucket_6: 22084
Critical_ROB_Stalls_Percent_2_Bucket_0: 2083104
Non-critical_ROB_Stalls_Percent_2_Bucket_0: 1190734
Critical_ROB_Stalls_Percent_2_Bucket_1: 936648
Non-critical_ROB_Stalls_Percent_2_Bucket_1: 498713
Critical_ROB_Stalls_Percent_2_Bucket_2: 21286
Non-critical_ROB_Stalls_Percent_2_Bucket_2: 53247
Critical_ROB_Stalls_Percent_2_Bucket_3: 16924
Non-critical_ROB_Stalls_Percent_2_Bucket_3: 44533
Critical_ROB_Stalls_Percent_2_Bucket_4: 11886
Non-critical_ROB_Stalls_Percent_2_Bucket_4: 30884
Critical_ROB_Stalls_Percent_2_Bucket_5: 17792
Non-critical_ROB_Stalls_Percent_2_Bucket_5: 33251
Critical_ROB_Stalls_Percent_2_Bucket_6: 10417
Non-critical_ROB_Stalls_Percent_2_Bucket_6: 22084
Critical_ROB_Stalls_Percent_3_Bucket_0: 2268095
Non-critical_ROB_Stalls_Percent_3_Bucket_0: 1005743
Critical_ROB_Stalls_Percent_3_Bucket_1: 1011614
Non-critical_ROB_Stalls_Percent_3_Bucket_1: 423747
Critical_ROB_Stalls_Percent_3_Bucket_2: 27577
Non-critical_ROB_Stalls_Percent_3_Bucket_2: 46956
Critical_ROB_Stalls_Percent_3_Bucket_3: 22557
Non-critical_ROB_Stalls_Percent_3_Bucket_3: 38900
Critical_ROB_Stalls_Percent_3_Bucket_4: 14823
Non-critical_ROB_Stalls_Percent_3_Bucket_4: 27947
Critical_ROB_Stalls_Percent_3_Bucket_5: 23002
Non-critical_ROB_Stalls_Percent_3_Bucket_5: 28041
Critical_ROB_Stalls_Percent_3_Bucket_6: 12538
Non-critical_ROB_Stalls_Percent_3_Bucket_6: 19963
Critical_ROB_Stalls_Percent_4_Bucket_0: 2526684
Non-critical_ROB_Stalls_Percent_4_Bucket_0: 747154
Critical_ROB_Stalls_Percent_4_Bucket_1: 1022404
Non-critical_ROB_Stalls_Percent_4_Bucket_1: 412957
Critical_ROB_Stalls_Percent_4_Bucket_2: 29880
Non-critical_ROB_Stalls_Percent_4_Bucket_2: 44653
Critical_ROB_Stalls_Percent_4_Bucket_3: 27793
Non-critical_ROB_Stalls_Percent_4_Bucket_3: 33664
Critical_ROB_Stalls_Percent_4_Bucket_4: 16693
Non-critical_ROB_Stalls_Percent_4_Bucket_4: 26077
Critical_ROB_Stalls_Percent_4_Bucket_5: 25948
Non-critical_ROB_Stalls_Percent_4_Bucket_5: 25095
Critical_ROB_Stalls_Percent_4_Bucket_6: 12763
Non-critical_ROB_Stalls_Percent_4_Bucket_6: 19738
Critical_ROB_Stalls_Percent_5_Bucket_0: 2667951
Non-critical_ROB_Stalls_Percent_5_Bucket_0: 605887
Critical_ROB_Stalls_Percent_5_Bucket_1: 1046259
Non-critical_ROB_Stalls_Percent_5_Bucket_1: 389102
Critical_ROB_Stalls_Percent_5_Bucket_2: 31297
Non-critical_ROB_Stalls_Percent_5_Bucket_2: 43236
Critical_ROB_Stalls_Percent_5_Bucket_3: 29547
Non-critical_ROB_Stalls_Percent_5_Bucket_3: 31910
Critical_ROB_Stalls_Percent_5_Bucket_4: 17934
Non-critical_ROB_Stalls_Percent_5_Bucket_4: 24836
Critical_ROB_Stalls_Percent_5_Bucket_5: 27582
Non-critical_ROB_Stalls_Percent_5_Bucket_5: 23461
Critical_ROB_Stalls_Percent_5_Bucket_6: 13572
Non-critical_ROB_Stalls_Percent_5_Bucket_6: 18929
Critical_ROB_Stalls_Percent_6_Bucket_0: 2684303
Non-critical_ROB_Stalls_Percent_6_Bucket_0: 589535
Critical_ROB_Stalls_Percent_6_Bucket_1: 1178422
Non-critical_ROB_Stalls_Percent_6_Bucket_1: 256939
Critical_ROB_Stalls_Percent_6_Bucket_2: 34924
Non-critical_ROB_Stalls_Percent_6_Bucket_2: 39609
Critical_ROB_Stalls_Percent_6_Bucket_3: 32540
Non-critical_ROB_Stalls_Percent_6_Bucket_3: 28917
Critical_ROB_Stalls_Percent_6_Bucket_4: 20370
Non-critical_ROB_Stalls_Percent_6_Bucket_4: 22400
Critical_ROB_Stalls_Percent_6_Bucket_5: 31208
Non-critical_ROB_Stalls_Percent_6_Bucket_5: 19835
Critical_ROB_Stalls_Percent_6_Bucket_6: 15362
Non-critical_ROB_Stalls_Percent_6_Bucket_6: 17139
Critical_ROB_Stalls_Percent_7_Bucket_0: 2878535
Non-critical_ROB_Stalls_Percent_7_Bucket_0: 395303
Critical_ROB_Stalls_Percent_7_Bucket_1: 1234425
Non-critical_ROB_Stalls_Percent_7_Bucket_1: 200936
Critical_ROB_Stalls_Percent_7_Bucket_2: 38219
Non-critical_ROB_Stalls_Percent_7_Bucket_2: 36314
Critical_ROB_Stalls_Percent_7_Bucket_3: 37672
Non-critical_ROB_Stalls_Percent_7_Bucket_3: 23785
Critical_ROB_Stalls_Percent_7_Bucket_4: 23474
Non-critical_ROB_Stalls_Percent_7_Bucket_4: 19296
Critical_ROB_Stalls_Percent_7_Bucket_5: 35399
Non-critical_ROB_Stalls_Percent_7_Bucket_5: 15644
Critical_ROB_Stalls_Percent_7_Bucket_6: 18252
Non-critical_ROB_Stalls_Percent_7_Bucket_6: 14249
Critical_ROB_Stalls_Percent_8_Bucket_0: 3086417
Non-critical_ROB_Stalls_Percent_8_Bucket_0: 187421
Critical_ROB_Stalls_Percent_8_Bucket_1: 1276794
Non-critical_ROB_Stalls_Percent_8_Bucket_1: 158567
Critical_ROB_Stalls_Percent_8_Bucket_2: 40108
Non-critical_ROB_Stalls_Percent_8_Bucket_2: 34425
Critical_ROB_Stalls_Percent_8_Bucket_3: 41235
Non-critical_ROB_Stalls_Percent_8_Bucket_3: 20222
Critical_ROB_Stalls_Percent_8_Bucket_4: 25889
Non-critical_ROB_Stalls_Percent_8_Bucket_4: 16881
Critical_ROB_Stalls_Percent_8_Bucket_5: 38085
Non-critical_ROB_Stalls_Percent_8_Bucket_5: 12958
Critical_ROB_Stalls_Percent_8_Bucket_6: 20600
Non-critical_ROB_Stalls_Percent_8_Bucket_6: 11901
Average ROB occupancy Load Stall Begin: 39.2808
Average ROB occupancy Load Stall End: 49.6701
Min ROB occupancy Load Stall Begin: 2
Max ROB occupancy Load Stall Begin: 352
Min ROB occupancy Load Stall End: 2
Max ROB occupancy Load Stall End: 352
Average ROB occupancy Critical Load Stall Begin: -nan
Average ROB occupancy Critical Load Stall End: -nan
Min ROB occupancy Critical Load Stall Begin: 400
Max ROB occupancy Critical Load Stall Begin: 0
Min ROB occupancy Critical Load Stall End: 400
Max ROB occupancy Critical Load Stall End: 0
 ROB Load Stall Begin Bucket Count 0: 4140020
 ROB Load Stall End Bucket Count 0: 3273838
 ROB Critical Load Stall Begin Bucket Count 0: 0
 ROB Critical Load Stall End Bucket Count 0: 0
 ROB Load Stall Begin Bucket Count 1: 619043
 ROB Load Stall End Bucket Count 1: 1435361
 ROB Critical Load Stall Begin Bucket Count 1: 0
 ROB Critical Load Stall End Bucket Count 1: 0
 ROB Load Stall Begin Bucket Count 2: 69676
 ROB Load Stall End Bucket Count 2: 74533
 ROB Critical Load Stall Begin Bucket Count 2: 0
 ROB Critical Load Stall End Bucket Count 2: 0
 ROB Load Stall Begin Bucket Count 3: 57910
 ROB Load Stall End Bucket Count 3: 61457
 ROB Critical Load Stall Begin Bucket Count 3: 0
 ROB Critical Load Stall End Bucket Count 3: 0
 ROB Load Stall Begin Bucket Count 4: 39104
 ROB Load Stall End Bucket Count 4: 42770
 ROB Critical Load Stall Begin Bucket Count 4: 0
 ROB Critical Load Stall End Bucket Count 4: 0
 ROB Load Stall Begin Bucket Count 5: 30161
 ROB Load Stall End Bucket Count 5: 51043
 ROB Critical Load Stall Begin Bucket Count 5: 0
 ROB Critical Load Stall End Bucket Count 5: 0
 ROB Load Stall Begin Bucket Count 6: 15589
 ROB Load Stall End Bucket Count 6: 32501
 ROB Critical Load Stall Begin Bucket Count 6: 0
 ROB Critical Load Stall End Bucket Count 6: 0
PIST Tag Read Accesses: 421016
PIST Read Accesses: 210508
PIST Tag Write Accesses: 421016
PIST Write Accesses: 210508
Criticality detector called times: 828832
Max global_stall_cycles_count: 1671535
Threshold Modified: 1 times, factor: -1
Sturdy critical IP cache stats: 
 Unused entries: 0
CIC Tag Read Accesses: 0
CIC Read Accesses: 0
CIC Tag Write Accesses: 0
CIC Write Accesses: 0
Wobbly critical IP cache stats: 
 Unused entries: 106
CIC Tag Read Accesses: 198732563
CIC Read Accesses: 0
CIC Tag Write Accesses: 5117280
CIC Write Accesses: 0
ITLB TOTAL     ACCESS:   12173561  HIT:   12173561  MISS:          0  HIT %:        100  MISS %:          0   MPKI: 0
ITLB LOAD TRANSLATION ACCESS:   12173561  HIT:   12173561  MISS:          0  HIT %:        100  MISS %:          0   MPKI: 0
ITLB PREFETCH  REQUESTED:          0  ISSUED:          0  USEFUL:          0  USELESS:          0
ITLB USEFUL LOAD PREFETCHES:          0 PREFETCH ISSUED TO LOWER LEVEL:          0  ACCURACY: -nan
ITLB TIMELY PREFETCHES:          0 LATE PREFETCHES: 0 DROPPED PREFETCHES: 0
ITLB PREFETCHES SAME FILL-ORIGIN LEVEL: 0 DIFFERENT FILL-ORIGIN LEVEL: 0
ITLB AVERAGE MISS LATENCY: -nan cycles
ITLB RQ	ACCESS:   14876475	FORWARD:          0	MERGED:    2702914	TO_CACHE:   12173561

DTLB TOTAL     ACCESS:   26399720  HIT:   26316233  MISS:      83487  HIT %:    99.6838  MISS %:   0.316242   MPKI: 0.83487
DTLB LOAD TRANSLATION ACCESS:   26399720  HIT:   26316233  MISS:      83487  HIT %:    99.6838  MISS %:   0.316242   MPKI: 0.83487
DTLB PREFETCH  REQUESTED:          0  ISSUED:          0  USEFUL:          0  USELESS:          0
DTLB USEFUL LOAD PREFETCHES:          0 PREFETCH ISSUED TO LOWER LEVEL:          0  ACCURACY: -nan
DTLB TIMELY PREFETCHES:          0 LATE PREFETCHES: 0 DROPPED PREFETCHES: 0
DTLB PREFETCHES SAME FILL-ORIGIN LEVEL: 0 DIFFERENT FILL-ORIGIN LEVEL: 0
DTLB AVERAGE MISS LATENCY: 52.365 cycles
DTLB RQ	ACCESS:   29029978	FORWARD:          0	MERGED:    2628804	TO_CACHE:   26401174

STLB TOTAL     ACCESS:      83487  HIT:      56182  MISS:      27305  HIT %:    67.2943  MISS %:    32.7057   MPKI: 0.27305
STLB LOAD TRANSLATION ACCESS:      83487  HIT:      56182  MISS:      27305  HIT %:    67.2943  MISS %:    32.7057   MPKI: 0.27305
STLB PREFETCH  REQUESTED:          0  ISSUED:          0  USEFUL:          0  USELESS:          0
STLB USEFUL LOAD PREFETCHES:          0 PREFETCH ISSUED TO LOWER LEVEL:          0  ACCURACY: -nan
STLB TIMELY PREFETCHES:          0 LATE PREFETCHES: 0 DROPPED PREFETCHES: 0
STLB PREFETCHES SAME FILL-ORIGIN LEVEL: 0 DIFFERENT FILL-ORIGIN LEVEL: 0
STLB AVERAGE MISS LATENCY: 131.697 cycles
STLB RQ	ACCESS:      83487	FORWARD:          0	MERGED:          0	TO_CACHE:      83487

STLB Hit, L1D data hit: 0
STLB Hit, L2C data hit: 0
STLB Hit, LLC data hit: 0
STLB Hit, LLC data miss: 0
STLB STLB hints to L2: 0
L1D TOTAL     ACCESS:   29012632  HIT:   27375188  MISS:    1637444  HIT %:    94.3561  MISS %:     5.6439   MPKI: 16.3744
L1D LOAD      ACCESS:   24095410  HIT:   22457966  MISS:    1637444  HIT %:    93.2043  MISS %:    6.79567   MPKI: 16.3744
L1D RFO       ACCESS:    4917222  HIT:    4917222  MISS:          0  HIT %:        100  MISS %:          0   MPKI: 0
L1D PREFETCH  REQUESTED:          0  ISSUED:          0  USEFUL:          0  USELESS:          0
L1D USEFUL LOAD PREFETCHES:          0 PREFETCH ISSUED TO LOWER LEVEL:          0  ACCURACY: -nan
L1D TIMELY PREFETCHES:          0 LATE PREFETCHES: 0 DROPPED PREFETCHES: 0
L1D PREFETCHES SAME FILL-ORIGIN LEVEL: 0 DIFFERENT FILL-ORIGIN LEVEL: 0
L1D AVERAGE MISS LATENCY: 21.3294 cycles
L1D RQ	ACCESS:   35118412	FORWARD:          0	MERGED:   10974438	TO_CACHE:   24112757
L1D WQ	ACCESS:    4917221	FORWARD:      31217	MERGED:          0	TO_CACHE:    4917221

L1D UNIQUE REGIONS ACCESSED: 0
L1D REGIONS CONFLICTS: 0
L1D Cross Page Prefetch Requests: 0
L1D Same Page Prefetch Requests: 0
L1D ROI Sum of L1D PQ occupancy: 0
L1D PREFETCHES PUSHED FROM L2C: 0
L1I TOTAL     ACCESS:   14876474  HIT:   14876474  MISS:          0  HIT %:        100  MISS %:          0   MPKI: 0
L1I LOAD      ACCESS:   14876474  HIT:   14876474  MISS:          0  HIT %:        100  MISS %:          0   MPKI: 0
L1I PREFETCH  REQUESTED:          0  ISSUED:          0  USEFUL:          0  USELESS:          0
L1I USEFUL LOAD PREFETCHES:          0 PREFETCH ISSUED TO LOWER LEVEL:          0  ACCURACY: -nan
L1I TIMELY PREFETCHES:          0 LATE PREFETCHES: 0 DROPPED PREFETCHES: 0
L1I PREFETCHES SAME FILL-ORIGIN LEVEL: 0 DIFFERENT FILL-ORIGIN LEVEL: 0
L1I AVERAGE MISS LATENCY: -nan cycles
L1I RQ	ACCESS:   21664941	FORWARD:          0	MERGED:    6788466	TO_CACHE:   14876475

BTB TOTAL     ACCESS:     673550  HIT:     673547  MISS:          3  HIT %:    99.9996  MISS %: 0.000445401   MPKI: 3e-05
BTB BRANCH_DIRECT_JUMP	ACCESS:          0  HIT:          0  MISS:          0
BTB BRANCH_INDIRECT	ACCESS:          0  HIT:          0  MISS:          0
BTB BRANCH_CONDITIONAL	ACCESS:     673550  HIT:     673547  MISS:          3
BTB BRANCH_DIRECT_CALL	ACCESS:          0  HIT:          0  MISS:          0
BTB BRANCH_INDIRECT_CALL	ACCESS:          0  HIT:          0  MISS:          0
BTB BRANCH_RETURN	ACCESS:          0  HIT:          0  MISS:          0
BTB BRANCH_OTHER ACCESS:          0  HIT:          0  MISS:          0

L2C TOTAL     ACCESS:    4387746  HIT:    2642454  MISS:    1745292  HIT %:    60.2235  MISS %:    39.7765   MPKI: 17.4529
L2C LOAD      ACCESS:    1637444  HIT:    1592104  MISS:      45340  HIT %:    97.2311  MISS %:    2.76895   MPKI: 0.4534
L2C DATA LOAD MPKI: 0.4534
L2C INSTRUCTION LOAD MPKI: 0
L2C PREFETCH  ACCESS:    2203771  HIT:     507598  MISS:    1696173  HIT %:    23.0332  MISS %:    76.9668   MPKI: 16.9617
L2C DATA PREFETCH MPKI: 16.9617
L2C INSTRUCTION PREFETCH MPKI: 0
L2C WRITEBACK ACCESS:     519223  HIT:     519154  MISS:         69  HIT %:    99.9867  MISS %:  0.0132891   MPKI: 0.00069
L2C LOAD TRANSLATION ACCESS:      27308  HIT:      23598  MISS:       3710  HIT %:    86.4142  MISS %:    13.5858   MPKI: 0.0371
L2C PREFETCH  REQUESTED:    2205819  ISSUED:    2205794  USEFUL:    1592007  USELESS:     104185
L2C USEFUL LOAD PREFETCHES:    1592007 PREFETCH ISSUED TO LOWER LEVEL:    1697099  ACCURACY: 93.8076
L2C TIMELY PREFETCHES:    1592007 LATE PREFETCHES: 921 DROPPED PREFETCHES: 0
L2C PREFETCHES SAME FILL-ORIGIN LEVEL: 1697099 DIFFERENT FILL-ORIGIN LEVEL: 0
L2C AVERAGE MISS LATENCY: 216.924 cycles
L2C RQ	ACCESS:    1664752	FORWARD:          0	MERGED:          0	TO_CACHE:    1664752
L2C WQ	ACCESS:     519223	FORWARD:          0	MERGED:          0	TO_CACHE:     519223
L2C PQ	ACCESS:    2205794	FORWARD:          0	MERGED:         15	TO_CACHE:    2205779

L2C Instructions Evicting Data 0
L2C Translations Evicting Data 3706
L2C Data Evicting Data 1737806
L2C Instructions Evicting Instructions 0
L2C Translations Evicting Instructions 0
L2C Data Evicting Instructions 0
L2C Instructions Evicting Translations 0
L2C Translations Evicting Translations 4
L2C Data Evicting Translations 3707
L2C Dense regions hint from L2: 0
PSCL5 TOTAL     ACCESS:      27305  HIT:      27305  MISS:          0  HIT %:        100  MISS %:          0   MPKI: 0
PSCL5 LOAD TRANSLATION ACCESS:      27305  HIT:      27305  MISS:          0  HIT %:        100  MISS %:          0   MPKI: 0
PSCL5 PREFETCH  REQUESTED:          0  ISSUED:          0  USEFUL:          0  USELESS:          0
PSCL5 USEFUL LOAD PREFETCHES:          0 PREFETCH ISSUED TO LOWER LEVEL:          0  ACCURACY: -nan
PSCL5 TIMELY PREFETCHES:          0 LATE PREFETCHES: 0 DROPPED PREFETCHES: 0
PSCL5 PREFETCHES SAME FILL-ORIGIN LEVEL: 0 DIFFERENT FILL-ORIGIN LEVEL: 0

PSCL4 TOTAL     ACCESS:      27305  HIT:      27305  MISS:          0  HIT %:        100  MISS %:          0   MPKI: 0
PSCL4 LOAD TRANSLATION ACCESS:      27305  HIT:      27305  MISS:          0  HIT %:        100  MISS %:          0   MPKI: 0
PSCL4 PREFETCH  REQUESTED:          0  ISSUED:          0  USEFUL:          0  USELESS:          0
PSCL4 USEFUL LOAD PREFETCHES:          0 PREFETCH ISSUED TO LOWER LEVEL:          0  ACCURACY: -nan
PSCL4 TIMELY PREFETCHES:          0 LATE PREFETCHES: 0 DROPPED PREFETCHES: 0
PSCL4 PREFETCHES SAME FILL-ORIGIN LEVEL: 0 DIFFERENT FILL-ORIGIN LEVEL: 0

PSCL3 TOTAL     ACCESS:      27305  HIT:      27305  MISS:          0  HIT %:        100  MISS %:          0   MPKI: 0
PSCL3 LOAD TRANSLATION ACCESS:      27305  HIT:      27305  MISS:          0  HIT %:        100  MISS %:          0   MPKI: 0
PSCL3 PREFETCH  REQUESTED:          0  ISSUED:          0  USEFUL:          0  USELESS:          0
PSCL3 USEFUL LOAD PREFETCHES:          0 PREFETCH ISSUED TO LOWER LEVEL:          0  ACCURACY: -nan
PSCL3 TIMELY PREFETCHES:          0 LATE PREFETCHES: 0 DROPPED PREFETCHES: 0
PSCL3 PREFETCHES SAME FILL-ORIGIN LEVEL: 0 DIFFERENT FILL-ORIGIN LEVEL: 0

PSCL2 TOTAL     ACCESS:      27305  HIT:      27259  MISS:         46  HIT %:    99.8315  MISS %:   0.168467   MPKI: 0.00046
PSCL2 LOAD TRANSLATION ACCESS:      27305  HIT:      27259  MISS:         46  HIT %:    99.8315  MISS %:   0.168467   MPKI: 0.00046
PSCL2 PREFETCH  REQUESTED:          0  ISSUED:          0  USEFUL:          0  USELESS:          0
PSCL2 USEFUL LOAD PREFETCHES:          0 PREFETCH ISSUED TO LOWER LEVEL:          0  ACCURACY: -nan
PSCL2 TIMELY PREFETCHES:          0 LATE PREFETCHES: 0 DROPPED PREFETCHES: 0
PSCL2 PREFETCHES SAME FILL-ORIGIN LEVEL: 0 DIFFERENT FILL-ORIGIN LEVEL: 0

LLC TOTAL     ACCESS:    2264418  HIT:     513816  MISS:    1750602  HIT %:    22.6909  MISS %:    77.3091   MPKI: 17.506
LLC LOAD      ACCESS:      44419  HIT:        515  MISS:      43904  HIT %:    1.15941  MISS %:    98.8406   MPKI: 0.43904
LLC PREFETCH  ACCESS:    1697095  HIT:       1778  MISS:    1695317  HIT %:   0.104767  MISS %:    99.8952   MPKI: 16.9532
LLC WRITEBACK ACCESS:     519194  HIT:     511324  MISS:       7870  HIT %:    98.4842  MISS %:    1.51581   MPKI: 0.0787
LLC LOAD TRANSLATION ACCESS:       3710  HIT:        199  MISS:       3511  HIT %:    5.36388  MISS %:    94.6361   MPKI: 0.03511
LLC PREFETCH  REQUESTED:          0  ISSUED:          0  USEFUL:        487  USELESS:    1694846
LLC USEFUL LOAD PREFETCHES:        487 PREFETCH ISSUED TO LOWER LEVEL:    1695321  ACCURACY: 0.0287261
LLC TIMELY PREFETCHES:        487 LATE PREFETCHES: 0 DROPPED PREFETCHES: 0
LLC PREFETCHES SAME FILL-ORIGIN LEVEL: 0 DIFFERENT FILL-ORIGIN LEVEL: 0
LLC AVERAGE MISS LATENCY: 185.624 cycles
LLC RQ	ACCESS:      48129	FORWARD:          0	MERGED:          0	TO_CACHE:      48129
LLC WQ	ACCESS:     519194	FORWARD:          0	MERGED:          0	TO_CACHE:     519194
LLC PQ	ACCESS:    1697099	FORWARD:          0	MERGED:          0	TO_CACHE:    1697099

LLC Dense regions hint to LLC: 0

RAW hits: 254465
Loads Generated: 35372880
Loads sent to L1D: 35118412
Stores Generated: 4917220
Stores sent to L1D: 4917221
Major fault: 0 Minor fault: 33266
Allocated PAGES: 33266
------------------
Depth Distribution
------------------
depth 0: 620
depth 1: 60
depth 2: 36
depth 3: 7298
depth 4: 111059
depth 5: 262608
depth 6: 148876
depth 7: 1559208
depth 8: 364268
depth 9: 2222
depth 10: 20
depth 11: 2
depth 12: 0
depth 13: 0
depth 14: 0
depth 15: 0
depth 16: 0
depth 17: 0
depth 18: 0
depth 19: 0
depth 20: 0
depth 21: 0
depth 22: 0
depth 23: 0
depth 24: 0
depth 25: 0
depth 26: 0
depth 27: 0
depth 28: 0
depth 29: 0
Total: 2456277
------------------
ST read accesses: 1610332
ST write accesses: 27112
PT read accesses: 63076478
PT write accesses: 2415245
FILTER read accesses: 13663784
FILTER write accesses: 7187730
GHR read accesses: 4262956
GHR write accesses: 761439
PERC read accesses: 456907320
PERC write accesses: 17722173
GHR counter read accesses: 3274888
GHR counter write accesses: 5532295
GHR ip read accesses: 11529714
GHR ip write accesses: 6549776
ST tag read accesses: 643613455
ST tag write accesses: 22440913

DRAM Statistics
 CHANNEL 0
 RQ ROW_BUFFER_HIT:     461627  ROW_BUFFER_MISS:    1281105
 DBUS_CONGESTED:       1291
 WQ ROW_BUFFER_HIT:     191803  ROW_BUFFER_MISS:     327451  FULL:          0

 AVG_CONGESTED_CYCLE: 4
 All warmup complete: 2
Channel 0 Bank busy for read cycles: 0
Channel 0 Bank busy for write cycles: 0
Channel 0
Rank 0
0banks busy for read cycles: 289409
0banks busy for write cycles: 769
1banks busy for read cycles: 20284848
1banks busy for write cycles: 284170
2banks busy for read cycles: 22846817
2banks busy for write cycles: 313712
3banks busy for read cycles: 18642713
3banks busy for write cycles: 365973
4banks busy for read cycles: 11183687
4banks busy for write cycles: 430022
5banks busy for read cycles: 5301097
5banks busy for write cycles: 544001
6banks busy for read cycles: 2130641
6banks busy for write cycles: 804477
7banks busy for read cycles: 893011
7banks busy for write cycles: 2142319
8banks busy for read cycles: 454855
8banks busy for write cycles: 14733765

CPU 0 Branch Prediction Accuracy: 99.9983% MPKI: 0.00012 Average ROB Occupancy at Mispredict: 95.75
Branch types
NOT_BRANCH: 99309279 99.3093%
BRANCH_DIRECT_JUMP: 0 0%
BRANCH_INDIRECT: 0 0%
BRANCH_CONDITIONAL: 690401 0.690401%
BRANCH_DIRECT_CALL: 0 0%
BRANCH_INDIRECT_CALL: 0 0%
BRANCH_RETURN: 0 0%
BRANCH_OTHER: 0 0%

DRAM PAGES: 1048576
Allocated PAGES: 33266
