
*** ChampSim Multicore Out-of-Order Simulator ***

Warmup Instructions: 50000000
Simulation Instructions: 100000000
Number of CPUs: 1
LLC sets: 2048
LLC ways: 16
Off-chip DRAM Size: 4096 MB Channels: 1 Width: 64-bit Data Rate: 6400 MT/s
CPU 0 runs ../SPEC2017//649.fotonik3d_s-1176B.champsimtrace.xz
.xz
NUM_OF_IPS_IN_CRITICAL_IP_TRAINING: 64
NUM_OF_CRITICAL_IP_TRAINING_TABLE_WAYS: 2
NUM_OF_CRITICAL_IP_TRAINING_TABLE_SETS: 32
WOBBLY_CRITICAL_IP_CACHE_SETS: 32
WOBBLY_CRITICAL_IP_CACHE_WAYS: 4
BTB has LRU replacement policy
ITLB has LRU replacement policy
DTLB has LRU replacement policy
STLB has LRU replacement policy
L1I has LRU replacement policy
IP Table Entries: 64
L1D has LRU replacement policy
Initialize SRRIP state for L2C
Initialize DRRIP state for LLC
Heartbeat CPU 0 instructions: 10000000 cycles: 2902890 heartbeat IPC: 3.44484 cumulative IPC: 3.44484 (Simulation time: 0 hr 7 min 58 sec) 
Heartbeat CPU 0 instructions: 20000002 cycles: 5805719 heartbeat IPC: 3.44492 cumulative IPC: 3.44488 (Simulation time: 0 hr 15 min 1 sec) 
Heartbeat CPU 0 instructions: 30000001 cycles: 8708513 heartbeat IPC: 3.44496 cumulative IPC: 3.44491 (Simulation time: 0 hr 22 min 0 sec) 
Heartbeat CPU 0 instructions: 40000003 cycles: 11611353 heartbeat IPC: 3.4449 cumulative IPC: 3.4449 (Simulation time: 0 hr 28 min 53 sec) 
Heartbeat CPU 0 instructions: 50000001 cycles: 14514148 heartbeat IPC: 3.44495 cumulative IPC: 3.44491 (Simulation time: 0 hr 35 min 40 sec) 

Warmup complete CPU 0 instructions: 50000001 cycles: 14514148 (Simulation time: 0 hr 35 min 40 sec) 

% increase in all ip prefetch 228.534
% increase in all ip prefetch 0.145575
Heartbeat CPU 0 instructions: 60000003 cycles: 24508301 heartbeat IPC: 1.00059 cumulative IPC: 1.00059 (Simulation time: 0 hr 40 min 19 sec) 
Heartbeat CPU 0 instructions: 70000000 cycles: 34511784 heartbeat IPC: 0.999651 cumulative IPC: 1.00012 (Simulation time: 0 hr 44 min 36 sec) 
Heartbeat CPU 0 instructions: 80000001 cycles: 44517417 heartbeat IPC: 0.999437 cumulative IPC: 0.999891 (Simulation time: 0 hr 48 min 41 sec) 
Heartbeat CPU 0 instructions: 90000001 cycles: 54518637 heartbeat IPC: 0.999878 cumulative IPC: 0.999888 (Simulation time: 0 hr 52 min 41 sec) 
Heartbeat CPU 0 instructions: 100000000 cycles: 64522650 heartbeat IPC: 0.999599 cumulative IPC: 0.99983 (Simulation time: 0 hr 56 min 15 sec) 
Heartbeat CPU 0 instructions: 110000000 cycles: 74524259 heartbeat IPC: 0.999839 cumulative IPC: 0.999831 (Simulation time: 0 hr 59 min 31 sec) 
Heartbeat CPU 0 instructions: 120000001 cycles: 84526363 heartbeat IPC: 0.99979 cumulative IPC: 0.999826 (Simulation time: 1 hr 2 min 22 sec) 
Heartbeat CPU 0 instructions: 130000002 cycles: 94528798 heartbeat IPC: 0.999757 cumulative IPC: 0.999817 (Simulation time: 1 hr 4 min 55 sec) 
Heartbeat CPU 0 instructions: 140000003 cycles: 104533993 heartbeat IPC: 0.999481 cumulative IPC: 0.99978 (Simulation time: 1 hr 7 min 45 sec) 
Heartbeat CPU 0 instructions: 150000000 cycles: 114534450 heartbeat IPC: 0.999954 cumulative IPC: 0.999797 (Simulation time: 1 hr 10 min 29 sec) 
Finished CPU 0 instructions: 100000001 cycles: 100020311 cumulative IPC: 0.999797 (Simulation time: 1 hr 10 min 29 sec) 

ChampSim completed all CPUs

Region of Interest Statistics

CPU 0 cumulative IPC: 0.999797 instructions: 100000001 cycles: 100020311

CPU 0 Average Load ROB stall cycles: 2.54292e+07
CPU 0 Fraction of times ROB stalled by Loads: 39.4093
CPU 0 Percentage of Load stall cycles in Total stall cycles: 3.89935e+08
Issued all: 51390653
Issued LT all: 37383698
rob_not_full_when_issued_lt_all: 36801822
Issued LT one: 32070829
rob_not_full_when_issued_lt_one: 31537149
 Total stall cycles: 78122493
 Total load stall cycles: 304626654994388
CPU 0 NUM of IPS identified critical: 0
CPU 0 Num of Load IPs stalling ROB: 127
Threshold modification factor: -1
Max PIST entries: 45
Min PIST entries: 0
Avg PIST entries: 25.2533
Trouble in retire width: 0.999426
MaC = Marked as critical.
lt_50_percent_before_Mac: 0
gt_90_percent_before_Mac: 0
gt_75_percent_before_Mac: 0
gt_50_percent_before_Mac: 0
stall_proportion_bin_same_before_after: 0
stall_proportion_bin_lower_before_after: 0
stall_proportion_bin_upper_before_after: 0
average_stall_proportion_before: -nan
average_stall_proportion_after: -nan
Critical IP stalls, total frequency: 0
Non-critical IP stalls, total frequency: 4720996
Total Freq all stalling IPs: 4720996
stat_90_percent_critical_ip_stalls_freq: 4412729
stat_90_percent_non_critical_ip_stalls_freq: 308267
Critical_IP_ROB_Stalls_Bucket_0: 0
Non-critical_IP_ROB_Stalls_Bucket_0: 3653587
Critical_IP_ROB_Stalls_Bucket_1: 0
Non-critical_IP_ROB_Stalls_Bucket_1: 949256
Critical_IP_ROB_Stalls_Bucket_2: 0
Non-critical_IP_ROB_Stalls_Bucket_2: 28006
Critical_IP_ROB_Stalls_Bucket_3: 0
Non-critical_IP_ROB_Stalls_Bucket_3: 31185
Critical_IP_ROB_Stalls_Bucket_4: 0
Non-critical_IP_ROB_Stalls_Bucket_4: 20179
Critical_IP_ROB_Stalls_Bucket_5: 0
Non-critical_IP_ROB_Stalls_Bucket_5: 25799
Critical_IP_ROB_Stalls_Bucket_6: 0
Non-critical_IP_ROB_Stalls_Bucket_6: 12984
0 => IPs accounting for >50 percent of stalls, 1 => 55, 2 => 60, 3 => 65 and so on till 90.
percent50: 50.4009 num IPs:  3
percent55: 66.8153 num IPs: 4
percent60: 66.8153 num IPs: 4
percent65: 66.8153 num IPs: 4
percent70: 80.156 num IPs: 5
percent75: 80.156 num IPs: 5
percent80: 80.156 num IPs: 5
percent85: 93.4703 num IPs: 6
percent90: 93.4703 num IPs: 6
Critical_ROB_Stalls_Percent_0_Bucket_0: 1869196
Non-critical_ROB_Stalls_Percent_0_Bucket_0: 1784391
Critical_ROB_Stalls_Percent_0_Bucket_1: 447407
Non-critical_ROB_Stalls_Percent_0_Bucket_1: 501849
Critical_ROB_Stalls_Percent_0_Bucket_2: 16402
Non-critical_ROB_Stalls_Percent_0_Bucket_2: 11604
Critical_ROB_Stalls_Percent_0_Bucket_3: 18202
Non-critical_ROB_Stalls_Percent_0_Bucket_3: 12983
Critical_ROB_Stalls_Percent_0_Bucket_4: 9771
Non-critical_ROB_Stalls_Percent_0_Bucket_4: 10408
Critical_ROB_Stalls_Percent_0_Bucket_5: 13219
Non-critical_ROB_Stalls_Percent_0_Bucket_5: 12580
Critical_ROB_Stalls_Percent_0_Bucket_6: 5228
Non-critical_ROB_Stalls_Percent_0_Bucket_6: 7756
Critical_ROB_Stalls_Percent_1_Bucket_0: 2481801
Non-critical_ROB_Stalls_Percent_1_Bucket_0: 1171786
Critical_ROB_Stalls_Percent_1_Bucket_1: 586780
Non-critical_ROB_Stalls_Percent_1_Bucket_1: 362476
Critical_ROB_Stalls_Percent_1_Bucket_2: 20239
Non-critical_ROB_Stalls_Percent_1_Bucket_2: 7767
Critical_ROB_Stalls_Percent_1_Bucket_3: 23334
Non-critical_ROB_Stalls_Percent_1_Bucket_3: 7851
Critical_ROB_Stalls_Percent_1_Bucket_4: 12252
Non-critical_ROB_Stalls_Percent_1_Bucket_4: 7927
Critical_ROB_Stalls_Percent_1_Bucket_5: 21481
Non-critical_ROB_Stalls_Percent_1_Bucket_5: 4318
Critical_ROB_Stalls_Percent_1_Bucket_6: 8463
Non-critical_ROB_Stalls_Percent_1_Bucket_6: 4521
Critical_ROB_Stalls_Percent_2_Bucket_0: 2481801
Non-critical_ROB_Stalls_Percent_2_Bucket_0: 1171786
Critical_ROB_Stalls_Percent_2_Bucket_1: 586780
Non-critical_ROB_Stalls_Percent_2_Bucket_1: 362476
Critical_ROB_Stalls_Percent_2_Bucket_2: 20239
Non-critical_ROB_Stalls_Percent_2_Bucket_2: 7767
Critical_ROB_Stalls_Percent_2_Bucket_3: 23334
Non-critical_ROB_Stalls_Percent_2_Bucket_3: 7851
Critical_ROB_Stalls_Percent_2_Bucket_4: 12252
Non-critical_ROB_Stalls_Percent_2_Bucket_4: 7927
Critical_ROB_Stalls_Percent_2_Bucket_5: 21481
Non-critical_ROB_Stalls_Percent_2_Bucket_5: 4318
Critical_ROB_Stalls_Percent_2_Bucket_6: 8463
Non-critical_ROB_Stalls_Percent_2_Bucket_6: 4521
Critical_ROB_Stalls_Percent_3_Bucket_0: 2481801
Non-critical_ROB_Stalls_Percent_3_Bucket_0: 1171786
Critical_ROB_Stalls_Percent_3_Bucket_1: 586780
Non-critical_ROB_Stalls_Percent_3_Bucket_1: 362476
Critical_ROB_Stalls_Percent_3_Bucket_2: 20239
Non-critical_ROB_Stalls_Percent_3_Bucket_2: 7767
Critical_ROB_Stalls_Percent_3_Bucket_3: 23334
Non-critical_ROB_Stalls_Percent_3_Bucket_3: 7851
Critical_ROB_Stalls_Percent_3_Bucket_4: 12252
Non-critical_ROB_Stalls_Percent_3_Bucket_4: 7927
Critical_ROB_Stalls_Percent_3_Bucket_5: 21481
Non-critical_ROB_Stalls_Percent_3_Bucket_5: 4318
Critical_ROB_Stalls_Percent_3_Bucket_6: 8463
Non-critical_ROB_Stalls_Percent_3_Bucket_6: 4521
Critical_ROB_Stalls_Percent_4_Bucket_0: 3057086
Non-critical_ROB_Stalls_Percent_4_Bucket_0: 596501
Critical_ROB_Stalls_Percent_4_Bucket_1: 636972
Non-critical_ROB_Stalls_Percent_4_Bucket_1: 312284
Critical_ROB_Stalls_Percent_4_Bucket_2: 21689
Non-critical_ROB_Stalls_Percent_4_Bucket_2: 6317
Critical_ROB_Stalls_Percent_4_Bucket_3: 24258
Non-critical_ROB_Stalls_Percent_4_Bucket_3: 6927
Critical_ROB_Stalls_Percent_4_Bucket_4: 13261
Non-critical_ROB_Stalls_Percent_4_Bucket_4: 6918
Critical_ROB_Stalls_Percent_4_Bucket_5: 21978
Non-critical_ROB_Stalls_Percent_4_Bucket_5: 3821
Critical_ROB_Stalls_Percent_4_Bucket_6: 8917
Non-critical_ROB_Stalls_Percent_4_Bucket_6: 4067
Critical_ROB_Stalls_Percent_5_Bucket_0: 3057086
Non-critical_ROB_Stalls_Percent_5_Bucket_0: 596501
Critical_ROB_Stalls_Percent_5_Bucket_1: 636972
Non-critical_ROB_Stalls_Percent_5_Bucket_1: 312284
Critical_ROB_Stalls_Percent_5_Bucket_2: 21689
Non-critical_ROB_Stalls_Percent_5_Bucket_2: 6317
Critical_ROB_Stalls_Percent_5_Bucket_3: 24258
Non-critical_ROB_Stalls_Percent_5_Bucket_3: 6927
Critical_ROB_Stalls_Percent_5_Bucket_4: 13261
Non-critical_ROB_Stalls_Percent_5_Bucket_4: 6918
Critical_ROB_Stalls_Percent_5_Bucket_5: 21978
Non-critical_ROB_Stalls_Percent_5_Bucket_5: 3821
Critical_ROB_Stalls_Percent_5_Bucket_6: 8917
Non-critical_ROB_Stalls_Percent_5_Bucket_6: 4067
Critical_ROB_Stalls_Percent_6_Bucket_0: 3057086
Non-critical_ROB_Stalls_Percent_6_Bucket_0: 596501
Critical_ROB_Stalls_Percent_6_Bucket_1: 636972
Non-critical_ROB_Stalls_Percent_6_Bucket_1: 312284
Critical_ROB_Stalls_Percent_6_Bucket_2: 21689
Non-critical_ROB_Stalls_Percent_6_Bucket_2: 6317
Critical_ROB_Stalls_Percent_6_Bucket_3: 24258
Non-critical_ROB_Stalls_Percent_6_Bucket_3: 6927
Critical_ROB_Stalls_Percent_6_Bucket_4: 13261
Non-critical_ROB_Stalls_Percent_6_Bucket_4: 6918
Critical_ROB_Stalls_Percent_6_Bucket_5: 21978
Non-critical_ROB_Stalls_Percent_6_Bucket_5: 3821
Critical_ROB_Stalls_Percent_6_Bucket_6: 8917
Non-critical_ROB_Stalls_Percent_6_Bucket_6: 4067
Critical_ROB_Stalls_Percent_7_Bucket_0: 3630912
Non-critical_ROB_Stalls_Percent_7_Bucket_0: 22675
Critical_ROB_Stalls_Percent_7_Bucket_1: 686995
Non-critical_ROB_Stalls_Percent_7_Bucket_1: 262261
Critical_ROB_Stalls_Percent_7_Bucket_2: 23200
Non-critical_ROB_Stalls_Percent_7_Bucket_2: 4806
Critical_ROB_Stalls_Percent_7_Bucket_3: 25237
Non-critical_ROB_Stalls_Percent_7_Bucket_3: 5948
Critical_ROB_Stalls_Percent_7_Bucket_4: 14308
Non-critical_ROB_Stalls_Percent_7_Bucket_4: 5871
Critical_ROB_Stalls_Percent_7_Bucket_5: 22565
Non-critical_ROB_Stalls_Percent_7_Bucket_5: 3234
Critical_ROB_Stalls_Percent_7_Bucket_6: 9512
Non-critical_ROB_Stalls_Percent_7_Bucket_6: 3472
Critical_ROB_Stalls_Percent_8_Bucket_0: 3630912
Non-critical_ROB_Stalls_Percent_8_Bucket_0: 22675
Critical_ROB_Stalls_Percent_8_Bucket_1: 686995
Non-critical_ROB_Stalls_Percent_8_Bucket_1: 262261
Critical_ROB_Stalls_Percent_8_Bucket_2: 23200
Non-critical_ROB_Stalls_Percent_8_Bucket_2: 4806
Critical_ROB_Stalls_Percent_8_Bucket_3: 25237
Non-critical_ROB_Stalls_Percent_8_Bucket_3: 5948
Critical_ROB_Stalls_Percent_8_Bucket_4: 14308
Non-critical_ROB_Stalls_Percent_8_Bucket_4: 5871
Critical_ROB_Stalls_Percent_8_Bucket_5: 22565
Non-critical_ROB_Stalls_Percent_8_Bucket_5: 3234
Critical_ROB_Stalls_Percent_8_Bucket_6: 9512
Non-critical_ROB_Stalls_Percent_8_Bucket_6: 3472
Average ROB occupancy Load Stall Begin: 40.3348
Average ROB occupancy Load Stall End: 49.9438
Min ROB occupancy Load Stall Begin: 2
Max ROB occupancy Load Stall Begin: 352
Min ROB occupancy Load Stall End: 9
Max ROB occupancy Load Stall End: 352
Average ROB occupancy Critical Load Stall Begin: -nan
Average ROB occupancy Critical Load Stall End: -nan
Min ROB occupancy Critical Load Stall Begin: 400
Max ROB occupancy Critical Load Stall Begin: 0
Min ROB occupancy Critical Load Stall End: 400
Max ROB occupancy Critical Load Stall End: 0
 ROB Load Stall Begin Bucket Count 0: 4088586
 ROB Load Stall End Bucket Count 0: 3653587
 ROB Critical Load Stall Begin Bucket Count 0: 0
 ROB Critical Load Stall End Bucket Count 0: 0
 ROB Load Stall Begin Bucket Count 1: 533428
 ROB Load Stall End Bucket Count 1: 949256
 ROB Critical Load Stall Begin Bucket Count 1: 0
 ROB Critical Load Stall End Bucket Count 1: 0
 ROB Load Stall Begin Bucket Count 2: 30450
 ROB Load Stall End Bucket Count 2: 28006
 ROB Critical Load Stall Begin Bucket Count 2: 0
 ROB Critical Load Stall End Bucket Count 2: 0
 ROB Load Stall Begin Bucket Count 3: 30629
 ROB Load Stall End Bucket Count 3: 31185
 ROB Critical Load Stall Begin Bucket Count 3: 0
 ROB Critical Load Stall End Bucket Count 3: 0
 ROB Load Stall Begin Bucket Count 4: 17269
 ROB Load Stall End Bucket Count 4: 20179
 ROB Critical Load Stall Begin Bucket Count 4: 0
 ROB Critical Load Stall End Bucket Count 4: 0
 ROB Load Stall Begin Bucket Count 5: 14714
 ROB Load Stall End Bucket Count 5: 25799
 ROB Critical Load Stall Begin Bucket Count 5: 0
 ROB Critical Load Stall End Bucket Count 5: 0
 ROB Load Stall Begin Bucket Count 6: 5920
 ROB Load Stall End Bucket Count 6: 12984
 ROB Critical Load Stall Begin Bucket Count 6: 0
 ROB Critical Load Stall End Bucket Count 6: 0
PIST Tag Read Accesses: 381694
PIST Read Accesses: 190847
PIST Tag Write Accesses: 381694
PIST Write Accesses: 190847
Criticality detector called times: 219980
Max global_stall_cycles_count: 309982
Threshold Modified: 1 times, factor: -1
Sturdy critical IP cache stats: 
 Unused entries: 0
CIC Tag Read Accesses: 0
CIC Read Accesses: 0
CIC Tag Write Accesses: 0
CIC Write Accesses: 0
Wobbly critical IP cache stats: 
 Unused entries: 118
CIC Tag Read Accesses: 196980694
CIC Read Accesses: 0
CIC Tag Write Accesses: 10
CIC Write Accesses: 0
ITLB TOTAL     ACCESS:   14036536  HIT:   14036536  MISS:          0  HIT %:        100  MISS %:          0   MPKI: 0
ITLB LOAD TRANSLATION ACCESS:   14036536  HIT:   14036536  MISS:          0  HIT %:        100  MISS %:          0   MPKI: 0
ITLB PREFETCH  REQUESTED:          0  ISSUED:          0  USEFUL:          0  USELESS:          0
ITLB USEFUL LOAD PREFETCHES:          0 PREFETCH ISSUED TO LOWER LEVEL:          0  ACCURACY: -nan
ITLB TIMELY PREFETCHES:          0 LATE PREFETCHES: 0 DROPPED PREFETCHES: 0
ITLB PREFETCHES SAME FILL-ORIGIN LEVEL: 0 DIFFERENT FILL-ORIGIN LEVEL: 0
ITLB AVERAGE MISS LATENCY: -nan cycles
ITLB RQ	ACCESS:   17546614	FORWARD:          0	MERGED:    3510079	TO_CACHE:   14036535

DTLB TOTAL     ACCESS:   16231401  HIT:   16207804  MISS:      23597  HIT %:    99.8546  MISS %:   0.145379   MPKI: 0.23597
DTLB LOAD TRANSLATION ACCESS:   16231401  HIT:   16207804  MISS:      23597  HIT %:    99.8546  MISS %:   0.145379   MPKI: 0.23597
DTLB PREFETCH  REQUESTED:          0  ISSUED:          0  USEFUL:          0  USELESS:          0
DTLB USEFUL LOAD PREFETCHES:          0 PREFETCH ISSUED TO LOWER LEVEL:          0  ACCURACY: -nan
DTLB TIMELY PREFETCHES:          0 LATE PREFETCHES: 0 DROPPED PREFETCHES: 0
DTLB PREFETCHES SAME FILL-ORIGIN LEVEL: 0 DIFFERENT FILL-ORIGIN LEVEL: 0
DTLB AVERAGE MISS LATENCY: 88.6892 cycles
DTLB RQ	ACCESS:   25124151	FORWARD:          0	MERGED:    8891392	TO_CACHE:   16232759

STLB TOTAL     ACCESS:    1194852  HIT:    1181134  MISS:      13718  HIT %:    98.8519  MISS %:    1.14809   MPKI: 0.13718
STLB LOAD TRANSLATION ACCESS:      23597  HIT:       9879  MISS:      13718  HIT %:    41.8655  MISS %:    58.1345   MPKI: 0.13718
STLB TRANSLATION FROM L1D PREFETCHER ACCESS:    1171255  HIT:    1171255  MISS:          0  HIT %:        100  MISS %:          0   MPKI: 0
STLB PREFETCH  REQUESTED:          0  ISSUED:          0  USEFUL:          0  USELESS:          0
STLB USEFUL LOAD PREFETCHES:          0 PREFETCH ISSUED TO LOWER LEVEL:          0  ACCURACY: -nan
STLB TIMELY PREFETCHES:          0 LATE PREFETCHES: 0 DROPPED PREFETCHES: 0
STLB PREFETCHES SAME FILL-ORIGIN LEVEL: 0 DIFFERENT FILL-ORIGIN LEVEL: 0
STLB AVERAGE MISS LATENCY: 136.78 cycles
STLB RQ	ACCESS:    1316364	FORWARD:          0	MERGED:     121512	TO_CACHE:    1194852

STLB Hit, L1D data hit: 0
STLB Hit, L2C data hit: 0
STLB Hit, LLC data hit: 0
STLB Hit, LLC data miss: 0
STLB STLB hints to L2: 0
L1D TOTAL     ACCESS:   26365030  HIT:   25037964  MISS:    1327066  HIT %:    94.9666  MISS %:    5.03343   MPKI: 13.2707
L1D LOAD      ACCESS:   18065660  HIT:   18019331  MISS:      46329  HIT %:    99.7436  MISS %:   0.256448   MPKI: 0.46329
L1D RFO       ACCESS:    7018349  HIT:    7016816  MISS:       1533  HIT %:    99.9782  MISS %:  0.0218427   MPKI: 0.01533
L1D PREFETCH  ACCESS:    1281021  HIT:       1817  MISS:    1279204  HIT %:    0.14184  MISS %:    99.8582   MPKI: 12.792
L1D PREFETCH  REQUESTED:    2585534  ISSUED:    2585534  USEFUL:    1275510  USELESS:       3711
L1D USEFUL LOAD PREFETCHES:    1275510 PREFETCH ISSUED TO LOWER LEVEL:    1289346  ACCURACY: 98.9269
L1D TIMELY PREFETCHES:    1275510 LATE PREFETCHES: 10142 DROPPED PREFETCHES: 0
L1D PREFETCHES SAME FILL-ORIGIN LEVEL: 1289346 DIFFERENT FILL-ORIGIN LEVEL: 0
L1D AVERAGE MISS LATENCY: 491471 cycles
L1D RQ	ACCESS:   35082797	FORWARD:          0	MERGED:   16978881	TO_CACHE:   18103603
L1D WQ	ACCESS:    7020548	FORWARD:        313	MERGED:          0	TO_CACHE:    7020548
L1D PQ	ACCESS:    1292767	FORWARD:          0	MERGED:          0	TO_CACHE:    1292767

L1D UNIQUE REGIONS ACCESSED: 0
L1D REGIONS CONFLICTS: 0
L1D Cross Page Prefetch Requests: 0
L1D Same Page Prefetch Requests: 1946098
L1D ROI Sum of L1D PQ occupancy: 16998321
L1D PREFETCHES PUSHED FROM L2C: 0
L1I TOTAL     ACCESS:   17546614  HIT:   17546614  MISS:          0  HIT %:        100  MISS %:          0   MPKI: 0
L1I LOAD      ACCESS:   17546614  HIT:   17546614  MISS:          0  HIT %:        100  MISS %:          0   MPKI: 0
L1I PREFETCH  REQUESTED:          0  ISSUED:          0  USEFUL:          0  USELESS:          0
L1I USEFUL LOAD PREFETCHES:          0 PREFETCH ISSUED TO LOWER LEVEL:          0  ACCURACY: -nan
L1I TIMELY PREFETCHES:          0 LATE PREFETCHES: 0 DROPPED PREFETCHES: 0
L1I PREFETCHES SAME FILL-ORIGIN LEVEL: 0 DIFFERENT FILL-ORIGIN LEVEL: 0
L1I AVERAGE MISS LATENCY: -nan cycles
L1I RQ	ACCESS:   22819075	FORWARD:          0	MERGED:    5272461	TO_CACHE:   17546614

BTB TOTAL     ACCESS:    1754584  HIT:    1754575  MISS:          9  HIT %:    99.9995  MISS %: 0.000512942   MPKI: 9e-05
BTB BRANCH_DIRECT_JUMP	ACCESS:        438  HIT:        436  MISS:          2
BTB BRANCH_INDIRECT	ACCESS:          0  HIT:          0  MISS:          0
BTB BRANCH_CONDITIONAL	ACCESS:    1753270  HIT:    1753267  MISS:          3
BTB BRANCH_DIRECT_CALL	ACCESS:        438  HIT:        436  MISS:          2
BTB BRANCH_INDIRECT_CALL	ACCESS:          0  HIT:          0  MISS:          0
BTB BRANCH_RETURN	ACCESS:        438  HIT:        436  MISS:          2
BTB BRANCH_OTHER ACCESS:          0  HIT:          0  MISS:          0

L2C TOTAL     ACCESS:    7745812  HIT:    6854273  MISS:     891539  HIT %:    88.4901  MISS %:    11.5099   MPKI: 8.91539
L2C LOAD      ACCESS:      36187  HIT:      11540  MISS:      24647  HIT %:    31.8899  MISS %:    68.1101   MPKI: 0.24647
L2C DATA LOAD MPKI: 0.24647
L2C INSTRUCTION LOAD MPKI: 0
L2C RFO       ACCESS:       1533  HIT:       1528  MISS:          5  HIT %:    99.6738  MISS %:   0.326158   MPKI: 5e-05
L2C PREFETCH  ACCESS:    6815879  HIT:    5951503  MISS:     864376  HIT %:    87.3182  MISS %:    12.6818   MPKI: 8.64376
L2C DATA PREFETCH MPKI: 8.64376
L2C INSTRUCTION PREFETCH MPKI: 0
L2C WRITEBACK ACCESS:     878492  HIT:     877786  MISS:        706  HIT %:    99.9196  MISS %:   0.080365   MPKI: 0.00706
L2C LOAD TRANSLATION ACCESS:      13721  HIT:      11916  MISS:       1805  HIT %:     86.845  MISS %:     13.155   MPKI: 0.01805
L2C PREFETCH  REQUESTED:    6752871  ISSUED:    6752871  USEFUL:       4437  USELESS:     860295
L2C USEFUL LOAD PREFETCHES:       4437 PREFETCH ISSUED TO LOWER LEVEL:     864441  ACCURACY: 0.51328
L2C TIMELY PREFETCHES:       4437 LATE PREFETCHES: 63 DROPPED PREFETCHES: 0
L2C PREFETCHES SAME FILL-ORIGIN LEVEL: 770021 DIFFERENT FILL-ORIGIN LEVEL: 0
L2C AVERAGE MISS LATENCY: 195.236 cycles
L2C RQ	ACCESS:      51441	FORWARD:          0	MERGED:          0	TO_CACHE:      51441
L2C WQ	ACCESS:     878492	FORWARD:          0	MERGED:          0	TO_CACHE:     878492
L2C PQ	ACCESS:    8042217	FORWARD:          0	MERGED:     381148	TO_CACHE:    7661069

L2C Instructions Evicting Data 0
L2C Translations Evicting Data 1796
L2C Data Evicting Data 887236
L2C Instructions Evicting Instructions 0
L2C Translations Evicting Instructions 0
L2C Data Evicting Instructions 0
L2C Instructions Evicting Translations 0
L2C Translations Evicting Translations 9
L2C Data Evicting Translations 1792
L2C Dense regions hint from L2: 0
PSCL5 TOTAL     ACCESS:      13718  HIT:      13718  MISS:          0  HIT %:        100  MISS %:          0   MPKI: 0
PSCL5 LOAD TRANSLATION ACCESS:      13718  HIT:      13718  MISS:          0  HIT %:        100  MISS %:          0   MPKI: 0
PSCL5 PREFETCH  REQUESTED:          0  ISSUED:          0  USEFUL:          0  USELESS:          0
PSCL5 USEFUL LOAD PREFETCHES:          0 PREFETCH ISSUED TO LOWER LEVEL:          0  ACCURACY: -nan
PSCL5 TIMELY PREFETCHES:          0 LATE PREFETCHES: 0 DROPPED PREFETCHES: 0
PSCL5 PREFETCHES SAME FILL-ORIGIN LEVEL: 0 DIFFERENT FILL-ORIGIN LEVEL: 0

PSCL4 TOTAL     ACCESS:      13718  HIT:      13718  MISS:          0  HIT %:        100  MISS %:          0   MPKI: 0
PSCL4 LOAD TRANSLATION ACCESS:      13718  HIT:      13718  MISS:          0  HIT %:        100  MISS %:          0   MPKI: 0
PSCL4 PREFETCH  REQUESTED:          0  ISSUED:          0  USEFUL:          0  USELESS:          0
PSCL4 USEFUL LOAD PREFETCHES:          0 PREFETCH ISSUED TO LOWER LEVEL:          0  ACCURACY: -nan
PSCL4 TIMELY PREFETCHES:          0 LATE PREFETCHES: 0 DROPPED PREFETCHES: 0
PSCL4 PREFETCHES SAME FILL-ORIGIN LEVEL: 0 DIFFERENT FILL-ORIGIN LEVEL: 0

PSCL3 TOTAL     ACCESS:      13718  HIT:      13716  MISS:          2  HIT %:    99.9854  MISS %:  0.0145794   MPKI: 2e-05
PSCL3 LOAD TRANSLATION ACCESS:      13718  HIT:      13716  MISS:          2  HIT %:    99.9854  MISS %:  0.0145794   MPKI: 2e-05
PSCL3 PREFETCH  REQUESTED:          0  ISSUED:          0  USEFUL:          0  USELESS:          0
PSCL3 USEFUL LOAD PREFETCHES:          0 PREFETCH ISSUED TO LOWER LEVEL:          0  ACCURACY: -nan
PSCL3 TIMELY PREFETCHES:          0 LATE PREFETCHES: 0 DROPPED PREFETCHES: 0
PSCL3 PREFETCHES SAME FILL-ORIGIN LEVEL: 0 DIFFERENT FILL-ORIGIN LEVEL: 0

PSCL2 TOTAL     ACCESS:      13718  HIT:      13674  MISS:         44  HIT %:    99.6793  MISS %:   0.320746   MPKI: 0.00044
PSCL2 LOAD TRANSLATION ACCESS:      13718  HIT:      13674  MISS:         44  HIT %:    99.6793  MISS %:   0.320746   MPKI: 0.00044
PSCL2 PREFETCH  REQUESTED:          0  ISSUED:          0  USEFUL:          0  USELESS:          0
PSCL2 USEFUL LOAD PREFETCHES:          0 PREFETCH ISSUED TO LOWER LEVEL:          0  ACCURACY: -nan
PSCL2 TIMELY PREFETCHES:          0 LATE PREFETCHES: 0 DROPPED PREFETCHES: 0
PSCL2 PREFETCHES SAME FILL-ORIGIN LEVEL: 0 DIFFERENT FILL-ORIGIN LEVEL: 0

LLC TOTAL     ACCESS:    1767322  HIT:     874462  MISS:     892860  HIT %:    49.4795  MISS %:    50.5205   MPKI: 8.9286
LLC LOAD      ACCESS:      24584  HIT:       7934  MISS:      16650  HIT %:     32.273  MISS %:     67.727   MPKI: 0.1665
LLC RFO       ACCESS:          5  HIT:          5  MISS:          0  HIT %:        100  MISS %:          0   MPKI: 0
LLC PREFETCH  ACCESS:     864439  HIT:       3272  MISS:     861167  HIT %:   0.378511  MISS %:    99.6215   MPKI: 8.61167
LLC WRITEBACK ACCESS:     876489  HIT:     863210  MISS:      13279  HIT %:     98.485  MISS %:    1.51502   MPKI: 0.13279
LLC LOAD TRANSLATION ACCESS:       1805  HIT:         41  MISS:       1764  HIT %:    2.27147  MISS %:    97.7285   MPKI: 0.01764
LLC PREFETCH  REQUESTED:          0  ISSUED:          0  USEFUL:         65  USELESS:     861166
LLC USEFUL LOAD PREFETCHES:         65 PREFETCH ISSUED TO LOWER LEVEL:     861168  ACCURACY: 0.00754789
LLC TIMELY PREFETCHES:         65 LATE PREFETCHES: 0 DROPPED PREFETCHES: 0
LLC PREFETCHES SAME FILL-ORIGIN LEVEL: 0 DIFFERENT FILL-ORIGIN LEVEL: 0
LLC AVERAGE MISS LATENCY: 165.016 cycles
LLC RQ	ACCESS:      26394	FORWARD:          0	MERGED:          0	TO_CACHE:      26394
LLC WQ	ACCESS:     876489	FORWARD:          0	MERGED:          0	TO_CACHE:     876489
LLC PQ	ACCESS:     864441	FORWARD:          0	MERGED:          0	TO_CACHE:     864441

LLC Dense regions hint to LLC: 0

RAW hits: 1731
Loads Generated: 35084535
Loads sent to L1D: 35082797
Stores Generated: 7020542
Stores sent to L1D: 7020548
Major fault: 0 Minor fault: 20726
Allocated PAGES: 20726

stream: 
stream:times selected: 3982135
stream:pref_filled: 1888511
stream:pref_useful: 1882550
stream:pref_late: 9705
stream:misses: 311
stream:misses_by_poll: 0

CS: 
CS:times selected: 3218629
CS:pref_filled: 11237
CS:pref_useful: 11190
CS:pref_late: 294
CS:misses: 54569
CS:misses_by_poll: 15

CPLX: 
CPLX:times selected: 763403
CPLX:pref_filled: 20909
CPLX:pref_useful: 20729
CPLX:pref_late: 86
CPLX:misses: 8310
CPLX:misses_by_poll: 5

NL_L1: 
NL:times selected: 38
NL:pref_filled: 1
NL:pref_useful: 1
NL:pref_late: 1
NL:misses: 2
NL:misses_by_poll: 0

total selections: 7964205
total_filled: 1279204
total_useful: 1275510
total_late: 10308
total_polluted: 20
total_misses_after_warmup: 84272
conflicts: 83422
Degree Incremented Times: 561282
Degree Decremented Times: 0

L1 IP Table Write Accesses: 17231135
L1 IP Table Read Accesses: 17147713
L1 RST Write Accesses: 2477420
L1 RST Read Accesses: 4954840
L1 CSPT Write Accesses: 2477420
L1 CSPT Read Accesses: 3331344
L1 RR Filter Tag Write Accesses: 1292767
L1 RR Filter Tag Read Accesses: 432412725
L1 IP Table Tag Write Accesses: 18103603
L1 IP Table Tag Read Accesses: 18103603
L1 RST Tag Write Accesses: 0
L1 RST Tag Read Accesses: 22344210
L1 RR Filter Write Accesses: 0
L1 RR Filter Read Accesses: 16578972
test: 95592
L2 IP Table Read Accesses: 2427899
L2 IP Table Write Accesses: 2412452
L2 IP Table Tag Read Accesses: 1222874
L2 IP Table Tag Write Accesses: 1222874

DRAM Statistics
 CHANNEL 0
 RQ ROW_BUFFER_HIT:      88741  ROW_BUFFER_MISS:     790840
 DBUS_CONGESTED:        258
 WQ ROW_BUFFER_HIT:     483803  ROW_BUFFER_MISS:     392576  FULL:          0

 AVG_CONGESTED_CYCLE: 3
 All warmup complete: 2
Channel 0 Bank busy for read cycles: 0
Channel 0 Bank busy for write cycles: 0
Channel 0
Rank 0
0banks busy for read cycles: 9482172
0banks busy for write cycles: 17781
1banks busy for read cycles: 40695986
1banks busy for write cycles: 1358614
2banks busy for read cycles: 23837391
2banks busy for write cycles: 724411
3banks busy for read cycles: 2009735
3banks busy for write cycles: 566767
4banks busy for read cycles: 971510
4banks busy for write cycles: 533101
5banks busy for read cycles: 308914
5banks busy for write cycles: 559401
6banks busy for read cycles: 240522
6banks busy for write cycles: 668226
7banks busy for read cycles: 1469667
7banks busy for write cycles: 2314757
8banks busy for read cycles: 1438478
8banks busy for write cycles: 12822879

CPU 0 Branch Prediction Accuracy: 99.9751% MPKI: 0.00438 Average ROB Occupancy at Mispredict: 49.9018
Branch types
NOT_BRANCH: 98243563 98.2436%
BRANCH_DIRECT_JUMP: 438 0.000438%
BRANCH_INDIRECT: 0 0%
BRANCH_CONDITIONAL: 1754803 1.7548%
BRANCH_DIRECT_CALL: 438 0.000438%
BRANCH_INDIRECT_CALL: 0 0%
BRANCH_RETURN: 438 0.000438%
BRANCH_OTHER: 0 0%

DRAM PAGES: 1048576
Allocated PAGES: 20726
