
*** ChampSim Multicore Out-of-Order Simulator ***

Warmup Instructions: 50000000
Simulation Instructions: 100000000
Number of CPUs: 1
LLC sets: 2048
LLC ways: 16
Off-chip DRAM Size: 4096 MB Channels: 1 Width: 64-bit Data Rate: 6400 MT/s
CPU 0 runs ../SPEC2017//649.fotonik3d_s-8225B.champsimtrace.xz
.xz
BTB has LRU replacement policy
ITLB has LRU replacement policy
DTLB has LRU replacement policy
STLB has LRU replacement policy
L1I has LRU replacement policy
IP Table Entries: 64
L1D has LRU replacement policy
Initialize SRRIP state for L2C
Initialize DRRIP state for LLC
Heartbeat CPU 0 instructions: 10000001 cycles: 2903809 heartbeat IPC: 3.44375 cumulative IPC: 3.44375 (Simulation time: 0 hr 6 min 5 sec) 
Heartbeat CPU 0 instructions: 20000001 cycles: 5807595 heartbeat IPC: 3.44378 cumulative IPC: 3.44377 (Simulation time: 0 hr 11 min 33 sec) 
Heartbeat CPU 0 instructions: 30000000 cycles: 8711367 heartbeat IPC: 3.4438 cumulative IPC: 3.44378 (Simulation time: 0 hr 16 min 54 sec) 
Heartbeat CPU 0 instructions: 40000002 cycles: 11615170 heartbeat IPC: 3.44376 cumulative IPC: 3.44377 (Simulation time: 0 hr 21 min 54 sec) 
Heartbeat CPU 0 instructions: 50000001 cycles: 14518916 heartbeat IPC: 3.44383 cumulative IPC: 3.44378 (Simulation time: 0 hr 26 min 42 sec) 

Warmup complete CPU 0 instructions: 50000001 cycles: 14518916 (Simulation time: 0 hr 26 min 42 sec) 

Heartbeat CPU 0 instructions: 60000000 cycles: 31769474 heartbeat IPC: 0.579691 cumulative IPC: 0.579691 (Simulation time: 0 hr 32 min 27 sec) 
Heartbeat CPU 0 instructions: 70000001 cycles: 49048880 heartbeat IPC: 0.578724 cumulative IPC: 0.579207 (Simulation time: 0 hr 37 min 39 sec) 
Heartbeat CPU 0 instructions: 80000001 cycles: 66332580 heartbeat IPC: 0.57858 cumulative IPC: 0.578998 (Simulation time: 0 hr 42 min 45 sec) 
Heartbeat CPU 0 instructions: 90000000 cycles: 83626498 heartbeat IPC: 0.578238 cumulative IPC: 0.578808 (Simulation time: 0 hr 47 min 42 sec) 
Heartbeat CPU 0 instructions: 100000000 cycles: 100915861 heartbeat IPC: 0.57839 cumulative IPC: 0.578724 (Simulation time: 0 hr 52 min 51 sec) 
Heartbeat CPU 0 instructions: 110000000 cycles: 118218911 heartbeat IPC: 0.577933 cumulative IPC: 0.578592 (Simulation time: 0 hr 57 min 32 sec) 
Heartbeat CPU 0 instructions: 120000002 cycles: 135516259 heartbeat IPC: 0.578123 cumulative IPC: 0.578525 (Simulation time: 1 hr 1 min 46 sec) 
Heartbeat CPU 0 instructions: 130000000 cycles: 152825746 heartbeat IPC: 0.577718 cumulative IPC: 0.578424 (Simulation time: 1 hr 5 min 50 sec) 
Heartbeat CPU 0 instructions: 140000001 cycles: 170158595 heartbeat IPC: 0.576939 cumulative IPC: 0.578259 (Simulation time: 1 hr 9 min 25 sec) 
Heartbeat CPU 0 instructions: 150000003 cycles: 187503444 heartbeat IPC: 0.57654 cumulative IPC: 0.578086 (Simulation time: 1 hr 12 min 0 sec) 
Finished CPU 0 instructions: 100000002 cycles: 172984528 cumulative IPC: 0.578086 (Simulation time: 1 hr 12 min 0 sec) 

ChampSim completed all CPUs

Region of Interest Statistics

CPU 0 cumulative IPC: 0.578086 instructions: 100000002 cycles: 172984528

CPU 0 Average Load ROB stall cycles: 3.94425e+07
CPU 0 Fraction of times ROB stalled by Loads: 39.001
CPU 0 Percentage of Load stall cycles in Total stall cycles: 1.24945e+08
Issued all: 136733316
Issued LT all: 127231405
rob_not_full_when_issued_lt_all: 29811652
Issued LT one: 113954656
rob_not_full_when_issued_lt_one: 24259973
 Total stall cycles: 148229050
 Total load stall cycles: 185204284854681
Unique Load IPs: 147
CPU 0 NUM of IPS identified critical: 6
CPU 0 Num of Load IPs stalling ROB: 0
Threshold modification factor: 0
Trouble in retire width: -nan
MaC = Marked as critical.
lt_50_percent_before_Mac: 5
gt_90_percent_before_Mac: 0
gt_75_percent_before_Mac: 0
gt_50_percent_before_Mac: 1
stall_proportion_bin_same_before_after: 0
stall_proportion_bin_lower_before_after: 0
stall_proportion_bin_upper_before_after: 0
average_stall_proportion_before: 0.0113199
average_stall_proportion_after: 0.0113256
Critical_IP_Detector_Accuracy_70: 0
Critical_IP_Detector_Accuracy_80: 0
Critical_IP_Detector_Accuracy_90: 0
Critical_IP_Detector_Coverage_70: 0
Critical_IP_Detector_Coverage_80: 0
Critical_IP_Detector_Coverage_90: 0
stat_90_percent_critical_ip_stalls_freq: 489831
stat_90_percent_non_critical_ip_stalls_freq: 18446744073709061785
AVERAGE_ROB_Occupancy_90_Percent_Critical_IP_Stalls: 337.623
AVERAGE_ROB_Occupancy_90_Percent_Non_Critical_IP_Stalls: 2.42592e-11
Critical_IP_ROB_Stalls_Bucket_0: 15
Non-critical_IP_ROB_Stalls_Bucket_0: 137
Critical_IP_ROB_Stalls_Bucket_1: 18
Non-critical_IP_ROB_Stalls_Bucket_1: 588
Critical_IP_ROB_Stalls_Bucket_2: 17
Non-critical_IP_ROB_Stalls_Bucket_2: 641
Critical_IP_ROB_Stalls_Bucket_3: 16
Non-critical_IP_ROB_Stalls_Bucket_3: 410
Critical_IP_ROB_Stalls_Bucket_4: 34
Non-critical_IP_ROB_Stalls_Bucket_4: 969
Critical_IP_ROB_Stalls_Bucket_5: 304
Non-critical_IP_ROB_Stalls_Bucket_5: 209062
Critical_IP_ROB_Stalls_Bucket_6: 69341
Non-critical_IP_ROB_Stalls_Bucket_6: 1549760
0 => IPs accounting for >50 percent of stalls, 1 => 55, 2 => 60, 3 => 65 and so on till 90.
percent50: inf num IPs:  1
percent55: inf num IPs: 1
percent60: inf num IPs: 1
percent65: inf num IPs: 1
percent70: inf num IPs: 1
percent75: inf num IPs: 1
percent80: inf num IPs: 1
percent85: inf num IPs: 1
percent90: inf num IPs: 1
Critical_ROB_Stalls_Percent_0_Bucket_0: 30
Non-critical_ROB_Stalls_Percent_0_Bucket_0: 122
Critical_ROB_Stalls_Percent_0_Bucket_1: 52
Non-critical_ROB_Stalls_Percent_0_Bucket_1: 554
Critical_ROB_Stalls_Percent_0_Bucket_2: 97
Non-critical_ROB_Stalls_Percent_0_Bucket_2: 561
Critical_ROB_Stalls_Percent_0_Bucket_3: 124
Non-critical_ROB_Stalls_Percent_0_Bucket_3: 302
Critical_ROB_Stalls_Percent_0_Bucket_4: 149
Non-critical_ROB_Stalls_Percent_0_Bucket_4: 854
Critical_ROB_Stalls_Percent_0_Bucket_5: 37503
Non-critical_ROB_Stalls_Percent_0_Bucket_5: 171863
Critical_ROB_Stalls_Percent_0_Bucket_6: 451876
Non-critical_ROB_Stalls_Percent_0_Bucket_6: 1167225
Critical_ROB_Stalls_Percent_1_Bucket_0: 30
Non-critical_ROB_Stalls_Percent_1_Bucket_0: 122
Critical_ROB_Stalls_Percent_1_Bucket_1: 52
Non-critical_ROB_Stalls_Percent_1_Bucket_1: 554
Critical_ROB_Stalls_Percent_1_Bucket_2: 97
Non-critical_ROB_Stalls_Percent_1_Bucket_2: 561
Critical_ROB_Stalls_Percent_1_Bucket_3: 124
Non-critical_ROB_Stalls_Percent_1_Bucket_3: 302
Critical_ROB_Stalls_Percent_1_Bucket_4: 149
Non-critical_ROB_Stalls_Percent_1_Bucket_4: 854
Critical_ROB_Stalls_Percent_1_Bucket_5: 37503
Non-critical_ROB_Stalls_Percent_1_Bucket_5: 171863
Critical_ROB_Stalls_Percent_1_Bucket_6: 451876
Non-critical_ROB_Stalls_Percent_1_Bucket_6: 1167225
Critical_ROB_Stalls_Percent_2_Bucket_0: 30
Non-critical_ROB_Stalls_Percent_2_Bucket_0: 122
Critical_ROB_Stalls_Percent_2_Bucket_1: 52
Non-critical_ROB_Stalls_Percent_2_Bucket_1: 554
Critical_ROB_Stalls_Percent_2_Bucket_2: 97
Non-critical_ROB_Stalls_Percent_2_Bucket_2: 561
Critical_ROB_Stalls_Percent_2_Bucket_3: 124
Non-critical_ROB_Stalls_Percent_2_Bucket_3: 302
Critical_ROB_Stalls_Percent_2_Bucket_4: 149
Non-critical_ROB_Stalls_Percent_2_Bucket_4: 854
Critical_ROB_Stalls_Percent_2_Bucket_5: 37503
Non-critical_ROB_Stalls_Percent_2_Bucket_5: 171863
Critical_ROB_Stalls_Percent_2_Bucket_6: 451876
Non-critical_ROB_Stalls_Percent_2_Bucket_6: 1167225
Critical_ROB_Stalls_Percent_3_Bucket_0: 30
Non-critical_ROB_Stalls_Percent_3_Bucket_0: 122
Critical_ROB_Stalls_Percent_3_Bucket_1: 52
Non-critical_ROB_Stalls_Percent_3_Bucket_1: 554
Critical_ROB_Stalls_Percent_3_Bucket_2: 97
Non-critical_ROB_Stalls_Percent_3_Bucket_2: 561
Critical_ROB_Stalls_Percent_3_Bucket_3: 124
Non-critical_ROB_Stalls_Percent_3_Bucket_3: 302
Critical_ROB_Stalls_Percent_3_Bucket_4: 149
Non-critical_ROB_Stalls_Percent_3_Bucket_4: 854
Critical_ROB_Stalls_Percent_3_Bucket_5: 37503
Non-critical_ROB_Stalls_Percent_3_Bucket_5: 171863
Critical_ROB_Stalls_Percent_3_Bucket_6: 451876
Non-critical_ROB_Stalls_Percent_3_Bucket_6: 1167225
Critical_ROB_Stalls_Percent_4_Bucket_0: 30
Non-critical_ROB_Stalls_Percent_4_Bucket_0: 122
Critical_ROB_Stalls_Percent_4_Bucket_1: 52
Non-critical_ROB_Stalls_Percent_4_Bucket_1: 554
Critical_ROB_Stalls_Percent_4_Bucket_2: 97
Non-critical_ROB_Stalls_Percent_4_Bucket_2: 561
Critical_ROB_Stalls_Percent_4_Bucket_3: 124
Non-critical_ROB_Stalls_Percent_4_Bucket_3: 302
Critical_ROB_Stalls_Percent_4_Bucket_4: 149
Non-critical_ROB_Stalls_Percent_4_Bucket_4: 854
Critical_ROB_Stalls_Percent_4_Bucket_5: 37503
Non-critical_ROB_Stalls_Percent_4_Bucket_5: 171863
Critical_ROB_Stalls_Percent_4_Bucket_6: 451876
Non-critical_ROB_Stalls_Percent_4_Bucket_6: 1167225
Critical_ROB_Stalls_Percent_5_Bucket_0: 30
Non-critical_ROB_Stalls_Percent_5_Bucket_0: 122
Critical_ROB_Stalls_Percent_5_Bucket_1: 52
Non-critical_ROB_Stalls_Percent_5_Bucket_1: 554
Critical_ROB_Stalls_Percent_5_Bucket_2: 97
Non-critical_ROB_Stalls_Percent_5_Bucket_2: 561
Critical_ROB_Stalls_Percent_5_Bucket_3: 124
Non-critical_ROB_Stalls_Percent_5_Bucket_3: 302
Critical_ROB_Stalls_Percent_5_Bucket_4: 149
Non-critical_ROB_Stalls_Percent_5_Bucket_4: 854
Critical_ROB_Stalls_Percent_5_Bucket_5: 37503
Non-critical_ROB_Stalls_Percent_5_Bucket_5: 171863
Critical_ROB_Stalls_Percent_5_Bucket_6: 451876
Non-critical_ROB_Stalls_Percent_5_Bucket_6: 1167225
Critical_ROB_Stalls_Percent_6_Bucket_0: 30
Non-critical_ROB_Stalls_Percent_6_Bucket_0: 122
Critical_ROB_Stalls_Percent_6_Bucket_1: 52
Non-critical_ROB_Stalls_Percent_6_Bucket_1: 554
Critical_ROB_Stalls_Percent_6_Bucket_2: 97
Non-critical_ROB_Stalls_Percent_6_Bucket_2: 561
Critical_ROB_Stalls_Percent_6_Bucket_3: 124
Non-critical_ROB_Stalls_Percent_6_Bucket_3: 302
Critical_ROB_Stalls_Percent_6_Bucket_4: 149
Non-critical_ROB_Stalls_Percent_6_Bucket_4: 854
Critical_ROB_Stalls_Percent_6_Bucket_5: 37503
Non-critical_ROB_Stalls_Percent_6_Bucket_5: 171863
Critical_ROB_Stalls_Percent_6_Bucket_6: 451876
Non-critical_ROB_Stalls_Percent_6_Bucket_6: 1167225
Critical_ROB_Stalls_Percent_7_Bucket_0: 30
Non-critical_ROB_Stalls_Percent_7_Bucket_0: 122
Critical_ROB_Stalls_Percent_7_Bucket_1: 52
Non-critical_ROB_Stalls_Percent_7_Bucket_1: 554
Critical_ROB_Stalls_Percent_7_Bucket_2: 97
Non-critical_ROB_Stalls_Percent_7_Bucket_2: 561
Critical_ROB_Stalls_Percent_7_Bucket_3: 124
Non-critical_ROB_Stalls_Percent_7_Bucket_3: 302
Critical_ROB_Stalls_Percent_7_Bucket_4: 149
Non-critical_ROB_Stalls_Percent_7_Bucket_4: 854
Critical_ROB_Stalls_Percent_7_Bucket_5: 37503
Non-critical_ROB_Stalls_Percent_7_Bucket_5: 171863
Critical_ROB_Stalls_Percent_7_Bucket_6: 451876
Non-critical_ROB_Stalls_Percent_7_Bucket_6: 1167225
Critical_ROB_Stalls_Percent_8_Bucket_0: 30
Non-critical_ROB_Stalls_Percent_8_Bucket_0: 122
Critical_ROB_Stalls_Percent_8_Bucket_1: 52
Non-critical_ROB_Stalls_Percent_8_Bucket_1: 554
Critical_ROB_Stalls_Percent_8_Bucket_2: 97
Non-critical_ROB_Stalls_Percent_8_Bucket_2: 561
Critical_ROB_Stalls_Percent_8_Bucket_3: 124
Non-critical_ROB_Stalls_Percent_8_Bucket_3: 302
Critical_ROB_Stalls_Percent_8_Bucket_4: 149
Non-critical_ROB_Stalls_Percent_8_Bucket_4: 854
Critical_ROB_Stalls_Percent_8_Bucket_5: 37503
Non-critical_ROB_Stalls_Percent_8_Bucket_5: 171863
Critical_ROB_Stalls_Percent_8_Bucket_6: 451876
Non-critical_ROB_Stalls_Percent_8_Bucket_6: 1167225
Average ROB occupancy Load Stall Begin: 307.053
Average ROB occupancy Load Stall End: 334.667
Min ROB occupancy Load Stall Begin: 1
Max ROB occupancy Load Stall Begin: 352
Min ROB occupancy Load Stall End: 1
Max ROB occupancy Load Stall End: 352
Average ROB occupancy Critical Load Stall Begin: 326.651
Average ROB occupancy Critical Load Stall End: 334.618
Min ROB occupancy Critical Load Stall Begin: 12
Max ROB occupancy Critical Load Stall Begin: 352
Min ROB occupancy Critical Load Stall End: 12
Max ROB occupancy Critical Load Stall End: 352
 ROB Load Stall Begin Bucket Count 0: 383
 ROB Load Stall End Bucket Count 0: 152
 ROB Critical Load Stall Begin Bucket Count 0: 10
 ROB Critical Load Stall End Bucket Count 0: 10
 ROB Load Stall Begin Bucket Count 1: 800
 ROB Load Stall End Bucket Count 1: 606
 ROB Critical Load Stall Begin Bucket Count 1: 10
 ROB Critical Load Stall End Bucket Count 1: 10
 ROB Load Stall Begin Bucket Count 2: 687
 ROB Load Stall End Bucket Count 2: 658
 ROB Critical Load Stall Begin Bucket Count 2: 13
 ROB Critical Load Stall End Bucket Count 2: 13
 ROB Load Stall Begin Bucket Count 3: 520
 ROB Load Stall End Bucket Count 3: 426
 ROB Critical Load Stall Begin Bucket Count 3: 13
 ROB Critical Load Stall End Bucket Count 3: 11
 ROB Load Stall Begin Bucket Count 4: 169817
 ROB Load Stall End Bucket Count 4: 1003
 ROB Critical Load Stall Begin Bucket Count 4: 24
 ROB Critical Load Stall End Bucket Count 4: 23
 ROB Load Stall Begin Bucket Count 5: 616170
 ROB Load Stall End Bucket Count 5: 209366
 ROB Critical Load Stall Begin Bucket Count 5: 1924
 ROB Critical Load Stall End Bucket Count 5: 206
 ROB Load Stall Begin Bucket Count 6: 1042935
 ROB Load Stall End Bucket Count 6: 1619101
 ROB Critical Load Stall Begin Bucket Count 6: 46860
 ROB Critical Load Stall End Bucket Count 6: 48581
PIST Tag Read Accesses: 0
PIST Read Accesses: 0
PIST Tag Write Accesses: 0
PIST Write Accesses: 0
Criticality detector called times: 0
Max global_stall_cycles_count: 0
Threshold Modified: 0 times, factor: 0
Sturdy critical IP cache stats: 
 Unused entries: 0
CIC Tag Read Accesses: 0
CIC Read Accesses: 0
CIC Tag Write Accesses: 0
CIC Write Accesses: 0
Wobbly critical IP cache stats: 
 Unused entries: 26
CIC Tag Read Accesses: 343259984
CIC Read Accesses: 0
CIC Tag Write Accesses: 1018
CIC Write Accesses: 0
ITLB TOTAL     ACCESS:   14219420  HIT:   14219420  MISS:          0  HIT %:        100  MISS %:          0   MPKI: 0
ITLB LOAD TRANSLATION ACCESS:   14219420  HIT:   14219420  MISS:          0  HIT %:        100  MISS %:          0   MPKI: 0
ITLB PREFETCH  REQUESTED:          0  ISSUED:          0  USEFUL:          0  USELESS:          0
ITLB USEFUL LOAD PREFETCHES:          0 PREFETCH ISSUED TO LOWER LEVEL:          0  ACCURACY: -nan
ITLB TIMELY PREFETCHES:          0 LATE PREFETCHES: 0 DROPPED PREFETCHES: 0
ITLB PREFETCHES SAME FILL-ORIGIN LEVEL: 0 DIFFERENT FILL-ORIGIN LEVEL: 0
ITLB AVERAGE MISS LATENCY: -nan cycles
ITLB RQ	ACCESS:   17741412	FORWARD:          0	MERGED:    3521992	TO_CACHE:   14219420

DTLB TOTAL     ACCESS:   13052249  HIT:   13028793  MISS:      23456  HIT %:    99.8203  MISS %:   0.179708   MPKI: 0.23456
DTLB LOAD TRANSLATION ACCESS:   13052249  HIT:   13028793  MISS:      23456  HIT %:    99.8203  MISS %:   0.179708   MPKI: 0.23456
DTLB PREFETCH  REQUESTED:          0  ISSUED:          0  USEFUL:          0  USELESS:          0
DTLB USEFUL LOAD PREFETCHES:          0 PREFETCH ISSUED TO LOWER LEVEL:          0  ACCURACY: -nan
DTLB TIMELY PREFETCHES:          0 LATE PREFETCHES: 0 DROPPED PREFETCHES: 0
DTLB PREFETCHES SAME FILL-ORIGIN LEVEL: 0 DIFFERENT FILL-ORIGIN LEVEL: 0
DTLB AVERAGE MISS LATENCY: 89.5249 cycles
DTLB RQ	ACCESS:   19902132	FORWARD:          0	MERGED:    6848971	TO_CACHE:   13053161

STLB TOTAL     ACCESS:      23457  HIT:       9731  MISS:      13726  HIT %:    41.4844  MISS %:    58.5156   MPKI: 0.13726
STLB LOAD TRANSLATION ACCESS:      23456  HIT:       9730  MISS:      13726  HIT %:    41.4819  MISS %:    58.5181   MPKI: 0.13726
STLB TRANSLATION FROM L1D PREFETCHER ACCESS:          1  HIT:          1  MISS:          0  HIT %:        100  MISS %:          0   MPKI: 0
STLB PREFETCH  REQUESTED:          0  ISSUED:          0  USEFUL:          0  USELESS:          0
STLB USEFUL LOAD PREFETCHES:          0 PREFETCH ISSUED TO LOWER LEVEL:          0  ACCURACY: -nan
STLB TIMELY PREFETCHES:          0 LATE PREFETCHES: 0 DROPPED PREFETCHES: 0
STLB PREFETCHES SAME FILL-ORIGIN LEVEL: 0 DIFFERENT FILL-ORIGIN LEVEL: 0
STLB AVERAGE MISS LATENCY: 137.548 cycles
STLB RQ	ACCESS:      23456	FORWARD:          0	MERGED:          0	TO_CACHE:      23456

STLB Hit, L1D data hit: 0
STLB Hit, L2C data hit: 0
STLB Hit, LLC data hit: 0
STLB Hit, LLC data miss: 0
STLB STLB hints to L2: 0
L1D TOTAL     ACCESS:   18858767  HIT:   17535404  MISS:    1323363  HIT %:    92.9828  MISS %:    7.01723   MPKI: 13.2336
L1D LOAD      ACCESS:   11839970  HIT:   10517924  MISS:    1322046  HIT %:     88.834  MISS %:     11.166   MPKI: 13.2205
L1D RFO       ACCESS:    7018796  HIT:    7017480  MISS:       1316  HIT %:    99.9813  MISS %:  0.0187497   MPKI: 0.01316
L1D PREFETCH  ACCESS:          1  HIT:          0  MISS:          1  HIT %:          0  MISS %:        100   MPKI: 1e-05
L1D PREFETCH  REQUESTED:          0  ISSUED:          0  USEFUL:          7  USELESS:          0
L1D USEFUL LOAD PREFETCHES:          7 PREFETCH ISSUED TO LOWER LEVEL:          1  ACCURACY: 700
L1D TIMELY PREFETCHES:          7 LATE PREFETCHES: 0 DROPPED PREFETCHES: 0
L1D PREFETCHES SAME FILL-ORIGIN LEVEL: 1 DIFFERENT FILL-ORIGIN LEVEL: 0
L1D AVERAGE MISS LATENCY: 150.316 cycles
L1D RQ	ACCESS:   35082837	FORWARD:          0	MERGED:   22200954	TO_CACHE:   12881584
L1D WQ	ACCESS:    7020548	FORWARD:        299	MERGED:          0	TO_CACHE:    7020548

L1D UNIQUE REGIONS ACCESSED: 0
L1D REGIONS CONFLICTS: 0
L1D Cross Page Prefetch Requests: 0
L1D Same Page Prefetch Requests: 654017
L1D ROI Sum of L1D PQ occupancy: 6
L1D PREFETCHES PUSHED FROM L2C: 0
L1I TOTAL     ACCESS:   17741412  HIT:   17741412  MISS:          0  HIT %:        100  MISS %:          0   MPKI: 0
L1I LOAD      ACCESS:   17741412  HIT:   17741412  MISS:          0  HIT %:        100  MISS %:          0   MPKI: 0
L1I PREFETCH  REQUESTED:          0  ISSUED:          0  USEFUL:          0  USELESS:          0
L1I USEFUL LOAD PREFETCHES:          0 PREFETCH ISSUED TO LOWER LEVEL:          0  ACCURACY: -nan
L1I TIMELY PREFETCHES:          0 LATE PREFETCHES: 0 DROPPED PREFETCHES: 0
L1I PREFETCHES SAME FILL-ORIGIN LEVEL: 0 DIFFERENT FILL-ORIGIN LEVEL: 0
L1I AVERAGE MISS LATENCY: -nan cycles
L1I RQ	ACCESS:   24411861	FORWARD:          0	MERGED:    6670449	TO_CACHE:   17741412

BTB TOTAL     ACCESS:    1754588  HIT:    1754579  MISS:          9  HIT %:    99.9995  MISS %: 0.000512941   MPKI: 9e-05
BTB BRANCH_DIRECT_JUMP	ACCESS:        438  HIT:        436  MISS:          2
BTB BRANCH_INDIRECT	ACCESS:          0  HIT:          0  MISS:          0
BTB BRANCH_CONDITIONAL	ACCESS:    1753274  HIT:    1753271  MISS:          3
BTB BRANCH_DIRECT_CALL	ACCESS:        438  HIT:        436  MISS:          2
BTB BRANCH_INDIRECT_CALL	ACCESS:          0  HIT:          0  MISS:          0
BTB BRANCH_RETURN	ACCESS:        438  HIT:        436  MISS:          2
BTB BRANCH_OTHER ACCESS:          0  HIT:          0  MISS:          0

L2C TOTAL     ACCESS:    2215849  HIT:    1206591  MISS:    1009258  HIT %:    54.4528  MISS %:    45.5472   MPKI: 10.0926
L2C LOAD      ACCESS:    1322046  HIT:     319997  MISS:    1002049  HIT %:    24.2047  MISS %:    75.7953   MPKI: 10.0205
L2C DATA LOAD MPKI: 10.0205
L2C INSTRUCTION LOAD MPKI: 0
L2C RFO       ACCESS:       1316  HIT:       1306  MISS:         10  HIT %:    99.2401  MISS %:   0.759878   MPKI: 0.0001
L2C PREFETCH  ACCESS:         38  HIT:         38  MISS:          0  HIT %:        100  MISS %:          0   MPKI: 0
L2C DATA PREFETCH MPKI: 0
L2C INSTRUCTION PREFETCH MPKI: 0
L2C WRITEBACK ACCESS:     878716  HIT:     873347  MISS:       5369  HIT %:     99.389  MISS %:   0.611005   MPKI: 0.05369
L2C LOAD TRANSLATION ACCESS:      13733  HIT:      11903  MISS:       1830  HIT %:    86.6744  MISS %:    13.3256   MPKI: 0.0183
L2C PREFETCH  REQUESTED:        186  ISSUED:        186  USEFUL:       1480  USELESS:       6072
L2C USEFUL LOAD PREFETCHES:       1480 PREFETCH ISSUED TO LOWER LEVEL:          0  ACCURACY: inf
L2C TIMELY PREFETCHES:       1480 LATE PREFETCHES: 0 DROPPED PREFETCHES: 0
L2C PREFETCHES SAME FILL-ORIGIN LEVEL: 0 DIFFERENT FILL-ORIGIN LEVEL: 0
L2C AVERAGE MISS LATENCY: 177.695 cycles
L2C RQ	ACCESS:    1337095	FORWARD:          0	MERGED:          0	TO_CACHE:    1337095
L2C WQ	ACCESS:     878716	FORWARD:          0	MERGED:          0	TO_CACHE:     878716
L2C PQ	ACCESS:        187	FORWARD:          0	MERGED:          0	TO_CACHE:        187

L2C Instructions Evicting Data 0
L2C Translations Evicting Data 1830
L2C Data Evicting Data 1000253
L2C Instructions Evicting Instructions 0
L2C Translations Evicting Instructions 0
L2C Data Evicting Instructions 0
L2C Instructions Evicting Translations 0
L2C Translations Evicting Translations 0
L2C Data Evicting Translations 1806
L2C Dense regions hint from L2: 0
PSCL5 TOTAL     ACCESS:      13726  HIT:      13726  MISS:          0  HIT %:        100  MISS %:          0   MPKI: 0
PSCL5 LOAD TRANSLATION ACCESS:      13726  HIT:      13726  MISS:          0  HIT %:        100  MISS %:          0   MPKI: 0
PSCL5 PREFETCH  REQUESTED:          0  ISSUED:          0  USEFUL:          0  USELESS:          0
PSCL5 USEFUL LOAD PREFETCHES:          0 PREFETCH ISSUED TO LOWER LEVEL:          0  ACCURACY: -nan
PSCL5 TIMELY PREFETCHES:          0 LATE PREFETCHES: 0 DROPPED PREFETCHES: 0
PSCL5 PREFETCHES SAME FILL-ORIGIN LEVEL: 0 DIFFERENT FILL-ORIGIN LEVEL: 0

PSCL4 TOTAL     ACCESS:      13726  HIT:      13726  MISS:          0  HIT %:        100  MISS %:          0   MPKI: 0
PSCL4 LOAD TRANSLATION ACCESS:      13726  HIT:      13726  MISS:          0  HIT %:        100  MISS %:          0   MPKI: 0
PSCL4 PREFETCH  REQUESTED:          0  ISSUED:          0  USEFUL:          0  USELESS:          0
PSCL4 USEFUL LOAD PREFETCHES:          0 PREFETCH ISSUED TO LOWER LEVEL:          0  ACCURACY: -nan
PSCL4 TIMELY PREFETCHES:          0 LATE PREFETCHES: 0 DROPPED PREFETCHES: 0
PSCL4 PREFETCHES SAME FILL-ORIGIN LEVEL: 0 DIFFERENT FILL-ORIGIN LEVEL: 0

PSCL3 TOTAL     ACCESS:      13574  HIT:      13569  MISS:          5  HIT %:    99.9632  MISS %:  0.0368351   MPKI: 5e-05
PSCL3 LOAD TRANSLATION ACCESS:      13574  HIT:      13569  MISS:          5  HIT %:    99.9632  MISS %:  0.0368351   MPKI: 5e-05
PSCL3 PREFETCH  REQUESTED:          0  ISSUED:          0  USEFUL:          0  USELESS:          0
PSCL3 USEFUL LOAD PREFETCHES:          0 PREFETCH ISSUED TO LOWER LEVEL:          0  ACCURACY: -nan
PSCL3 TIMELY PREFETCHES:          0 LATE PREFETCHES: 0 DROPPED PREFETCHES: 0
PSCL3 PREFETCHES SAME FILL-ORIGIN LEVEL: 0 DIFFERENT FILL-ORIGIN LEVEL: 0

PSCL2 TOTAL     ACCESS:      13726  HIT:      13678  MISS:         48  HIT %:    99.6503  MISS %:   0.349701   MPKI: 0.00048
PSCL2 LOAD TRANSLATION ACCESS:      13726  HIT:      13678  MISS:         48  HIT %:    99.6503  MISS %:   0.349701   MPKI: 0.00048
PSCL2 PREFETCH  REQUESTED:          0  ISSUED:          0  USEFUL:          0  USELESS:          0
PSCL2 USEFUL LOAD PREFETCHES:          0 PREFETCH ISSUED TO LOWER LEVEL:          0  ACCURACY: -nan
PSCL2 TIMELY PREFETCHES:          0 LATE PREFETCHES: 0 DROPPED PREFETCHES: 0
PSCL2 PREFETCHES SAME FILL-ORIGIN LEVEL: 0 DIFFERENT FILL-ORIGIN LEVEL: 0

LLC TOTAL     ACCESS:    1880115  HIT:     986829  MISS:     893286  HIT %:    52.4877  MISS %:    47.5123   MPKI: 8.93286
LLC LOAD      ACCESS:    1002049  HIT:     123802  MISS:     878247  HIT %:    12.3549  MISS %:    87.6451   MPKI: 8.78247
LLC RFO       ACCESS:         10  HIT:         10  MISS:          0  HIT %:        100  MISS %:          0   MPKI: 0
LLC WRITEBACK ACCESS:     876226  HIT:     862963  MISS:      13263  HIT %:    98.4863  MISS %:    1.51365   MPKI: 0.13263
LLC LOAD TRANSLATION ACCESS:       1830  HIT:         54  MISS:       1776  HIT %:    2.95082  MISS %:    97.0492   MPKI: 0.01776
LLC PREFETCH  REQUESTED:          0  ISSUED:          0  USEFUL:        170  USELESS:      31455
LLC USEFUL LOAD PREFETCHES:        170 PREFETCH ISSUED TO LOWER LEVEL:          0  ACCURACY: inf
LLC TIMELY PREFETCHES:        170 LATE PREFETCHES: 0 DROPPED PREFETCHES: 0
LLC PREFETCHES SAME FILL-ORIGIN LEVEL: 0 DIFFERENT FILL-ORIGIN LEVEL: 0
LLC AVERAGE MISS LATENCY: 167.007 cycles
LLC RQ	ACCESS:    1003889	FORWARD:          0	MERGED:          0	TO_CACHE:    1003889
LLC WQ	ACCESS:     876226	FORWARD:          0	MERGED:          0	TO_CACHE:     876226

LLC Dense regions hint to LLC: 0

RAW hits: 1719
Loads Generated: 35084561
Loads sent to L1D: 35082837
Stores Generated: 7020542
Stores sent to L1D: 7020548
Major fault: 0 Minor fault: 20724
Allocated PAGES: 20724

stream: 
stream:times selected: 1349680
stream:pref_filled: 611899
stream:pref_useful: 609642
stream:pref_late: 94
stream:misses: 189
stream:misses_by_poll: 0

CS: 
CS:times selected: 961327
CS:pref_filled: 14986
CS:pref_useful: 14908
CS:pref_late: 5
CS:misses: 3828
CS:misses_by_poll: 0

CPLX: 
CPLX:times selected: 388266
CPLX:pref_filled: 17849
CPLX:pref_useful: 17704
CPLX:pref_late: 2
CPLX:misses: 1747
CPLX:misses_by_poll: 0

NL_L1: 
NL:times selected: 18
NL:pref_filled: 2
NL:pref_useful: 2
NL:pref_late: 0
NL:misses: 0
NL:misses_by_poll: 0

total selections: 2699291
total_filled: 1
total_useful: 7
total_late: 149
total_polluted: 0
total_misses_after_warmup: 458
conflicts: 810
Degree Incremented Times: 176127
Degree Decremented Times: 0

L1 IP Table Write Accesses: 1723275
L1 IP Table Read Accesses: 1722465
L1 RST Write Accesses: 0
L1 RST Read Accesses: 0
L1 CSPT Write Accesses: 0
L1 CSPT Read Accesses: 0
L1 RR Filter Tag Write Accesses: 0
L1 RR Filter Tag Read Accesses: 0
L1 IP Table Tag Write Accesses: 1724085
L1 IP Table Tag Read Accesses: 1724085
L1 RST Tag Write Accesses: 0
L1 RST Tag Read Accesses: 0
L1 RR Filter Write Accesses: 0
L1 RR Filter Read Accesses: 0
test: 32892
L2 IP Table Read Accesses: 590
L2 IP Table Write Accesses: 387
L2 IP Table Tag Read Accesses: 385
L2 IP Table Tag Write Accesses: 385

DRAM Statistics
 CHANNEL 0
 RQ ROW_BUFFER_HIT:       4442  ROW_BUFFER_MISS:     875581
 DBUS_CONGESTED:        110
 WQ ROW_BUFFER_HIT:     764118  ROW_BUFFER_MISS:     112776  FULL:          0

 AVG_CONGESTED_CYCLE: 6
 All warmup complete: 2
Channel 0 Bank busy for read cycles: 0
Channel 0 Bank busy for write cycles: 0
Channel 0
Rank 0
0banks busy for read cycles: 1578120
0banks busy for write cycles: 26150
1banks busy for read cycles: 71140354
1banks busy for write cycles: 6608347
2banks busy for read cycles: 30209496
2banks busy for write cycles: 27635180
3banks busy for read cycles: 201
3banks busy for write cycles: 25431705
4banks busy for read cycles: 0
4banks busy for write cycles: 5947863
5banks busy for read cycles: 0
5banks busy for write cycles: 3877582
6banks busy for read cycles: 0
6banks busy for write cycles: 418632
7banks busy for read cycles: 0
7banks busy for write cycles: 108392
8banks busy for read cycles: 0
8banks busy for write cycles: 2507

CPU 0 Branch Prediction Accuracy: 99.9751% MPKI: 0.00438 Average ROB Occupancy at Mispredict: 313.194
Branch types
NOT_BRANCH: 98243818 98.2438%
BRANCH_DIRECT_JUMP: 438 0.000438%
BRANCH_INDIRECT: 0 0%
BRANCH_CONDITIONAL: 1754807 1.75481%
BRANCH_DIRECT_CALL: 438 0.000438%
BRANCH_INDIRECT_CALL: 0 0%
BRANCH_RETURN: 438 0.000438%
BRANCH_OTHER: 0 0%

DRAM PAGES: 1048576
Allocated PAGES: 20724
