
*** ChampSim Multicore Out-of-Order Simulator ***

Warmup Instructions: 50000000
Simulation Instructions: 100000000
Number of CPUs: 1
LLC sets: 2048
LLC ways: 16
Off-chip DRAM Size: 4096 MB Channels: 1 Width: 64-bit Data Rate: 6400 MT/s
CPU 0 runs ../SPEC2017//649.fotonik3d_s-10881B.champsimtrace.xz
.xz
NUM_OF_IPS_IN_CRITICAL_IP_TRAINING: 64
NUM_OF_CRITICAL_IP_TRAINING_TABLE_WAYS: 2
NUM_OF_CRITICAL_IP_TRAINING_TABLE_SETS: 32
WOBBLY_CRITICAL_IP_CACHE_SETS: 32
WOBBLY_CRITICAL_IP_CACHE_WAYS: 4
BTB has LRU replacement policy
ITLB has LRU replacement policy
DTLB has LRU replacement policy
STLB has LRU replacement policy
L1I has LRU replacement policy
IP Table Entries: 64
L1D has LRU replacement policy
Initialize SRRIP state for L2C
Initialize DRRIP state for LLC
Heartbeat CPU 0 instructions: 10000003 cycles: 5061312 heartbeat IPC: 1.97577 cumulative IPC: 1.97577 (Simulation time: 0 hr 9 min 59 sec) 
Heartbeat CPU 0 instructions: 20000000 cycles: 10131205 heartbeat IPC: 1.97243 cumulative IPC: 1.9741 (Simulation time: 0 hr 18 min 18 sec) 
Heartbeat CPU 0 instructions: 30000000 cycles: 15207205 heartbeat IPC: 1.97006 cumulative IPC: 1.97275 (Simulation time: 0 hr 25 min 49 sec) 
Heartbeat CPU 0 instructions: 40000002 cycles: 20276895 heartbeat IPC: 1.97251 cumulative IPC: 1.97269 (Simulation time: 0 hr 32 min 49 sec) 
Heartbeat CPU 0 instructions: 50000002 cycles: 25342000 heartbeat IPC: 1.97429 cumulative IPC: 1.97301 (Simulation time: 0 hr 39 min 2 sec) 

Warmup complete CPU 0 instructions: 50000002 cycles: 25342000 (Simulation time: 0 hr 39 min 2 sec) 

% increase in all ip prefetch 235.411
% increase in all ip prefetch 0.305375
Heartbeat CPU 0 instructions: 60000000 cycles: 43249549 heartbeat IPC: 0.558424 cumulative IPC: 0.558424 (Simulation time: 0 hr 44 min 9 sec) 
Heartbeat CPU 0 instructions: 70000002 cycles: 61215823 heartbeat IPC: 0.556599 cumulative IPC: 0.55751 (Simulation time: 0 hr 49 min 1 sec) 
Heartbeat CPU 0 instructions: 80000001 cycles: 79151811 heartbeat IPC: 0.557538 cumulative IPC: 0.557519 (Simulation time: 0 hr 53 min 34 sec) 
Heartbeat CPU 0 instructions: 90000003 cycles: 97085021 heartbeat IPC: 0.557625 cumulative IPC: 0.557546 (Simulation time: 1 hr 1 min 35 sec) 
Heartbeat CPU 0 instructions: 100000003 cycles: 114955722 heartbeat IPC: 0.559575 cumulative IPC: 0.55795 (Simulation time: 1 hr 10 min 38 sec) 
Heartbeat CPU 0 instructions: 110000000 cycles: 132941836 heartbeat IPC: 0.555984 cumulative IPC: 0.557622 (Simulation time: 1 hr 18 min 10 sec) 
Heartbeat CPU 0 instructions: 120000003 cycles: 150994718 heartbeat IPC: 0.553928 cumulative IPC: 0.557091 (Simulation time: 1 hr 25 min 33 sec) 
Heartbeat CPU 0 instructions: 130000000 cycles: 168968046 heartbeat IPC: 0.55638 cumulative IPC: 0.557002 (Simulation time: 1 hr 32 min 7 sec) 
Heartbeat CPU 0 instructions: 140000002 cycles: 186885762 heartbeat IPC: 0.558107 cumulative IPC: 0.557125 (Simulation time: 1 hr 37 min 43 sec) 
Heartbeat CPU 0 instructions: 150000001 cycles: 204816015 heartbeat IPC: 0.557717 cumulative IPC: 0.557184 (Simulation time: 1 hr 42 min 46 sec) 
Finished CPU 0 instructions: 100000003 cycles: 179474016 cumulative IPC: 0.557184 (Simulation time: 1 hr 42 min 46 sec) 

ChampSim completed all CPUs

Region of Interest Statistics

CPU 0 cumulative IPC: 0.557184 instructions: 100000003 cycles: 179474016

CPU 0 Average Load ROB stall cycles: 1.16624e+07
CPU 0 Fraction of times ROB stalled by Loads: 10.112
CPU 0 Percentage of Load stall cycles in Total stall cycles: 1.10539e+08
 Total stall cycles: 109233230
 Total load stall cycles: 120744881788830
CPU 0 NUM of IPS identified critical: 75
CPU 0 Num of Load IPs stalling ROB: 99
Threshold modification factor: -1
Max PIST entries: 18
Min PIST entries: 0
Avg PIST entries: 4.07333
Trouble in retire width: 0.693672
MaC = Marked as critical.
lt_50_percent_before_Mac: 73
gt_90_percent_before_Mac: 0
gt_75_percent_before_Mac: 0
gt_50_percent_before_Mac: 2
stall_proportion_bin_same_before_after: 0
stall_proportion_bin_lower_before_after: 0
stall_proportion_bin_upper_before_after: 0
average_stall_proportion_before: 0.0163769
average_stall_proportion_after: 0.0165912
Critical IP stalls, total frequency: 1040257
Non-critical IP stalls, total frequency: 5702
Critical_IP_ROB_Stalls_Bucket_0: 6
Non-critical_IP_ROB_Stalls_Bucket_0: 5
Critical_IP_ROB_Stalls_Bucket_1: 40
Non-critical_IP_ROB_Stalls_Bucket_1: 58
Critical_IP_ROB_Stalls_Bucket_2: 48
Non-critical_IP_ROB_Stalls_Bucket_2: 13
Critical_IP_ROB_Stalls_Bucket_3: 76
Non-critical_IP_ROB_Stalls_Bucket_3: 3
Critical_IP_ROB_Stalls_Bucket_4: 45
Non-critical_IP_ROB_Stalls_Bucket_4: 1
Critical_IP_ROB_Stalls_Bucket_5: 46507
Non-critical_IP_ROB_Stalls_Bucket_5: 1254
Critical_IP_ROB_Stalls_Bucket_6: 993535
Non-critical_IP_ROB_Stalls_Bucket_6: 5347
0 => IPs accounting for >50 percent of stalls, 1 => 55, 2 => 60, 3 => 65 and so on till 90.
percent50: 54.9258 num IPs:2
percent55: 63.1293 num IPs:3
percent60: 63.1293 num IPs:3
percent65: 68.0208 num IPs:4
percent70: 70.644 num IPs:5
percent75: 75.7479 num IPs:7
percent80: 80.968 num IPs:10
percent85: 85.8222 num IPs:15
percent90: 90.1464 num IPs:21
Critical_ROB_Stalls_Percent_0_Bucket_0: 0
Non-critical_ROB_Stalls_Percent_0_Bucket_0: 11
Critical_ROB_Stalls_Percent_0_Bucket_1: 23
Non-critical_ROB_Stalls_Percent_0_Bucket_1: 75
Critical_ROB_Stalls_Percent_0_Bucket_2: 12
Non-critical_ROB_Stalls_Percent_0_Bucket_2: 49
Critical_ROB_Stalls_Percent_0_Bucket_3: 48
Non-critical_ROB_Stalls_Percent_0_Bucket_3: 31
Critical_ROB_Stalls_Percent_0_Bucket_4: 24
Non-critical_ROB_Stalls_Percent_0_Bucket_4: 22
Critical_ROB_Stalls_Percent_0_Bucket_5: 10066
Non-critical_ROB_Stalls_Percent_0_Bucket_5: 37695
Critical_ROB_Stalls_Percent_0_Bucket_6: 564328
Non-critical_ROB_Stalls_Percent_0_Bucket_6: 434554
Critical_ROB_Stalls_Percent_1_Bucket_0: 2
Non-critical_ROB_Stalls_Percent_1_Bucket_0: 9
Critical_ROB_Stalls_Percent_1_Bucket_1: 29
Non-critical_ROB_Stalls_Percent_1_Bucket_1: 69
Critical_ROB_Stalls_Percent_1_Bucket_2: 23
Non-critical_ROB_Stalls_Percent_1_Bucket_2: 38
Critical_ROB_Stalls_Percent_1_Bucket_3: 48
Non-critical_ROB_Stalls_Percent_1_Bucket_3: 31
Critical_ROB_Stalls_Percent_1_Bucket_4: 29
Non-critical_ROB_Stalls_Percent_1_Bucket_4: 17
Critical_ROB_Stalls_Percent_1_Bucket_5: 40233
Non-critical_ROB_Stalls_Percent_1_Bucket_5: 7528
Critical_ROB_Stalls_Percent_1_Bucket_6: 619943
Non-critical_ROB_Stalls_Percent_1_Bucket_6: 378939
Critical_ROB_Stalls_Percent_2_Bucket_0: 2
Non-critical_ROB_Stalls_Percent_2_Bucket_0: 9
Critical_ROB_Stalls_Percent_2_Bucket_1: 29
Non-critical_ROB_Stalls_Percent_2_Bucket_1: 69
Critical_ROB_Stalls_Percent_2_Bucket_2: 23
Non-critical_ROB_Stalls_Percent_2_Bucket_2: 38
Critical_ROB_Stalls_Percent_2_Bucket_3: 48
Non-critical_ROB_Stalls_Percent_2_Bucket_3: 31
Critical_ROB_Stalls_Percent_2_Bucket_4: 29
Non-critical_ROB_Stalls_Percent_2_Bucket_4: 17
Critical_ROB_Stalls_Percent_2_Bucket_5: 40233
Non-critical_ROB_Stalls_Percent_2_Bucket_5: 7528
Critical_ROB_Stalls_Percent_2_Bucket_6: 619943
Non-critical_ROB_Stalls_Percent_2_Bucket_6: 378939
Critical_ROB_Stalls_Percent_3_Bucket_0: 2
Non-critical_ROB_Stalls_Percent_3_Bucket_0: 9
Critical_ROB_Stalls_Percent_3_Bucket_1: 29
Non-critical_ROB_Stalls_Percent_3_Bucket_1: 69
Critical_ROB_Stalls_Percent_3_Bucket_2: 25
Non-critical_ROB_Stalls_Percent_3_Bucket_2: 36
Critical_ROB_Stalls_Percent_3_Bucket_3: 49
Non-critical_ROB_Stalls_Percent_3_Bucket_3: 30
Critical_ROB_Stalls_Percent_3_Bucket_4: 31
Non-critical_ROB_Stalls_Percent_3_Bucket_4: 15
Critical_ROB_Stalls_Percent_3_Bucket_5: 40238
Non-critical_ROB_Stalls_Percent_3_Bucket_5: 7523
Critical_ROB_Stalls_Percent_3_Bucket_6: 671096
Non-critical_ROB_Stalls_Percent_3_Bucket_6: 327786
Critical_ROB_Stalls_Percent_4_Bucket_0: 2
Non-critical_ROB_Stalls_Percent_4_Bucket_0: 9
Critical_ROB_Stalls_Percent_4_Bucket_1: 30
Non-critical_ROB_Stalls_Percent_4_Bucket_1: 68
Critical_ROB_Stalls_Percent_4_Bucket_2: 27
Non-critical_ROB_Stalls_Percent_4_Bucket_2: 34
Critical_ROB_Stalls_Percent_4_Bucket_3: 54
Non-critical_ROB_Stalls_Percent_4_Bucket_3: 25
Critical_ROB_Stalls_Percent_4_Bucket_4: 31
Non-critical_ROB_Stalls_Percent_4_Bucket_4: 15
Critical_ROB_Stalls_Percent_4_Bucket_5: 40848
Non-critical_ROB_Stalls_Percent_4_Bucket_5: 6913
Critical_ROB_Stalls_Percent_4_Bucket_6: 697915
Non-critical_ROB_Stalls_Percent_4_Bucket_6: 300967
Critical_ROB_Stalls_Percent_5_Bucket_0: 3
Non-critical_ROB_Stalls_Percent_5_Bucket_0: 8
Critical_ROB_Stalls_Percent_5_Bucket_1: 33
Non-critical_ROB_Stalls_Percent_5_Bucket_1: 65
Critical_ROB_Stalls_Percent_5_Bucket_2: 31
Non-critical_ROB_Stalls_Percent_5_Bucket_2: 30
Critical_ROB_Stalls_Percent_5_Bucket_3: 55
Non-critical_ROB_Stalls_Percent_5_Bucket_3: 24
Critical_ROB_Stalls_Percent_5_Bucket_4: 31
Non-critical_ROB_Stalls_Percent_5_Bucket_4: 15
Critical_ROB_Stalls_Percent_5_Bucket_5: 42204
Non-critical_ROB_Stalls_Percent_5_Bucket_5: 5557
Critical_ROB_Stalls_Percent_5_Bucket_6: 749935
Non-critical_ROB_Stalls_Percent_5_Bucket_6: 248947
Critical_ROB_Stalls_Percent_6_Bucket_0: 3
Non-critical_ROB_Stalls_Percent_6_Bucket_0: 8
Critical_ROB_Stalls_Percent_6_Bucket_1: 34
Non-critical_ROB_Stalls_Percent_6_Bucket_1: 64
Critical_ROB_Stalls_Percent_6_Bucket_2: 33
Non-critical_ROB_Stalls_Percent_6_Bucket_2: 28
Critical_ROB_Stalls_Percent_6_Bucket_3: 57
Non-critical_ROB_Stalls_Percent_6_Bucket_3: 22
Critical_ROB_Stalls_Percent_6_Bucket_4: 36
Non-critical_ROB_Stalls_Percent_6_Bucket_4: 10
Critical_ROB_Stalls_Percent_6_Bucket_5: 42246
Non-critical_ROB_Stalls_Percent_6_Bucket_5: 5515
Critical_ROB_Stalls_Percent_6_Bucket_6: 804483
Non-critical_ROB_Stalls_Percent_6_Bucket_6: 194399
Critical_ROB_Stalls_Percent_7_Bucket_0: 4
Non-critical_ROB_Stalls_Percent_7_Bucket_0: 7
Critical_ROB_Stalls_Percent_7_Bucket_1: 35
Non-critical_ROB_Stalls_Percent_7_Bucket_1: 63
Critical_ROB_Stalls_Percent_7_Bucket_2: 33
Non-critical_ROB_Stalls_Percent_7_Bucket_2: 28
Critical_ROB_Stalls_Percent_7_Bucket_3: 59
Non-critical_ROB_Stalls_Percent_7_Bucket_3: 20
Critical_ROB_Stalls_Percent_7_Bucket_4: 36
Non-critical_ROB_Stalls_Percent_7_Bucket_4: 10
Critical_ROB_Stalls_Percent_7_Bucket_5: 43297
Non-critical_ROB_Stalls_Percent_7_Bucket_5: 4464
Critical_ROB_Stalls_Percent_7_Bucket_6: 854201
Non-critical_ROB_Stalls_Percent_7_Bucket_6: 144681
Critical_ROB_Stalls_Percent_8_Bucket_0: 6
Non-critical_ROB_Stalls_Percent_8_Bucket_0: 5
Critical_ROB_Stalls_Percent_8_Bucket_1: 37
Non-critical_ROB_Stalls_Percent_8_Bucket_1: 61
Critical_ROB_Stalls_Percent_8_Bucket_2: 37
Non-critical_ROB_Stalls_Percent_8_Bucket_2: 24
Critical_ROB_Stalls_Percent_8_Bucket_3: 63
Non-critical_ROB_Stalls_Percent_8_Bucket_3: 16
Critical_ROB_Stalls_Percent_8_Bucket_4: 37
Non-critical_ROB_Stalls_Percent_8_Bucket_4: 9
Critical_ROB_Stalls_Percent_8_Bucket_5: 44055
Non-critical_ROB_Stalls_Percent_8_Bucket_5: 3706
Critical_ROB_Stalls_Percent_8_Bucket_6: 898659
Non-critical_ROB_Stalls_Percent_8_Bucket_6: 100223
IP: 4546126
ROB Occupancy: 304 ccc: 25365951
ROB Occupancy: 304 ccc: 25410525
ROB Occupancy: 307 ccc: 25496303
ROB Occupancy: 304 ccc: 25508927
ROB Occupancy: 304 ccc: 25607353
ROB Occupancy: 304 ccc: 25706025
ROB Occupancy: 304 ccc: 25814435
ROB Occupancy: 304 ccc: 25856985
ROB Occupancy: 304 ccc: 25857331
ROB Occupancy: 304 ccc: 25912762
ROB Occupancy: 304 ccc: 25913659
ROB Occupancy: 304 ccc: 25916692
ROB Occupancy: 304 ccc: 25921124
ROB Occupancy: 304 ccc: 25954285
ROB Occupancy: 304 ccc: 26010574
ROB Occupancy: 304 ccc: 26032169
ROB Occupancy: 307 ccc: 26039786
ROB Occupancy: 304 ccc: 26052698
ROB Occupancy: 307 ccc: 26083829
ROB Occupancy: 304 ccc: 26096181
ROB Occupancy: 304 ccc: 26108691
ROB Occupancy: 304 ccc: 26109873
ROB Occupancy: 304 ccc: 26197564
ROB Occupancy: 304 ccc: 26213670
ROB Occupancy: 307 ccc: 26283926
ROB Occupancy: 304 ccc: 26296025
ROB Occupancy: 304 ccc: 26347486
ROB Occupancy: 304 ccc: 26350116
ROB Occupancy: 304 ccc: 26384079
ROB Occupancy: 304 ccc: 26393105
ROB Occupancy: 304 ccc: 26520593
ROB Occupancy: 304 ccc: 26541952
ROB Occupancy: 304 ccc: 26553207
ROB Occupancy: 304 ccc: 26640802
ROB Occupancy: 304 ccc: 26697815
ROB Occupancy: 304 ccc: 26738299
ROB Occupancy: 304 ccc: 26792611
ROB Occupancy: 304 ccc: 26793730
ROB Occupancy: 307 ccc: 26866333
ROB Occupancy: 304 ccc: 26878490
ROB Occupancy: 307 ccc: 26964682
ROB Occupancy: 304 ccc: 26976349
ROB Occupancy: 304 ccc: 27029237
ROB Occupancy: 304 ccc: 27036926
ROB Occupancy: 304 ccc: 27041433
ROB Occupancy: 304 ccc: 27049920
ROB Occupancy: 304 ccc: 27074669
ROB Occupancy: 304 ccc: 27109879
ROB Occupancy: 304 ccc: 27120269
ROB Occupancy: 304 ccc: 27202370
ROB Occupancy: 304 ccc: 27284744
ROB Occupancy: 304 ccc: 27520812
ROB Occupancy: 304 ccc: 27693056
ROB Occupancy: 307 ccc: 27747308
ROB Occupancy: 304 ccc: 27958646
ROB Occupancy: 304 ccc: 27985591
ROB Occupancy: 304 ccc: 28088170
ROB Occupancy: 304 ccc: 28143631
ROB Occupancy: 304 ccc: 28221670
ROB Occupancy: 304 ccc: 28388426
ROB Occupancy: 304 ccc: 28713224
ROB Occupancy: 304 ccc: 28975310
ROB Occupancy: 304 ccc: 29168650
ROB Occupancy: 304 ccc: 29228558
ROB Occupancy: 304 ccc: 29349144
ROB Occupancy: 304 ccc: 29563820
ROB Occupancy: 304 ccc: 29564954
ROB Occupancy: 304 ccc: 29662881
ROB Occupancy: 304 ccc: 29680607
ROB Occupancy: 307 ccc: 29738943
ROB Occupancy: 304 ccc: 29745641
ROB Occupancy: 304 ccc: 29751243
ROB Occupancy: 304 ccc: 29758654
ROB Occupancy: 304 ccc: 29763035
ROB Occupancy: 304 ccc: 29764036
ROB Occupancy: 304 ccc: 29833854
ROB Occupancy: 307 ccc: 29838485
ROB Occupancy: 304 ccc: 29850572
ROB Occupancy: 304 ccc: 29862765
ROB Occupancy: 304 ccc: 29907222
ROB Occupancy: 307 ccc: 29937075
ROB Occupancy: 304 ccc: 29949210
ROB Occupancy: 307 ccc: 30035693
ROB Occupancy: 304 ccc: 30103819
ROB Occupancy: 304 ccc: 30209463
ROB Occupancy: 304 ccc: 30259949
ROB Occupancy: 304 ccc: 30261183
ROB Occupancy: 304 ccc: 30359336
ROB Occupancy: 304 ccc: 30360516
ROB Occupancy: 304 ccc: 30441253
ROB Occupancy: 304 ccc: 30446455
ROB Occupancy: 304 ccc: 30457954
ROB Occupancy: 304 ccc: 30459184
ROB Occupancy: 304 ccc: 30493556
ROB Occupancy: 307 ccc: 30533576
ROB Occupancy: 304 ccc: 30541526
ROB Occupancy: 304 ccc: 30545574
ROB Occupancy: 304 ccc: 30556580
ROB Occupancy: 304 ccc: 30643851
ROB Occupancy: 304 ccc: 30726355
ROB Occupancy: 304 ccc: 30742506
ROB Occupancy: 304 ccc: 30786054
ROB Occupancy: 304 ccc: 30951828
ROB Occupancy: 304 ccc: 30958274
ROB Occupancy: 304 ccc: 30971646
ROB Occupancy: 307 ccc: 31125615
ROB Occupancy: 304 ccc: 31131464
ROB Occupancy: 304 ccc: 31137511
ROB Occupancy: 304 ccc: 31148229
ROB Occupancy: 304 ccc: 31149499
ROB Occupancy: 304 ccc: 31238092
ROB Occupancy: 304 ccc: 31248697
ROB Occupancy: 307 ccc: 31323859
ROB Occupancy: 304 ccc: 31336700
ROB Occupancy: 307 ccc: 31423705
ROB Occupancy: 304 ccc: 31534050
ROB Occupancy: 304 ccc: 31591785
ROB Occupancy: 304 ccc: 31652674
ROB Occupancy: 304 ccc: 32090295
ROB Occupancy: 304 ccc: 32155563
ROB Occupancy: 304 ccc: 32161733
ROB Occupancy: 304 ccc: 32191114
ROB Occupancy: 304 ccc: 32289893
ROB Occupancy: 307 ccc: 32363927
ROB Occupancy: 304 ccc: 32372675
ROB Occupancy: 304 ccc: 32453893
ROB Occupancy: 304 ccc: 32545694
ROB Occupancy: 304 ccc: 32620027
ROB Occupancy: 304 ccc: 32685610
ROB Occupancy: 304 ccc: 32751379
ROB Occupancy: 304 ccc: 32785031
ROB Occupancy: 304 ccc: 32870971
ROB Occupancy: 307 ccc: 32961190
ROB Occupancy: 304 ccc: 32984967
ROB Occupancy: 304 ccc: 33047452
ROB Occupancy: 307 ccc: 33061373
ROB Occupancy: 304 ccc: 33272968
ROB Occupancy: 304 ccc: 33479405
ROB Occupancy: 307 ccc: 33500534
ROB Occupancy: 304 ccc: 33578079
ROB Occupancy: 307 ccc: 33653304
ROB Occupancy: 304 ccc: 33822401
ROB Occupancy: 304 ccc: 33847368
ROB Occupancy: 304 ccc: 33880229
ROB Occupancy: 304 ccc: 33905240
ROB Occupancy: 304 ccc: 33947562
ROB Occupancy: 304 ccc: 33976022
ROB Occupancy: 304 ccc: 33992481
ROB Occupancy: 304 ccc: 34047945
ROB Occupancy: 304 ccc: 34053161
ROB Occupancy: 307 ccc: 34074244
ROB Occupancy: 304 ccc: 34119194
ROB Occupancy: 304 ccc: 34193390
ROB Occupancy: 304 ccc: 34239909
ROB Occupancy: 304 ccc: 34247628
ROB Occupancy: 304 ccc: 34322253
ROB Occupancy: 304 ccc: 34339480
ROB Occupancy: 304 ccc: 34388542
ROB Occupancy: 304 ccc: 34393458
ROB Occupancy: 304 ccc: 34437388
ROB Occupancy: 304 ccc: 34475539
ROB Occupancy: 304 ccc: 34534415
ROB Occupancy: 304 ccc: 34565012
ROB Occupancy: 304 ccc: 34952888
ROB Occupancy: 304 ccc: 35021937
ROB Occupancy: 304 ccc: 35026291
ROB Occupancy: 304 ccc: 35098433
ROB Occupancy: 304 ccc: 35118493
ROB Occupancy: 304 ccc: 35146582
ROB Occupancy: 304 ccc: 35157900
ROB Occupancy: 304 ccc: 35196162
ROB Occupancy: 307 ccc: 35216719
ROB Occupancy: 304 ccc: 35325070
ROB Occupancy: 304 ccc: 35329185
ROB Occupancy: 307 ccc: 35403598
ROB Occupancy: 307 ccc: 35450322
ROB Occupancy: 304 ccc: 35519353
ROB Occupancy: 304 ccc: 35562697
ROB Occupancy: 304 ccc: 35598656
ROB Occupancy: 304 ccc: 35615426
ROB Occupancy: 304 ccc: 35618830
ROB Occupancy: 304 ccc: 35713193
ROB Occupancy: 304 ccc: 35910349
ROB Occupancy: 304 ccc: 35975034
ROB Occupancy: 304 ccc: 36001009
ROB Occupancy: 304 ccc: 36005761
ROB Occupancy: 304 ccc: 36029223
ROB Occupancy: 307 ccc: 36031008
ROB Occupancy: 304 ccc: 36034225
ROB Occupancy: 304 ccc: 36036546
ROB Occupancy: 304 ccc: 36043631
ROB Occupancy: 307 ccc: 36048947
ROB Occupancy: 304 ccc: 36056104
ROB Occupancy: 304 ccc: 36134115
ROB Occupancy: 304 ccc: 36143167
ROB Occupancy: 304 ccc: 36154557
ROB Occupancy: 304 ccc: 36155449
ROB Occupancy: 304 ccc: 36191639
ROB Occupancy: 307 ccc: 36193190
ROB Occupancy: 304 ccc: 36254428
ROB Occupancy: 304 ccc: 36295113
ROB Occupancy: 304 ccc: 36306379
ROB Occupancy: 304 ccc: 36342179
ROB Occupancy: 304 ccc: 36355039
ROB Occupancy: 304 ccc: 36396545
ROB Occupancy: 304 ccc: 36396891
ROB Occupancy: 304 ccc: 36453587
ROB Occupancy: 304 ccc: 36495647
ROB Occupancy: 304 ccc: 36552699
ROB Occupancy: 304 ccc: 36587380
ROB Occupancy: 304 ccc: 36602257
ROB Occupancy: 307 ccc: 36627206
ROB Occupancy: 304 ccc: 36738811
ROB Occupancy: 304 ccc: 36836890
ROB Occupancy: 304 ccc: 36883849
ROB Occupancy: 304 ccc: 36988357
ROB Occupancy: 304 ccc: 37045082
ROB Occupancy: 304 ccc: 37086661
ROB Occupancy: 304 ccc: 37186965
ROB Occupancy: 304 ccc: 37191039
ROB Occupancy: 307 ccc: 37220243
ROB Occupancy: 304 ccc: 37245974
ROB Occupancy: 304 ccc: 37287074
ROB Occupancy: 307 ccc: 37318609
ROB Occupancy: 304 ccc: 37331005
ROB Occupancy: 304 ccc: 37343758
ROB Occupancy: 307 ccc: 37419367
ROB Occupancy: 304 ccc: 37432287
ROB Occupancy: 307 ccc: 37519177
ROB Occupancy: 307 ccc: 37536438
ROB Occupancy: 304 ccc: 37543490
ROB Occupancy: 304 ccc: 37596292
ROB Occupancy: 304 ccc: 37615682
ROB Occupancy: 304 ccc: 37642585
ROB Occupancy: 304 ccc: 37682746
ROB Occupancy: 304 ccc: 37738300
ROB Occupancy: 304 ccc: 37781063
ROB Occupancy: 304 ccc: 37824842
ROB Occupancy: 304 ccc: 37837798
ROB Occupancy: 304 ccc: 37880020
ROB Occupancy: 304 ccc: 37919003
ROB Occupancy: 304 ccc: 37924592
ROB Occupancy: 307 ccc: 38008794
ROB Occupancy: 304 ccc: 38021527
ROB Occupancy: 304 ccc: 38032650
ROB Occupancy: 304 ccc: 38033523
ROB Occupancy: 304 ccc: 38036743
ROB Occupancy: 304 ccc: 38173916
ROB Occupancy: 304 ccc: 38486523
ROB Occupancy: 304 ccc: 38530348
ROB Occupancy: 304 ccc: 38598896
ROB Occupancy: 304 ccc: 38656001
ROB Occupancy: 304 ccc: 38703977
ROB Occupancy: 304 ccc: 39003687
ROB Occupancy: 304 ccc: 39020800
ROB Occupancy: 307 ccc: 39227217
ROB Occupancy: 304 ccc: 39569229
ROB Occupancy: 304 ccc: 39624238
ROB Occupancy: 304 ccc: 39725430
ROB Occupancy: 304 ccc: 39737159
ROB Occupancy: 304 ccc: 39773077
ROB Occupancy: 304 ccc: 39777613
ROB Occupancy: 304 ccc: 40141948
ROB Occupancy: 304 ccc: 40188402
ROB Occupancy: 307 ccc: 40280358
ROB Occupancy: 304 ccc: 40303583
ROB Occupancy: 304 ccc: 40447593
ROB Occupancy: 304 ccc: 40477423
ROB Occupancy: 304 ccc: 40552152
ROB Occupancy: 304 ccc: 40699817
ROB Occupancy: 304 ccc: 40706059
ROB Occupancy: 307 ccc: 40870146
ROB Occupancy: 304 ccc: 40876191
ROB Occupancy: 304 ccc: 40893451
ROB Occupancy: 304 ccc: 40991805
ROB Occupancy: 304 ccc: 40992695
ROB Occupancy: 307 ccc: 41063552
ROB Occupancy: 307 ccc: 41163804
ROB Occupancy: 304 ccc: 41383386
ROB Occupancy: 307 ccc: 41555739
ROB Occupancy: 304 ccc: 41572868
ROB Occupancy: 304 ccc: 41577262
ROB Occupancy: 307 ccc: 41650707
ROB Occupancy: 307 ccc: 41845701
ROB Occupancy: 304 ccc: 41897459
ROB Occupancy: 304 ccc: 42066780
ROB Occupancy: 307 ccc: 42237471
ROB Occupancy: 304 ccc: 42359623
ROB Occupancy: 304 ccc: 42467319
ROB Occupancy: 304 ccc: 42574695
ROB Occupancy: 304 ccc: 42813194
ROB Occupancy: 304 ccc: 42962784
ROB Occupancy: 304 ccc: 42963982
ROB Occupancy: 304 ccc: 42978998
ROB Occupancy: 304 ccc: 43061363
ROB Occupancy: 304 ccc: 43062420
ROB Occupancy: 304 ccc: 43079613
ROB Occupancy: 304 ccc: 43087743
ROB Occupancy: 304 ccc: 43147873
ROB Occupancy: 304 ccc: 43159115
ROB Occupancy: 304 ccc: 43160312
ROB Occupancy: 304 ccc: 43177596
ROB Occupancy: 307 ccc: 43206786
ROB Occupancy: 304 ccc: 43251160
ROB Occupancy: 304 ccc: 43319414
ROB Occupancy: 304 ccc: 43442964
ROB Occupancy: 304 ccc: 43455599
ROB Occupancy: 304 ccc: 43478059
ROB Occupancy: 304 ccc: 43549068
ROB Occupancy: 304 ccc: 43550978
ROB Occupancy: 304 ccc: 43552176
ROB Occupancy: 304 ccc: 43605449
ROB Occupancy: 304 ccc: 43648617
ROB Occupancy: 304 ccc: 43649626
ROB Occupancy: 304 ccc: 43720225
ROB Occupancy: 304 ccc: 43748088
ROB Occupancy: 304 ccc: 43749221
ROB Occupancy: 304 ccc: 43846439
ROB Occupancy: 304 ccc: 43847456
ROB Occupancy: 304 ccc: 43942974
ROB Occupancy: 304 ccc: 44138772
ROB Occupancy: 304 ccc: 44214201
ROB Occupancy: 304 ccc: 44252842
ROB Occupancy: 304 ccc: 44273514
ROB Occupancy: 304 ccc: 44289049
ROB Occupancy: 304 ccc: 44334117
ROB Occupancy: 304 ccc: 44335250
ROB Occupancy: 304 ccc: 44389138
ROB Occupancy: 304 ccc: 44432180
ROB Occupancy: 304 ccc: 44433198
ROB Occupancy: 304 ccc: 44458796
ROB Occupancy: 304 ccc: 44530868
ROB Occupancy: 304 ccc: 44532050
ROB Occupancy: 304 ccc: 44559028
ROB Occupancy: 304 ccc: 44583219
ROB Occupancy: 304 ccc: 44656321
ROB Occupancy: 304 ccc: 44689397
ROB Occupancy: 304 ccc: 44729905
ROB Occupancy: 304 ccc: 44756065
ROB Occupancy: 304 ccc: 44849175
ROB Occupancy: 304 ccc: 44860519
ROB Occupancy: 307 ccc: 44917903
ROB Occupancy: 304 ccc: 44923740
ROB Occupancy: 304 ccc: 44976763
ROB Occupancy: 304 ccc: 45000430
ROB Occupancy: 304 ccc: 45049609
ROB Occupancy: 304 ccc: 45122710
ROB Occupancy: 304 ccc: 45169948
ROB Occupancy: 304 ccc: 45244739
ROB Occupancy: 304 ccc: 45259521
ROB Occupancy: 304 ccc: 45268688
ROB Occupancy: 304 ccc: 45318744
ROB Occupancy: 304 ccc: 45345255
ROB Occupancy: 304 ccc: 45443593
ROB Occupancy: 304 ccc: 45613857
ROB Occupancy: 304 ccc: 45716169
ROB Occupancy: 304 ccc: 45738662
ROB Occupancy: 304 ccc: 45762506
ROB Occupancy: 304 ccc: 45836859
ROB Occupancy: 304 ccc: 45861019
ROB Occupancy: 304 ccc: 45890063
ROB Occupancy: 304 ccc: 45934690
ROB Occupancy: 304 ccc: 45952897
ROB Occupancy: 304 ccc: 45958722
ROB Occupancy: 304 ccc: 45961762
ROB Occupancy: 304 ccc: 46010034
ROB Occupancy: 304 ccc: 46033876
ROB Occupancy: 304 ccc: 46083926
ROB Occupancy: 304 ccc: 46131549
ROB Occupancy: 304 ccc: 46157788
ROB Occupancy: 304 ccc: 46182000
ROB Occupancy: 304 ccc: 46204001
ROB Occupancy: 304 ccc: 46377596
ROB Occupancy: 304 ccc: 46407067
ROB Occupancy: 304 ccc: 46426995
ROB Occupancy: 304 ccc: 46450468
ROB Occupancy: 304 ccc: 46525021
ROB Occupancy: 304 ccc: 46531440
ROB Occupancy: 304 ccc: 46549181
ROB Occupancy: 304 ccc: 46624508
ROB Occupancy: 307 ccc: 46635513
ROB Occupancy: 304 ccc: 46648544
ROB Occupancy: 304 ccc: 46696221
ROB Occupancy: 304 ccc: 46980494
ROB Occupancy: 304 ccc: 47008767
ROB Occupancy: 304 ccc: 47038362
ROB Occupancy: 304 ccc: 47081765
ROB Occupancy: 304 ccc: 47607073
ROB Occupancy: 304 ccc: 47696250
ROB Occupancy: 304 ccc: 47721693
ROB Occupancy: 304 ccc: 47891895
ROB Occupancy: 304 ccc: 48122653
ROB Occupancy: 304 ccc: 48293828
ROB Occupancy: 304 ccc: 48694193
ROB Occupancy: 304 ccc: 48751415
ROB Occupancy: 307 ccc: 48925178
ROB Occupancy: 307 ccc: 49321611
ROB Occupancy: 304 ccc: 49327961
ROB Occupancy: 304 ccc: 49345492
ROB Occupancy: 307 ccc: 49421976
ROB Occupancy: 304 ccc: 49445017
ROB Occupancy: 304 ccc: 49617438
ROB Occupancy: 304 ccc: 49652671
ROB Occupancy: 304 ccc: 49681716
ROB Occupancy: 304 ccc: 49751376
ROB Occupancy: 304 ccc: 49826828
ROB Occupancy: 304 ccc: 49905158
ROB Occupancy: 304 ccc: 49950877
ROB Occupancy: 304 ccc: 50021859
ROB Occupancy: 304 ccc: 50136708
ROB Occupancy: 307 ccc: 50210952
ROB Occupancy: 307 ccc: 50308667
ROB Occupancy: 304 ccc: 50419155
ROB Occupancy: 304 ccc: 50527593
ROB Occupancy: 304 ccc: 50610874
ROB Occupancy: 304 ccc: 50624743
ROB Occupancy: 307 ccc: 50700238
ROB Occupancy: 304 ccc: 50856497
ROB Occupancy: 304 ccc: 50989486
ROB Occupancy: 304 ccc: 51043984
ROB Occupancy: 304 ccc: 51047261
ROB Occupancy: 304 ccc: 51098885
ROB Occupancy: 304 ccc: 51136024
ROB Occupancy: 304 ccc: 51140863
ROB Occupancy: 304 ccc: 51196597
ROB Occupancy: 304 ccc: 51197555
ROB Occupancy: 304 ccc: 51200538
ROB Occupancy: 304 ccc: 51205084
ROB Occupancy: 307 ccc: 51271418
ROB Occupancy: 304 ccc: 51296021
ROB Occupancy: 304 ccc: 51337438
ROB Occupancy: 307 ccc: 51368706
ROB Occupancy: 304 ccc: 51391417
ROB Occupancy: 304 ccc: 51393342
ROB Occupancy: 304 ccc: 51394301
ROB Occupancy: 307 ccc: 51470052
ROB Occupancy: 307 ccc: 51565318
ROB Occupancy: 304 ccc: 51618393
ROB Occupancy: 304 ccc: 51640631
ROB Occupancy: 304 ccc: 51681752
ROB Occupancy: 304 ccc: 51729728
ROB Occupancy: 304 ccc: 51749974
ROB Occupancy: 304 ccc: 51785571
ROB Occupancy: 307 ccc: 51787797
ROB Occupancy: 304 ccc: 51793293
ROB Occupancy: 304 ccc: 51827618
ROB Occupancy: 304 ccc: 51882720
ROB Occupancy: 304 ccc: 51923450
ROB Occupancy: 307 ccc: 51955054
ROB Occupancy: 304 ccc: 52021204
ROB Occupancy: 304 ccc: 52076544
ROB Occupancy: 304 ccc: 52128072
ROB Occupancy: 307 ccc: 52150664
ROB Occupancy: 304 ccc: 52225343
ROB Occupancy: 307 ccc: 52246031
ROB Occupancy: 304 ccc: 52257926
ROB Occupancy: 304 ccc: 52326132
ROB Occupancy: 304 ccc: 52462990
ROB Occupancy: 304 ccc: 52463984
ROB Occupancy: 304 ccc: 52561321
ROB Occupancy: 304 ccc: 52602840
ROB Occupancy: 307 ccc: 52634674
ROB Occupancy: 304 ccc: 52657347
ROB Occupancy: 304 ccc: 52658691
ROB Occupancy: 304 ccc: 52691397
ROB Occupancy: 304 ccc: 52700792
ROB Occupancy: 307 ccc: 52733080
ROB Occupancy: 304 ccc: 52748666
ROB Occupancy: 304 ccc: 52757676
ROB Occupancy: 307 ccc: 52829260
ROB Occupancy: 304 ccc: 52861561
ROB Occupancy: 304 ccc: 52902994
ROB Occupancy: 307 ccc: 52927347
ROB Occupancy: 304 ccc: 52943235
ROB Occupancy: 304 ccc: 53261379
ROB Occupancy: 304 ccc: 53318313
ROB Occupancy: 304 ccc: 53433957
ROB Occupancy: 304 ccc: 53584611
ROB Occupancy: 304 ccc: 53664613
ROB Occupancy: 304 ccc: 53669247
ROB Occupancy: 307 ccc: 53778862
ROB Occupancy: 304 ccc: 53993420
ROB Occupancy: 304 ccc: 54054082
ROB Occupancy: 304 ccc: 54055511
ROB Occupancy: 304 ccc: 54137764
ROB Occupancy: 304 ccc: 54341488
ROB Occupancy: 304 ccc: 54348955
ROB Occupancy: 304 ccc: 54350225
ROB Occupancy: 304 ccc: 54409471
ROB Occupancy: 304 ccc: 54465701
ROB Occupancy: 307 ccc: 54638937
ROB Occupancy: 304 ccc: 54810783
ROB Occupancy: 304 ccc: 54853978
ROB Occupancy: 304 ccc: 55232400
ROB Occupancy: 304 ccc: 55328484
ROB Occupancy: 304 ccc: 55527347
ROB Occupancy: 304 ccc: 55577945
ROB Occupancy: 304 ccc: 55609047
ROB Occupancy: 304 ccc: 55702847
ROB Occupancy: 304 ccc: 55720504
ROB Occupancy: 304 ccc: 55802723
ROB Occupancy: 304 ccc: 55815652
ROB Occupancy: 304 ccc: 55820404
ROB Occupancy: 304 ccc: 55916806
ROB Occupancy: 304 ccc: 55968285
ROB Occupancy: 304 ccc: 56014988
ROB Occupancy: 304 ccc: 56071292
ROB Occupancy: 304 ccc: 56124193
ROB Occupancy: 304 ccc: 56141881
ROB Occupancy: 304 ccc: 56245334
ROB Occupancy: 304 ccc: 56264394
ROB Occupancy: 307 ccc: 56351465
ROB Occupancy: 304 ccc: 56408201
ROB Occupancy: 304 ccc: 56434562
ROB Occupancy: 304 ccc: 56505482
ROB Occupancy: 304 ccc: 56602604
ROB Occupancy: 304 ccc: 56693487
ROB Occupancy: 304 ccc: 56701969
ROB Occupancy: 304 ccc: 56750858
ROB Occupancy: 304 ccc: 56801367
ROB Occupancy: 304 ccc: 56847876
ROB Occupancy: 304 ccc: 56863892
ROB Occupancy: 304 ccc: 57094912
ROB Occupancy: 304 ccc: 57167638
ROB Occupancy: 304 ccc: 57271509
ROB Occupancy: 304 ccc: 57288159
ROB Occupancy: 304 ccc: 57317881
ROB Occupancy: 304 ccc: 57384191
ROB Occupancy: 304 ccc: 57431370
ROB Occupancy: 304 ccc: 57731023
ROB Occupancy: 304 ccc: 57807958
ROB Occupancy: 304 ccc: 57846486
ROB Occupancy: 304 ccc: 58025618
ROB Occupancy: 304 ccc: 58442570
ROB Occupancy: 304 ccc: 58551193
ROB Occupancy: 304 ccc: 58797588
ROB Occupancy: 307 ccc: 59057959
ROB Occupancy: 304 ccc: 59623755
ROB Occupancy: 304 ccc: 59801208
ROB Occupancy: 304 ccc: 59803406
ROB Occupancy: 307 ccc: 59858706
ROB Occupancy: 304 ccc: 59897899
ROB Occupancy: 304 ccc: 59995315
ROB Occupancy: 304 ccc: 60095667
ROB Occupancy: 304 ccc: 60203396
ROB Occupancy: 304 ccc: 60328060
ROB Occupancy: 304 ccc: 60340666
ROB Occupancy: 304 ccc: 60396192
ROB Occupancy: 304 ccc: 60400544
ROB Occupancy: 307 ccc: 60430262
ROB Occupancy: 304 ccc: 60473941
ROB Occupancy: 304 ccc: 60478205
ROB Occupancy: 304 ccc: 60486826
ROB Occupancy: 304 ccc: 60506748
ROB Occupancy: 304 ccc: 60520793
ROB Occupancy: 304 ccc: 60585465
ROB Occupancy: 304 ccc: 60685078
ROB Occupancy: 304 ccc: 60774602
ROB Occupancy: 304 ccc: 60783680
ROB Occupancy: 304 ccc: 60830858
ROB Occupancy: 304 ccc: 60838802
ROB Occupancy: 307 ccc: 60930610
ROB Occupancy: 304 ccc: 60946312
ROB Occupancy: 307 ccc: 61030140
ROB Occupancy: 304 ccc: 61471477
ROB Occupancy: 304 ccc: 61480453
ROB Occupancy: 304 ccc: 61502944
ROB Occupancy: 304 ccc: 61518156
ROB Occupancy: 304 ccc: 61532247
ROB Occupancy: 304 ccc: 61549837
ROB Occupancy: 304 ccc: 61618502
ROB Occupancy: 304 ccc: 61723339
ROB Occupancy: 304 ccc: 61795692
ROB Occupancy: 304 ccc: 61865059
ROB Occupancy: 304 ccc: 61866072
ROB Occupancy: 307 ccc: 61939358
ROB Occupancy: 307 ccc: 62036734
ROB Occupancy: 304 ccc: 62199962
ROB Occupancy: 304 ccc: 62256205
ROB Occupancy: 304 ccc: 62296659
ROB Occupancy: 304 ccc: 62351198
ROB Occupancy: 304 ccc: 62352156
ROB Occupancy: 307 ccc: 62423963
ROB Occupancy: 304 ccc: 62449310
ROB Occupancy: 304 ccc: 62450328
ROB Occupancy: 304 ccc: 62482982
ROB Occupancy: 304 ccc: 62492655
ROB Occupancy: 307 ccc: 62524009
ROB Occupancy: 304 ccc: 62539603
ROB Occupancy: 304 ccc: 62546907
ROB Occupancy: 304 ccc: 62547928
ROB Occupancy: 307 ccc: 62620847
ROB Occupancy: 304 ccc: 62654022
ROB Occupancy: 307 ccc: 62719426
ROB Occupancy: 304 ccc: 62798850
ROB Occupancy: 304 ccc: 62883663
ROB Occupancy: 304 ccc: 62885149
ROB Occupancy: 304 ccc: 62982681
ROB Occupancy: 304 ccc: 63081050
ROB Occupancy: 304 ccc: 63110938
ROB Occupancy: 304 ccc: 63137142
ROB Occupancy: 304 ccc: 63178581
ROB Occupancy: 307 ccc: 63210702
ROB Occupancy: 304 ccc: 63237329
ROB Occupancy: 304 ccc: 63264231
ROB Occupancy: 307 ccc: 63311272
ROB Occupancy: 304 ccc: 63378945
ROB Occupancy: 304 ccc: 63387430
ROB Occupancy: 307 ccc: 63408298
ROB Occupancy: 304 ccc: 63625022
ROB Occupancy: 304 ccc: 63669640
ROB Occupancy: 304 ccc: 63724015
ROB Occupancy: 304 ccc: 63724960
ROB Occupancy: 304 ccc: 63767193
ROB Occupancy: 304 ccc: 63798232
ROB Occupancy: 307 ccc: 63809285
ROB Occupancy: 304 ccc: 63824629
ROB Occupancy: 304 ccc: 63825690
ROB Occupancy: 307 ccc: 63855093
ROB Occupancy: 304 ccc: 63868465
ROB Occupancy: 307 ccc: 63901169
ROB Occupancy: 304 ccc: 63926266
ROB Occupancy: 304 ccc: 63927220
ROB Occupancy: 304 ccc: 63969474
ROB Occupancy: 304 ccc: 64199308
ROB Occupancy: 304 ccc: 64255848
ROB Occupancy: 307 ccc: 64426527
ROB Occupancy: 304 ccc: 64781218
ROB Occupancy: 304 ccc: 64824561
ROB Occupancy: 304 ccc: 64840964
ROB Occupancy: 304 ccc: 64910402
ROB Occupancy: 304 ccc: 64915076
ROB Occupancy: 304 ccc: 64939135
ROB Occupancy: 304 ccc: 64991586
ROB Occupancy: 304 ccc: 65029342
ROB Occupancy: 304 ccc: 65082643
ROB Occupancy: 304 ccc: 65103210
ROB Occupancy: 304 ccc: 65336927
ROB Occupancy: 304 ccc: 65507163
ROB Occupancy: 304 ccc: 65665659
ROB Occupancy: 304 ccc: 65911700
ROB Occupancy: 304 ccc: 65960375
ROB Occupancy: 304 ccc: 66032963
ROB Occupancy: 304 ccc: 66050501
ROB Occupancy: 304 ccc: 66106733
ROB Occupancy: 307 ccc: 66176803
ROB Occupancy: 304 ccc: 66200641
ROB Occupancy: 307 ccc: 66272418
ROB Occupancy: 307 ccc: 66371980
ROB Occupancy: 304 ccc: 66470881
ROB Occupancy: 304 ccc: 66510558
ROB Occupancy: 304 ccc: 66582022
ROB Occupancy: 304 ccc: 66639902
ROB Occupancy: 304 ccc: 66684048
ROB Occupancy: 304 ccc: 66781829
ROB Occupancy: 304 ccc: 66879520
ROB Occupancy: 304 ccc: 66950023
ROB Occupancy: 307 ccc: 66955257
ROB Occupancy: 304 ccc: 67029147
ROB Occupancy: 304 ccc: 67032857
ROB Occupancy: 307 ccc: 67054436
ROB Occupancy: 304 ccc: 67120376
ROB Occupancy: 304 ccc: 67359139
ROB Occupancy: 304 ccc: 67370216
ROB Occupancy: 304 ccc: 67467889
ROB Occupancy: 307 ccc: 67542255
ROB Occupancy: 304 ccc: 67566229
ROB Occupancy: 304 ccc: 67634110
ROB Occupancy: 307 ccc: 67639548
ROB Occupancy: 307 ccc: 67736515
ROB Occupancy: 307 ccc: 67833232
ROB Occupancy: 304 ccc: 67899336
ROB Occupancy: 304 ccc: 67921989
ROB Occupancy: 304 ccc: 67946708
ROB Occupancy: 304 ccc: 68050559
ROB Occupancy: 307 ccc: 68222375
ROB Occupancy: 304 ccc: 68228865
ROB Occupancy: 304 ccc: 68234113
ROB Occupancy: 304 ccc: 68245715
ROB Occupancy: 304 ccc: 68325324
ROB Occupancy: 304 ccc: 68325673
ROB Occupancy: 304 ccc: 68389340
ROB Occupancy: 304 ccc: 68398335
ROB Occupancy: 304 ccc: 68429710
ROB Occupancy: 304 ccc: 68505858
ROB Occupancy: 304 ccc: 68531110
ROB Occupancy: 304 ccc: 68678298
ROB Occupancy: 304 ccc: 68779415
ROB Occupancy: 304 ccc: 68821015
ROB Occupancy: 304 ccc: 68881416
ROB Occupancy: 304 ccc: 68885262
ROB Occupancy: 304 ccc: 68936454
ROB Occupancy: 307 ccc: 68996308
ROB Occupancy: 304 ccc: 69035560
ROB Occupancy: 304 ccc: 69138043
ROB Occupancy: 304 ccc: 69240844
ROB Occupancy: 304 ccc: 69286133
ROB Occupancy: 304 ccc: 69352087
ROB Occupancy: 304 ccc: 69389498
ROB Occupancy: 304 ccc: 69483648
ROB Occupancy: 304 ccc: 69493322
ROB Occupancy: 304 ccc: 69502607
ROB Occupancy: 304 ccc: 69549185
ROB Occupancy: 304 ccc: 69564422
ROB Occupancy: 304 ccc: 69574494
ROB Occupancy: 307 ccc: 69646450
ROB Occupancy: 304 ccc: 69650513
ROB Occupancy: 304 ccc: 69751310
ROB Occupancy: 304 ccc: 69852855
ROB Occupancy: 304 ccc: 69944984
ROB Occupancy: 304 ccc: 69954957
ROB Occupancy: 304 ccc: 70002028
ROB Occupancy: 304 ccc: 70005262
ROB Occupancy: 304 ccc: 70102883
ROB Occupancy: 304 ccc: 70123378
ROB Occupancy: 304 ccc: 70307376
ROB Occupancy: 304 ccc: 70465397
ROB Occupancy: 304 ccc: 70539443
ROB Occupancy: 304 ccc: 70547783
ROB Occupancy: 304 ccc: 70595589
ROB Occupancy: 304 ccc: 70710092
ROB Occupancy: 307 ccc: 70892268
ROB Occupancy: 304 ccc: 71024062
ROB Occupancy: 304 ccc: 71037273
ROB Occupancy: 304 ccc: 71121028
ROB Occupancy: 304 ccc: 71134212
ROB Occupancy: 304 ccc: 71233155
ROB Occupancy: 304 ccc: 71263421
ROB Occupancy: 304 ccc: 71280020
ROB Occupancy: 304 ccc: 71460151
ROB Occupancy: 304 ccc: 71464706
ROB Occupancy: 304 ccc: 71484541
ROB Occupancy: 307 ccc: 71575460
ROB Occupancy: 304 ccc: 71610920
ROB Occupancy: 307 ccc: 71613160
ROB Occupancy: 304 ccc: 71617270
ROB Occupancy: 304 ccc: 71620184
ROB Occupancy: 304 ccc: 71628818
ROB Occupancy: 304 ccc: 71633902
ROB Occupancy: 304 ccc: 71657249
ROB Occupancy: 304 ccc: 71680315
ROB Occupancy: 304 ccc: 71723685
ROB Occupancy: 304 ccc: 71736901
ROB Occupancy: 304 ccc: 71784413
ROB Occupancy: 304 ccc: 71788727
ROB Occupancy: 307 ccc: 71908647
ROB Occupancy: 304 ccc: 71921563
ROB Occupancy: 304 ccc: 72164478
ROB Occupancy: 307 ccc: 72166589
ROB Occupancy: 304 ccc: 72209120
ROB Occupancy: 304 ccc: 72222417
ROB Occupancy: 304 ccc: 72295088
ROB Occupancy: 304 ccc: 72307769
ROB Occupancy: 304 ccc: 72410615
ROB Occupancy: 304 ccc: 72508691
ROB Occupancy: 304 ccc: 72591352
ROB Occupancy: 304 ccc: 72605249
ROB Occupancy: 304 ccc: 72703150
ROB Occupancy: 304 ccc: 72749420
ROB Occupancy: 304 ccc: 72753464
ROB Occupancy: 304 ccc: 72808314
ROB Occupancy: 304 ccc: 72879825
ROB Occupancy: 304 ccc: 72906773
ROB Occupancy: 304 ccc: 72948238
ROB Occupancy: 304 ccc: 72974927
ROB Occupancy: 307 ccc: 72980186
ROB Occupancy: 304 ccc: 72995514
ROB Occupancy: 304 ccc: 73000262
ROB Occupancy: 304 ccc: 73004438
ROB Occupancy: 304 ccc: 73005315
ROB Occupancy: 307 ccc: 73078978
ROB Occupancy: 307 ccc: 73176859
ROB Occupancy: 304 ccc: 73254580
ROB Occupancy: 304 ccc: 73395413
ROB Occupancy: 304 ccc: 73440225
ROB Occupancy: 304 ccc: 73496777
ROB Occupancy: 304 ccc: 73537050
ROB Occupancy: 304 ccc: 73565050
ROB Occupancy: 304 ccc: 73594623
ROB Occupancy: 304 ccc: 73595795
ROB Occupancy: 307 ccc: 73624594
ROB Occupancy: 304 ccc: 73636922
ROB Occupancy: 304 ccc: 73663560
ROB Occupancy: 307 ccc: 73668456
ROB Occupancy: 304 ccc: 73693059
ROB Occupancy: 304 ccc: 73767273
ROB Occupancy: 307 ccc: 73768207
ROB Occupancy: 307 ccc: 73866235
ROB Occupancy: 304 ccc: 73968826
ROB Occupancy: 304 ccc: 74034037
ROB Occupancy: 304 ccc: 74042070
ROB Occupancy: 304 ccc: 74046232
ROB Occupancy: 304 ccc: 74111366
ROB Occupancy: 304 ccc: 74129948
ROB Occupancy: 304 ccc: 74141789
ROB Occupancy: 304 ccc: 74182490
ROB Occupancy: 304 ccc: 74187828
ROB Occupancy: 304 ccc: 74229996
ROB Occupancy: 304 ccc: 74285472
ROB Occupancy: 304 ccc: 74286519
ROB Occupancy: 304 ccc: 74327391
ROB Occupancy: 307 ccc: 74360032
ROB Occupancy: 304 ccc: 74383123
ROB Occupancy: 304 ccc: 74384135
ROB Occupancy: 307 ccc: 74457065
ROB Occupancy: 304 ccc: 74462023
ROB Occupancy: 304 ccc: 74463203
ROB Occupancy: 307 ccc: 74465629
ROB Occupancy: 304 ccc: 74468988
ROB Occupancy: 304 ccc: 74534365
ROB Occupancy: 307 ccc: 74555578
ROB Occupancy: 304 ccc: 74628386
ROB Occupancy: 304 ccc: 74712053
ROB Occupancy: 304 ccc: 74718847
ROB Occupancy: 304 ccc: 74742712
ROB Occupancy: 307 ccc: 74750588
ROB Occupancy: 304 ccc: 74756701
ROB Occupancy: 304 ccc: 74772472
ROB Occupancy: 304 ccc: 75050366
ROB Occupancy: 304 ccc: 75282909
ROB Occupancy: 304 ccc: 75285404
ROB Occupancy: 304 ccc: 76100758
ROB Occupancy: 304 ccc: 76222710
ROB Occupancy: 304 ccc: 76303785
ROB Occupancy: 304 ccc: 76416917
ROB Occupancy: 304 ccc: 76650046
ROB Occupancy: 307 ccc: 76746059
ROB Occupancy: 304 ccc: 76977943
ROB Occupancy: 304 ccc: 76993496
ROB Occupancy: 304 ccc: 77000586
ROB Occupancy: 307 ccc: 77049614
ROB Occupancy: 304 ccc: 77097941
ROB Occupancy: 304 ccc: 77149171
ROB Occupancy: 304 ccc: 77152996
ROB Occupancy: 304 ccc: 77195914
ROB Occupancy: 304 ccc: 77294859
ROB Occupancy: 304 ccc: 77324715
ROB Occupancy: 307 ccc: 77326752
ROB Occupancy: 304 ccc: 77393641
ROB Occupancy: 307 ccc: 77425574
ROB Occupancy: 307 ccc: 77522796
ROB Occupancy: 307 ccc: 77620918
ROB Occupancy: 304 ccc: 77688012
ROB Occupancy: 304 ccc: 77786049
ROB Occupancy: 304 ccc: 77843191
ROB Occupancy: 304 ccc: 77885310
ROB Occupancy: 307 ccc: 77918256
ROB Occupancy: 304 ccc: 77942030
ROB Occupancy: 304 ccc: 77984825
ROB Occupancy: 304 ccc: 78023541
ROB Occupancy: 304 ccc: 78040276
ROB Occupancy: 304 ccc: 78082069
ROB Occupancy: 307 ccc: 78114664
ROB Occupancy: 304 ccc: 78138458
ROB Occupancy: 304 ccc: 78173925
ROB Occupancy: 307 ccc: 78311221
ROB Occupancy: 304 ccc: 78377534
ROB Occupancy: 304 ccc: 78478661
ROB Occupancy: 304 ccc: 78535378
ROB Occupancy: 304 ccc: 78559854
ROB Occupancy: 304 ccc: 78577978
ROB Occupancy: 307 ccc: 78708532
ROB Occupancy: 304 ccc: 78714037
ROB Occupancy: 304 ccc: 78731842
ROB Occupancy: 304 ccc: 78739813
ROB Occupancy: 304 ccc: 78773760
ROB Occupancy: 307 ccc: 78900316
ROB Occupancy: 307 ccc: 78999515
ROB Occupancy: 304 ccc: 79112359
ROB Occupancy: 304 ccc: 79130766
ROB Occupancy: 307 ccc: 79145027
ROB Occupancy: 304 ccc: 79148248
ROB Occupancy: 307 ccc: 79153572
ROB Occupancy: 304 ccc: 79249536
ROB Occupancy: 304 ccc: 79352391
ROB Occupancy: 304 ccc: 79400015
ROB Occupancy: 304 ccc: 79409939
ROB Occupancy: 304 ccc: 79502443
ROB Occupancy: 304 ccc: 79511166
ROB Occupancy: 304 ccc: 79579859
ROB Occupancy: 304 ccc: 79606562
ROB Occupancy: 304 ccc: 79615960
ROB Occupancy: 304 ccc: 79646740
ROB Occupancy: 304 ccc: 79654616
ROB Occupancy: 304 ccc: 79709129
ROB Occupancy: 304 ccc: 79718526
ROB Occupancy: 304 ccc: 79763770
ROB Occupancy: 304 ccc: 79767747
ROB Occupancy: 304 ccc: 79784561
ROB Occupancy: 307 ccc: 79863772
ROB Occupancy: 304 ccc: 79867746
ROB Occupancy: 304 ccc: 79888504
ROB Occupancy: 304 ccc: 79972176
ROB Occupancy: 307 ccc: 80071873
ROB Occupancy: 304 ccc: 80076121
ROB Occupancy: 304 ccc: 80124859
ROB Occupancy: 304 ccc: 80213006
ROB Occupancy: 304 ccc: 80226544
ROB Occupancy: 304 ccc: 80235660
ROB Occupancy: 304 ccc: 80273681
ROB Occupancy: 304 ccc: 80301284
ROB Occupancy: 304 ccc: 80327732
ROB Occupancy: 304 ccc: 80336573
ROB Occupancy: 304 ccc: 80367183
ROB Occupancy: 304 ccc: 80427669
ROB Occupancy: 304 ccc: 80437396
ROB Occupancy: 307 ccc: 80479526
ROB Occupancy: 304 ccc: 80483381
ROB Occupancy: 304 ccc: 80504597
ROB Occupancy: 304 ccc: 80585627
ROB Occupancy: 304 ccc: 80606206
ROB Occupancy: 307 ccc: 80685233
ROB Occupancy: 307 ccc: 80787997
ROB Occupancy: 304 ccc: 80838623
ROB Occupancy: 304 ccc: 80905811
ROB Occupancy: 304 ccc: 80929071
ROB Occupancy: 304 ccc: 80942711
ROB Occupancy: 304 ccc: 80951802
ROB Occupancy: 304 ccc: 81044776
ROB Occupancy: 304 ccc: 81053876
ROB Occupancy: 307 ccc: 81142820
ROB Occupancy: 304 ccc: 81146908
ROB Occupancy: 304 ccc: 81156564
ROB Occupancy: 304 ccc: 81202729
ROB Occupancy: 304 ccc: 81224262
ROB Occupancy: 304 ccc: 81260230
ROB Occupancy: 304 ccc: 81304751
ROB Occupancy: 304 ccc: 81321797
ROB Occupancy: 304 ccc: 81325712
ROB Occupancy: 304 ccc: 81493677
ROB Occupancy: 304 ccc: 81549800
ROB Occupancy: 304 ccc: 81552743
ROB Occupancy: 304 ccc: 81693635
ROB Occupancy: 307 ccc: 81719145
ROB Occupancy: 304 ccc: 81933680
ROB Occupancy: 304 ccc: 82101003
ROB Occupancy: 304 ccc: 82113634
ROB Occupancy: 304 ccc: 82297192
ROB Occupancy: 304 ccc: 82625081
ROB Occupancy: 304 ccc: 82638941
ROB Occupancy: 304 ccc: 82783777
ROB Occupancy: 304 ccc: 82788792
ROB Occupancy: 304 ccc: 82795350
ROB Occupancy: 304 ccc: 82812398
ROB Occupancy: 304 ccc: 82957087
ROB Occupancy: 304 ccc: 82961887
ROB Occupancy: 304 ccc: 83125645
ROB Occupancy: 304 ccc: 83188182
ROB Occupancy: 304 ccc: 83245091
ROB Occupancy: 304 ccc: 83322996
ROB Occupancy: 307 ccc: 83560749
ROB Occupancy: 304 ccc: 83650687
ROB Occupancy: 307 ccc: 83656767
ROB Occupancy: 304 ccc: 83723002
ROB Occupancy: 304 ccc: 83756190
ROB Occupancy: 304 ccc: 83797365
ROB Occupancy: 304 ccc: 83928042
ROB Occupancy: 307 ccc: 84145653
ROB Occupancy: 304 ccc: 84168641
ROB Occupancy: 304 ccc: 84169651
ROB Occupancy: 304 ccc: 84315700
ROB Occupancy: 307 ccc: 84341393
ROB Occupancy: 304 ccc: 84416604
ROB Occupancy: 304 ccc: 84429037
ROB Occupancy: 304 ccc: 84485036
ROB Occupancy: 304 ccc: 84493496
ROB Occupancy: 307 ccc: 84829096
ROB Occupancy: 304 ccc: 84852912
ROB Occupancy: 304 ccc: 84920074
ROB Occupancy: 307 ccc: 84924830
ROB Occupancy: 304 ccc: 85001744
ROB Occupancy: 307 ccc: 85021817
ROB Occupancy: 307 ccc: 85120749
ROB Occupancy: 304 ccc: 85233805
ROB Occupancy: 304 ccc: 85339730
ROB Occupancy: 304 ccc: 85437593
ROB Occupancy: 304 ccc: 85446004
ROB Occupancy: 307 ccc: 85511639
ROB Occupancy: 304 ccc: 85515502
ROB Occupancy: 304 ccc: 85535861
ROB Occupancy: 307 ccc: 85608870
ROB Occupancy: 304 ccc: 85621343
ROB Occupancy: 304 ccc: 85658204
ROB Occupancy: 304 ccc: 85776444
ROB Occupancy: 304 ccc: 85854587
ROB Occupancy: 304 ccc: 85865933
ROB Occupancy: 304 ccc: 85952504
ROB Occupancy: 304 ccc: 86051896
ROB Occupancy: 304 ccc: 86225109
ROB Occupancy: 307 ccc: 86259249
ROB Occupancy: 304 ccc: 86397343
ROB Occupancy: 304 ccc: 86540735
ROB Occupancy: 307 ccc: 86582114
ROB Occupancy: 304 ccc: 86598933
ROB Occupancy: 304 ccc: 86604948
ROB Occupancy: 304 ccc: 86641498
ROB Occupancy: 304 ccc: 86660736
ROB Occupancy: 304 ccc: 86722913
ROB Occupancy: 304 ccc: 86741222
ROB Occupancy: 307 ccc: 86838154
ROB Occupancy: 304 ccc: 86841751
ROB Occupancy: 307 ccc: 87175272
ROB Occupancy: 304 ccc: 87233452
ROB Occupancy: 304 ccc: 87236572
ROB Occupancy: 304 ccc: 87239690
ROB Occupancy: 304 ccc: 87334805
ROB Occupancy: 304 ccc: 87351068
ROB Occupancy: 304 ccc: 87426645
ROB Occupancy: 304 ccc: 87523220
ROB Occupancy: 307 ccc: 87669204
ROB Occupancy: 307 ccc: 87797265
ROB Occupancy: 304 ccc: 87803829
ROB Occupancy: 304 ccc: 87821497
ROB Occupancy: 304 ccc: 87863623
ROB Occupancy: 304 ccc: 87904967
ROB Occupancy: 304 ccc: 87920641
ROB Occupancy: 307 ccc: 87995772
ROB Occupancy: 304 ccc: 88061213
ROB Occupancy: 307 ccc: 88093355
ROB Occupancy: 304 ccc: 88233543
ROB Occupancy: 304 ccc: 88255679
ROB Occupancy: 304 ccc: 88354900
ROB Occupancy: 304 ccc: 88406537
ROB Occupancy: 304 ccc: 88411090
ROB Occupancy: 304 ccc: 88452591
ROB Occupancy: 307 ccc: 88483963
ROB Occupancy: 304 ccc: 88489476
ROB Occupancy: 304 ccc: 88507278
ROB Occupancy: 307 ccc: 88580485
ROB Occupancy: 304 ccc: 88602816
ROB Occupancy: 307 ccc: 88677799
ROB Occupancy: 307 ccc: 88773862
ROB Occupancy: 304 ccc: 88884317
ROB Occupancy: 304 ccc: 88888265
ROB Occupancy: 304 ccc: 88915476
ROB Occupancy: 304 ccc: 88933021
ROB Occupancy: 304 ccc: 88937526
ROB Occupancy: 304 ccc: 88940799
ROB Occupancy: 304 ccc: 88993820
ROB Occupancy: 304 ccc: 89011304
ROB Occupancy: 304 ccc: 89037292
ROB Occupancy: 304 ccc: 89037626
ROB Occupancy: 304 ccc: 89094639
ROB Occupancy: 304 ccc: 89137175
ROB Occupancy: 307 ccc: 89168152
ROB Occupancy: 304 ccc: 89192534
ROB Occupancy: 304 ccc: 89234469
ROB Occupancy: 307 ccc: 89265295
ROB Occupancy: 304 ccc: 89290065
ROB Occupancy: 307 ccc: 89362785
ROB Occupancy: 304 ccc: 89439266
ROB Occupancy: 307 ccc: 89459882
ROB Occupancy: 304 ccc: 89511870
ROB Occupancy: 304 ccc: 89622682
ROB Occupancy: 304 ccc: 89679325
ROB Occupancy: 304 ccc: 89720506
ROB Occupancy: 304 ccc: 89774948
ROB Occupancy: 304 ccc: 89817969
ROB Occupancy: 307 ccc: 89849104
ROB Occupancy: 304 ccc: 89850445
ROB Occupancy: 304 ccc: 89872536
ROB Occupancy: 304 ccc: 89914785
ROB Occupancy: 304 ccc: 89942580
ROB Occupancy: 304 ccc: 90015045
ROB Occupancy: 304 ccc: 90040549
ROB Occupancy: 304 ccc: 90080302
ROB Occupancy: 304 ccc: 90113619
ROB Occupancy: 304 ccc: 90137757
ROB Occupancy: 307 ccc: 90187668
ROB Occupancy: 304 ccc: 90198425
ROB Occupancy: 304 ccc: 90211214
ROB Occupancy: 304 ccc: 90220602
ROB Occupancy: 307 ccc: 90252088
ROB Occupancy: 307 ccc: 90286272
ROB Occupancy: 304 ccc: 90289735
ROB Occupancy: 304 ccc: 90309879
ROB Occupancy: 307 ccc: 90384707
ROB Occupancy: 304 ccc: 90388632
ROB Occupancy: 304 ccc: 90486320
ROB Occupancy: 304 ccc: 90530816
ROB Occupancy: 304 ccc: 90595059
ROB Occupancy: 304 ccc: 90630640
ROB Occupancy: 304 ccc: 90702229
ROB Occupancy: 304 ccc: 90727104
ROB Occupancy: 304 ccc: 90798916
ROB Occupancy: 307 ccc: 90819335
ROB Occupancy: 304 ccc: 90822584
ROB Occupancy: 307 ccc: 90871272
ROB Occupancy: 304 ccc: 90875249
ROB Occupancy: 304 ccc: 90899038
ROB Occupancy: 304 ccc: 90992454
ROB Occupancy: 304 ccc: 91071973
ROB Occupancy: 304 ccc: 91160713
ROB Occupancy: 304 ccc: 91215221
ROB Occupancy: 304 ccc: 91218603
ROB Occupancy: 304 ccc: 91316041
ROB Occupancy: 304 ccc: 91335231
ROB Occupancy: 304 ccc: 91388100
ROB Occupancy: 304 ccc: 91411728
ROB Occupancy: 304 ccc: 91508594
ROB Occupancy: 307 ccc: 91558865
ROB Occupancy: 304 ccc: 91660429
ROB Occupancy: 304 ccc: 91758563
ROB Occupancy: 304 ccc: 91791192
ROB Occupancy: 307 ccc: 91851075
ROB Occupancy: 304 ccc: 91854546
ROB Occupancy: 304 ccc: 91887735
ROB Occupancy: 304 ccc: 91901215
ROB Occupancy: 304 ccc: 91903019
ROB Occupancy: 304 ccc: 91997197
ROB Occupancy: 304 ccc: 92029754
ROB Occupancy: 304 ccc: 92240880
ROB Occupancy: 304 ccc: 92247724
ROB Occupancy: 304 ccc: 92337404
ROB Occupancy: 304 ccc: 92341991
ROB Occupancy: 304 ccc: 92393732
ROB Occupancy: 304 ccc: 92410152
ROB Occupancy: 304 ccc: 92467878
ROB Occupancy: 304 ccc: 92474459
ROB Occupancy: 304 ccc: 92515268
ROB Occupancy: 304 ccc: 92625150
ROB Occupancy: 304 ccc: 92763721
ROB Occupancy: 304 ccc: 92908818
ROB Occupancy: 304 ccc: 92913283
ROB Occupancy: 304 ccc: 92930400
ROB Occupancy: 304 ccc: 92933328
ROB Occupancy: 304 ccc: 92936674
ROB Occupancy: 304 ccc: 93217838
ROB Occupancy: 304 ccc: 93328722
ROB Occupancy: 304 ccc: 93472468
ROB Occupancy: 304 ccc: 93504227
ROB Occupancy: 304 ccc: 93519186
ROB Occupancy: 304 ccc: 93569157
ROB Occupancy: 304 ccc: 93603720
ROB Occupancy: 304 ccc: 93612244
ROB Occupancy: 304 ccc: 93616775
ROB Occupancy: 304 ccc: 93668210
ROB Occupancy: 304 ccc: 93715514
ROB Occupancy: 304 ccc: 93944693
ROB Occupancy: 304 ccc: 93969574
ROB Occupancy: 304 ccc: 94022648
ROB Occupancy: 304 ccc: 94040721
ROB Occupancy: 304 ccc: 94045361
ROB Occupancy: 304 ccc: 94137673
ROB Occupancy: 304 ccc: 94301089
ROB Occupancy: 304 ccc: 94356350
ROB Occupancy: 304 ccc: 94375257
ROB Occupancy: 304 ccc: 94396550
ROB Occupancy: 304 ccc: 94452189
ROB Occupancy: 304 ccc: 94496311
ROB Occupancy: 307 ccc: 94528203
ROB Occupancy: 304 ccc: 94542458
ROB Occupancy: 304 ccc: 94554622
ROB Occupancy: 304 ccc: 94594891
ROB Occupancy: 307 ccc: 94627255
ROB Occupancy: 304 ccc: 94639832
ROB Occupancy: 304 ccc: 94651792
ROB Occupancy: 304 ccc: 94719987
ROB Occupancy: 307 ccc: 94724861
ROB Occupancy: 304 ccc: 94737873
ROB Occupancy: 307 ccc: 94824607
ROB Occupancy: 304 ccc: 94897124
ROB Occupancy: 304 ccc: 94988733
ROB Occupancy: 304 ccc: 94996208
ROB Occupancy: 304 ccc: 94999648
ROB Occupancy: 304 ccc: 95044195
ROB Occupancy: 304 ccc: 95045247
ROB Occupancy: 304 ccc: 95087836
ROB Occupancy: 304 ccc: 95132942
ROB Occupancy: 304 ccc: 95144977
ROB Occupancy: 304 ccc: 95187689
ROB Occupancy: 304 ccc: 95232386
ROB Occupancy: 304 ccc: 95285021
ROB Occupancy: 307 ccc: 95318919
ROB Occupancy: 304 ccc: 95330948
ROB Occupancy: 304 ccc: 95359889
ROB Occupancy: 307 ccc: 95518457
ROB Occupancy: 304 ccc: 95529878
ROB Occupancy: 304 ccc: 95681588
ROB Occupancy: 304 ccc: 95738708
ROB Occupancy: 304 ccc: 95744951
ROB Occupancy: 304 ccc: 95758067
ROB Occupancy: 304 ccc: 95824161
ROB Occupancy: 304 ccc: 95835131
ROB Occupancy: 304 ccc: 95877736
ROB Occupancy: 307 ccc: 95909972
ROB Occupancy: 304 ccc: 95915402
ROB Occupancy: 304 ccc: 95922836
ROB Occupancy: 304 ccc: 95929832
ROB Occupancy: 304 ccc: 95933961
ROB Occupancy: 304 ccc: 95934922
ROB Occupancy: 304 ccc: 95976114
ROB Occupancy: 304 ccc: 96020095
ROB Occupancy: 304 ccc: 96031495
ROB Occupancy: 307 ccc: 96104404
ROB Occupancy: 304 ccc: 96116290
ROB Occupancy: 307 ccc: 96202179
ROB Occupancy: 304 ccc: 96214224
ROB Occupancy: 304 ccc: 96312354
ROB Occupancy: 304 ccc: 96365432
ROB Occupancy: 304 ccc: 96368739
ROB Occupancy: 307 ccc: 96538746
ROB Occupancy: 304 ccc: 96844474
ROB Occupancy: 304 ccc: 96916824
ROB Occupancy: 304 ccc: 96929448
ROB Occupancy: 304 ccc: 96933038
ROB Occupancy: 304 ccc: 96983763
ROB Occupancy: 304 ccc: 97047125
ROB Occupancy: 304 ccc: 97498128
ROB Occupancy: 304 ccc: 97613568
ROB Occupancy: 307 ccc: 97669067
ROB Occupancy: 304 ccc: 98009157
ROB Occupancy: 304 ccc: 98177308
ROB Occupancy: 307 ccc: 98236179
ROB Occupancy: 304 ccc: 98467954
ROB Occupancy: 304 ccc: 98576359
ROB Occupancy: 304 ccc: 98633105
ROB Occupancy: 304 ccc: 98685274
ROB Occupancy: 304 ccc: 98686609
ROB Occupancy: 304 ccc: 98784919
ROB Occupancy: 304 ccc: 98786047
ROB Occupancy: 304 ccc: 98826944
ROB Occupancy: 304 ccc: 98881389
ROB Occupancy: 304 ccc: 98882631
ROB Occupancy: 304 ccc: 98968674
ROB Occupancy: 304 ccc: 98979736
ROB Occupancy: 304 ccc: 98980836
ROB Occupancy: 304 ccc: 99066354
ROB Occupancy: 304 ccc: 99070773
ROB Occupancy: 304 ccc: 99164942
ROB Occupancy: 304 ccc: 99203331
ROB Occupancy: 304 ccc: 99260820
ROB Occupancy: 304 ccc: 99323595
ROB Occupancy: 304 ccc: 99327752
ROB Occupancy: 304 ccc: 99373927
ROB Occupancy: 304 ccc: 99490689
ROB Occupancy: 307 ccc: 99546902
ROB Occupancy: 304 ccc: 99549796
ROB Occupancy: 304 ccc: 99572554
ROB Occupancy: 304 ccc: 99573592
ROB Occupancy: 304 ccc: 99659327
ROB Occupancy: 304 ccc: 99659703
ROB Occupancy: 304 ccc: 99723166
ROB Occupancy: 307 ccc: 99747270
ROB Occupancy: 304 ccc: 99759569
ROB Occupancy: 304 ccc: 99855776
ROB Occupancy: 304 ccc: 99887143
ROB Occupancy: 307 ccc: 99948486
ROB Occupancy: 304 ccc: 99952273
ROB Occupancy: 304 ccc: 100030314
ROB Occupancy: 304 ccc: 100057966
ROB Occupancy: 304 ccc: 100063136
ROB Occupancy: 304 ccc: 100160989
ROB Occupancy: 304 ccc: 100162239
ROB Occupancy: 304 ccc: 100260446
ROB Occupancy: 304 ccc: 100261825
ROB Occupancy: 304 ccc: 100294801
ROB Occupancy: 307 ccc: 100337251
ROB Occupancy: 304 ccc: 100349044
ROB Occupancy: 304 ccc: 100352313
ROB Occupancy: 304 ccc: 100360889
ROB Occupancy: 304 ccc: 100447014
ROB Occupancy: 304 ccc: 100467002
ROB Occupancy: 304 ccc: 100471549
ROB Occupancy: 307 ccc: 100533935
ROB Occupancy: 304 ccc: 100546077
ROB Occupancy: 304 ccc: 100643093
ROB Occupancy: 307 ccc: 100675419
ROB Occupancy: 304 ccc: 100699237
ROB Occupancy: 307 ccc: 100773775
ROB Occupancy: 304 ccc: 100867791
ROB Occupancy: 304 ccc: 100924947
ROB Occupancy: 304 ccc: 101020566
ROB Occupancy: 304 ccc: 101041958
ROB Occupancy: 304 ccc: 101096224
ROB Occupancy: 304 ccc: 101193971
ROB Occupancy: 304 ccc: 101337712
ROB Occupancy: 304 ccc: 101472042
ROB Occupancy: 304 ccc: 101526880
ROB Occupancy: 304 ccc: 101545118
ROB Occupancy: 304 ccc: 101601530
ROB Occupancy: 304 ccc: 101709410
ROB Occupancy: 304 ccc: 101882228
ROB Occupancy: 304 ccc: 101980753
ROB Occupancy: 304 ccc: 102042382
ROB Occupancy: 307 ccc: 102056454
ROB Occupancy: 304 ccc: 102072347
ROB Occupancy: 307 ccc: 102154432
ROB Occupancy: 307 ccc: 102245996
ROB Occupancy: 304 ccc: 102303598
ROB Occupancy: 304 ccc: 102418180
ROB Occupancy: 304 ccc: 102650005
ROB Occupancy: 304 ccc: 102674622
ROB Occupancy: 304 ccc: 102763915
ROB Occupancy: 304 ccc: 102775070
ROB Occupancy: 304 ccc: 102816869
ROB Occupancy: 304 ccc: 102846069
ROB Occupancy: 304 ccc: 102900883
ROB Occupancy: 304 ccc: 102943533
ROB Occupancy: 304 ccc: 103105391
ROB Occupancy: 304 ccc: 103191829
ROB Occupancy: 304 ccc: 103223113
ROB Occupancy: 304 ccc: 103273970
ROB Occupancy: 304 ccc: 103275383
ROB Occupancy: 304 ccc: 103335306
ROB Occupancy: 304 ccc: 103345904
ROB Occupancy: 304 ccc: 103414653
ROB Occupancy: 304 ccc: 103433234
ROB Occupancy: 304 ccc: 103456752
ROB Occupancy: 304 ccc: 103484373
ROB Occupancy: 304 ccc: 103532567
ROB Occupancy: 304 ccc: 103563465
ROB Occupancy: 304 ccc: 103588675
ROB Occupancy: 304 ccc: 103658889
ROB Occupancy: 304 ccc: 103733118
ROB Occupancy: 304 ccc: 103740524
ROB Occupancy: 304 ccc: 103859288
ROB Occupancy: 304 ccc: 103880471
ROB Occupancy: 307 ccc: 103966488
ROB Occupancy: 304 ccc: 104120435
ROB Occupancy: 304 ccc: 104217256
ROB Occupancy: 307 ccc: 104247710
ROB Occupancy: 307 ccc: 104257270
ROB Occupancy: 304 ccc: 104306302
ROB Occupancy: 304 ccc: 104315257
ROB Occupancy: 304 ccc: 104362445
ROB Occupancy: 304 ccc: 104416439
ROB Occupancy: 304 ccc: 104419172
ROB Occupancy: 304 ccc: 104479006
ROB Occupancy: 304 ccc: 104616055
ROB Occupancy: 304 ccc: 104686636
ROB Occupancy: 304 ccc: 104806398
ROB Occupancy: 304 ccc: 104905646
ROB Occupancy: 304 ccc: 104936557
ROB Occupancy: 304 ccc: 104997149
ROB Occupancy: 304 ccc: 105029115
ROB Occupancy: 307 ccc: 105029904
ROB Occupancy: 304 ccc: 105042212
ROB Occupancy: 304 ccc: 105104317
ROB Occupancy: 304 ccc: 105141467
ROB Occupancy: 307 ccc: 105146352
ROB Occupancy: 304 ccc: 105153665
ROB Occupancy: 307 ccc: 105227824
ROB Occupancy: 304 ccc: 105240503
ROB Occupancy: 304 ccc: 105251198
ROB Occupancy: 304 ccc: 105283098
ROB Occupancy: 304 ccc: 105338683
ROB Occupancy: 304 ccc: 105392763
ROB Occupancy: 304 ccc: 105400319
ROB Occupancy: 304 ccc: 105450235
ROB Occupancy: 304 ccc: 105455772
ROB Occupancy: 304 ccc: 105469912
ROB Occupancy: 304 ccc: 105492180
ROB Occupancy: 304 ccc: 105516039
ROB Occupancy: 304 ccc: 105547963
ROB Occupancy: 304 ccc: 105589830
ROB Occupancy: 307 ccc: 105621773
ROB Occupancy: 304 ccc: 105627744
ROB Occupancy: 304 ccc: 105647591
ROB Occupancy: 304 ccc: 105688942
ROB Occupancy: 304 ccc: 105734364
ROB Occupancy: 307 ccc: 105738865
ROB Occupancy: 304 ccc: 105751587
ROB Occupancy: 304 ccc: 105794600
ROB Occupancy: 307 ccc: 105819254
ROB Occupancy: 304 ccc: 105830987
ROB Occupancy: 307 ccc: 105917756
ROB Occupancy: 304 ccc: 105930894
ROB Occupancy: 304 ccc: 105942355
ROB Occupancy: 304 ccc: 106030759
ROB Occupancy: 304 ccc: 106082093
ROB Occupancy: 304 ccc: 106082439
ROB Occupancy: 304 ccc: 106086023
ROB Occupancy: 304 ccc: 106137611
ROB Occupancy: 304 ccc: 106138717
ROB Occupancy: 304 ccc: 106172561
ROB Occupancy: 304 ccc: 106177117
ROB Occupancy: 304 ccc: 106185916
ROB Occupancy: 304 ccc: 106237699
ROB Occupancy: 304 ccc: 106238654
ROB Occupancy: 304 ccc: 106279511
ROB Occupancy: 304 ccc: 106309701
ROB Occupancy: 304 ccc: 106334838
ROB Occupancy: 304 ccc: 106377681
ROB Occupancy: 307 ccc: 106409335
ROB Occupancy: 304 ccc: 106422117
ROB Occupancy: 304 ccc: 106434384
ROB Occupancy: 307 ccc: 106508737
ROB Occupancy: 304 ccc: 106521199
ROB Occupancy: 304 ccc: 106532121
ROB Occupancy: 304 ccc: 106533172
ROB Occupancy: 304 ccc: 106567399
ROB Occupancy: 307 ccc: 106606363
ROB Occupancy: 304 ccc: 106619206
ROB Occupancy: 307 ccc: 106624294
ROB Occupancy: 304 ccc: 106657666
ROB Occupancy: 304 ccc: 106715634
ROB Occupancy: 307 ccc: 106720925
ROB Occupancy: 304 ccc: 106727258
ROB Occupancy: 304 ccc: 106728321
ROB Occupancy: 304 ccc: 106768953
ROB Occupancy: 304 ccc: 106826181
ROB Occupancy: 304 ccc: 106827121
ROB Occupancy: 304 ccc: 106868310
ROB Occupancy: 307 ccc: 107000146
ROB Occupancy: 304 ccc: 107024880
ROB Occupancy: 304 ccc: 107028272
ROB Occupancy: 304 ccc: 107067904
ROB Occupancy: 304 ccc: 107111691
ROB Occupancy: 304 ccc: 107123325
ROB Occupancy: 304 ccc: 107231179
ROB Occupancy: 304 ccc: 107346661
ROB Occupancy: 304 ccc: 107583925
ROB Occupancy: 304 ccc: 107744912
ROB Occupancy: 304 ccc: 107915113
ROB Occupancy: 304 ccc: 107939793
ROB Occupancy: 307 ccc: 107974385
ROB Occupancy: 304 ccc: 108085551
ROB Occupancy: 304 ccc: 108315633
ROB Occupancy: 304 ccc: 108371277
ROB Occupancy: 304 ccc: 108489078
ROB Occupancy: 304 ccc: 108504047
ROB Occupancy: 304 ccc: 108717788
ROB Occupancy: 304 ccc: 109044301
ROB Occupancy: 304 ccc: 109059307
ROB Occupancy: 304 ccc: 109178514
ROB Occupancy: 304 ccc: 109213480
ROB Occupancy: 304 ccc: 109264137
ROB Occupancy: 307 ccc: 109381102
ROB Occupancy: 304 ccc: 109400278
ROB Occupancy: 304 ccc: 109404644
ROB Occupancy: 304 ccc: 109417570
ROB Occupancy: 304 ccc: 109422348
ROB Occupancy: 307 ccc: 109477788
ROB Occupancy: 307 ccc: 109576314
ROB Occupancy: 304 ccc: 109623118
ROB Occupancy: 304 ccc: 109910820
ROB Occupancy: 307 ccc: 109966377
ROB Occupancy: 304 ccc: 109989448
ROB Occupancy: 304 ccc: 109990564
ROB Occupancy: 307 ccc: 110062341
ROB Occupancy: 304 ccc: 110077315
ROB Occupancy: 304 ccc: 110080562
ROB Occupancy: 304 ccc: 110084859
ROB Occupancy: 307 ccc: 110158815
ROB Occupancy: 304 ccc: 110191157
ROB Occupancy: 307 ccc: 110256554
ROB Occupancy: 304 ccc: 110570098
ROB Occupancy: 304 ccc: 110571114
ROB Occupancy: 304 ccc: 110602172
ROB Occupancy: 304 ccc: 110639657
ROB Occupancy: 304 ccc: 110664879
ROB Occupancy: 307 ccc: 110740232
ROB Occupancy: 304 ccc: 110743620
ROB Occupancy: 304 ccc: 110748004
ROB Occupancy: 304 ccc: 110763386
ROB Occupancy: 304 ccc: 110781548
ROB Occupancy: 307 ccc: 110837021
ROB Occupancy: 304 ccc: 111098462
ROB Occupancy: 304 ccc: 111103125
ROB Occupancy: 304 ccc: 111149649
ROB Occupancy: 304 ccc: 111246805
ROB Occupancy: 304 ccc: 111315999
ROB Occupancy: 304 ccc: 111344686
ROB Occupancy: 304 ccc: 111345640
ROB Occupancy: 304 ccc: 111462591
ROB Occupancy: 304 ccc: 111561571
ROB Occupancy: 304 ccc: 111562703
ROB Occupancy: 304 ccc: 111719706
ROB Occupancy: 304 ccc: 111758533
ROB Occupancy: 304 ccc: 111776826
ROB Occupancy: 307 ccc: 111950827
ROB Occupancy: 304 ccc: 111957893
ROB Occupancy: 304 ccc: 111980912
ROB Occupancy: 304 ccc: 112056616
ROB Occupancy: 304 ccc: 112057577
ROB Occupancy: 304 ccc: 112168305
ROB Occupancy: 304 ccc: 112253429
ROB Occupancy: 304 ccc: 112353322
ROB Occupancy: 304 ccc: 112451069
ROB Occupancy: 304 ccc: 112468165
ROB Occupancy: 304 ccc: 112669890
ROB Occupancy: 304 ccc: 112744813
ROB Occupancy: 304 ccc: 112745945
ROB Occupancy: 304 ccc: 112769726
ROB Occupancy: 304 ccc: 112843155
ROB Occupancy: 304 ccc: 112844116
ROB Occupancy: 304 ccc: 112867849
ROB Occupancy: 304 ccc: 112903725
ROB Occupancy: 304 ccc: 112941431
ROB Occupancy: 304 ccc: 112942498
ROB Occupancy: 304 ccc: 113039827
ROB Occupancy: 304 ccc: 113040789
ROB Occupancy: 304 ccc: 113138698
ROB Occupancy: 304 ccc: 113320069
ROB Occupancy: 304 ccc: 113372499
ROB Occupancy: 304 ccc: 113434616
ROB Occupancy: 304 ccc: 113435577
ROB Occupancy: 304 ccc: 113442104
ROB Occupancy: 304 ccc: 113497595
ROB Occupancy: 304 ccc: 113533230
ROB Occupancy: 304 ccc: 113534362
ROB Occupancy: 304 ccc: 113557138
ROB Occupancy: 304 ccc: 113583959
ROB Occupancy: 304 ccc: 113611826
ROB Occupancy: 304 ccc: 113659647
ROB Occupancy: 307 ccc: 113670279
ROB Occupancy: 304 ccc: 113682617
ROB Occupancy: 304 ccc: 113757562
ROB Occupancy: 304 ccc: 113802600
ROB Occupancy: 304 ccc: 113952151
ROB Occupancy: 304 ccc: 114012326
ROB Occupancy: 307 ccc: 114025843
ROB Occupancy: 304 ccc: 114049936
ROB Occupancy: 304 ccc: 114067908
ROB Occupancy: 304 ccc: 114092480
ROB Occupancy: 304 ccc: 114143786
ROB Occupancy: 304 ccc: 114147252
ROB Occupancy: 304 ccc: 114161211
ROB Occupancy: 304 ccc: 114170380
ROB Occupancy: 304 ccc: 114181581
ROB Occupancy: 304 ccc: 114217444
ROB Occupancy: 304 ccc: 114221849
ROB Occupancy: 304 ccc: 114230102
ROB Occupancy: 304 ccc: 114243957
ROB Occupancy: 304 ccc: 114268320
ROB Occupancy: 304 ccc: 114342283
ROB Occupancy: 304 ccc: 114364925
ROB Occupancy: 304 ccc: 114439293
ROB Occupancy: 304 ccc: 114485841
ROB Occupancy: 304 ccc: 114536822
ROB Occupancy: 304 ccc: 114634400
ROB Occupancy: 304 ccc: 114756443
ROB Occupancy: 304 ccc: 114828795
ROB Occupancy: 304 ccc: 114851736
ROB Occupancy: 304 ccc: 114927872
ROB Occupancy: 304 ccc: 115026126
ROB Occupancy: 304 ccc: 115050609
ROB Occupancy: 304 ccc: 115125751
ROB Occupancy: 304 ccc: 115222108
ROB Occupancy: 304 ccc: 115320014
ROB Occupancy: 304 ccc: 115359439
ROB Occupancy: 307 ccc: 115376335
ROB Occupancy: 304 ccc: 115418868
ROB Occupancy: 304 ccc: 115438255
ROB Occupancy: 304 ccc: 115440884
ROB Occupancy: 304 ccc: 115539314
ROB Occupancy: 304 ccc: 115611851
ROB Occupancy: 304 ccc: 115615015
ROB Occupancy: 304 ccc: 115638384
ROB Occupancy: 304 ccc: 115712624
ROB Occupancy: 304 ccc: 115717666
ROB Occupancy: 304 ccc: 115774637
ROB Occupancy: 304 ccc: 116348025
ROB Occupancy: 304 ccc: 116869305
ROB Occupancy: 304 ccc: 116969504
ROB Occupancy: 307 ccc: 117098966
ROB Occupancy: 304 ccc: 117254684
ROB Occupancy: 304 ccc: 117258033
ROB Occupancy: 304 ccc: 117445200
ROB Occupancy: 304 ccc: 117502092
ROB Occupancy: 304 ccc: 117619834
ROB Occupancy: 304 ccc: 117847455
ROB Occupancy: 304 ccc: 117912279
ROB Occupancy: 304 ccc: 118021355
ROB Occupancy: 304 ccc: 118548527
ROB Occupancy: 307 ccc: 118624606
ROB Occupancy: 304 ccc: 118685347
ROB Occupancy: 307 ccc: 118724443
ROB Occupancy: 304 ccc: 118737530
ROB Occupancy: 304 ccc: 118760044
ROB Occupancy: 304 ccc: 118789513
ROB Occupancy: 304 ccc: 118858269
ROB Occupancy: 304 ccc: 118868180
ROB Occupancy: 304 ccc: 118877683
ROB Occupancy: 304 ccc: 119046043
ROB Occupancy: 304 ccc: 119235432
ROB Occupancy: 304 ccc: 119238392
ROB Occupancy: 304 ccc: 119243012
ROB Occupancy: 304 ccc: 119308271
ROB Occupancy: 307 ccc: 119409084
ROB Occupancy: 307 ccc: 119417276
ROB Occupancy: 304 ccc: 119528018
ROB Occupancy: 304 ccc: 119628339
ROB Occupancy: 304 ccc: 119836607
ROB Occupancy: 304 ccc: 119849838
ROB Occupancy: 304 ccc: 119898420
ROB Occupancy: 307 ccc: 119912588
ROB Occupancy: 304 ccc: 119924536
ROB Occupancy: 304 ccc: 119997661
ROB Occupancy: 307 ccc: 120012242
ROB Occupancy: 304 ccc: 120025213
ROB Occupancy: 304 ccc: 120215477
ROB Occupancy: 304 ccc: 120262432
ROB Occupancy: 304 ccc: 120318434
ROB Occupancy: 304 ccc: 120361620
ROB Occupancy: 304 ccc: 120387741
ROB Occupancy: 304 ccc: 120391520
ROB Occupancy: 304 ccc: 120418035
ROB Occupancy: 304 ccc: 120460437
ROB Occupancy: 304 ccc: 120515321
ROB Occupancy: 304 ccc: 120516358
ROB Occupancy: 304 ccc: 120561285
ROB Occupancy: 307 ccc: 120588027
ROB Occupancy: 307 ccc: 120687077
ROB Occupancy: 304 ccc: 120803055
ROB Occupancy: 304 ccc: 120851830
ROB Occupancy: 304 ccc: 120906773
ROB Occupancy: 304 ccc: 120909471
ROB Occupancy: 304 ccc: 121005734
ROB Occupancy: 304 ccc: 121008083
ROB Occupancy: 304 ccc: 121051532
ROB Occupancy: 304 ccc: 121107091
ROB Occupancy: 307 ccc: 121138053
ROB Occupancy: 304 ccc: 121150679
ROB Occupancy: 307 ccc: 121183730
ROB Occupancy: 304 ccc: 121189882
ROB Occupancy: 304 ccc: 121207019
ROB Occupancy: 304 ccc: 121207877
ROB Occupancy: 307 ccc: 121280763
ROB Occupancy: 307 ccc: 121381001
ROB Occupancy: 304 ccc: 121423323
ROB Occupancy: 304 ccc: 121482042
ROB Occupancy: 304 ccc: 121508021
ROB Occupancy: 304 ccc: 121521447
ROB Occupancy: 304 ccc: 121537407
ROB Occupancy: 304 ccc: 121543440
ROB Occupancy: 304 ccc: 121555232
ROB Occupancy: 304 ccc: 121601217
ROB Occupancy: 304 ccc: 121641761
ROB Occupancy: 304 ccc: 121652999
ROB Occupancy: 304 ccc: 121698093
ROB Occupancy: 304 ccc: 121699106
ROB Occupancy: 304 ccc: 121739673
ROB Occupancy: 304 ccc: 121794761
ROB Occupancy: 304 ccc: 121795735
ROB Occupancy: 304 ccc: 121836946
ROB Occupancy: 307 ccc: 121869448
ROB Occupancy: 304 ccc: 121891608
ROB Occupancy: 304 ccc: 121892466
ROB Occupancy: 307 ccc: 121965791
ROB Occupancy: 304 ccc: 122046592
ROB Occupancy: 307 ccc: 122061979
ROB Occupancy: 304 ccc: 122095158
ROB Occupancy: 304 ccc: 122218604
ROB Occupancy: 304 ccc: 122226191
ROB Occupancy: 304 ccc: 122311743
ROB Occupancy: 304 ccc: 122324606
ROB Occupancy: 304 ccc: 122361873
ROB Occupancy: 304 ccc: 122421671
ROB Occupancy: 304 ccc: 122494064
ROB Occupancy: 304 ccc: 122495377
ROB Occupancy: 304 ccc: 122520309
ROB Occupancy: 304 ccc: 122592682
ROB Occupancy: 304 ccc: 122593930
ROB Occupancy: 304 ccc: 122619504
ROB Occupancy: 304 ccc: 122691760
ROB Occupancy: 304 ccc: 122692917
ROB Occupancy: 304 ccc: 122737399
ROB Occupancy: 304 ccc: 122778668
ROB Occupancy: 304 ccc: 122790537
ROB Occupancy: 304 ccc: 122791655
ROB Occupancy: 304 ccc: 122800322
ROB Occupancy: 304 ccc: 123109101
ROB Occupancy: 304 ccc: 123182526
ROB Occupancy: 304 ccc: 123183877
ROB Occupancy: 304 ccc: 123189626
ROB Occupancy: 304 ccc: 123198458
ROB Occupancy: 304 ccc: 123207728
ROB Occupancy: 304 ccc: 123246962
ROB Occupancy: 304 ccc: 123281092
ROB Occupancy: 304 ccc: 123282642
ROB Occupancy: 304 ccc: 123306845
ROB Occupancy: 304 ccc: 123341984
ROB Occupancy: 304 ccc: 123379725
ROB Occupancy: 304 ccc: 123380958
ROB Occupancy: 304 ccc: 123406046
ROB Occupancy: 304 ccc: 123475712
ROB Occupancy: 304 ccc: 123477030
ROB Occupancy: 304 ccc: 123573932
ROB Occupancy: 304 ccc: 123695497
ROB Occupancy: 304 ccc: 123733727
ROB Occupancy: 304 ccc: 123760970
ROB Occupancy: 304 ccc: 123792414
ROB Occupancy: 304 ccc: 123812978
ROB Occupancy: 304 ccc: 123831862
ROB Occupancy: 304 ccc: 123857142
ROB Occupancy: 304 ccc: 123889634
ROB Occupancy: 304 ccc: 123925636
ROB Occupancy: 304 ccc: 123956814
ROB Occupancy: 304 ccc: 123963935
ROB Occupancy: 304 ccc: 123965153
ROB Occupancy: 304 ccc: 123973019
ROB Occupancy: 304 ccc: 123987848
ROB Occupancy: 304 ccc: 124059315
ROB Occupancy: 304 ccc: 124060513
ROB Occupancy: 304 ccc: 124157583
ROB Occupancy: 304 ccc: 124158801
ROB Occupancy: 304 ccc: 124221659
ROB Occupancy: 304 ccc: 124324975
ROB Occupancy: 304 ccc: 124382669
ROB Occupancy: 304 ccc: 124450292
ROB Occupancy: 304 ccc: 124496056
ROB Occupancy: 304 ccc: 124672016
ROB Occupancy: 304 ccc: 124840774
ROB Occupancy: 304 ccc: 124895417
ROB Occupancy: 304 ccc: 124917571
ROB Occupancy: 304 ccc: 124921991
ROB Occupancy: 304 ccc: 124938937
ROB Occupancy: 304 ccc: 125037502
ROB Occupancy: 307 ccc: 125124216
ROB Occupancy: 304 ccc: 125136766
ROB Occupancy: 304 ccc: 125188116
ROB Occupancy: 304 ccc: 125192353
ROB Occupancy: 304 ccc: 125360490
ROB Occupancy: 307 ccc: 125418934
ROB Occupancy: 304 ccc: 125457073
ROB Occupancy: 304 ccc: 125466603
ROB Occupancy: 304 ccc: 125521096
ROB Occupancy: 304 ccc: 125578304
ROB Occupancy: 304 ccc: 125624588
ROB Occupancy: 304 ccc: 125636824
ROB Occupancy: 304 ccc: 125723719
ROB Occupancy: 304 ccc: 125821230
ROB Occupancy: 304 ccc: 125847903
ROB Occupancy: 304 ccc: 125863630
ROB Occupancy: 304 ccc: 125963596
ROB Occupancy: 304 ccc: 126140259
ROB Occupancy: 304 ccc: 126204109
ROB Occupancy: 304 ccc: 126211222
ROB Occupancy: 304 ccc: 126213405
ROB Occupancy: 307 ccc: 126299607
ROB Occupancy: 304 ccc: 126311607
ROB Occupancy: 304 ccc: 126388464
ROB Occupancy: 304 ccc: 126409659
ROB Occupancy: 304 ccc: 126410034
ROB Occupancy: 304 ccc: 126708210
ROB Occupancy: 304 ccc: 126820058
ROB Occupancy: 307 ccc: 126852271
ROB Occupancy: 304 ccc: 126888044
ROB Occupancy: 304 ccc: 127218748
ROB Occupancy: 304 ccc: 127267268
ROB Occupancy: 304 ccc: 127401091
ROB Occupancy: 304 ccc: 127679701
ROB Occupancy: 304 ccc: 127816187
ROB Occupancy: 304 ccc: 127825117
ROB Occupancy: 304 ccc: 127830191
ROB Occupancy: 304 ccc: 127862192
ROB Occupancy: 304 ccc: 127883676
ROB Occupancy: 304 ccc: 127888306
ROB Occupancy: 304 ccc: 127959656
ROB Occupancy: 304 ccc: 127985465
ROB Occupancy: 304 ccc: 128084757
ROB Occupancy: 307 ccc: 128634679
ROB Occupancy: 304 ccc: 128648119
ROB Occupancy: 304 ccc: 128676571
ROB Occupancy: 304 ccc: 128816533
ROB Occupancy: 304 ccc: 128842667
ROB Occupancy: 304 ccc: 128982427
ROB Occupancy: 304 ccc: 129026105
ROB Occupancy: 304 ccc: 129030273
ROB Occupancy: 304 ccc: 129039052
ROB Occupancy: 304 ccc: 129091423
ROB Occupancy: 307 ccc: 129212624
ROB Occupancy: 304 ccc: 129225301
ROB Occupancy: 304 ccc: 129284200
ROB Occupancy: 304 ccc: 129352368
ROB Occupancy: 304 ccc: 129426530
ROB Occupancy: 304 ccc: 129456599
ROB Occupancy: 307 ccc: 129469758
ROB Occupancy: 304 ccc: 129609955
ROB Occupancy: 304 ccc: 129715191
ROB Occupancy: 304 ccc: 129726129
ROB Occupancy: 304 ccc: 129810554
ROB Occupancy: 304 ccc: 129843377
ROB Occupancy: 304 ccc: 129907763
ROB Occupancy: 304 ccc: 130016888
ROB Occupancy: 307 ccc: 130055803
ROB Occupancy: 304 ccc: 130115326
ROB Occupancy: 304 ccc: 130121873
ROB Occupancy: 304 ccc: 130158754
ROB Occupancy: 304 ccc: 130234917
ROB Occupancy: 304 ccc: 130286858
ROB Occupancy: 304 ccc: 130293742
ROB Occupancy: 307 ccc: 130350657
ROB Occupancy: 304 ccc: 130356001
ROB Occupancy: 304 ccc: 130380901
ROB Occupancy: 304 ccc: 130398324
ROB Occupancy: 304 ccc: 130496518
ROB Occupancy: 304 ccc: 130551128
ROB Occupancy: 304 ccc: 130582156
ROB Occupancy: 304 ccc: 130694369
ROB Occupancy: 304 ccc: 130749416
ROB Occupancy: 307 ccc: 130922101
ROB Occupancy: 304 ccc: 130934866
ROB Occupancy: 307 ccc: 130967884
ROB Occupancy: 304 ccc: 130992020
ROB Occupancy: 307 ccc: 131064356
ROB Occupancy: 307 ccc: 131161170
ROB Occupancy: 304 ccc: 131263552
ROB Occupancy: 304 ccc: 131321047
ROB Occupancy: 304 ccc: 131435115
ROB Occupancy: 304 ccc: 131481307
ROB Occupancy: 304 ccc: 131521933
ROB Occupancy: 304 ccc: 131578121
ROB Occupancy: 304 ccc: 131579079
ROB Occupancy: 304 ccc: 131619401
ROB Occupancy: 307 ccc: 131650856
ROB Occupancy: 304 ccc: 131661759
ROB Occupancy: 304 ccc: 131674095
ROB Occupancy: 304 ccc: 131675053
ROB Occupancy: 304 ccc: 131744415
ROB Occupancy: 307 ccc: 131748342
ROB Occupancy: 304 ccc: 131984951
ROB Occupancy: 304 ccc: 132001119
ROB Occupancy: 304 ccc: 132007843
ROB Occupancy: 307 ccc: 132057890
ROB Occupancy: 304 ccc: 132108365
ROB Occupancy: 304 ccc: 132136328
ROB Occupancy: 304 ccc: 132164580
ROB Occupancy: 304 ccc: 132205962
ROB Occupancy: 307 ccc: 132238559
ROB Occupancy: 304 ccc: 132261527
ROB Occupancy: 304 ccc: 132262540
ROB Occupancy: 304 ccc: 132304022
ROB Occupancy: 307 ccc: 132334647
ROB Occupancy: 304 ccc: 132358178
ROB Occupancy: 304 ccc: 132399616
ROB Occupancy: 307 ccc: 132430710
ROB Occupancy: 304 ccc: 132455657
ROB Occupancy: 304 ccc: 132471724
ROB Occupancy: 304 ccc: 132521837
ROB Occupancy: 307 ccc: 132526800
ROB Occupancy: 307 ccc: 132625891
ROB Occupancy: 304 ccc: 132642965
ROB Occupancy: 304 ccc: 132647307
ROB Occupancy: 304 ccc: 132788521
ROB Occupancy: 304 ccc: 132843213
ROB Occupancy: 304 ccc: 132844240
ROB Occupancy: 304 ccc: 132886009
ROB Occupancy: 304 ccc: 132981487
ROB Occupancy: 307 ccc: 133013605
ROB Occupancy: 304 ccc: 133020005
ROB Occupancy: 304 ccc: 133036866
ROB Occupancy: 304 ccc: 133037829
ROB Occupancy: 304 ccc: 133262758
ROB Occupancy: 304 ccc: 133498399
ROB Occupancy: 304 ccc: 133587794
ROB Occupancy: 304 ccc: 133641035
ROB Occupancy: 307 ccc: 133760476
ROB Occupancy: 304 ccc: 133838066
ROB Occupancy: 304 ccc: 133839246
ROB Occupancy: 304 ccc: 134103199
ROB Occupancy: 304 ccc: 134120612
ROB Occupancy: 304 ccc: 134671041
ROB Occupancy: 304 ccc: 134711008
ROB Occupancy: 304 ccc: 134726026
ROB Occupancy: 304 ccc: 134782052
ROB Occupancy: 304 ccc: 134840522
ROB Occupancy: 304 ccc: 135072631
ROB Occupancy: 304 ccc: 135145074
ROB Occupancy: 304 ccc: 135215165
ROB Occupancy: 304 ccc: 135257203
ROB Occupancy: 307 ccc: 135288808
ROB Occupancy: 304 ccc: 135295145
ROB Occupancy: 304 ccc: 135310699
ROB Occupancy: 307 ccc: 135384779
ROB Occupancy: 304 ccc: 135408799
ROB Occupancy: 304 ccc: 135452943
ROB Occupancy: 307 ccc: 135481330
ROB Occupancy: 304 ccc: 135487505
ROB Occupancy: 304 ccc: 135494411
ROB Occupancy: 307 ccc: 135579292
ROB Occupancy: 304 ccc: 135838448
ROB Occupancy: 304 ccc: 135973834
ROB Occupancy: 304 ccc: 135991796
ROB Occupancy: 304 ccc: 136004401
ROB Occupancy: 304 ccc: 136034451
ROB Occupancy: 307 ccc: 136064840
ROB Occupancy: 304 ccc: 136138801
ROB Occupancy: 307 ccc: 136162839
ROB Occupancy: 304 ccc: 136238659
ROB Occupancy: 307 ccc: 136259930
ROB Occupancy: 304 ccc: 136369866
ROB Occupancy: 304 ccc: 136434574
ROB Occupancy: 304 ccc: 136479940
ROB Occupancy: 304 ccc: 136576150
ROB Occupancy: 304 ccc: 136608121
ROB Occupancy: 304 ccc: 136611876
ROB Occupancy: 304 ccc: 136617699
ROB Occupancy: 304 ccc: 136625920
ROB Occupancy: 304 ccc: 136643968
ROB Occupancy: 307 ccc: 136648831
ROB Occupancy: 304 ccc: 136714748
ROB Occupancy: 307 ccc: 136745561
ROB Occupancy: 304 ccc: 136768508
ROB Occupancy: 307 ccc: 136844283
ROB Occupancy: 307 ccc: 136941762
ROB Occupancy: 304 ccc: 137008945
ROB Occupancy: 304 ccc: 137017726
ROB Occupancy: 304 ccc: 137107635
ROB Occupancy: 304 ccc: 137129200
ROB Occupancy: 307 ccc: 137189912
ROB Occupancy: 304 ccc: 137193414
ROB Occupancy: 304 ccc: 137197453
ROB Occupancy: 304 ccc: 137201792
ROB Occupancy: 304 ccc: 137259358
ROB Occupancy: 304 ccc: 137301196
ROB Occupancy: 304 ccc: 137542656
ROB Occupancy: 304 ccc: 137574085
ROB Occupancy: 304 ccc: 137643446
ROB Occupancy: 304 ccc: 137690152
ROB Occupancy: 307 ccc: 137778960
ROB Occupancy: 304 ccc: 137780590
ROB Occupancy: 304 ccc: 137785341
ROB Occupancy: 304 ccc: 137788870
ROB Occupancy: 304 ccc: 137791203
ROB Occupancy: 304 ccc: 137794143
ROB Occupancy: 304 ccc: 137800558
ROB Occupancy: 304 ccc: 137802611
ROB Occupancy: 304 ccc: 137893659
ROB Occupancy: 304 ccc: 137993793
ROB Occupancy: 304 ccc: 138101120
ROB Occupancy: 304 ccc: 138103784
ROB Occupancy: 304 ccc: 138150517
ROB Occupancy: 304 ccc: 138218668
ROB Occupancy: 304 ccc: 138254612
ROB Occupancy: 307 ccc: 138344279
ROB Occupancy: 304 ccc: 138357986
ROB Occupancy: 304 ccc: 138393906
ROB Occupancy: 304 ccc: 138402694
ROB Occupancy: 304 ccc: 138504790
ROB Occupancy: 304 ccc: 138588764
ROB Occupancy: 304 ccc: 138606562
ROB Occupancy: 304 ccc: 138699977
ROB Occupancy: 304 ccc: 138709366
ROB Occupancy: 304 ccc: 138763837
ROB Occupancy: 304 ccc: 138867171
ROB Occupancy: 304 ccc: 138878311
ROB Occupancy: 307 ccc: 139067354
ROB Occupancy: 304 ccc: 139070830
ROB Occupancy: 304 ccc: 139071179
ROB Occupancy: 304 ccc: 139218876
ROB Occupancy: 304 ccc: 139223567
ROB Occupancy: 304 ccc: 139402603
ROB Occupancy: 304 ccc: 139424447
ROB Occupancy: 304 ccc: 139474549
ROB Occupancy: 304 ccc: 139481489
ROB Occupancy: 304 ccc: 139565519
ROB Occupancy: 304 ccc: 139878689
ROB Occupancy: 307 ccc: 140009801
ROB Occupancy: 304 ccc: 140040218
ROB Occupancy: 304 ccc: 140051147
ROB Occupancy: 304 ccc: 140113487
ROB Occupancy: 304 ccc: 140155363
ROB Occupancy: 304 ccc: 140255541
ROB Occupancy: 304 ccc: 140352727
ROB Occupancy: 304 ccc: 140408624
ROB Occupancy: 304 ccc: 140451414
ROB Occupancy: 304 ccc: 140506149
ROB Occupancy: 307 ccc: 140598207
ROB Occupancy: 304 ccc: 140851899
ROB Occupancy: 304 ccc: 140906356
ROB Occupancy: 304 ccc: 140943740
ROB Occupancy: 304 ccc: 141040785
ROB Occupancy: 304 ccc: 141078859
ROB Occupancy: 304 ccc: 141137413
ROB Occupancy: 304 ccc: 141193054
ROB Occupancy: 304 ccc: 141338495
ROB Occupancy: 304 ccc: 141531924
ROB Occupancy: 304 ccc: 141593870
ROB Occupancy: 304 ccc: 141628299
ROB Occupancy: 304 ccc: 141750347
ROB Occupancy: 304 ccc: 141754812
ROB Occupancy: 304 ccc: 141766152
ROB Occupancy: 304 ccc: 141772762
ROB Occupancy: 304 ccc: 141870675
ROB Occupancy: 304 ccc: 142023240
ROB Occupancy: 304 ccc: 142028796
ROB Occupancy: 304 ccc: 142070697
ROB Occupancy: 307 ccc: 142101445
ROB Occupancy: 304 ccc: 142126744
ROB Occupancy: 304 ccc: 142168644
ROB Occupancy: 304 ccc: 142194551
ROB Occupancy: 307 ccc: 142199936
ROB Occupancy: 304 ccc: 142223533
ROB Occupancy: 307 ccc: 142295613
ROB Occupancy: 304 ccc: 142368832
ROB Occupancy: 307 ccc: 142392893
ROB Occupancy: 304 ccc: 142457398
ROB Occupancy: 304 ccc: 142464830
ROB Occupancy: 304 ccc: 142611265
ROB Occupancy: 304 ccc: 142612434
ROB Occupancy: 304 ccc: 142653644
ROB Occupancy: 304 ccc: 142710636
ROB Occupancy: 304 ccc: 142717486
ROB Occupancy: 304 ccc: 142752056
ROB Occupancy: 307 ccc: 142783765
ROB Occupancy: 304 ccc: 142787378
ROB Occupancy: 304 ccc: 142791001
ROB Occupancy: 304 ccc: 142808010
ROB Occupancy: 304 ccc: 142809082
ROB Occupancy: 304 ccc: 142850369
ROB Occupancy: 304 ccc: 142859324
ROB Occupancy: 307 ccc: 142882215
ROB Occupancy: 304 ccc: 142906332
ROB Occupancy: 307 ccc: 142981709
ROB Occupancy: 307 ccc: 143079395
ROB Occupancy: 304 ccc: 143245269
ROB Occupancy: 304 ccc: 143300760
ROB Occupancy: 304 ccc: 143301717
ROB Occupancy: 304 ccc: 143307641
ROB Occupancy: 304 ccc: 143343370
ROB Occupancy: 304 ccc: 143343707
ROB Occupancy: 304 ccc: 143402723
ROB Occupancy: 304 ccc: 143444541
ROB Occupancy: 307 ccc: 143476107
ROB Occupancy: 304 ccc: 143482238
ROB Occupancy: 304 ccc: 143500106
ROB Occupancy: 304 ccc: 143501513
ROB Occupancy: 307 ccc: 143576600
ROB Occupancy: 304 ccc: 143600358
ROB Occupancy: 304 ccc: 143601315
ROB Occupancy: 307 ccc: 143674391
ROB Occupancy: 304 ccc: 143752360
ROB Occupancy: 307 ccc: 143773924
ROB Occupancy: 304 ccc: 143887047
ROB Occupancy: 307 ccc: 144008324
ROB Occupancy: 307 ccc: 144017106
ROB Occupancy: 304 ccc: 144020753
ROB Occupancy: 307 ccc: 144116859
ROB Occupancy: 304 ccc: 144472371
ROB Occupancy: 304 ccc: 144518814
ROB Occupancy: 304 ccc: 144633383
ROB Occupancy: 304 ccc: 145061916
ROB Occupancy: 304 ccc: 145090571
ROB Occupancy: 304 ccc: 145158595
ROB Occupancy: 304 ccc: 145210864
ROB Occupancy: 304 ccc: 145542495
ROB Occupancy: 304 ccc: 145545459
ROB Occupancy: 307 ccc: 145833681
ROB Occupancy: 304 ccc: 145846291
ROB Occupancy: 304 ccc: 145970001
ROB Occupancy: 307 ccc: 146067258
ROB Occupancy: 304 ccc: 146159454
ROB Occupancy: 304 ccc: 146180743
ROB Occupancy: 304 ccc: 146227710
ROB Occupancy: 304 ccc: 146232860
ROB Occupancy: 304 ccc: 146236655
ROB Occupancy: 304 ccc: 146257332
ROB Occupancy: 304 ccc: 146271302
ROB Occupancy: 304 ccc: 146272274
ROB Occupancy: 304 ccc: 146332040
ROB Occupancy: 304 ccc: 146388890
ROB Occupancy: 304 ccc: 146430863
ROB Occupancy: 307 ccc: 146462427
ROB Occupancy: 304 ccc: 146486427
ROB Occupancy: 304 ccc: 146527482
ROB Occupancy: 307 ccc: 146561173
ROB Occupancy: 304 ccc: 146635673
ROB Occupancy: 307 ccc: 146661284
ROB Occupancy: 304 ccc: 146733989
ROB Occupancy: 307 ccc: 146759296
ROB Occupancy: 304 ccc: 146809022
ROB Occupancy: 304 ccc: 146923034
ROB Occupancy: 304 ccc: 147020930
ROB Occupancy: 304 ccc: 147078298
ROB Occupancy: 307 ccc: 147152620
[...]
ROB Occupancy: 352 ccc: 130495298
ROB Occupancy: 352 ccc: 130519818
ROB Occupancy: 352 ccc: 130542899
ROB Occupancy: 338 ccc: 130568822
ROB Occupancy: 352 ccc: 130594992
ROB Occupancy: 352 ccc: 130618449
ROB Occupancy: 352 ccc: 130642084
ROB Occupancy: 338 ccc: 130668615
ROB Occupancy: 352 ccc: 130692960
ROB Occupancy: 352 ccc: 130717222
ROB Occupancy: 352 ccc: 130740983
ROB Occupancy: 352 ccc: 130764688
ROB Occupancy: 352 ccc: 130788866
ROB Occupancy: 352 ccc: 130814003
ROB Occupancy: 352 ccc: 130837514
ROB Occupancy: 352 ccc: 130863504
ROB Occupancy: 352 ccc: 130887809
ROB Occupancy: 352 ccc: 197961483
ROB Occupancy: 352 ccc: 197985519
ROB Occupancy: 352 ccc: 198011802
ROB Occupancy: 352 ccc: 198035386
ROB Occupancy: 352 ccc: 198058816
ROB Occupancy: 352 ccc: 198082031
ROB Occupancy: 352 ccc: 198106666
ROB Occupancy: 352 ccc: 198130708
ROB Occupancy: 338 ccc: 198154721
ROB Occupancy: 352 ccc: 198180364
ROB Occupancy: 352 ccc: 198205403
ROB Occupancy: 352 ccc: 198228796
ROB Occupancy: 352 ccc: 198252688
ROB Occupancy: 352 ccc: 198278259
ROB Occupancy: 352 ccc: 198301680
ROB Occupancy: 352 ccc: 198325259
ROB Occupancy: 352 ccc: 198350210
ROB Occupancy: 352 ccc: 198375619
ROB Occupancy: 352 ccc: 198400332
ROB Occupancy: 352 ccc: 198423668
ROB Occupancy: 352 ccc: 198448339
ROB Occupancy: 352 ccc: 198472684
ROB Occupancy: 352 ccc: 198498225
ROB Occupancy: 352 ccc: 198522060
ROB Occupancy: 352 ccc: 198547547
ROB Occupancy: 352 ccc: 198571824
ROB Occupancy: 352 ccc: 198595935
ROB Occupancy: 352 ccc: 198621218
ROB Occupancy: 352 ccc: 198645197
ROB Occupancy: 352 ccc: 198669355
ROB Occupancy: 352 ccc: 198694779
ROB Occupancy: 352 ccc: 198720907
ROB Occupancy: 338 ccc: 198745411
ROB Occupancy: 352 ccc: 198770236
ROB Occupancy: 352 ccc: 198796471
ROB Occupancy: 352 ccc: 198820577
ROB Occupancy: 338 ccc: 198845789
ROB Occupancy: 352 ccc: 198870634
ROB Occupancy: 352 ccc: 198894368
ROB Occupancy: 352 ccc: 198919085
ROB Occupancy: 352 ccc: 198943195
ROB Occupancy: 352 ccc: 198967234
ROB Occupancy: 352 ccc: 198991914
ROB Occupancy: 352 ccc: 199015724
ROB Occupancy: 352 ccc: 199040001
ROB Occupancy: 352 ccc: 199064610
ROB Occupancy: 352 ccc: 199089995
ROB Occupancy: 352 ccc: 199114273
ROB Occupancy: 352 ccc: 199139989
ROB Occupancy: 352 ccc: 199164347
ROB Occupancy: 352 ccc: 199188543
ROB Occupancy: 352 ccc: 199211900
ROB Occupancy: 352 ccc: 199236256
ROB Occupancy: 352 ccc: 199261021
ROB Occupancy: 352 ccc: 199286963
ROB Occupancy: 352 ccc: 199310552
ROB Occupancy: 352 ccc: 199334347
ROB Occupancy: 352 ccc: 199359408
ROB Occupancy: 352 ccc: 199384874
ROB Occupancy: 352 ccc: 199408673
ROB Occupancy: 338 ccc: 199435208
ROB Occupancy: 352 ccc: 199459954
ROB Occupancy: 352 ccc: 199485582
ROB Occupancy: 352 ccc: 199511275
ROB Occupancy: 352 ccc: 199536914
ROB Occupancy: 352 ccc: 199561604
ROB Occupancy: 352 ccc: 199587088
ROB Occupancy: 352 ccc: 199610895
ROB Occupancy: 352 ccc: 199634742
ROB Occupancy: 352 ccc: 199658666
ROB Occupancy: 352 ccc: 199683291
ROB Occupancy: 352 ccc: 199707452
ROB Occupancy: 352 ccc: 199733329
ROB Occupancy: 352 ccc: 199757667
ROB Occupancy: 352 ccc: 199782353
ROB Occupancy: 352 ccc: 199806361
ROB Occupancy: 338 ccc: 199830910
ROB Occupancy: 338 ccc: 199856787
ROB Occupancy: 352 ccc: 199881100
ROB Occupancy: 352 ccc: 199904764
ROB Occupancy: 352 ccc: 199929905
ROB Occupancy: 352 ccc: 199953632
ROB Occupancy: 352 ccc: 199978053
ROB Occupancy: 352 ccc: 200002799
ROB Occupancy: 352 ccc: 200028869
ROB Occupancy: 352 ccc: 200053541
ROB Occupancy: 352 ccc: 200079358
ROB Occupancy: 352 ccc: 200102629
Average ROB occupancy Load Stall Begin: 339.951
Average ROB occupancy Load Stall End: 344.14
Min ROB occupancy Load Stall Begin: 13
Max ROB occupancy Load Stall Begin: 351
Min ROB occupancy Load Stall End: 14
Max ROB occupancy Load Stall End: 352
Average ROB occupancy Critical Load Stall Begin: 340.248
Average ROB occupancy Critical Load Stall End: 344.428
Min ROB occupancy Critical Load Stall Begin: 14
Max ROB occupancy Critical Load Stall Begin: 351
Min ROB occupancy Critical Load Stall End: 14
Max ROB occupancy Critical Load Stall End: 352
 ROB Load Stall Begin Bucket Count 0: 16
 ROB Load Stall End Bucket Count 0: 11
 ROB Critical Load Stall Begin Bucket Count 0: 6
 ROB Critical Load Stall End Bucket Count 0: 6
 ROB Load Stall Begin Bucket Count 1: 119
 ROB Load Stall End Bucket Count 1: 98
 ROB Critical Load Stall Begin Bucket Count 1: 53
 ROB Critical Load Stall End Bucket Count 1: 39
 ROB Load Stall Begin Bucket Count 2: 74
 ROB Load Stall End Bucket Count 2: 61
 ROB Critical Load Stall Begin Bucket Count 2: 67
 ROB Critical Load Stall End Bucket Count 2: 48
 ROB Load Stall Begin Bucket Count 3: 71
 ROB Load Stall End Bucket Count 3: 79
 ROB Critical Load Stall Begin Bucket Count 3: 68
 ROB Critical Load Stall End Bucket Count 3: 74
 ROB Load Stall Begin Bucket Count 4: 42
 ROB Load Stall End Bucket Count 4: 46
 ROB Critical Load Stall Begin Bucket Count 4: 40
 ROB Critical Load Stall End Bucket Count 4: 45
 ROB Load Stall Begin Bucket Count 5: 73784
 ROB Load Stall End Bucket Count 5: 47761
 ROB Critical Load Stall Begin Bucket Count 5: 70725
 ROB Critical Load Stall End Bucket Count 5: 45443
 ROB Load Stall Begin Bucket Count 6: 972832
 ROB Load Stall End Bucket Count 6: 998882
 ROB Critical Load Stall Begin Bucket Count 6: 958733
 ROB Critical Load Stall End Bucket Count 6: 984037
PIST Tag Read Accesses: 23186
PIST Read Accesses: 11593
PIST Tag Write Accesses: 23186
PIST Write Accesses: 11593
Criticality detector called times: 11598
Max global_stall_cycles_count: 562848
Threshold Modified: 1 times, factor: -1
ITLB TOTAL     ACCESS:   13819352  HIT:   13819352  MISS:          0  HIT %:        100  MISS %:          0   MPKI: 0
ITLB LOAD TRANSLATION ACCESS:   13819352  HIT:   13819352  MISS:          0  HIT %:        100  MISS %:          0   MPKI: 0
ITLB PREFETCH  REQUESTED:          0  ISSUED:          0  USEFUL:          0  USELESS:          0
ITLB USEFUL LOAD PREFETCHES:          0 PREFETCH ISSUED TO LOWER LEVEL:          0  ACCURACY: -nan
ITLB TIMELY PREFETCHES:          0 LATE PREFETCHES: 0 DROPPED PREFETCHES: 0
ITLB PREFETCHES SAME FILL-ORIGIN LEVEL: 0 DIFFERENT FILL-ORIGIN LEVEL: 0
ITLB AVERAGE MISS LATENCY: -nan cycles
ITLB RQ	ACCESS:   14553778	FORWARD:          0	MERGED:     734426	TO_CACHE:   13819352

DTLB TOTAL     ACCESS:   43373278  HIT:   42856146  MISS:     517132  HIT %:    98.8077  MISS %:    1.19228   MPKI: 5.17132
DTLB LOAD TRANSLATION ACCESS:   43373278  HIT:   42856146  MISS:     517132  HIT %:    98.8077  MISS %:    1.19228   MPKI: 5.17132
DTLB PREFETCH  REQUESTED:          0  ISSUED:          0  USEFUL:          0  USELESS:          0
DTLB USEFUL LOAD PREFETCHES:          0 PREFETCH ISSUED TO LOWER LEVEL:          0  ACCURACY: -nan
DTLB TIMELY PREFETCHES:          0 LATE PREFETCHES: 0 DROPPED PREFETCHES: 0
DTLB PREFETCHES SAME FILL-ORIGIN LEVEL: 0 DIFFERENT FILL-ORIGIN LEVEL: 0
DTLB AVERAGE MISS LATENCY: 177.27 cycles
DTLB RQ	ACCESS:   48192141	FORWARD:          0	MERGED:    4795056	TO_CACHE:   43397085

STLB TOTAL     ACCESS:    2338808  HIT:    1999492  MISS:     339316  HIT %:    85.4919  MISS %:    14.5081   MPKI: 3.39316
STLB LOAD TRANSLATION ACCESS:     517132  HIT:     177822  MISS:     339310  HIT %:    34.3862  MISS %:    65.6138   MPKI: 3.3931
STLB TRANSLATION FROM L1D PREFETCHER ACCESS:    1821676  HIT:    1821670  MISS:          6  HIT %:    99.9997  MISS %: 0.000329367   MPKI: 6e-05
STLB PREFETCH  REQUESTED:          0  ISSUED:          0  USEFUL:          1  USELESS:          5
STLB USEFUL LOAD PREFETCHES:          1 PREFETCH ISSUED TO LOWER LEVEL:          0  ACCURACY: inf
STLB TIMELY PREFETCHES:          1 LATE PREFETCHES: 0 DROPPED PREFETCHES: 0
STLB PREFETCHES SAME FILL-ORIGIN LEVEL: 0 DIFFERENT FILL-ORIGIN LEVEL: 0
STLB AVERAGE MISS LATENCY: 234.81 cycles
STLB RQ	ACCESS:    3524024	FORWARD:          0	MERGED:    1185216	TO_CACHE:    2338808

STLB Hit, L1D data hit: 0
STLB Hit, L2C data hit: 0
STLB Hit, LLC data hit: 0
STLB Hit, LLC data miss: 0
STLB STLB hints to L2: 0
L1D TOTAL     ACCESS:   50893724  HIT:   48165616  MISS:    2728108  HIT %:    94.6396  MISS %:     5.3604   MPKI: 27.2811
L1D LOAD      ACCESS:   41547247  HIT:   40764412  MISS:     782835  HIT %:    98.1158  MISS %:     1.8842   MPKI: 7.82835
L1D RFO       ACCESS:    6411307  HIT:    6411307  MISS:          0  HIT %:        100  MISS %:          0   MPKI: 0
L1D PREFETCH  ACCESS:    2935170  HIT:     989897  MISS:    1945273  HIT %:    33.7254  MISS %:    66.2746   MPKI: 19.4527
L1D PREFETCH  REQUESTED:    6013811  ISSUED:    6013784  USEFUL:    1141181  USELESS:     804092
L1D USEFUL LOAD PREFETCHES:    1141181 PREFETCH ISSUED TO LOWER LEVEL:    1960622  ACCURACY: 58.205
L1D TIMELY PREFETCHES:    1141181 LATE PREFETCHES: 15348 DROPPED PREFETCHES: 0
L1D PREFETCHES SAME FILL-ORIGIN LEVEL: 1960622 DIFFERENT FILL-ORIGIN LEVEL: 0
L1D AVERAGE MISS LATENCY: 650766 cycles
L1D RQ	ACCESS:   63802355	FORWARD:          0	MERGED:   21994573	TO_CACHE:   41780833
L1D WQ	ACCESS:    6411308	FORWARD:      26949	MERGED:          0	TO_CACHE:    6411308
L1D PQ	ACCESS:    3006892	FORWARD:          0	MERGED:          0	TO_CACHE:    3006892

L1D UNIQUE REGIONS ACCESSED: 0
L1D REGIONS CONFLICTS: 0
L1D Cross Page Prefetch Requests: 0
L1D Same Page Prefetch Requests: 4497182
L1D ROI Sum of L1D PQ occupancy: 41962389
L1D PREFETCHES PUSHED FROM L2C: 0
L1I TOTAL     ACCESS:   14553776  HIT:   14553776  MISS:          0  HIT %:        100  MISS %:          0   MPKI: 0
L1I LOAD      ACCESS:   14553776  HIT:   14553776  MISS:          0  HIT %:        100  MISS %:          0   MPKI: 0
L1I PREFETCH  REQUESTED:          0  ISSUED:          0  USEFUL:          0  USELESS:          0
L1I USEFUL LOAD PREFETCHES:          0 PREFETCH ISSUED TO LOWER LEVEL:          0  ACCURACY: -nan
L1I TIMELY PREFETCHES:          0 LATE PREFETCHES: 0 DROPPED PREFETCHES: 0
L1I PREFETCHES SAME FILL-ORIGIN LEVEL: 0 DIFFERENT FILL-ORIGIN LEVEL: 0
L1I AVERAGE MISS LATENCY: -nan cycles
L1I RQ	ACCESS:   32704936	FORWARD:          0	MERGED:   18151158	TO_CACHE:   14553778

BTB TOTAL     ACCESS:    1121884  HIT:    1121879  MISS:          5  HIT %:    99.9996  MISS %: 0.000445679   MPKI: 5e-05
BTB BRANCH_DIRECT_JUMP	ACCESS:      80123  HIT:      80122  MISS:          1
BTB BRANCH_INDIRECT	ACCESS:          0  HIT:          0  MISS:          0
BTB BRANCH_CONDITIONAL	ACCESS:    1041761  HIT:    1041757  MISS:          4
BTB BRANCH_DIRECT_CALL	ACCESS:          0  HIT:          0  MISS:          0
BTB BRANCH_INDIRECT_CALL	ACCESS:          0  HIT:          0  MISS:          0
BTB BRANCH_RETURN	ACCESS:          0  HIT:          0  MISS:          0
BTB BRANCH_OTHER ACCESS:          0  HIT:          0  MISS:          0

L2C TOTAL     ACCESS:    4038992  HIT:    1276995  MISS:    2761997  HIT %:    31.6167  MISS %:    68.3833   MPKI: 27.62
L2C LOAD      ACCESS:     767487  HIT:       1902  MISS:     765585  HIT %:   0.247822  MISS %:    99.7522   MPKI: 7.65585
L2C DATA LOAD MPKI: 7.65585
L2C INSTRUCTION LOAD MPKI: 0
L2C PREFETCH  ACCESS:    1960621  HIT:      14756  MISS:    1945865  HIT %:   0.752619  MISS %:    99.2474   MPKI: 19.4586
L2C DATA PREFETCH MPKI: 19.4586
L2C INSTRUCTION PREFETCH MPKI: 0
L2C WRITEBACK ACCESS:     971462  HIT:     964288  MISS:       7174  HIT %:    99.2615  MISS %:   0.738475   MPKI: 0.07174
L2C LOAD TRANSLATION ACCESS:     339416  HIT:     296049  MISS:      43367  HIT %:    87.2231  MISS %:    12.7769   MPKI: 0.43367
L2C TRANSLATION FROM L1D PREFETCHER ACCESS:          6  HIT:          0  MISS:          6  HIT %:          0  MISS %:        100   MPKI: 6e-05
L2C PREFETCH  REQUESTED:          0  ISSUED:          0  USEFUL:       1886  USELESS:    1943956
L2C USEFUL LOAD PREFETCHES:       1886 PREFETCH ISSUED TO LOWER LEVEL:    1945866  ACCURACY: 0.0969234
L2C TIMELY PREFETCHES:       1886 LATE PREFETCHES: 0 DROPPED PREFETCHES: 0
L2C PREFETCHES SAME FILL-ORIGIN LEVEL: 0 DIFFERENT FILL-ORIGIN LEVEL: 0
L2C AVERAGE MISS LATENCY: 208.263 cycles
L2C RQ	ACCESS:    1106909	FORWARD:          0	MERGED:          0	TO_CACHE:    1106909
L2C WQ	ACCESS:     971462	FORWARD:          0	MERGED:          0	TO_CACHE:     971462
L2C PQ	ACCESS:    1960622	FORWARD:          0	MERGED:          0	TO_CACHE:    1960622

L2C Instructions Evicting Data 0
L2C Translations Evicting Data 43083
L2C Data Evicting Data 2668567
L2C Instructions Evicting Instructions 0
L2C Translations Evicting Instructions 0
L2C Data Evicting Instructions 0
L2C Instructions Evicting Translations 0
L2C Translations Evicting Translations 290
L2C Data Evicting Translations 42883
L2C Dense regions hint from L2: 0
PSCL5 TOTAL     ACCESS:     339316  HIT:     339316  MISS:          0  HIT %:        100  MISS %:          0   MPKI: 0
PSCL5 LOAD TRANSLATION ACCESS:     339310  HIT:     339310  MISS:          0  HIT %:        100  MISS %:          0   MPKI: 0
PSCL5 TRANSLATION FROM L1D PREFETCHER ACCESS:          6  HIT:          6  MISS:          0  HIT %:        100  MISS %:          0   MPKI: 0
PSCL5 PREFETCH  REQUESTED:          0  ISSUED:          0  USEFUL:          0  USELESS:          0
PSCL5 USEFUL LOAD PREFETCHES:          0 PREFETCH ISSUED TO LOWER LEVEL:          0  ACCURACY: -nan
PSCL5 TIMELY PREFETCHES:          0 LATE PREFETCHES: 0 DROPPED PREFETCHES: 0
PSCL5 PREFETCHES SAME FILL-ORIGIN LEVEL: 0 DIFFERENT FILL-ORIGIN LEVEL: 0

PSCL4 TOTAL     ACCESS:     339316  HIT:     339316  MISS:          0  HIT %:        100  MISS %:          0   MPKI: 0
PSCL4 LOAD TRANSLATION ACCESS:     339310  HIT:     339310  MISS:          0  HIT %:        100  MISS %:          0   MPKI: 0
PSCL4 TRANSLATION FROM L1D PREFETCHER ACCESS:          6  HIT:          6  MISS:          0  HIT %:        100  MISS %:          0   MPKI: 0
PSCL4 PREFETCH  REQUESTED:          0  ISSUED:          0  USEFUL:          0  USELESS:          0
PSCL4 USEFUL LOAD PREFETCHES:          0 PREFETCH ISSUED TO LOWER LEVEL:          0  ACCURACY: -nan
PSCL4 TIMELY PREFETCHES:          0 LATE PREFETCHES: 0 DROPPED PREFETCHES: 0
PSCL4 PREFETCHES SAME FILL-ORIGIN LEVEL: 0 DIFFERENT FILL-ORIGIN LEVEL: 0

PSCL3 TOTAL     ACCESS:     339316  HIT:     339316  MISS:          0  HIT %:        100  MISS %:          0   MPKI: 0
PSCL3 LOAD TRANSLATION ACCESS:     339310  HIT:     339310  MISS:          0  HIT %:        100  MISS %:          0   MPKI: 0
PSCL3 TRANSLATION FROM L1D PREFETCHER ACCESS:          6  HIT:          6  MISS:          0  HIT %:        100  MISS %:          0   MPKI: 0
PSCL3 PREFETCH  REQUESTED:          0  ISSUED:          0  USEFUL:          0  USELESS:          0
PSCL3 USEFUL LOAD PREFETCHES:          0 PREFETCH ISSUED TO LOWER LEVEL:          0  ACCURACY: -nan
PSCL3 TIMELY PREFETCHES:          0 LATE PREFETCHES: 0 DROPPED PREFETCHES: 0
PSCL3 PREFETCHES SAME FILL-ORIGIN LEVEL: 0 DIFFERENT FILL-ORIGIN LEVEL: 0

PSCL2 TOTAL     ACCESS:     339316  HIT:     338711  MISS:        605  HIT %:    99.8217  MISS %:     0.1783   MPKI: 0.00605
PSCL2 LOAD TRANSLATION ACCESS:     339310  HIT:     338705  MISS:        605  HIT %:    99.8217  MISS %:   0.178303   MPKI: 0.00605
PSCL2 TRANSLATION FROM L1D PREFETCHER ACCESS:          6  HIT:          6  MISS:          0  HIT %:        100  MISS %:          0   MPKI: 0
PSCL2 PREFETCH  REQUESTED:          0  ISSUED:          0  USEFUL:          0  USELESS:          0
PSCL2 USEFUL LOAD PREFETCHES:          0 PREFETCH ISSUED TO LOWER LEVEL:          0  ACCURACY: -nan
PSCL2 TIMELY PREFETCHES:          0 LATE PREFETCHES: 0 DROPPED PREFETCHES: 0
PSCL2 PREFETCHES SAME FILL-ORIGIN LEVEL: 0 DIFFERENT FILL-ORIGIN LEVEL: 0

LLC TOTAL     ACCESS:    3726220  HIT:    1066230  MISS:    2659990  HIT %:    28.6143  MISS %:    71.3857   MPKI: 26.5999
LLC LOAD      ACCESS:     765585  HIT:      36582  MISS:     729003  HIT %:    4.77831  MISS %:    95.2217   MPKI: 7.29003
LLC PREFETCH  ACCESS:    1945866  HIT:      92204  MISS:    1853662  HIT %:    4.73846  MISS %:    95.2615   MPKI: 18.5366
LLC WRITEBACK ACCESS:     971396  HIT:     934769  MISS:      36627  HIT %:    96.2294  MISS %:    3.77055   MPKI: 0.36627
LLC LOAD TRANSLATION ACCESS:      43367  HIT:       2669  MISS:      40698  HIT %:    6.15445  MISS %:    93.8456   MPKI: 0.40698
LLC TRANSLATION FROM L1D PREFETCHER ACCESS:          6  HIT:          6  MISS:          0  HIT %:        100  MISS %:          0   MPKI: 0
LLC PREFETCH  REQUESTED:          0  ISSUED:          0  USEFUL:       1027  USELESS:    1852391
LLC USEFUL LOAD PREFETCHES:       1027 PREFETCH ISSUED TO LOWER LEVEL:    1853662  ACCURACY: 0.0554038
LLC TIMELY PREFETCHES:       1027 LATE PREFETCHES: 0 DROPPED PREFETCHES: 0
LLC PREFETCHES SAME FILL-ORIGIN LEVEL: 0 DIFFERENT FILL-ORIGIN LEVEL: 0
LLC AVERAGE MISS LATENCY: 178.849 cycles
LLC RQ	ACCESS:     808958	FORWARD:          0	MERGED:          0	TO_CACHE:     808958
LLC WQ	ACCESS:     971396	FORWARD:          0	MERGED:          0	TO_CACHE:     971396
LLC PQ	ACCESS:    1945866	FORWARD:          0	MERGED:          0	TO_CACHE:    1945866

LLC Dense regions hint to LLC: 0

RAW hits: 218393
Loads Generated: 64020761
Loads sent to L1D: 63802355
Stores Generated: 6411310
Stores sent to L1D: 6411308
Major fault: 0 Minor fault: 385139
Allocated PAGES: 385139

stream: 
stream:times selected: 3392109
stream:pref_filled: 1310048
stream:pref_useful: 541584
stream:pref_late: 11549
stream:misses: 226980
stream:misses_by_poll: 0

CS: 
CS:times selected: 694938
CS:pref_filled: 726588
CS:pref_useful: 497403
CS:pref_late: 0
CS:misses: 11563
CS:misses_by_poll: 763

CPLX: 
CPLX:times selected: 2224775
CPLX:pref_filled: 887792
CPLX:pref_useful: 678257
CPLX:pref_late: 3828
CPLX:misses: 231400
CPLX:misses_by_poll: 1624

NL_L1: 
NL:times selected: 328
NL:pref_filled: 278
NL:pref_useful: 154
NL:pref_late: 2
NL:misses: 114
NL:misses_by_poll: 0

total selections: 6312150
total_filled: 1945273
total_useful: 1141181
total_late: 15660
total_polluted: 2387
total_misses_after_warmup: 1016424
conflicts: 6109683
Degree Incremented Times: 57316
Degree Decremented Times: 4925

L1 IP Table Write Accesses: 31070729
L1 IP Table Read Accesses: 24961046
L1 RST Write Accesses: 2289512
L1 RST Read Accesses: 4579024
L1 CSPT Write Accesses: 2289512
L1 CSPT Read Accesses: 6353482
L1 RR Filter Tag Write Accesses: 3006919
L1 RR Filter Tag Read Accesses: 162350765
L1 IP Table Tag Write Accesses: 41780836
L1 IP Table Tag Read Accesses: 41780836
L1 RST Tag Write Accesses: 0
L1 RST Tag Read Accesses: 20237503
L1 RR Filter Write Accesses: 0
L1 RR Filter Read Accesses: 6125994
test: 517565

DRAM Statistics
 CHANNEL 0
 RQ ROW_BUFFER_HIT:     806551  ROW_BUFFER_MISS:    1816812
 DBUS_CONGESTED:       2525
 WQ ROW_BUFFER_HIT:     219497  ROW_BUFFER_MISS:     751671  FULL:          0

 AVG_CONGESTED_CYCLE: 5
 All warmup complete: 2
Channel 0 Bank busy for read cycles: 0
Channel 0 Bank busy for write cycles: 0
Channel 0
Rank 0
0banks busy for read cycles: 1680442
0banks busy for write cycles: 17470
1banks busy for read cycles: 47427554
1banks busy for write cycles: 2696524
2banks busy for read cycles: 32294587
2banks busy for write cycles: 3950153
3banks busy for read cycles: 22097305
3banks busy for write cycles: 5283706
4banks busy for read cycles: 13769723
4banks busy for write cycles: 6681087
5banks busy for read cycles: 7698529
5banks busy for write cycles: 7769870
6banks busy for read cycles: 4127096
6banks busy for write cycles: 8211005
7banks busy for read cycles: 1804177
7banks busy for write cycles: 7751250
8banks busy for read cycles: 450680
8banks busy for write cycles: 5762859

CPU 0 Branch Prediction Accuracy: 99.9931% MPKI: 0.00083 Average ROB Occupancy at Mispredict: 341.446
Branch types
NOT_BRANCH: 98797941 98.7979%
BRANCH_DIRECT_JUMP: 80123 0.080123%
BRANCH_INDIRECT: 0 0%
BRANCH_CONDITIONAL: 1121884 1.12188%
BRANCH_DIRECT_CALL: 0 0%
BRANCH_INDIRECT_CALL: 0 0%
BRANCH_RETURN: 0 0%
BRANCH_OTHER: 0 0%

DRAM PAGES: 1048576
Allocated PAGES: 385139
