
*** ChampSim Multicore Out-of-Order Simulator ***

Warmup Instructions: 50000000
Simulation Instructions: 100000000
Number of CPUs: 1
LLC sets: 2048
LLC ways: 16
Off-chip DRAM Size: 4096 MB Channels: 1 Width: 64-bit Data Rate: 6400 MT/s
CPU 0 runs ../SPEC2017//649.fotonik3d_s-1176B.champsimtrace.xz
.xz
NUM_OF_IPS_IN_CRITICAL_IP_TRAINING: 64
NUM_OF_CRITICAL_IP_TRAINING_TABLE_WAYS: 2
NUM_OF_CRITICAL_IP_TRAINING_TABLE_SETS: 32
WOBBLY_CRITICAL_IP_CACHE_SETS: 32
WOBBLY_CRITICAL_IP_CACHE_WAYS: 4
BTB has LRU replacement policy
ITLB has LRU replacement policy
DTLB has LRU replacement policy
STLB has LRU replacement policy
L1I has LRU replacement policy
IP Table Entries: 256
L1D has LRU replacement policy
Initialize SRRIP state for L2C
Initialize DRRIP state for LLC
Heartbeat CPU 0 instructions: 10000000 cycles: 2902899 heartbeat IPC: 3.44483 cumulative IPC: 3.44483 (Simulation time: 0 hr 5 min 53 sec) 
Heartbeat CPU 0 instructions: 20000002 cycles: 5805720 heartbeat IPC: 3.44493 cumulative IPC: 3.44488 (Simulation time: 0 hr 11 min 38 sec) 
Heartbeat CPU 0 instructions: 30000001 cycles: 8708513 heartbeat IPC: 3.44496 cumulative IPC: 3.44491 (Simulation time: 0 hr 16 min 25 sec) 
Heartbeat CPU 0 instructions: 40000003 cycles: 11611347 heartbeat IPC: 3.44491 cumulative IPC: 3.44491 (Simulation time: 0 hr 20 min 57 sec) 
Heartbeat CPU 0 instructions: 50000001 cycles: 14514139 heartbeat IPC: 3.44496 cumulative IPC: 3.44492 (Simulation time: 0 hr 25 min 15 sec) 

Warmup complete CPU 0 instructions: 50000001 cycles: 14514139 (Simulation time: 0 hr 25 min 15 sec) 

% increase in all ip prefetch 228.607
% increase in all ip prefetch 0.181519
Heartbeat CPU 0 instructions: 60000003 cycles: 24509022 heartbeat IPC: 1.00051 cumulative IPC: 1.00051 (Simulation time: 0 hr 28 min 15 sec) 
Heartbeat CPU 0 instructions: 70000000 cycles: 34512070 heartbeat IPC: 0.999695 cumulative IPC: 1.0001 (Simulation time: 0 hr 31 min 19 sec) 
Heartbeat CPU 0 instructions: 80000001 cycles: 44516399 heartbeat IPC: 0.999567 cumulative IPC: 0.999925 (Simulation time: 0 hr 34 min 14 sec) 
Heartbeat CPU 0 instructions: 90000001 cycles: 54517702 heartbeat IPC: 0.99987 cumulative IPC: 0.999911 (Simulation time: 0 hr 36 min 56 sec) 
Heartbeat CPU 0 instructions: 100000000 cycles: 64521967 heartbeat IPC: 0.999574 cumulative IPC: 0.999843 (Simulation time: 0 hr 39 min 32 sec) 
Heartbeat CPU 0 instructions: 110000000 cycles: 74524637 heartbeat IPC: 0.999733 cumulative IPC: 0.999825 (Simulation time: 0 hr 42 min 1 sec) 
Heartbeat CPU 0 instructions: 120000001 cycles: 84526940 heartbeat IPC: 0.99977 cumulative IPC: 0.999817 (Simulation time: 0 hr 44 min 28 sec) 
Heartbeat CPU 0 instructions: 130000002 cycles: 94529602 heartbeat IPC: 0.999734 cumulative IPC: 0.999807 (Simulation time: 0 hr 46 min 44 sec) 
Heartbeat CPU 0 instructions: 140000003 cycles: 104534973 heartbeat IPC: 0.999463 cumulative IPC: 0.999769 (Simulation time: 0 hr 49 min 1 sec) 
Heartbeat CPU 0 instructions: 150000000 cycles: 114535572 heartbeat IPC: 0.99994 cumulative IPC: 0.999786 (Simulation time: 0 hr 51 min 16 sec) 
Finished CPU 0 instructions: 100000001 cycles: 100021442 cumulative IPC: 0.999786 (Simulation time: 0 hr 51 min 16 sec) 

ChampSim completed all CPUs

Region of Interest Statistics

CPU 0 cumulative IPC: 0.999786 instructions: 100000001 cycles: 100021442

CPU 0 Average Load ROB stall cycles: 2.54292e+07
CPU 0 Fraction of times ROB stalled by Loads: 39.4104
CPU 0 Percentage of Load stall cycles in Total stall cycles: 3.89972e+08
Issued all: 51391418
Issued LT all: 37384257
rob_not_full_when_issued_lt_all: 36801909
Issued LT one: 32071637
rob_not_full_when_issued_lt_one: 31537183
 Total stall cycles: 78124211
 Total load stall cycles: 304662774131015
CPU 0 NUM of IPS identified critical: 0
CPU 0 Num of Load IPs stalling ROB: 127
Threshold modification factor: -1
Max PIST entries: 45
Min PIST entries: 0
Avg PIST entries: 25.2867
Trouble in retire width: 0.999418
MaC = Marked as critical.
lt_50_percent_before_Mac: 0
gt_90_percent_before_Mac: 0
gt_75_percent_before_Mac: 0
gt_50_percent_before_Mac: 0
stall_proportion_bin_same_before_after: 0
stall_proportion_bin_lower_before_after: 0
stall_proportion_bin_upper_before_after: 0
average_stall_proportion_before: -nan
average_stall_proportion_after: -nan
Critical IP stalls, total frequency: 0
Non-critical IP stalls, total frequency: 4721687
Total Freq all stalling IPs: 4721687
stat_90_percent_critical_ip_stalls_freq: 4413558
stat_90_percent_non_critical_ip_stalls_freq: 308129
Critical_IP_ROB_Stalls_Bucket_0: 0
Non-critical_IP_ROB_Stalls_Bucket_0: 3654734
Critical_IP_ROB_Stalls_Bucket_1: 0
Non-critical_IP_ROB_Stalls_Bucket_1: 949103
Critical_IP_ROB_Stalls_Bucket_2: 0
Non-critical_IP_ROB_Stalls_Bucket_2: 28036
Critical_IP_ROB_Stalls_Bucket_3: 0
Non-critical_IP_ROB_Stalls_Bucket_3: 31134
Critical_IP_ROB_Stalls_Bucket_4: 0
Non-critical_IP_ROB_Stalls_Bucket_4: 20155
Critical_IP_ROB_Stalls_Bucket_5: 0
Non-critical_IP_ROB_Stalls_Bucket_5: 25634
Critical_IP_ROB_Stalls_Bucket_6: 0
Non-critical_IP_ROB_Stalls_Bucket_6: 12891
0 => IPs accounting for >50 percent of stalls, 1 => 55, 2 => 60, 3 => 65 and so on till 90.
percent50: 50.4026 num IPs:  3
percent55: 66.8153 num IPs: 4
percent60: 66.8153 num IPs: 4
percent65: 66.8153 num IPs: 4
percent70: 80.1601 num IPs: 5
percent75: 80.1601 num IPs: 5
percent80: 80.1601 num IPs: 5
percent85: 93.4742 num IPs: 6
percent90: 93.4742 num IPs: 6
Critical_ROB_Stalls_Percent_0_Bucket_0: 1869799
Non-critical_ROB_Stalls_Percent_0_Bucket_0: 1784935
Critical_ROB_Stalls_Percent_0_Bucket_1: 447282
Non-critical_ROB_Stalls_Percent_0_Bucket_1: 501821
Critical_ROB_Stalls_Percent_0_Bucket_2: 16426
Non-critical_ROB_Stalls_Percent_0_Bucket_2: 11610
Critical_ROB_Stalls_Percent_0_Bucket_3: 18161
Non-critical_ROB_Stalls_Percent_0_Bucket_3: 12973
Critical_ROB_Stalls_Percent_0_Bucket_4: 9807
Non-critical_ROB_Stalls_Percent_0_Bucket_4: 10348
Critical_ROB_Stalls_Percent_0_Bucket_5: 13180
Non-critical_ROB_Stalls_Percent_0_Bucket_5: 12454
Critical_ROB_Stalls_Percent_0_Bucket_6: 5198
Non-critical_ROB_Stalls_Percent_0_Bucket_6: 7693
Critical_ROB_Stalls_Percent_1_Bucket_0: 2482529
Non-critical_ROB_Stalls_Percent_1_Bucket_0: 1172205
Critical_ROB_Stalls_Percent_1_Bucket_1: 586679
Non-critical_ROB_Stalls_Percent_1_Bucket_1: 362424
Critical_ROB_Stalls_Percent_1_Bucket_2: 20271
Non-critical_ROB_Stalls_Percent_1_Bucket_2: 7765
Critical_ROB_Stalls_Percent_1_Bucket_3: 23299
Non-critical_ROB_Stalls_Percent_1_Bucket_3: 7835
Critical_ROB_Stalls_Percent_1_Bucket_4: 12235
Non-critical_ROB_Stalls_Percent_1_Bucket_4: 7920
Critical_ROB_Stalls_Percent_1_Bucket_5: 21421
Non-critical_ROB_Stalls_Percent_1_Bucket_5: 4213
Critical_ROB_Stalls_Percent_1_Bucket_6: 8375
Non-critical_ROB_Stalls_Percent_1_Bucket_6: 4516
Critical_ROB_Stalls_Percent_2_Bucket_0: 2482529
Non-critical_ROB_Stalls_Percent_2_Bucket_0: 1172205
Critical_ROB_Stalls_Percent_2_Bucket_1: 586679
Non-critical_ROB_Stalls_Percent_2_Bucket_1: 362424
Critical_ROB_Stalls_Percent_2_Bucket_2: 20271
Non-critical_ROB_Stalls_Percent_2_Bucket_2: 7765
Critical_ROB_Stalls_Percent_2_Bucket_3: 23299
Non-critical_ROB_Stalls_Percent_2_Bucket_3: 7835
Critical_ROB_Stalls_Percent_2_Bucket_4: 12235
Non-critical_ROB_Stalls_Percent_2_Bucket_4: 7920
Critical_ROB_Stalls_Percent_2_Bucket_5: 21421
Non-critical_ROB_Stalls_Percent_2_Bucket_5: 4213
Critical_ROB_Stalls_Percent_2_Bucket_6: 8375
Non-critical_ROB_Stalls_Percent_2_Bucket_6: 4516
Critical_ROB_Stalls_Percent_3_Bucket_0: 2482529
Non-critical_ROB_Stalls_Percent_3_Bucket_0: 1172205
Critical_ROB_Stalls_Percent_3_Bucket_1: 586679
Non-critical_ROB_Stalls_Percent_3_Bucket_1: 362424
Critical_ROB_Stalls_Percent_3_Bucket_2: 20271
Non-critical_ROB_Stalls_Percent_3_Bucket_2: 7765
Critical_ROB_Stalls_Percent_3_Bucket_3: 23299
Non-critical_ROB_Stalls_Percent_3_Bucket_3: 7835
Critical_ROB_Stalls_Percent_3_Bucket_4: 12235
Non-critical_ROB_Stalls_Percent_3_Bucket_4: 7920
Critical_ROB_Stalls_Percent_3_Bucket_5: 21421
Non-critical_ROB_Stalls_Percent_3_Bucket_5: 4213
Critical_ROB_Stalls_Percent_3_Bucket_6: 8375
Non-critical_ROB_Stalls_Percent_3_Bucket_6: 4516
Critical_ROB_Stalls_Percent_4_Bucket_0: 3058113
Non-critical_ROB_Stalls_Percent_4_Bucket_0: 596621
Critical_ROB_Stalls_Percent_4_Bucket_1: 636873
Non-critical_ROB_Stalls_Percent_4_Bucket_1: 312230
Critical_ROB_Stalls_Percent_4_Bucket_2: 21705
Non-critical_ROB_Stalls_Percent_4_Bucket_2: 6331
Critical_ROB_Stalls_Percent_4_Bucket_3: 24228
Non-critical_ROB_Stalls_Percent_4_Bucket_3: 6906
Critical_ROB_Stalls_Percent_4_Bucket_4: 13244
Non-critical_ROB_Stalls_Percent_4_Bucket_4: 6911
Critical_ROB_Stalls_Percent_4_Bucket_5: 21916
Non-critical_ROB_Stalls_Percent_4_Bucket_5: 3718
Critical_ROB_Stalls_Percent_4_Bucket_6: 8829
Non-critical_ROB_Stalls_Percent_4_Bucket_6: 4062
Critical_ROB_Stalls_Percent_5_Bucket_0: 3058113
Non-critical_ROB_Stalls_Percent_5_Bucket_0: 596621
Critical_ROB_Stalls_Percent_5_Bucket_1: 636873
Non-critical_ROB_Stalls_Percent_5_Bucket_1: 312230
Critical_ROB_Stalls_Percent_5_Bucket_2: 21705
Non-critical_ROB_Stalls_Percent_5_Bucket_2: 6331
Critical_ROB_Stalls_Percent_5_Bucket_3: 24228
Non-critical_ROB_Stalls_Percent_5_Bucket_3: 6906
Critical_ROB_Stalls_Percent_5_Bucket_4: 13244
Non-critical_ROB_Stalls_Percent_5_Bucket_4: 6911
Critical_ROB_Stalls_Percent_5_Bucket_5: 21916
Non-critical_ROB_Stalls_Percent_5_Bucket_5: 3718
Critical_ROB_Stalls_Percent_5_Bucket_6: 8829
Non-critical_ROB_Stalls_Percent_5_Bucket_6: 4062
Critical_ROB_Stalls_Percent_6_Bucket_0: 3058113
Non-critical_ROB_Stalls_Percent_6_Bucket_0: 596621
Critical_ROB_Stalls_Percent_6_Bucket_1: 636873
Non-critical_ROB_Stalls_Percent_6_Bucket_1: 312230
Critical_ROB_Stalls_Percent_6_Bucket_2: 21705
Non-critical_ROB_Stalls_Percent_6_Bucket_2: 6331
Critical_ROB_Stalls_Percent_6_Bucket_3: 24228
Non-critical_ROB_Stalls_Percent_6_Bucket_3: 6906
Critical_ROB_Stalls_Percent_6_Bucket_4: 13244
Non-critical_ROB_Stalls_Percent_6_Bucket_4: 6911
Critical_ROB_Stalls_Percent_6_Bucket_5: 21916
Non-critical_ROB_Stalls_Percent_6_Bucket_5: 3718
Critical_ROB_Stalls_Percent_6_Bucket_6: 8829
Non-critical_ROB_Stalls_Percent_6_Bucket_6: 4062
Critical_ROB_Stalls_Percent_7_Bucket_0: 3632051
Non-critical_ROB_Stalls_Percent_7_Bucket_0: 22683
Critical_ROB_Stalls_Percent_7_Bucket_1: 686914
Non-critical_ROB_Stalls_Percent_7_Bucket_1: 262189
Critical_ROB_Stalls_Percent_7_Bucket_2: 23229
Non-critical_ROB_Stalls_Percent_7_Bucket_2: 4807
Critical_ROB_Stalls_Percent_7_Bucket_3: 25198
Non-critical_ROB_Stalls_Percent_7_Bucket_3: 5936
Critical_ROB_Stalls_Percent_7_Bucket_4: 14298
Non-critical_ROB_Stalls_Percent_7_Bucket_4: 5857
Critical_ROB_Stalls_Percent_7_Bucket_5: 22457
Non-critical_ROB_Stalls_Percent_7_Bucket_5: 3177
Critical_ROB_Stalls_Percent_7_Bucket_6: 9411
Non-critical_ROB_Stalls_Percent_7_Bucket_6: 3480
Critical_ROB_Stalls_Percent_8_Bucket_0: 3632051
Non-critical_ROB_Stalls_Percent_8_Bucket_0: 22683
Critical_ROB_Stalls_Percent_8_Bucket_1: 686914
Non-critical_ROB_Stalls_Percent_8_Bucket_1: 262189
Critical_ROB_Stalls_Percent_8_Bucket_2: 23229
Non-critical_ROB_Stalls_Percent_8_Bucket_2: 4807
Critical_ROB_Stalls_Percent_8_Bucket_3: 25198
Non-critical_ROB_Stalls_Percent_8_Bucket_3: 5936
Critical_ROB_Stalls_Percent_8_Bucket_4: 14298
Non-critical_ROB_Stalls_Percent_8_Bucket_4: 5857
Critical_ROB_Stalls_Percent_8_Bucket_5: 22457
Non-critical_ROB_Stalls_Percent_8_Bucket_5: 3177
Critical_ROB_Stalls_Percent_8_Bucket_6: 9411
Non-critical_ROB_Stalls_Percent_8_Bucket_6: 3480
Average ROB occupancy Load Stall Begin: 40.3178
Average ROB occupancy Load Stall End: 49.9252
Min ROB occupancy Load Stall Begin: 2
Max ROB occupancy Load Stall Begin: 352
Min ROB occupancy Load Stall End: 9
Max ROB occupancy Load Stall End: 352
Average ROB occupancy Critical Load Stall Begin: -nan
Average ROB occupancy Critical Load Stall End: -nan
Min ROB occupancy Critical Load Stall Begin: 400
Max ROB occupancy Critical Load Stall Begin: 0
Min ROB occupancy Critical Load Stall End: 400
Max ROB occupancy Critical Load Stall End: 0
 ROB Load Stall Begin Bucket Count 0: 4089722
 ROB Load Stall End Bucket Count 0: 3654734
 ROB Critical Load Stall Begin Bucket Count 0: 0
 ROB Critical Load Stall End Bucket Count 0: 0
 ROB Load Stall Begin Bucket Count 1: 533213
 ROB Load Stall End Bucket Count 1: 949103
 ROB Critical Load Stall Begin Bucket Count 1: 0
 ROB Critical Load Stall End Bucket Count 1: 0
 ROB Load Stall Begin Bucket Count 2: 30533
 ROB Load Stall End Bucket Count 2: 28036
 ROB Critical Load Stall Begin Bucket Count 2: 0
 ROB Critical Load Stall End Bucket Count 2: 0
 ROB Load Stall Begin Bucket Count 3: 30644
 ROB Load Stall End Bucket Count 3: 31134
 ROB Critical Load Stall Begin Bucket Count 3: 0
 ROB Critical Load Stall End Bucket Count 3: 0
 ROB Load Stall Begin Bucket Count 4: 17121
 ROB Load Stall End Bucket Count 4: 20155
 ROB Critical Load Stall Begin Bucket Count 4: 0
 ROB Critical Load Stall End Bucket Count 4: 0
 ROB Load Stall Begin Bucket Count 5: 14544
 ROB Load Stall End Bucket Count 5: 25634
 ROB Critical Load Stall Begin Bucket Count 5: 0
 ROB Critical Load Stall End Bucket Count 5: 0
 ROB Load Stall Begin Bucket Count 6: 5910
 ROB Load Stall End Bucket Count 6: 12891
 ROB Critical Load Stall Begin Bucket Count 6: 0
 ROB Critical Load Stall End Bucket Count 6: 0
PIST Tag Read Accesses: 382870
PIST Read Accesses: 191435
PIST Tag Write Accesses: 382870
PIST Write Accesses: 191435
Criticality detector called times: 225524
Max global_stall_cycles_count: 307313
Threshold Modified: 1 times, factor: -1
Sturdy critical IP cache stats: 
 Unused entries: 0
CIC Tag Read Accesses: 0
CIC Read Accesses: 0
CIC Tag Write Accesses: 0
CIC Write Accesses: 0
Wobbly critical IP cache stats: 
 Unused entries: 118
CIC Tag Read Accesses: 196967097
CIC Read Accesses: 0
CIC Tag Write Accesses: 10
CIC Write Accesses: 0
ITLB TOTAL     ACCESS:   14036538  HIT:   14036538  MISS:          0  HIT %:        100  MISS %:          0   MPKI: 0
ITLB LOAD TRANSLATION ACCESS:   14036538  HIT:   14036538  MISS:          0  HIT %:        100  MISS %:          0   MPKI: 0
ITLB PREFETCH  REQUESTED:          0  ISSUED:          0  USEFUL:          0  USELESS:          0
ITLB USEFUL LOAD PREFETCHES:          0 PREFETCH ISSUED TO LOWER LEVEL:          0  ACCURACY: -nan
ITLB TIMELY PREFETCHES:          0 LATE PREFETCHES: 0 DROPPED PREFETCHES: 0
ITLB PREFETCHES SAME FILL-ORIGIN LEVEL: 0 DIFFERENT FILL-ORIGIN LEVEL: 0
ITLB AVERAGE MISS LATENCY: -nan cycles
ITLB RQ	ACCESS:   17546577	FORWARD:          0	MERGED:    3510040	TO_CACHE:   14036537

DTLB TOTAL     ACCESS:   16232027  HIT:   16208439  MISS:      23588  HIT %:    99.8547  MISS %:   0.145318   MPKI: 0.23588
DTLB LOAD TRANSLATION ACCESS:   16232027  HIT:   16208439  MISS:      23588  HIT %:    99.8547  MISS %:   0.145318   MPKI: 0.23588
DTLB PREFETCH  REQUESTED:          0  ISSUED:          0  USEFUL:          0  USELESS:          0
DTLB USEFUL LOAD PREFETCHES:          0 PREFETCH ISSUED TO LOWER LEVEL:          0  ACCURACY: -nan
DTLB TIMELY PREFETCHES:          0 LATE PREFETCHES: 0 DROPPED PREFETCHES: 0
DTLB PREFETCHES SAME FILL-ORIGIN LEVEL: 0 DIFFERENT FILL-ORIGIN LEVEL: 0
DTLB AVERAGE MISS LATENCY: 88.7394 cycles
DTLB RQ	ACCESS:   25125011	FORWARD:          0	MERGED:    8891787	TO_CACHE:   16233224

STLB TOTAL     ACCESS:    1196365  HIT:    1182647  MISS:      13718  HIT %:    98.8534  MISS %:    1.14664   MPKI: 0.13718
STLB LOAD TRANSLATION ACCESS:      23588  HIT:       9870  MISS:      13718  HIT %:    41.8433  MISS %:    58.1567   MPKI: 0.13718
STLB TRANSLATION FROM L1D PREFETCHER ACCESS:    1172777  HIT:    1172777  MISS:          0  HIT %:        100  MISS %:          0   MPKI: 0
STLB PREFETCH  REQUESTED:          0  ISSUED:          0  USEFUL:          0  USELESS:          0
STLB USEFUL LOAD PREFETCHES:          0 PREFETCH ISSUED TO LOWER LEVEL:          0  ACCURACY: -nan
STLB TIMELY PREFETCHES:          0 LATE PREFETCHES: 0 DROPPED PREFETCHES: 0
STLB PREFETCHES SAME FILL-ORIGIN LEVEL: 0 DIFFERENT FILL-ORIGIN LEVEL: 0
STLB AVERAGE MISS LATENCY: 136.815 cycles
STLB RQ	ACCESS:    1318143	FORWARD:          0	MERGED:     121778	TO_CACHE:    1196365

STLB Hit, L1D data hit: 0
STLB Hit, L2C data hit: 0
STLB Hit, LLC data hit: 0
STLB Hit, LLC data miss: 0
STLB STLB hints to L2: 0
L1D TOTAL     ACCESS:   26367664  HIT:   25040517  MISS:    1327147  HIT %:    94.9668  MISS %:    5.03324   MPKI: 13.2715
L1D LOAD      ACCESS:   18066665  HIT:   18021452  MISS:      45213  HIT %:    99.7497  MISS %:   0.250256   MPKI: 0.45213
L1D RFO       ACCESS:    7018338  HIT:    7016805  MISS:       1533  HIT %:    99.9782  MISS %:  0.0218428   MPKI: 0.01533
L1D PREFETCH  ACCESS:    1282661  HIT:       2260  MISS:    1280401  HIT %:   0.176196  MISS %:    99.8238   MPKI: 12.804
L1D PREFETCH  REQUESTED:    2589111  ISSUED:    2589111  USEFUL:    1276626  USELESS:       3792
L1D USEFUL LOAD PREFETCHES:    1276626 PREFETCH ISSUED TO LOWER LEVEL:    1290540  ACCURACY: 98.9218
L1D TIMELY PREFETCHES:    1276626 LATE PREFETCHES: 10127 DROPPED PREFETCHES: 0
L1D PREFETCHES SAME FILL-ORIGIN LEVEL: 1290540 DIFFERENT FILL-ORIGIN LEVEL: 0
L1D AVERAGE MISS LATENCY: 492492 cycles
L1D RQ	ACCESS:   35082797	FORWARD:          0	MERGED:   16978028	TO_CACHE:   18104463
L1D WQ	ACCESS:    7020548	FORWARD:        307	MERGED:          0	TO_CACHE:    7020548
L1D PQ	ACCESS:    1294556	FORWARD:          0	MERGED:          0	TO_CACHE:    1294555

L1D UNIQUE REGIONS ACCESSED: 0
L1D REGIONS CONFLICTS: 0
L1D Cross Page Prefetch Requests: 0
L1D Same Page Prefetch Requests: 1949312
L1D ROI Sum of L1D PQ occupancy: 16983679
L1D PREFETCHES PUSHED FROM L2C: 0
L1I TOTAL     ACCESS:   17546577  HIT:   17546577  MISS:          0  HIT %:        100  MISS %:          0   MPKI: 0
L1I LOAD      ACCESS:   17546577  HIT:   17546577  MISS:          0  HIT %:        100  MISS %:          0   MPKI: 0
L1I PREFETCH  REQUESTED:          0  ISSUED:          0  USEFUL:          0  USELESS:          0
L1I USEFUL LOAD PREFETCHES:          0 PREFETCH ISSUED TO LOWER LEVEL:          0  ACCURACY: -nan
L1I TIMELY PREFETCHES:          0 LATE PREFETCHES: 0 DROPPED PREFETCHES: 0
L1I PREFETCHES SAME FILL-ORIGIN LEVEL: 0 DIFFERENT FILL-ORIGIN LEVEL: 0
L1I AVERAGE MISS LATENCY: -nan cycles
L1I RQ	ACCESS:   22819143	FORWARD:          0	MERGED:    5272566	TO_CACHE:   17546577

BTB TOTAL     ACCESS:    1754584  HIT:    1754575  MISS:          9  HIT %:    99.9995  MISS %: 0.000512942   MPKI: 9e-05
BTB BRANCH_DIRECT_JUMP	ACCESS:        438  HIT:        436  MISS:          2
BTB BRANCH_INDIRECT	ACCESS:          0  HIT:          0  MISS:          0
BTB BRANCH_CONDITIONAL	ACCESS:    1753270  HIT:    1753267  MISS:          3
BTB BRANCH_DIRECT_CALL	ACCESS:        438  HIT:        436  MISS:          2
BTB BRANCH_INDIRECT_CALL	ACCESS:          0  HIT:          0  MISS:          0
BTB BRANCH_RETURN	ACCESS:        438  HIT:        436  MISS:          2
BTB BRANCH_OTHER ACCESS:          0  HIT:          0  MISS:          0

L2C TOTAL     ACCESS:    7765795  HIT:    6872092  MISS:     893703  HIT %:    88.4918  MISS %:    11.5082   MPKI: 8.93703
L2C LOAD      ACCESS:      35086  HIT:       9865  MISS:      25221  HIT %:    28.1166  MISS %:    71.8834   MPKI: 0.25221
L2C DATA LOAD MPKI: 0.25221
L2C INSTRUCTION LOAD MPKI: 0
L2C RFO       ACCESS:       1533  HIT:       1528  MISS:          5  HIT %:    99.6738  MISS %:   0.326158   MPKI: 5e-05
L2C PREFETCH  ACCESS:    6836963  HIT:    5970942  MISS:     866021  HIT %:    87.3333  MISS %:    12.6667   MPKI: 8.66021
L2C DATA PREFETCH MPKI: 8.66021
L2C INSTRUCTION PREFETCH MPKI: 0
L2C WRITEBACK ACCESS:     878492  HIT:     877841  MISS:        651  HIT %:    99.9259  MISS %:  0.0741043   MPKI: 0.00651
L2C LOAD TRANSLATION ACCESS:      13721  HIT:      11916  MISS:       1805  HIT %:     86.845  MISS %:     13.155   MPKI: 0.01805
L2C PREFETCH  REQUESTED:    6741503  ISSUED:    6741497  USEFUL:       3585  USELESS:     862779
L2C USEFUL LOAD PREFETCHES:       3585 PREFETCH ISSUED TO LOWER LEVEL:     866072  ACCURACY: 0.413938
L2C TIMELY PREFETCHES:       3585 LATE PREFETCHES: 49 DROPPED PREFETCHES: 0
L2C PREFETCHES SAME FILL-ORIGIN LEVEL: 769692 DIFFERENT FILL-ORIGIN LEVEL: 0
L2C AVERAGE MISS LATENCY: 194.817 cycles
L2C RQ	ACCESS:      50340	FORWARD:          0	MERGED:          0	TO_CACHE:      50340
L2C WQ	ACCESS:     878492	FORWARD:          0	MERGED:          0	TO_CACHE:     878492
L2C PQ	ACCESS:    8032025	FORWARD:          0	MERGED:     350736	TO_CACHE:    7681289

L2C Instructions Evicting Data 0
L2C Translations Evicting Data 1795
L2C Data Evicting Data 889455
L2C Instructions Evicting Instructions 0
L2C Translations Evicting Instructions 0
L2C Data Evicting Instructions 0
L2C Instructions Evicting Translations 0
L2C Translations Evicting Translations 10
L2C Data Evicting Translations 1792
L2C Dense regions hint from L2: 0
PSCL5 TOTAL     ACCESS:      13718  HIT:      13718  MISS:          0  HIT %:        100  MISS %:          0   MPKI: 0
PSCL5 LOAD TRANSLATION ACCESS:      13718  HIT:      13718  MISS:          0  HIT %:        100  MISS %:          0   MPKI: 0
PSCL5 PREFETCH  REQUESTED:          0  ISSUED:          0  USEFUL:          0  USELESS:          0
PSCL5 USEFUL LOAD PREFETCHES:          0 PREFETCH ISSUED TO LOWER LEVEL:          0  ACCURACY: -nan
PSCL5 TIMELY PREFETCHES:          0 LATE PREFETCHES: 0 DROPPED PREFETCHES: 0
PSCL5 PREFETCHES SAME FILL-ORIGIN LEVEL: 0 DIFFERENT FILL-ORIGIN LEVEL: 0

PSCL4 TOTAL     ACCESS:      13718  HIT:      13718  MISS:          0  HIT %:        100  MISS %:          0   MPKI: 0
PSCL4 LOAD TRANSLATION ACCESS:      13718  HIT:      13718  MISS:          0  HIT %:        100  MISS %:          0   MPKI: 0
PSCL4 PREFETCH  REQUESTED:          0  ISSUED:          0  USEFUL:          0  USELESS:          0
PSCL4 USEFUL LOAD PREFETCHES:          0 PREFETCH ISSUED TO LOWER LEVEL:          0  ACCURACY: -nan
PSCL4 TIMELY PREFETCHES:          0 LATE PREFETCHES: 0 DROPPED PREFETCHES: 0
PSCL4 PREFETCHES SAME FILL-ORIGIN LEVEL: 0 DIFFERENT FILL-ORIGIN LEVEL: 0

PSCL3 TOTAL     ACCESS:      13718  HIT:      13716  MISS:          2  HIT %:    99.9854  MISS %:  0.0145794   MPKI: 2e-05
PSCL3 LOAD TRANSLATION ACCESS:      13718  HIT:      13716  MISS:          2  HIT %:    99.9854  MISS %:  0.0145794   MPKI: 2e-05
PSCL3 PREFETCH  REQUESTED:          0  ISSUED:          0  USEFUL:          0  USELESS:          0
PSCL3 USEFUL LOAD PREFETCHES:          0 PREFETCH ISSUED TO LOWER LEVEL:          0  ACCURACY: -nan
PSCL3 TIMELY PREFETCHES:          0 LATE PREFETCHES: 0 DROPPED PREFETCHES: 0
PSCL3 PREFETCHES SAME FILL-ORIGIN LEVEL: 0 DIFFERENT FILL-ORIGIN LEVEL: 0

PSCL2 TOTAL     ACCESS:      13718  HIT:      13674  MISS:         44  HIT %:    99.6793  MISS %:   0.320746   MPKI: 0.00044
PSCL2 LOAD TRANSLATION ACCESS:      13718  HIT:      13674  MISS:         44  HIT %:    99.6793  MISS %:   0.320746   MPKI: 0.00044
PSCL2 PREFETCH  REQUESTED:          0  ISSUED:          0  USEFUL:          0  USELESS:          0
PSCL2 USEFUL LOAD PREFETCHES:          0 PREFETCH ISSUED TO LOWER LEVEL:          0  ACCURACY: -nan
PSCL2 TIMELY PREFETCHES:          0 LATE PREFETCHES: 0 DROPPED PREFETCHES: 0
PSCL2 PREFETCHES SAME FILL-ORIGIN LEVEL: 0 DIFFERENT FILL-ORIGIN LEVEL: 0

LLC TOTAL     ACCESS:    1769524  HIT:     876497  MISS:     893027  HIT %:    49.5329  MISS %:    50.4671   MPKI: 8.93027
LLC LOAD      ACCESS:      25172  HIT:       8529  MISS:      16643  HIT %:    33.8829  MISS %:    66.1171   MPKI: 0.16643
LLC RFO       ACCESS:          5  HIT:          5  MISS:          0  HIT %:        100  MISS %:          0   MPKI: 0
LLC PREFETCH  ACCESS:     866070  HIT:       4725  MISS:     861345  HIT %:   0.545568  MISS %:    99.4544   MPKI: 8.61345
LLC WRITEBACK ACCESS:     876472  HIT:     863198  MISS:      13274  HIT %:    98.4855  MISS %:    1.51448   MPKI: 0.13274
LLC LOAD TRANSLATION ACCESS:       1805  HIT:         40  MISS:       1765  HIT %:    2.21607  MISS %:    97.7839   MPKI: 0.01765
LLC PREFETCH  REQUESTED:          0  ISSUED:          0  USEFUL:         43  USELESS:     861379
LLC USEFUL LOAD PREFETCHES:         43 PREFETCH ISSUED TO LOWER LEVEL:     861346  ACCURACY: 0.00499219
LLC TIMELY PREFETCHES:         43 LATE PREFETCHES: 0 DROPPED PREFETCHES: 0
LLC PREFETCHES SAME FILL-ORIGIN LEVEL: 0 DIFFERENT FILL-ORIGIN LEVEL: 0
LLC AVERAGE MISS LATENCY: 164.963 cycles
LLC RQ	ACCESS:      26982	FORWARD:          0	MERGED:          0	TO_CACHE:      26982
LLC WQ	ACCESS:     876472	FORWARD:          0	MERGED:          0	TO_CACHE:     876472
LLC PQ	ACCESS:     866072	FORWARD:          0	MERGED:          0	TO_CACHE:     866072

LLC Dense regions hint to LLC: 0

RAW hits: 1731
Loads Generated: 35084535
Loads sent to L1D: 35082797
Stores Generated: 7020542
Stores sent to L1D: 7020548
Major fault: 0 Minor fault: 20726
Allocated PAGES: 20726

stream: 
stream:times selected: 4879592
stream:pref_filled: 1895275
stream:pref_useful: 1888639
stream:pref_late: 9817
stream:misses: 326
stream:misses_by_poll: 0

CS: 
CS:times selected: 4398945
CS:pref_filled: 12413
CS:pref_useful: 12355
CS:pref_late: 394
CS:misses: 85541
CS:misses_by_poll: 38

CPLX: 
CPLX:times selected: 480546
CPLX:pref_filled: 20200
CPLX:pref_useful: 19968
CPLX:pref_late: 110
CPLX:misses: 6030
CPLX:misses_by_poll: 10

NL_L1: 
NL:times selected: 45
NL:pref_filled: 2
NL:pref_useful: 2
NL:pref_late: 0
NL:misses: 1
NL:misses_by_poll: 0

total selections: 9759128
total_filled: 1280401
total_useful: 1276626
total_late: 10405
total_polluted: 48
total_misses_after_warmup: 83011
conflicts: 1004
Degree Incremented Times: 323573
Degree Decremented Times: 0

L1 IP Table Write Accesses: 18101083
L1 IP Table Read Accesses: 18100079
L1 RST Write Accesses: 2987288
L1 RST Read Accesses: 5974576
L1 CSPT Write Accesses: 2987288
L1 CSPT Read Accesses: 3542182
L1 RR Filter Tag Write Accesses: 1294556
L1 RR Filter Tag Read Accesses: 445583804
L1 IP Table Tag Write Accesses: 18104463
L1 IP Table Tag Read Accesses: 18104463
L1 RST Tag Write Accesses: 0
L1 RST Tag Read Accesses: 26943327
L1 RR Filter Write Accesses: 0
L1 RR Filter Read Accesses: 17146665
test: 120040
L2 IP Table Read Accesses: 2428367
L2 IP Table Write Accesses: 2394751
L2 IP Table Tag Read Accesses: 1214768
L2 IP Table Tag Write Accesses: 1214768

DRAM Statistics
 CHANNEL 0
 RQ ROW_BUFFER_HIT:      88662  ROW_BUFFER_MISS:     791091
 DBUS_CONGESTED:        295
 WQ ROW_BUFFER_HIT:     481857  ROW_BUFFER_MISS:     394500  FULL:          0

 AVG_CONGESTED_CYCLE: 4
 All warmup complete: 2
Channel 0 Bank busy for read cycles: 0
Channel 0 Bank busy for write cycles: 0
Channel 0
Rank 0
0banks busy for read cycles: 9371878
0banks busy for write cycles: 17890
1banks busy for read cycles: 40744831
1banks busy for write cycles: 1381646
2banks busy for read cycles: 23918647
2banks busy for write cycles: 721100
3banks busy for read cycles: 1981855
3banks busy for write cycles: 573930
4banks busy for read cycles: 928110
4banks busy for write cycles: 539785
5banks busy for read cycles: 301917
5banks busy for write cycles: 564526
6banks busy for read cycles: 240817
6banks busy for write cycles: 673796
7banks busy for read cycles: 1500709
7banks busy for write cycles: 2320733
8banks busy for read cycles: 1425608
8banks busy for write cycles: 12813665

CPU 0 Branch Prediction Accuracy: 99.9751% MPKI: 0.00438 Average ROB Occupancy at Mispredict: 49.9018
Branch types
NOT_BRANCH: 98243563 98.2436%
BRANCH_DIRECT_JUMP: 438 0.000438%
BRANCH_INDIRECT: 0 0%
BRANCH_CONDITIONAL: 1754803 1.7548%
BRANCH_DIRECT_CALL: 438 0.000438%
BRANCH_INDIRECT_CALL: 0 0%
BRANCH_RETURN: 438 0.000438%
BRANCH_OTHER: 0 0%

DRAM PAGES: 1048576
Allocated PAGES: 20726
