
*** ChampSim Multicore Out-of-Order Simulator ***

Warmup Instructions: 50000000
Simulation Instructions: 100000000
Number of CPUs: 1
LLC sets: 2048
LLC ways: 16
Off-chip DRAM Size: 4096 MB Channels: 1 Width: 64-bit Data Rate: 6400 MT/s
CPU 0 runs ../SPEC2017//649.fotonik3d_s-10881B.champsimtrace.xz
.xz
BTB has LRU replacement policy
ITLB has LRU replacement policy
DTLB has LRU replacement policy
STLB has LRU replacement policy
L1I has LRU replacement policy
L1D has LRU replacement policy
Bingo PHT WAYS: 16 and PHT_SIZE: 16384
Initialize SRRIP state for L2C
Initialize DRRIP state for LLC
Heartbeat CPU 0 instructions: 10000003 cycles: 5061262 heartbeat IPC: 1.97579 cumulative IPC: 1.97579 (Simulation time: 0 hr 9 min 29 sec) 
Heartbeat CPU 0 instructions: 20000000 cycles: 10130800 heartbeat IPC: 1.97257 cumulative IPC: 1.97418 (Simulation time: 0 hr 17 min 42 sec) 
Heartbeat CPU 0 instructions: 30000000 cycles: 15206054 heartbeat IPC: 1.97034 cumulative IPC: 1.9729 (Simulation time: 0 hr 24 min 55 sec) 
Heartbeat CPU 0 instructions: 40000002 cycles: 20275520 heartbeat IPC: 1.97259 cumulative IPC: 1.97282 (Simulation time: 0 hr 31 min 25 sec) 
Heartbeat CPU 0 instructions: 50000002 cycles: 25339853 heartbeat IPC: 1.97459 cumulative IPC: 1.97318 (Simulation time: 0 hr 37 min 18 sec) 

Warmup complete CPU 0 instructions: 50000002 cycles: 25339853 (Simulation time: 0 hr 37 min 18 sec) 

Heartbeat CPU 0 instructions: 60000000 cycles: 42825189 heartbeat IPC: 0.571908 cumulative IPC: 0.571908 (Simulation time: 0 hr 44 min 49 sec) 
Heartbeat CPU 0 instructions: 70000000 cycles: 60163881 heartbeat IPC: 0.576745 cumulative IPC: 0.574316 (Simulation time: 0 hr 52 min 7 sec) 
Heartbeat CPU 0 instructions: 80000003 cycles: 77717293 heartbeat IPC: 0.56969 cumulative IPC: 0.572766 (Simulation time: 0 hr 58 min 33 sec) 
Heartbeat CPU 0 instructions: 90000003 cycles: 95172129 heartbeat IPC: 0.572907 cumulative IPC: 0.572801 (Simulation time: 1 hr 4 min 14 sec) 
Heartbeat CPU 0 instructions: 100000003 cycles: 112594752 heartbeat IPC: 0.573966 cumulative IPC: 0.573034 (Simulation time: 1 hr 9 min 1 sec) 
Heartbeat CPU 0 instructions: 110000000 cycles: 129925567 heartbeat IPC: 0.577007 cumulative IPC: 0.573692 (Simulation time: 1 hr 12 min 43 sec) 
Heartbeat CPU 0 instructions: 120000003 cycles: 147523757 heartbeat IPC: 0.56824 cumulative IPC: 0.572907 (Simulation time: 1 hr 15 min 32 sec) 
Heartbeat CPU 0 instructions: 130000000 cycles: 165032201 heartbeat IPC: 0.571153 cumulative IPC: 0.572687 (Simulation time: 1 hr 18 min 8 sec) 
Heartbeat CPU 0 instructions: 140000002 cycles: 182396837 heartbeat IPC: 0.575883 cumulative IPC: 0.57304 (Simulation time: 1 hr 20 min 22 sec) 
Heartbeat CPU 0 instructions: 150000001 cycles: 199831942 heartbeat IPC: 0.573555 cumulative IPC: 0.573092 (Simulation time: 1 hr 22 min 13 sec) 
Finished CPU 0 instructions: 100000003 cycles: 174492090 cumulative IPC: 0.573092 (Simulation time: 1 hr 22 min 13 sec) 

ChampSim completed all CPUs

Region of Interest Statistics

CPU 0 cumulative IPC: 0.573092 instructions: 100000003 cycles: 174492090

CPU 0 Average Load ROB stall cycles: 3.79727e+07
CPU 0 Fraction of times ROB stalled by Loads: 33.7199
CPU 0 Percentage of Load stall cycles in Total stall cycles: 3.24928e+08
Issued all: 141058271
Issued LT all: 135698018
rob_not_full_when_issued_lt_all: 16007295
Issued LT one: 112079191
rob_not_full_when_issued_lt_one: 11149721
FVP critical_dynamic_instances_0: 28364174
FVP unique_critical_ips_0: 73
 Total stall cycles: 148011672
 Total load stall cycles: 480931968883727
Unique Load IPs: 139
CPU 0 NUM of IPS identified critical: 0
CPU 0 Num of Load IPs stalling ROB: 0
Threshold modification factor: 0
Trouble in retire width: -nan
MaC = Marked as critical.
lt_50_percent_before_Mac: 0
gt_90_percent_before_Mac: 0
gt_75_percent_before_Mac: 0
gt_50_percent_before_Mac: 0
stall_proportion_bin_same_before_after: 0
stall_proportion_bin_lower_before_after: 0
stall_proportion_bin_upper_before_after: 0
average_stall_proportion_before: -nan
average_stall_proportion_after: -nan
Critical IP stalls, total frequency: 0
Non-critical IP stalls, total frequency: 0
Total Freq all stalling IPs: 0
Critical_IP_Detector_Accuracy_70: 0.0136986
Critical_IP_Detector_Accuracy_80: 0.0136986
Critical_IP_Detector_Accuracy_90: 0.0136986
Critical_IP_Detector_Coverage_70: 1
Critical_IP_Detector_Coverage_80: 1
Critical_IP_Detector_Coverage_90: 1
stat_90_percent_critical_ip_stalls_freq: 517735
stat_90_percent_non_critical_ip_stalls_freq: 18446744073709033881
AVERAGE_ROB_Occupancy_90_Percent_Critical_IP_Stalls: 346.849
AVERAGE_ROB_Occupancy_90_Percent_Non_Critical_IP_Stalls: 7.07111e-11
Critical_IP_ROB_Stalls_Bucket_0: 0
Non-critical_IP_ROB_Stalls_Bucket_0: 23
Critical_IP_ROB_Stalls_Bucket_1: 0
Non-critical_IP_ROB_Stalls_Bucket_1: 380
Critical_IP_ROB_Stalls_Bucket_2: 0
Non-critical_IP_ROB_Stalls_Bucket_2: 488
Critical_IP_ROB_Stalls_Bucket_3: 0
Non-critical_IP_ROB_Stalls_Bucket_3: 265
Critical_IP_ROB_Stalls_Bucket_4: 0
Non-critical_IP_ROB_Stalls_Bucket_4: 178
Critical_IP_ROB_Stalls_Bucket_5: 0
Non-critical_IP_ROB_Stalls_Bucket_5: 54627
Critical_IP_ROB_Stalls_Bucket_6: 0
Non-critical_IP_ROB_Stalls_Bucket_6: 4214727
0 => IPs accounting for >50 percent of stalls, 1 => 55, 2 => 60, 3 => 65 and so on till 90.
percent50: inf num IPs:  1
percent55: inf num IPs: 1
percent60: inf num IPs: 1
percent65: inf num IPs: 1
percent70: inf num IPs: 1
percent75: inf num IPs: 1
percent80: inf num IPs: 1
percent85: inf num IPs: 1
percent90: inf num IPs: 1
Critical_ROB_Stalls_Percent_0_Bucket_0: 0
Non-critical_ROB_Stalls_Percent_0_Bucket_0: 23
Critical_ROB_Stalls_Percent_0_Bucket_1: 22
Non-critical_ROB_Stalls_Percent_0_Bucket_1: 358
Critical_ROB_Stalls_Percent_0_Bucket_2: 11
Non-critical_ROB_Stalls_Percent_0_Bucket_2: 477
Critical_ROB_Stalls_Percent_0_Bucket_3: 59
Non-critical_ROB_Stalls_Percent_0_Bucket_3: 206
Critical_ROB_Stalls_Percent_0_Bucket_4: 1
Non-critical_ROB_Stalls_Percent_0_Bucket_4: 177
Critical_ROB_Stalls_Percent_0_Bucket_5: 4189
Non-critical_ROB_Stalls_Percent_0_Bucket_5: 50438
Critical_ROB_Stalls_Percent_0_Bucket_6: 513453
Non-critical_ROB_Stalls_Percent_0_Bucket_6: 3701274
Critical_ROB_Stalls_Percent_1_Bucket_0: 0
Non-critical_ROB_Stalls_Percent_1_Bucket_0: 23
Critical_ROB_Stalls_Percent_1_Bucket_1: 22
Non-critical_ROB_Stalls_Percent_1_Bucket_1: 358
Critical_ROB_Stalls_Percent_1_Bucket_2: 11
Non-critical_ROB_Stalls_Percent_1_Bucket_2: 477
Critical_ROB_Stalls_Percent_1_Bucket_3: 59
Non-critical_ROB_Stalls_Percent_1_Bucket_3: 206
Critical_ROB_Stalls_Percent_1_Bucket_4: 1
Non-critical_ROB_Stalls_Percent_1_Bucket_4: 177
Critical_ROB_Stalls_Percent_1_Bucket_5: 4189
Non-critical_ROB_Stalls_Percent_1_Bucket_5: 50438
Critical_ROB_Stalls_Percent_1_Bucket_6: 513453
Non-critical_ROB_Stalls_Percent_1_Bucket_6: 3701274
Critical_ROB_Stalls_Percent_2_Bucket_0: 0
Non-critical_ROB_Stalls_Percent_2_Bucket_0: 23
Critical_ROB_Stalls_Percent_2_Bucket_1: 22
Non-critical_ROB_Stalls_Percent_2_Bucket_1: 358
Critical_ROB_Stalls_Percent_2_Bucket_2: 11
Non-critical_ROB_Stalls_Percent_2_Bucket_2: 477
Critical_ROB_Stalls_Percent_2_Bucket_3: 59
Non-critical_ROB_Stalls_Percent_2_Bucket_3: 206
Critical_ROB_Stalls_Percent_2_Bucket_4: 1
Non-critical_ROB_Stalls_Percent_2_Bucket_4: 177
Critical_ROB_Stalls_Percent_2_Bucket_5: 4189
Non-critical_ROB_Stalls_Percent_2_Bucket_5: 50438
Critical_ROB_Stalls_Percent_2_Bucket_6: 513453
Non-critical_ROB_Stalls_Percent_2_Bucket_6: 3701274
Critical_ROB_Stalls_Percent_3_Bucket_0: 0
Non-critical_ROB_Stalls_Percent_3_Bucket_0: 23
Critical_ROB_Stalls_Percent_3_Bucket_1: 22
Non-critical_ROB_Stalls_Percent_3_Bucket_1: 358
Critical_ROB_Stalls_Percent_3_Bucket_2: 11
Non-critical_ROB_Stalls_Percent_3_Bucket_2: 477
Critical_ROB_Stalls_Percent_3_Bucket_3: 59
Non-critical_ROB_Stalls_Percent_3_Bucket_3: 206
Critical_ROB_Stalls_Percent_3_Bucket_4: 1
Non-critical_ROB_Stalls_Percent_3_Bucket_4: 177
Critical_ROB_Stalls_Percent_3_Bucket_5: 4189
Non-critical_ROB_Stalls_Percent_3_Bucket_5: 50438
Critical_ROB_Stalls_Percent_3_Bucket_6: 513453
Non-critical_ROB_Stalls_Percent_3_Bucket_6: 3701274
Critical_ROB_Stalls_Percent_4_Bucket_0: 0
Non-critical_ROB_Stalls_Percent_4_Bucket_0: 23
Critical_ROB_Stalls_Percent_4_Bucket_1: 22
Non-critical_ROB_Stalls_Percent_4_Bucket_1: 358
Critical_ROB_Stalls_Percent_4_Bucket_2: 11
Non-critical_ROB_Stalls_Percent_4_Bucket_2: 477
Critical_ROB_Stalls_Percent_4_Bucket_3: 59
Non-critical_ROB_Stalls_Percent_4_Bucket_3: 206
Critical_ROB_Stalls_Percent_4_Bucket_4: 1
Non-critical_ROB_Stalls_Percent_4_Bucket_4: 177
Critical_ROB_Stalls_Percent_4_Bucket_5: 4189
Non-critical_ROB_Stalls_Percent_4_Bucket_5: 50438
Critical_ROB_Stalls_Percent_4_Bucket_6: 513453
Non-critical_ROB_Stalls_Percent_4_Bucket_6: 3701274
Critical_ROB_Stalls_Percent_5_Bucket_0: 0
Non-critical_ROB_Stalls_Percent_5_Bucket_0: 23
Critical_ROB_Stalls_Percent_5_Bucket_1: 22
Non-critical_ROB_Stalls_Percent_5_Bucket_1: 358
Critical_ROB_Stalls_Percent_5_Bucket_2: 11
Non-critical_ROB_Stalls_Percent_5_Bucket_2: 477
Critical_ROB_Stalls_Percent_5_Bucket_3: 59
Non-critical_ROB_Stalls_Percent_5_Bucket_3: 206
Critical_ROB_Stalls_Percent_5_Bucket_4: 1
Non-critical_ROB_Stalls_Percent_5_Bucket_4: 177
Critical_ROB_Stalls_Percent_5_Bucket_5: 4189
Non-critical_ROB_Stalls_Percent_5_Bucket_5: 50438
Critical_ROB_Stalls_Percent_5_Bucket_6: 513453
Non-critical_ROB_Stalls_Percent_5_Bucket_6: 3701274
Critical_ROB_Stalls_Percent_6_Bucket_0: 0
Non-critical_ROB_Stalls_Percent_6_Bucket_0: 23
Critical_ROB_Stalls_Percent_6_Bucket_1: 22
Non-critical_ROB_Stalls_Percent_6_Bucket_1: 358
Critical_ROB_Stalls_Percent_6_Bucket_2: 11
Non-critical_ROB_Stalls_Percent_6_Bucket_2: 477
Critical_ROB_Stalls_Percent_6_Bucket_3: 59
Non-critical_ROB_Stalls_Percent_6_Bucket_3: 206
Critical_ROB_Stalls_Percent_6_Bucket_4: 1
Non-critical_ROB_Stalls_Percent_6_Bucket_4: 177
Critical_ROB_Stalls_Percent_6_Bucket_5: 4189
Non-critical_ROB_Stalls_Percent_6_Bucket_5: 50438
Critical_ROB_Stalls_Percent_6_Bucket_6: 513453
Non-critical_ROB_Stalls_Percent_6_Bucket_6: 3701274
Critical_ROB_Stalls_Percent_7_Bucket_0: 0
Non-critical_ROB_Stalls_Percent_7_Bucket_0: 23
Critical_ROB_Stalls_Percent_7_Bucket_1: 22
Non-critical_ROB_Stalls_Percent_7_Bucket_1: 358
Critical_ROB_Stalls_Percent_7_Bucket_2: 11
Non-critical_ROB_Stalls_Percent_7_Bucket_2: 477
Critical_ROB_Stalls_Percent_7_Bucket_3: 59
Non-critical_ROB_Stalls_Percent_7_Bucket_3: 206
Critical_ROB_Stalls_Percent_7_Bucket_4: 1
Non-critical_ROB_Stalls_Percent_7_Bucket_4: 177
Critical_ROB_Stalls_Percent_7_Bucket_5: 4189
Non-critical_ROB_Stalls_Percent_7_Bucket_5: 50438
Critical_ROB_Stalls_Percent_7_Bucket_6: 513453
Non-critical_ROB_Stalls_Percent_7_Bucket_6: 3701274
Critical_ROB_Stalls_Percent_8_Bucket_0: 0
Non-critical_ROB_Stalls_Percent_8_Bucket_0: 23
Critical_ROB_Stalls_Percent_8_Bucket_1: 22
Non-critical_ROB_Stalls_Percent_8_Bucket_1: 358
Critical_ROB_Stalls_Percent_8_Bucket_2: 11
Non-critical_ROB_Stalls_Percent_8_Bucket_2: 477
Critical_ROB_Stalls_Percent_8_Bucket_3: 59
Non-critical_ROB_Stalls_Percent_8_Bucket_3: 206
Critical_ROB_Stalls_Percent_8_Bucket_4: 1
Non-critical_ROB_Stalls_Percent_8_Bucket_4: 177
Critical_ROB_Stalls_Percent_8_Bucket_5: 4189
Non-critical_ROB_Stalls_Percent_8_Bucket_5: 50438
Critical_ROB_Stalls_Percent_8_Bucket_6: 513453
Non-critical_ROB_Stalls_Percent_8_Bucket_6: 3701274
Average ROB occupancy Load Stall Begin: 341.923
Average ROB occupancy Load Stall End: 347.477
Min ROB occupancy Load Stall Begin: 6
Max ROB occupancy Load Stall Begin: 352
Min ROB occupancy Load Stall End: 6
Max ROB occupancy Load Stall End: 352
Average ROB occupancy Critical Load Stall Begin: -nan
Average ROB occupancy Critical Load Stall End: -nan
Min ROB occupancy Critical Load Stall Begin: 400
Max ROB occupancy Critical Load Stall Begin: 0
Min ROB occupancy Critical Load Stall End: 400
Max ROB occupancy Critical Load Stall End: 0
 ROB Load Stall Begin Bucket Count 0: 41
 ROB Load Stall End Bucket Count 0: 23
 ROB Critical Load Stall Begin Bucket Count 0: 0
 ROB Critical Load Stall End Bucket Count 0: 0
 ROB Load Stall Begin Bucket Count 1: 529
 ROB Load Stall End Bucket Count 1: 380
 ROB Critical Load Stall Begin Bucket Count 1: 0
 ROB Critical Load Stall End Bucket Count 1: 0
 ROB Load Stall Begin Bucket Count 2: 431
 ROB Load Stall End Bucket Count 2: 488
 ROB Critical Load Stall Begin Bucket Count 2: 0
 ROB Critical Load Stall End Bucket Count 2: 0
 ROB Load Stall Begin Bucket Count 3: 244
 ROB Load Stall End Bucket Count 3: 265
 ROB Critical Load Stall Begin Bucket Count 3: 0
 ROB Critical Load Stall End Bucket Count 3: 0
 ROB Load Stall Begin Bucket Count 4: 175
 ROB Load Stall End Bucket Count 4: 178
 ROB Critical Load Stall Begin Bucket Count 4: 0
 ROB Critical Load Stall End Bucket Count 4: 0
 ROB Load Stall Begin Bucket Count 5: 177936
 ROB Load Stall End Bucket Count 5: 54627
 ROB Critical Load Stall Begin Bucket Count 5: 0
 ROB Critical Load Stall End Bucket Count 5: 0
 ROB Load Stall Begin Bucket Count 6: 4091332
 ROB Load Stall End Bucket Count 6: 4214727
 ROB Critical Load Stall Begin Bucket Count 6: 0
 ROB Critical Load Stall End Bucket Count 6: 0
PIST Tag Read Accesses: 0
PIST Read Accesses: 0
PIST Tag Write Accesses: 0
PIST Write Accesses: 0
Criticality detector called times: 0
Max global_stall_cycles_count: 0
Threshold Modified: 0 times, factor: 0
ITLB TOTAL     ACCESS:   13787635  HIT:   13787635  MISS:          0  HIT %:        100  MISS %:          0   MPKI: 0
ITLB LOAD TRANSLATION ACCESS:   13787635  HIT:   13787635  MISS:          0  HIT %:        100  MISS %:          0   MPKI: 0
ITLB PREFETCH  REQUESTED:          0  ISSUED:          0  USEFUL:          0  USELESS:          0
ITLB USEFUL LOAD PREFETCHES:          0 PREFETCH ISSUED TO LOWER LEVEL:          0  ACCURACY: -nan
ITLB TIMELY PREFETCHES:          0 LATE PREFETCHES: 0 DROPPED PREFETCHES: 0
ITLB PREFETCHES SAME FILL-ORIGIN LEVEL: 0 DIFFERENT FILL-ORIGIN LEVEL: 0
ITLB AVERAGE MISS LATENCY: -nan cycles
ITLB RQ	ACCESS:   14616595	FORWARD:          0	MERGED:     828960	TO_CACHE:   13787635

DTLB TOTAL     ACCESS:   43742354  HIT:   43223047  MISS:     519307  HIT %:    98.8128  MISS %:    1.18719   MPKI: 5.19307
DTLB LOAD TRANSLATION ACCESS:   43742354  HIT:   43223047  MISS:     519307  HIT %:    98.8128  MISS %:    1.18719   MPKI: 5.19307
DTLB PREFETCH  REQUESTED:          0  ISSUED:          0  USEFUL:          0  USELESS:          0
DTLB USEFUL LOAD PREFETCHES:          0 PREFETCH ISSUED TO LOWER LEVEL:          0  ACCURACY: -nan
DTLB TIMELY PREFETCHES:          0 LATE PREFETCHES: 0 DROPPED PREFETCHES: 0
DTLB PREFETCHES SAME FILL-ORIGIN LEVEL: 0 DIFFERENT FILL-ORIGIN LEVEL: 0
DTLB AVERAGE MISS LATENCY: 174.921 cycles
DTLB RQ	ACCESS:   48578220	FORWARD:          0	MERGED:    4812347	TO_CACHE:   43765873

STLB TOTAL     ACCESS:     519307  HIT:     179721  MISS:     339586  HIT %:    34.6079  MISS %:    65.3921   MPKI: 3.39586
STLB LOAD TRANSLATION ACCESS:     519307  HIT:     179721  MISS:     339586  HIT %:    34.6079  MISS %:    65.3921   MPKI: 3.39586
STLB PREFETCH  REQUESTED:          0  ISSUED:          0  USEFUL:          0  USELESS:          0
STLB USEFUL LOAD PREFETCHES:          0 PREFETCH ISSUED TO LOWER LEVEL:          0  ACCURACY: -nan
STLB TIMELY PREFETCHES:          0 LATE PREFETCHES: 0 DROPPED PREFETCHES: 0
STLB PREFETCHES SAME FILL-ORIGIN LEVEL: 0 DIFFERENT FILL-ORIGIN LEVEL: 0
STLB AVERAGE MISS LATENCY: 232.941 cycles
STLB RQ	ACCESS:     519307	FORWARD:          0	MERGED:          0	TO_CACHE:     519307

STLB Hit, L1D data hit: 0
STLB Hit, L2C data hit: 0
STLB Hit, LLC data hit: 0
STLB Hit, LLC data miss: 0
STLB STLB hints to L2: 0
L1D TOTAL     ACCESS:   48269002  HIT:   46344986  MISS:    1924016  HIT %:     96.014  MISS %:    3.98603   MPKI: 19.2402
L1D LOAD      ACCESS:   41857695  HIT:   39933679  MISS:    1924016  HIT %:    95.4034  MISS %:    4.59656   MPKI: 19.2402
L1D RFO       ACCESS:    6411307  HIT:    6411307  MISS:          0  HIT %:        100  MISS %:          0   MPKI: 0
L1D PREFETCH  REQUESTED:          0  ISSUED:          0  USEFUL:          0  USELESS:          0
L1D USEFUL LOAD PREFETCHES:          0 PREFETCH ISSUED TO LOWER LEVEL:          0  ACCURACY: -nan
L1D TIMELY PREFETCHES:          0 LATE PREFETCHES: 0 DROPPED PREFETCHES: 0
L1D PREFETCHES SAME FILL-ORIGIN LEVEL: 0 DIFFERENT FILL-ORIGIN LEVEL: 0
L1D AVERAGE MISS LATENCY: 115.473 cycles
L1D RQ	ACCESS:   63798987	FORWARD:          0	MERGED:   21603924	TO_CACHE:   42166912
L1D WQ	ACCESS:    6411308	FORWARD:      28151	MERGED:          0	TO_CACHE:    6411308

L1D UNIQUE REGIONS ACCESSED: 0
L1D REGIONS CONFLICTS: 0
L1D Cross Page Prefetch Requests: 0
L1D Same Page Prefetch Requests: 0
L1D ROI Sum of L1D PQ occupancy: 0
L1D PREFETCHES PUSHED FROM L2C: 0
L1I TOTAL     ACCESS:   14616593  HIT:   14616593  MISS:          0  HIT %:        100  MISS %:          0   MPKI: 0
L1I LOAD      ACCESS:   14616593  HIT:   14616593  MISS:          0  HIT %:        100  MISS %:          0   MPKI: 0
L1I PREFETCH  REQUESTED:          0  ISSUED:          0  USEFUL:          0  USELESS:          0
L1I USEFUL LOAD PREFETCHES:          0 PREFETCH ISSUED TO LOWER LEVEL:          0  ACCURACY: -nan
L1I TIMELY PREFETCHES:          0 LATE PREFETCHES: 0 DROPPED PREFETCHES: 0
L1I PREFETCHES SAME FILL-ORIGIN LEVEL: 0 DIFFERENT FILL-ORIGIN LEVEL: 0
L1I AVERAGE MISS LATENCY: -nan cycles
L1I RQ	ACCESS:   32711472	FORWARD:          0	MERGED:   18094877	TO_CACHE:   14616595

BTB TOTAL     ACCESS:    1121884  HIT:    1121879  MISS:          5  HIT %:    99.9996  MISS %: 0.000445679   MPKI: 5e-05
BTB BRANCH_DIRECT_JUMP	ACCESS:      80123  HIT:      80122  MISS:          1
BTB BRANCH_INDIRECT	ACCESS:          0  HIT:          0  MISS:          0
BTB BRANCH_CONDITIONAL	ACCESS:    1041761  HIT:    1041757  MISS:          4
BTB BRANCH_DIRECT_CALL	ACCESS:          0  HIT:          0  MISS:          0
BTB BRANCH_INDIRECT_CALL	ACCESS:          0  HIT:          0  MISS:          0
BTB BRANCH_RETURN	ACCESS:          0  HIT:          0  MISS:          0
BTB BRANCH_OTHER ACCESS:          0  HIT:          0  MISS:          0

L2C TOTAL     ACCESS:    4476589  HIT:    2243648  MISS:    2232941  HIT %:    50.1196  MISS %:    49.8804   MPKI: 22.3294
L2C LOAD      ACCESS:    1924016  HIT:     958455  MISS:     965561  HIT %:    49.8153  MISS %:    50.1847   MPKI: 9.65561
L2C DATA LOAD MPKI: 9.65561
L2C INSTRUCTION LOAD MPKI: 0
L2C PREFETCH  ACCESS:    1241413  HIT:      28516  MISS:    1212897  HIT %:    2.29706  MISS %:    97.7029   MPKI: 12.129
L2C DATA PREFETCH MPKI: 12.129
L2C INSTRUCTION PREFETCH MPKI: 0
L2C WRITEBACK ACCESS:     971469  HIT:     960359  MISS:      11110  HIT %:    98.8564  MISS %:    1.14363   MPKI: 0.1111
L2C LOAD TRANSLATION ACCESS:     339691  HIT:     296318  MISS:      43373  HIT %:    87.2316  MISS %:    12.7684   MPKI: 0.43373
L2C PREFETCH  REQUESTED:    1267194  ISSUED:    1267194  USEFUL:     958396  USELESS:     254252
L2C USEFUL LOAD PREFETCHES:     958396 PREFETCH ISSUED TO LOWER LEVEL:    1228348  ACCURACY: 78.0232
L2C TIMELY PREFETCHES:     958396 LATE PREFETCHES: 15451 DROPPED PREFETCHES: 0
L2C PREFETCHES SAME FILL-ORIGIN LEVEL: 1228348 DIFFERENT FILL-ORIGIN LEVEL: 0
L2C AVERAGE MISS LATENCY: 195.155 cycles
L2C RQ	ACCESS:    2263707	FORWARD:          0	MERGED:          0	TO_CACHE:    2263707
L2C WQ	ACCESS:     971469	FORWARD:          0	MERGED:          0	TO_CACHE:     971469
L2C PQ	ACCESS:    1267194	FORWARD:          0	MERGED:          0	TO_CACHE:    1267194

L2C Instructions Evicting Data 0
L2C Translations Evicting Data 42972
L2C Data Evicting Data 2135769
L2C Instructions Evicting Instructions 0
L2C Translations Evicting Instructions 0
L2C Data Evicting Instructions 0
L2C Instructions Evicting Translations 0
L2C Translations Evicting Translations 401
L2C Data Evicting Translations 42689
L2C Dense regions hint from L2: 0
PSCL5 TOTAL     ACCESS:     339586  HIT:     339586  MISS:          0  HIT %:        100  MISS %:          0   MPKI: 0
PSCL5 LOAD TRANSLATION ACCESS:     339586  HIT:     339586  MISS:          0  HIT %:        100  MISS %:          0   MPKI: 0
PSCL5 PREFETCH  REQUESTED:          0  ISSUED:          0  USEFUL:          0  USELESS:          0
PSCL5 USEFUL LOAD PREFETCHES:          0 PREFETCH ISSUED TO LOWER LEVEL:          0  ACCURACY: -nan
PSCL5 TIMELY PREFETCHES:          0 LATE PREFETCHES: 0 DROPPED PREFETCHES: 0
PSCL5 PREFETCHES SAME FILL-ORIGIN LEVEL: 0 DIFFERENT FILL-ORIGIN LEVEL: 0

PSCL4 TOTAL     ACCESS:     339586  HIT:     339586  MISS:          0  HIT %:        100  MISS %:          0   MPKI: 0
PSCL4 LOAD TRANSLATION ACCESS:     339586  HIT:     339586  MISS:          0  HIT %:        100  MISS %:          0   MPKI: 0
PSCL4 PREFETCH  REQUESTED:          0  ISSUED:          0  USEFUL:          0  USELESS:          0
PSCL4 USEFUL LOAD PREFETCHES:          0 PREFETCH ISSUED TO LOWER LEVEL:          0  ACCURACY: -nan
PSCL4 TIMELY PREFETCHES:          0 LATE PREFETCHES: 0 DROPPED PREFETCHES: 0
PSCL4 PREFETCHES SAME FILL-ORIGIN LEVEL: 0 DIFFERENT FILL-ORIGIN LEVEL: 0

PSCL3 TOTAL     ACCESS:     339586  HIT:     339586  MISS:          0  HIT %:        100  MISS %:          0   MPKI: 0
PSCL3 LOAD TRANSLATION ACCESS:     339586  HIT:     339586  MISS:          0  HIT %:        100  MISS %:          0   MPKI: 0
PSCL3 PREFETCH  REQUESTED:          0  ISSUED:          0  USEFUL:          0  USELESS:          0
PSCL3 USEFUL LOAD PREFETCHES:          0 PREFETCH ISSUED TO LOWER LEVEL:          0  ACCURACY: -nan
PSCL3 TIMELY PREFETCHES:          0 LATE PREFETCHES: 0 DROPPED PREFETCHES: 0
PSCL3 PREFETCHES SAME FILL-ORIGIN LEVEL: 0 DIFFERENT FILL-ORIGIN LEVEL: 0

PSCL2 TOTAL     ACCESS:     339586  HIT:     338982  MISS:        604  HIT %:    99.8221  MISS %:   0.177864   MPKI: 0.00604
PSCL2 LOAD TRANSLATION ACCESS:     339586  HIT:     338982  MISS:        604  HIT %:    99.8221  MISS %:   0.177864   MPKI: 0.00604
PSCL2 PREFETCH  REQUESTED:          0  ISSUED:          0  USEFUL:          0  USELESS:          0
PSCL2 USEFUL LOAD PREFETCHES:          0 PREFETCH ISSUED TO LOWER LEVEL:          0  ACCURACY: -nan
PSCL2 TIMELY PREFETCHES:          0 LATE PREFETCHES: 0 DROPPED PREFETCHES: 0
PSCL2 PREFETCHES SAME FILL-ORIGIN LEVEL: 0 DIFFERENT FILL-ORIGIN LEVEL: 0

LLC TOTAL     ACCESS:    3193857  HIT:    1133305  MISS:    2060552  HIT %:    35.4839  MISS %:    64.5161   MPKI: 20.6055
LLC LOAD      ACCESS:     950110  HIT:     164532  MISS:     785578  HIT %:    17.3172  MISS %:    82.6828   MPKI: 7.85578
LLC PREFETCH  ACCESS:    1228348  HIT:      21002  MISS:    1207346  HIT %:    1.70978  MISS %:    98.2902   MPKI: 12.0735
LLC WRITEBACK ACCESS:     972026  HIT:     943088  MISS:      28938  HIT %:    97.0229  MISS %:    2.97708   MPKI: 0.28938
LLC LOAD TRANSLATION ACCESS:      43373  HIT:       4683  MISS:      38690  HIT %:     10.797  MISS %:     89.203   MPKI: 0.3869
LLC PREFETCH  REQUESTED:          0  ISSUED:          0  USEFUL:      65446  USELESS:    1129561
LLC USEFUL LOAD PREFETCHES:      65446 PREFETCH ISSUED TO LOWER LEVEL:    1207346  ACCURACY: 5.42065
LLC TIMELY PREFETCHES:      65446 LATE PREFETCHES: 0 DROPPED PREFETCHES: 0
LLC PREFETCHES SAME FILL-ORIGIN LEVEL: 0 DIFFERENT FILL-ORIGIN LEVEL: 0
LLC AVERAGE MISS LATENCY: 170.638 cycles
LLC RQ	ACCESS:     993482	FORWARD:          0	MERGED:          0	TO_CACHE:     993482
LLC WQ	ACCESS:     972026	FORWARD:          0	MERGED:          0	TO_CACHE:     972026
LLC PQ	ACCESS:    1228348	FORWARD:          0	MERGED:          0	TO_CACHE:    1228348

LLC Dense regions hint to LLC: 0

RAW hits: 221761
Loads Generated: 64020761
Loads sent to L1D: 63798987
Stores Generated: 6411310
Stores sent to L1D: 6411308
Major fault: 0 Minor fault: 385139
Allocated PAGES: 385139
[Bingo] PHT Access: 517914
[Bingo] PHT Hit PC+Addr: 6750
[Bingo] PHT Hit PC+Offs: 506591
[Bingo] PHT Miss: 4573
[Bingo] Prefetch PC+Addr: 0
[Bingo] Prefetch PC+Offs: 0
[Bingo] Useful PC+Addr: 0
[Bingo] Useful PC+Offs: 0
[Bingo] Useless PC+Addr: 0
[Bingo] Useless PC+Offs: 0
[Bingo] L1 Prefetch per Region: 0
[Bingo] L2 Prefetch per Region: 3.4826
[Bingo] L3 Prefetch per Region: 0
[Bingo] No Prefetch per Region: 28.5174
[Bingo] Number of Voters Mean: 15.765
[Bingo] Number of Voters SD: 4.5369
PHT read accesses: 8074435
PHT write accesses: 470429
AT read accesses: 988742
AT write accesses: 1442145
FT read accesses: 1434749
FT write accesses: 517914
PS read accesses: 1055748
PS write accesses: 513341
PHT tag read accesses: 23176234
PHT tag write accesses: 477179
AT tag read accesses: 82013493
AT tag write accesses: 1459243
FT tag read accesses: 71630224
FT tag write accesses: 1482162
PS tag read accesses: 44036468
PS tag write accesses: 1568989

DRAM Statistics
 CHANNEL 0
 RQ ROW_BUFFER_HIT:     873733  ROW_BUFFER_MISS:    1157881
 DBUS_CONGESTED:        398
 WQ ROW_BUFFER_HIT:      88447  ROW_BUFFER_MISS:     883798  FULL:          0

 AVG_CONGESTED_CYCLE: 4
 All warmup complete: 2
Channel 0 Bank busy for read cycles: 0
Channel 0 Bank busy for write cycles: 0
Channel 0
Rank 0
0banks busy for read cycles: 47800162
0banks busy for write cycles: 140429
1banks busy for read cycles: 29676016
1banks busy for write cycles: 15276414
2banks busy for read cycles: 11782632
2banks busy for write cycles: 8332847
3banks busy for read cycles: 10690487
3banks busy for write cycles: 6496258
4banks busy for read cycles: 7172740
4banks busy for write cycles: 5495114
5banks busy for read cycles: 5484167
5banks busy for write cycles: 5213214
6banks busy for read cycles: 4184834
6banks busy for write cycles: 4575858
7banks busy for read cycles: 2873031
7banks busy for write cycles: 3306155
8banks busy for read cycles: 3843234
8banks busy for write cycles: 2148499

CPU 0 Branch Prediction Accuracy: 99.9931% MPKI: 0.00083 Average ROB Occupancy at Mispredict: 340.904
Branch types
NOT_BRANCH: 98797941 98.7979%
BRANCH_DIRECT_JUMP: 80123 0.080123%
BRANCH_INDIRECT: 0 0%
BRANCH_CONDITIONAL: 1121884 1.12188%
BRANCH_DIRECT_CALL: 0 0%
BRANCH_INDIRECT_CALL: 0 0%
BRANCH_RETURN: 0 0%
BRANCH_OTHER: 0 0%

DRAM PAGES: 1048576
Allocated PAGES: 385139
