Initialize SIGNATURE TABLE
ST_SET: 1
ST_WAY: 16
ST_TAG_BIT: 16
ST_TAG_MASK: ffff

Initialize PATTERN TABLE
PT_SET: 16
PT_WAY: 4
SIG_DELTA_BIT: 7
C_SIG_BIT: 4
C_DELTA_BIT: 4

Initialize PREFETCH FILTER
FILTER_SET: 1024

Initialize PERCEPTRON
PERC_ENTRIES: 4096
PERC_FEATURES: 9

*** ChampSim Multicore Out-of-Order Simulator ***

Warmup Instructions: 50000000
Simulation Instructions: 100000000
Number of CPUs: 1
LLC sets: 2048
LLC ways: 16
Off-chip DRAM Size: 4096 MB Channels: 1 Width: 64-bit Data Rate: 6400 MT/s
CPU 0 runs ../SPEC2017//654.roms_s-1613B.champsimtrace.xz
.xz
BTB has LRU replacement policy
ITLB has LRU replacement policy
DTLB has LRU replacement policy
STLB has LRU replacement policy
L1I has LRU replacement policy
L1D has LRU replacement policy
Initialize SRRIP state for L2C
Initialize DRRIP state for LLC
Heartbeat CPU 0 instructions: 10000001 cycles: 2914341 heartbeat IPC: 3.43131 cumulative IPC: 3.43131 (Simulation time: 0 hr 6 min 20 sec) 
Heartbeat CPU 0 instructions: 20000000 cycles: 5828653 heartbeat IPC: 3.43134 cumulative IPC: 3.43132 (Simulation time: 0 hr 12 min 7 sec) 
Heartbeat CPU 0 instructions: 30000000 cycles: 8742816 heartbeat IPC: 3.43152 cumulative IPC: 3.43139 (Simulation time: 0 hr 17 min 10 sec) 
Heartbeat CPU 0 instructions: 40000000 cycles: 11657064 heartbeat IPC: 3.43142 cumulative IPC: 3.4314 (Simulation time: 0 hr 21 min 56 sec) 
Heartbeat CPU 0 instructions: 50000001 cycles: 15202144 heartbeat IPC: 2.82081 cumulative IPC: 3.28901 (Simulation time: 0 hr 26 min 13 sec) 

Warmup complete CPU 0 instructions: 50000001 cycles: 15202144 (Simulation time: 0 hr 26 min 13 sec) 

Heartbeat CPU 0 instructions: 60000001 cycles: 32488968 heartbeat IPC: 0.578475 cumulative IPC: 0.578475 (Simulation time: 0 hr 31 min 0 sec) 
Heartbeat CPU 0 instructions: 70000003 cycles: 49777251 heartbeat IPC: 0.578427 cumulative IPC: 0.578451 (Simulation time: 0 hr 35 min 31 sec) 
Heartbeat CPU 0 instructions: 80000000 cycles: 66896751 heartbeat IPC: 0.584129 cumulative IPC: 0.580331 (Simulation time: 0 hr 39 min 37 sec) 
Heartbeat CPU 0 instructions: 90000001 cycles: 83928470 heartbeat IPC: 0.58714 cumulative IPC: 0.582019 (Simulation time: 0 hr 43 min 34 sec) 
Heartbeat CPU 0 instructions: 100000000 cycles: 100947126 heartbeat IPC: 0.58759 cumulative IPC: 0.583125 (Simulation time: 0 hr 47 min 27 sec) 
Heartbeat CPU 0 instructions: 110000000 cycles: 117957606 heartbeat IPC: 0.587873 cumulative IPC: 0.583911 (Simulation time: 0 hr 50 min 55 sec) 
Heartbeat CPU 0 instructions: 120000001 cycles: 139714437 heartbeat IPC: 0.459626 cumulative IPC: 0.562194 (Simulation time: 0 hr 55 min 11 sec) 
Heartbeat CPU 0 instructions: 130000000 cycles: 156980052 heartbeat IPC: 0.579186 cumulative IPC: 0.564263 (Simulation time: 0 hr 58 min 18 sec) 
Heartbeat CPU 0 instructions: 140000003 cycles: 174256165 heartbeat IPC: 0.578834 cumulative IPC: 0.565845 (Simulation time: 1 hr 1 min 3 sec) 
Heartbeat CPU 0 instructions: 150000001 cycles: 191487269 heartbeat IPC: 0.580346 cumulative IPC: 0.567263 (Simulation time: 1 hr 3 min 45 sec) 
Finished CPU 0 instructions: 100000000 cycles: 176285125 cumulative IPC: 0.567263 (Simulation time: 1 hr 3 min 45 sec) 

ChampSim completed all CPUs

Region of Interest Statistics

CPU 0 cumulative IPC: 0.567263 instructions: 100000000 cycles: 176285125

CPU 0 Average Load ROB stall cycles: 2.97038e+07
CPU 0 Fraction of times ROB stalled by Loads: 28.8133
CPU 0 Percentage of Load stall cycles in Total stall cycles: 5.63154e+08
Issued all: 63096123
Issued LT all: 49213508
rob_not_full_when_issued_lt_all: 43763381
Issued LT one: 41455367
rob_not_full_when_issued_lt_one: 36279950
FVP critical_dynamic_instances_0: 17692538
FVP unique_critical_ips_0: 178
 Total stall cycles: 150998307
 Total load stall cycles: 850353473468277
Unique Load IPs: 414
CPU 0 NUM of IPS identified critical: 0
CPU 0 Num of Load IPs stalling ROB: 0
Threshold modification factor: 0
Trouble in retire width: -nan
MaC = Marked as critical.
lt_50_percent_before_Mac: 0
gt_90_percent_before_Mac: 0
gt_75_percent_before_Mac: 0
gt_50_percent_before_Mac: 0
stall_proportion_bin_same_before_after: 0
stall_proportion_bin_lower_before_after: 0
stall_proportion_bin_upper_before_after: 0
average_stall_proportion_before: -nan
average_stall_proportion_after: -nan
Critical IP stalls, total frequency: 0
Non-critical IP stalls, total frequency: 0
Total Freq all stalling IPs: 0
Critical_IP_Detector_Accuracy_70: 0.00561798
Critical_IP_Detector_Accuracy_80: 0.00561798
Critical_IP_Detector_Accuracy_90: 0.00561798
Critical_IP_Detector_Coverage_70: 1
Critical_IP_Detector_Coverage_80: 1
Critical_IP_Detector_Coverage_90: 1
stat_90_percent_critical_ip_stalls_freq: 712109
stat_90_percent_non_critical_ip_stalls_freq: 18446744073708839507
AVERAGE_ROB_Occupancy_90_Percent_Critical_IP_Stalls: 63.0772
AVERAGE_ROB_Occupancy_90_Percent_Non_Critical_IP_Stalls: 2.0668e-11
Critical_IP_ROB_Stalls_Bucket_0: 0
Non-critical_IP_ROB_Stalls_Bucket_0: 4510666
Critical_IP_ROB_Stalls_Bucket_1: 0
Non-critical_IP_ROB_Stalls_Bucket_1: 3363865
Critical_IP_ROB_Stalls_Bucket_2: 0
Non-critical_IP_ROB_Stalls_Bucket_2: 96186
Critical_IP_ROB_Stalls_Bucket_3: 0
Non-critical_IP_ROB_Stalls_Bucket_3: 4661
Critical_IP_ROB_Stalls_Bucket_4: 0
Non-critical_IP_ROB_Stalls_Bucket_4: 3438
Critical_IP_ROB_Stalls_Bucket_5: 0
Non-critical_IP_ROB_Stalls_Bucket_5: 3913
Critical_IP_ROB_Stalls_Bucket_6: 0
Non-critical_IP_ROB_Stalls_Bucket_6: 265855
0 => IPs accounting for >50 percent of stalls, 1 => 55, 2 => 60, 3 => 65 and so on till 90.
percent50: inf num IPs:  1
percent55: inf num IPs: 1
percent60: inf num IPs: 1
percent65: inf num IPs: 1
percent70: inf num IPs: 1
percent75: inf num IPs: 1
percent80: inf num IPs: 1
percent85: inf num IPs: 1
percent90: inf num IPs: 1
Critical_ROB_Stalls_Percent_0_Bucket_0: 30
Non-critical_ROB_Stalls_Percent_0_Bucket_0: 4510636
Critical_ROB_Stalls_Percent_0_Bucket_1: 666098
Non-critical_ROB_Stalls_Percent_0_Bucket_1: 2697767
Critical_ROB_Stalls_Percent_0_Bucket_2: 45979
Non-critical_ROB_Stalls_Percent_0_Bucket_2: 50207
Critical_ROB_Stalls_Percent_0_Bucket_3: 0
Non-critical_ROB_Stalls_Percent_0_Bucket_3: 4661
Critical_ROB_Stalls_Percent_0_Bucket_4: 1
Non-critical_ROB_Stalls_Percent_0_Bucket_4: 3437
Critical_ROB_Stalls_Percent_0_Bucket_5: 0
Non-critical_ROB_Stalls_Percent_0_Bucket_5: 3913
Critical_ROB_Stalls_Percent_0_Bucket_6: 1
Non-critical_ROB_Stalls_Percent_0_Bucket_6: 265854
Critical_ROB_Stalls_Percent_1_Bucket_0: 30
Non-critical_ROB_Stalls_Percent_1_Bucket_0: 4510636
Critical_ROB_Stalls_Percent_1_Bucket_1: 666098
Non-critical_ROB_Stalls_Percent_1_Bucket_1: 2697767
Critical_ROB_Stalls_Percent_1_Bucket_2: 45979
Non-critical_ROB_Stalls_Percent_1_Bucket_2: 50207
Critical_ROB_Stalls_Percent_1_Bucket_3: 0
Non-critical_ROB_Stalls_Percent_1_Bucket_3: 4661
Critical_ROB_Stalls_Percent_1_Bucket_4: 1
Non-critical_ROB_Stalls_Percent_1_Bucket_4: 3437
Critical_ROB_Stalls_Percent_1_Bucket_5: 0
Non-critical_ROB_Stalls_Percent_1_Bucket_5: 3913
Critical_ROB_Stalls_Percent_1_Bucket_6: 1
Non-critical_ROB_Stalls_Percent_1_Bucket_6: 265854
Critical_ROB_Stalls_Percent_2_Bucket_0: 30
Non-critical_ROB_Stalls_Percent_2_Bucket_0: 4510636
Critical_ROB_Stalls_Percent_2_Bucket_1: 666098
Non-critical_ROB_Stalls_Percent_2_Bucket_1: 2697767
Critical_ROB_Stalls_Percent_2_Bucket_2: 45979
Non-critical_ROB_Stalls_Percent_2_Bucket_2: 50207
Critical_ROB_Stalls_Percent_2_Bucket_3: 0
Non-critical_ROB_Stalls_Percent_2_Bucket_3: 4661
Critical_ROB_Stalls_Percent_2_Bucket_4: 1
Non-critical_ROB_Stalls_Percent_2_Bucket_4: 3437
Critical_ROB_Stalls_Percent_2_Bucket_5: 0
Non-critical_ROB_Stalls_Percent_2_Bucket_5: 3913
Critical_ROB_Stalls_Percent_2_Bucket_6: 1
Non-critical_ROB_Stalls_Percent_2_Bucket_6: 265854
Critical_ROB_Stalls_Percent_3_Bucket_0: 30
Non-critical_ROB_Stalls_Percent_3_Bucket_0: 4510636
Critical_ROB_Stalls_Percent_3_Bucket_1: 666098
Non-critical_ROB_Stalls_Percent_3_Bucket_1: 2697767
Critical_ROB_Stalls_Percent_3_Bucket_2: 45979
Non-critical_ROB_Stalls_Percent_3_Bucket_2: 50207
Critical_ROB_Stalls_Percent_3_Bucket_3: 0
Non-critical_ROB_Stalls_Percent_3_Bucket_3: 4661
Critical_ROB_Stalls_Percent_3_Bucket_4: 1
Non-critical_ROB_Stalls_Percent_3_Bucket_4: 3437
Critical_ROB_Stalls_Percent_3_Bucket_5: 0
Non-critical_ROB_Stalls_Percent_3_Bucket_5: 3913
Critical_ROB_Stalls_Percent_3_Bucket_6: 1
Non-critical_ROB_Stalls_Percent_3_Bucket_6: 265854
Critical_ROB_Stalls_Percent_4_Bucket_0: 30
Non-critical_ROB_Stalls_Percent_4_Bucket_0: 4510636
Critical_ROB_Stalls_Percent_4_Bucket_1: 666098
Non-critical_ROB_Stalls_Percent_4_Bucket_1: 2697767
Critical_ROB_Stalls_Percent_4_Bucket_2: 45979
Non-critical_ROB_Stalls_Percent_4_Bucket_2: 50207
Critical_ROB_Stalls_Percent_4_Bucket_3: 0
Non-critical_ROB_Stalls_Percent_4_Bucket_3: 4661
Critical_ROB_Stalls_Percent_4_Bucket_4: 1
Non-critical_ROB_Stalls_Percent_4_Bucket_4: 3437
Critical_ROB_Stalls_Percent_4_Bucket_5: 0
Non-critical_ROB_Stalls_Percent_4_Bucket_5: 3913
Critical_ROB_Stalls_Percent_4_Bucket_6: 1
Non-critical_ROB_Stalls_Percent_4_Bucket_6: 265854
Critical_ROB_Stalls_Percent_5_Bucket_0: 30
Non-critical_ROB_Stalls_Percent_5_Bucket_0: 4510636
Critical_ROB_Stalls_Percent_5_Bucket_1: 666098
Non-critical_ROB_Stalls_Percent_5_Bucket_1: 2697767
Critical_ROB_Stalls_Percent_5_Bucket_2: 45979
Non-critical_ROB_Stalls_Percent_5_Bucket_2: 50207
Critical_ROB_Stalls_Percent_5_Bucket_3: 0
Non-critical_ROB_Stalls_Percent_5_Bucket_3: 4661
Critical_ROB_Stalls_Percent_5_Bucket_4: 1
Non-critical_ROB_Stalls_Percent_5_Bucket_4: 3437
Critical_ROB_Stalls_Percent_5_Bucket_5: 0
Non-critical_ROB_Stalls_Percent_5_Bucket_5: 3913
Critical_ROB_Stalls_Percent_5_Bucket_6: 1
Non-critical_ROB_Stalls_Percent_5_Bucket_6: 265854
Critical_ROB_Stalls_Percent_6_Bucket_0: 30
Non-critical_ROB_Stalls_Percent_6_Bucket_0: 4510636
Critical_ROB_Stalls_Percent_6_Bucket_1: 666098
Non-critical_ROB_Stalls_Percent_6_Bucket_1: 2697767
Critical_ROB_Stalls_Percent_6_Bucket_2: 45979
Non-critical_ROB_Stalls_Percent_6_Bucket_2: 50207
Critical_ROB_Stalls_Percent_6_Bucket_3: 0
Non-critical_ROB_Stalls_Percent_6_Bucket_3: 4661
Critical_ROB_Stalls_Percent_6_Bucket_4: 1
Non-critical_ROB_Stalls_Percent_6_Bucket_4: 3437
Critical_ROB_Stalls_Percent_6_Bucket_5: 0
Non-critical_ROB_Stalls_Percent_6_Bucket_5: 3913
Critical_ROB_Stalls_Percent_6_Bucket_6: 1
Non-critical_ROB_Stalls_Percent_6_Bucket_6: 265854
Critical_ROB_Stalls_Percent_7_Bucket_0: 30
Non-critical_ROB_Stalls_Percent_7_Bucket_0: 4510636
Critical_ROB_Stalls_Percent_7_Bucket_1: 666098
Non-critical_ROB_Stalls_Percent_7_Bucket_1: 2697767
Critical_ROB_Stalls_Percent_7_Bucket_2: 45979
Non-critical_ROB_Stalls_Percent_7_Bucket_2: 50207
Critical_ROB_Stalls_Percent_7_Bucket_3: 0
Non-critical_ROB_Stalls_Percent_7_Bucket_3: 4661
Critical_ROB_Stalls_Percent_7_Bucket_4: 1
Non-critical_ROB_Stalls_Percent_7_Bucket_4: 3437
Critical_ROB_Stalls_Percent_7_Bucket_5: 0
Non-critical_ROB_Stalls_Percent_7_Bucket_5: 3913
Critical_ROB_Stalls_Percent_7_Bucket_6: 1
Non-critical_ROB_Stalls_Percent_7_Bucket_6: 265854
Critical_ROB_Stalls_Percent_8_Bucket_0: 30
Non-critical_ROB_Stalls_Percent_8_Bucket_0: 4510636
Critical_ROB_Stalls_Percent_8_Bucket_1: 666098
Non-critical_ROB_Stalls_Percent_8_Bucket_1: 2697767
Critical_ROB_Stalls_Percent_8_Bucket_2: 45979
Non-critical_ROB_Stalls_Percent_8_Bucket_2: 50207
Critical_ROB_Stalls_Percent_8_Bucket_3: 0
Non-critical_ROB_Stalls_Percent_8_Bucket_3: 4661
Critical_ROB_Stalls_Percent_8_Bucket_4: 1
Non-critical_ROB_Stalls_Percent_8_Bucket_4: 3437
Critical_ROB_Stalls_Percent_8_Bucket_5: 0
Non-critical_ROB_Stalls_Percent_8_Bucket_5: 3913
Critical_ROB_Stalls_Percent_8_Bucket_6: 1
Non-critical_ROB_Stalls_Percent_8_Bucket_6: 265854
Average ROB occupancy Load Stall Begin: 45.1525
Average ROB occupancy Load Stall End: 51.6664
Min ROB occupancy Load Stall Begin: 1
Max ROB occupancy Load Stall Begin: 352
Min ROB occupancy Load Stall End: 1
Max ROB occupancy Load Stall End: 352
Average ROB occupancy Critical Load Stall Begin: -nan
Average ROB occupancy Critical Load Stall End: -nan
Min ROB occupancy Critical Load Stall Begin: 400
Max ROB occupancy Critical Load Stall Begin: 0
Min ROB occupancy Critical Load Stall End: 400
Max ROB occupancy Critical Load Stall End: 0
 ROB Load Stall Begin Bucket Count 0: 6332609
 ROB Load Stall End Bucket Count 0: 4510666
 ROB Critical Load Stall Begin Bucket Count 0: 0
 ROB Critical Load Stall End Bucket Count 0: 0
 ROB Load Stall Begin Bucket Count 1: 1592153
 ROB Load Stall End Bucket Count 1: 3363865
 ROB Critical Load Stall Begin Bucket Count 1: 0
 ROB Critical Load Stall End Bucket Count 1: 0
 ROB Load Stall Begin Bucket Count 2: 49769
 ROB Load Stall End Bucket Count 2: 96186
 ROB Critical Load Stall Begin Bucket Count 2: 0
 ROB Critical Load Stall End Bucket Count 2: 0
 ROB Load Stall Begin Bucket Count 3: 3946
 ROB Load Stall End Bucket Count 3: 4661
 ROB Critical Load Stall Begin Bucket Count 3: 0
 ROB Critical Load Stall End Bucket Count 3: 0
 ROB Load Stall Begin Bucket Count 4: 3464
 ROB Load Stall End Bucket Count 4: 3438
 ROB Critical Load Stall Begin Bucket Count 4: 0
 ROB Critical Load Stall End Bucket Count 4: 0
 ROB Load Stall Begin Bucket Count 5: 2755
 ROB Load Stall End Bucket Count 5: 3913
 ROB Critical Load Stall Begin Bucket Count 5: 0
 ROB Critical Load Stall End Bucket Count 5: 0
 ROB Load Stall Begin Bucket Count 6: 263888
 ROB Load Stall End Bucket Count 6: 265855
 ROB Critical Load Stall Begin Bucket Count 6: 0
 ROB Critical Load Stall End Bucket Count 6: 0
PIST Tag Read Accesses: 0
PIST Read Accesses: 0
PIST Tag Write Accesses: 0
PIST Write Accesses: 0
Criticality detector called times: 0
Max global_stall_cycles_count: 0
Threshold Modified: 0 times, factor: 0
ITLB TOTAL     ACCESS:   15214376  HIT:   15214368  MISS:          8  HIT %:    99.9999  MISS %: 5.25818e-05   MPKI: 8e-05
ITLB LOAD TRANSLATION ACCESS:   15214376  HIT:   15214368  MISS:          8  HIT %:    99.9999  MISS %: 5.25818e-05   MPKI: 8e-05
ITLB PREFETCH  REQUESTED:          0  ISSUED:          0  USEFUL:          0  USELESS:          0
ITLB USEFUL LOAD PREFETCHES:          0 PREFETCH ISSUED TO LOWER LEVEL:          0  ACCURACY: -nan
ITLB TIMELY PREFETCHES:          0 LATE PREFETCHES: 0 DROPPED PREFETCHES: 0
ITLB PREFETCHES SAME FILL-ORIGIN LEVEL: 0 DIFFERENT FILL-ORIGIN LEVEL: 0
ITLB AVERAGE MISS LATENCY: 283.75 cycles
ITLB RQ	ACCESS:   19844572	FORWARD:          0	MERGED:    4630196	TO_CACHE:   15214376

DTLB TOTAL     ACCESS:   20674707  HIT:   20668596  MISS:       6111  HIT %:    99.9704  MISS %:  0.0295579   MPKI: 0.06111
DTLB LOAD TRANSLATION ACCESS:   20674707  HIT:   20668596  MISS:       6111  HIT %:    99.9704  MISS %:  0.0295579   MPKI: 0.06111
DTLB PREFETCH  REQUESTED:          0  ISSUED:          0  USEFUL:          0  USELESS:          0
DTLB USEFUL LOAD PREFETCHES:          0 PREFETCH ISSUED TO LOWER LEVEL:          0  ACCURACY: -nan
DTLB TIMELY PREFETCHES:          0 LATE PREFETCHES: 0 DROPPED PREFETCHES: 0
DTLB PREFETCHES SAME FILL-ORIGIN LEVEL: 0 DIFFERENT FILL-ORIGIN LEVEL: 0
DTLB AVERAGE MISS LATENCY: 104.224 cycles
DTLB RQ	ACCESS:   24868755	FORWARD:          0	MERGED:    4187728	TO_CACHE:   20681027

STLB TOTAL     ACCESS:       6119  HIT:        411  MISS:       5708  HIT %:    6.71678  MISS %:    93.2832   MPKI: 0.05708
STLB LOAD TRANSLATION ACCESS:       6119  HIT:        411  MISS:       5708  HIT %:    6.71678  MISS %:    93.2832   MPKI: 0.05708
STLB PREFETCH  REQUESTED:          0  ISSUED:          0  USEFUL:          0  USELESS:          0
STLB USEFUL LOAD PREFETCHES:          0 PREFETCH ISSUED TO LOWER LEVEL:          0  ACCURACY: -nan
STLB TIMELY PREFETCHES:          0 LATE PREFETCHES: 0 DROPPED PREFETCHES: 0
STLB PREFETCHES SAME FILL-ORIGIN LEVEL: 0 DIFFERENT FILL-ORIGIN LEVEL: 0
STLB AVERAGE MISS LATENCY: 102.331 cycles
STLB RQ	ACCESS:       6119	FORWARD:          0	MERGED:          0	TO_CACHE:       6119

STLB Hit, L1D data hit: 0
STLB Hit, L2C data hit: 0
STLB Hit, LLC data hit: 0
STLB Hit, LLC data miss: 0
STLB STLB hints to L2: 0
L1D TOTAL     ACCESS:   24381798  HIT:   24102363  MISS:     279435  HIT %:    98.8539  MISS %:    1.14608   MPKI: 2.79435
L1D LOAD      ACCESS:   14696098  HIT:   14528240  MISS:     167858  HIT %:    98.8578  MISS %:    1.14219   MPKI: 1.67858
L1D RFO       ACCESS:    9685700  HIT:    9574123  MISS:     111577  HIT %:     98.848  MISS %:    1.15198   MPKI: 1.11577
L1D PREFETCH  REQUESTED:          0  ISSUED:          0  USEFUL:          0  USELESS:          0
L1D USEFUL LOAD PREFETCHES:          0 PREFETCH ISSUED TO LOWER LEVEL:          0  ACCURACY: -nan
L1D TIMELY PREFETCHES:          0 LATE PREFETCHES: 0 DROPPED PREFETCHES: 0
L1D PREFETCHES SAME FILL-ORIGIN LEVEL: 0 DIFFERENT FILL-ORIGIN LEVEL: 0
L1D AVERAGE MISS LATENCY: 148.022 cycles
L1D RQ	ACCESS:   20014772	FORWARD:          0	MERGED:    5241988	TO_CACHE:   14727507
L1D WQ	ACCESS:   10855420	FORWARD:      45277	MERGED:     714172	TO_CACHE:   10141248

L1D UNIQUE REGIONS ACCESSED: 0
L1D REGIONS CONFLICTS: 0
L1D Cross Page Prefetch Requests: 0
L1D Same Page Prefetch Requests: 0
L1D ROI Sum of L1D PQ occupancy: 0
L1D PREFETCHES PUSHED FROM L2C: 0
L1I TOTAL     ACCESS:   19844557  HIT:   19844451  MISS:        106  HIT %:    99.9995  MISS %: 0.000534152   MPKI: 0.00106
L1I LOAD      ACCESS:   19844557  HIT:   19844451  MISS:        106  HIT %:    99.9995  MISS %: 0.000534152   MPKI: 0.00106
L1I PREFETCH  REQUESTED:          0  ISSUED:          0  USEFUL:          0  USELESS:          0
L1I USEFUL LOAD PREFETCHES:          0 PREFETCH ISSUED TO LOWER LEVEL:          0  ACCURACY: -nan
L1I TIMELY PREFETCHES:          0 LATE PREFETCHES: 0 DROPPED PREFETCHES: 0
L1I PREFETCHES SAME FILL-ORIGIN LEVEL: 0 DIFFERENT FILL-ORIGIN LEVEL: 0
L1I AVERAGE MISS LATENCY: 171.906 cycles
L1I RQ	ACCESS:   28927435	FORWARD:          0	MERGED:    9082863	TO_CACHE:   19844572

BTB TOTAL     ACCESS:    6673576  HIT:    5961136  MISS:     712440  HIT %:    89.3245  MISS %:    10.6755   MPKI: 7.1244
BTB BRANCH_DIRECT_JUMP	ACCESS:     712598  HIT:     712560  MISS:         38
BTB BRANCH_INDIRECT	ACCESS:         16  HIT:         15  MISS:          1
BTB BRANCH_CONDITIONAL	ACCESS:    3111182  HIT:    3111055  MISS:        127
BTB BRANCH_DIRECT_CALL	ACCESS:    1424889  HIT:    1424844  MISS:         45
BTB BRANCH_INDIRECT_CALL	ACCESS:          0  HIT:          0  MISS:          0
BTB BRANCH_RETURN	ACCESS:    1424891  HIT:     712662  MISS:     712229
BTB BRANCH_OTHER ACCESS:          0  HIT:          0  MISS:          0

L2C TOTAL     ACCESS:     532655  HIT:     233789  MISS:     298866  HIT %:    43.8913  MISS %:    56.1087   MPKI: 2.98866
L2C LOAD      ACCESS:     167964  HIT:     113374  MISS:      54590  HIT %:     67.499  MISS %:     32.501   MPKI: 0.5459
L2C DATA LOAD MPKI: 0.54484
L2C INSTRUCTION LOAD MPKI: 0.00106
L2C RFO       ACCESS:     111577  HIT:          1  MISS:     111576  HIT %: 0.000896242  MISS %:    99.9991   MPKI: 1.11576
L2C PREFETCH  ACCESS:     135822  HIT:       8717  MISS:     127105  HIT %:    6.41796  MISS %:     93.582   MPKI: 1.27105
L2C DATA PREFETCH MPKI: 1.27105
L2C INSTRUCTION PREFETCH MPKI: 0
L2C WRITEBACK ACCESS:     111581  HIT:     107052  MISS:       4529  HIT %:    95.9411  MISS %:    4.05893   MPKI: 0.04529
L2C LOAD TRANSLATION ACCESS:       5711  HIT:       4645  MISS:       1066  HIT %:    81.3343  MISS %:    18.6657   MPKI: 0.01066
L2C PREFETCH  REQUESTED:     144267  ISSUED:     144267  USEFUL:     113371  USELESS:      13518
L2C USEFUL LOAD PREFETCHES:     113371 PREFETCH ISSUED TO LOWER LEVEL:     130579  ACCURACY: 86.8218
L2C TIMELY PREFETCHES:     113371 LATE PREFETCHES: 3472 DROPPED PREFETCHES: 0
L2C PREFETCHES SAME FILL-ORIGIN LEVEL: 130577 DIFFERENT FILL-ORIGIN LEVEL: 2
L2C AVERAGE MISS LATENCY: 241.495 cycles
L2C RQ	ACCESS:     285252	FORWARD:          0	MERGED:          0	TO_CACHE:     285252
L2C WQ	ACCESS:     111581	FORWARD:          0	MERGED:          0	TO_CACHE:     111581
L2C PQ	ACCESS:     144267	FORWARD:          0	MERGED:        183	TO_CACHE:     144084

L2C Instructions Evicting Data 105
L2C Translations Evicting Data 1053
L2C Data Evicting Data 291980
L2C Instructions Evicting Instructions 0
L2C Translations Evicting Instructions 1
L2C Data Evicting Instructions 114
L2C Instructions Evicting Translations 1
L2C Translations Evicting Translations 12
L2C Data Evicting Translations 1071
L2C Dense regions hint from L2: 0
PSCL5 TOTAL     ACCESS:       5708  HIT:       5708  MISS:          0  HIT %:        100  MISS %:          0   MPKI: 0
PSCL5 LOAD TRANSLATION ACCESS:       5708  HIT:       5708  MISS:          0  HIT %:        100  MISS %:          0   MPKI: 0
PSCL5 PREFETCH  REQUESTED:          0  ISSUED:          0  USEFUL:          0  USELESS:          0
PSCL5 USEFUL LOAD PREFETCHES:          0 PREFETCH ISSUED TO LOWER LEVEL:          0  ACCURACY: -nan
PSCL5 TIMELY PREFETCHES:          0 LATE PREFETCHES: 0 DROPPED PREFETCHES: 0
PSCL5 PREFETCHES SAME FILL-ORIGIN LEVEL: 0 DIFFERENT FILL-ORIGIN LEVEL: 0

PSCL4 TOTAL     ACCESS:       5708  HIT:       5708  MISS:          0  HIT %:        100  MISS %:          0   MPKI: 0
PSCL4 LOAD TRANSLATION ACCESS:       5708  HIT:       5708  MISS:          0  HIT %:        100  MISS %:          0   MPKI: 0
PSCL4 PREFETCH  REQUESTED:          0  ISSUED:          0  USEFUL:          0  USELESS:          0
PSCL4 USEFUL LOAD PREFETCHES:          0 PREFETCH ISSUED TO LOWER LEVEL:          0  ACCURACY: -nan
PSCL4 TIMELY PREFETCHES:          0 LATE PREFETCHES: 0 DROPPED PREFETCHES: 0
PSCL4 PREFETCHES SAME FILL-ORIGIN LEVEL: 0 DIFFERENT FILL-ORIGIN LEVEL: 0

PSCL3 TOTAL     ACCESS:       5708  HIT:       5708  MISS:          0  HIT %:        100  MISS %:          0   MPKI: 0
PSCL3 LOAD TRANSLATION ACCESS:       5708  HIT:       5708  MISS:          0  HIT %:        100  MISS %:          0   MPKI: 0
PSCL3 PREFETCH  REQUESTED:          0  ISSUED:          0  USEFUL:          0  USELESS:          0
PSCL3 USEFUL LOAD PREFETCHES:          0 PREFETCH ISSUED TO LOWER LEVEL:          0  ACCURACY: -nan
PSCL3 TIMELY PREFETCHES:          0 LATE PREFETCHES: 0 DROPPED PREFETCHES: 0
PSCL3 PREFETCHES SAME FILL-ORIGIN LEVEL: 0 DIFFERENT FILL-ORIGIN LEVEL: 0

PSCL2 TOTAL     ACCESS:       5708  HIT:       5700  MISS:          8  HIT %:    99.8598  MISS %:   0.140154   MPKI: 8e-05
PSCL2 LOAD TRANSLATION ACCESS:       5708  HIT:       5700  MISS:          8  HIT %:    99.8598  MISS %:   0.140154   MPKI: 8e-05
PSCL2 PREFETCH  REQUESTED:          0  ISSUED:          0  USEFUL:          0  USELESS:          0
PSCL2 USEFUL LOAD PREFETCHES:          0 PREFETCH ISSUED TO LOWER LEVEL:          0  ACCURACY: -nan
PSCL2 TIMELY PREFETCHES:          0 LATE PREFETCHES: 0 DROPPED PREFETCHES: 0
PSCL2 PREFETCHES SAME FILL-ORIGIN LEVEL: 0 DIFFERENT FILL-ORIGIN LEVEL: 0

LLC TOTAL     ACCESS:     406695  HIT:     111212  MISS:     295483  HIT %:    27.3453  MISS %:    72.6547   MPKI: 2.95483
LLC LOAD      ACCESS:      51118  HIT:        159  MISS:      50959  HIT %:   0.311045  MISS %:     99.689   MPKI: 0.50959
LLC RFO       ACCESS:     111576  HIT:        120  MISS:     111456  HIT %:    0.10755  MISS %:    99.8924   MPKI: 1.11456
LLC PREFETCH  ACCESS:     130579  HIT:        345  MISS:     130234  HIT %:   0.264208  MISS %:    99.7358   MPKI: 1.30234
LLC WRITEBACK ACCESS:     112356  HIT:     110578  MISS:       1778  HIT %:    98.4175  MISS %:    1.58247   MPKI: 0.01778
LLC LOAD TRANSLATION ACCESS:       1066  HIT:         10  MISS:       1056  HIT %:   0.938086  MISS %:    99.0619   MPKI: 0.01056
LLC PREFETCH  REQUESTED:          0  ISSUED:          0  USEFUL:         20  USELESS:     123774
LLC USEFUL LOAD PREFETCHES:         20 PREFETCH ISSUED TO LOWER LEVEL:     130234  ACCURACY: 0.015357
LLC TIMELY PREFETCHES:         20 LATE PREFETCHES: 0 DROPPED PREFETCHES: 0
LLC PREFETCHES SAME FILL-ORIGIN LEVEL: 2 DIFFERENT FILL-ORIGIN LEVEL: 0
LLC AVERAGE MISS LATENCY: 217.841 cycles
LLC RQ	ACCESS:     163760	FORWARD:          0	MERGED:          0	TO_CACHE:     163760
LLC WQ	ACCESS:     112356	FORWARD:          0	MERGED:          0	TO_CACHE:     112356
LLC PQ	ACCESS:     130579	FORWARD:          0	MERGED:          0	TO_CACHE:     130579

LLC Dense regions hint to LLC: 0

RAW hits: 2869289
Loads Generated: 22884063
Loads sent to L1D: 20014772
Stores Generated: 10855417
Stores sent to L1D: 10855420
Major fault: 0 Minor fault: 6008
Allocated PAGES: 6008
------------------
Depth Distribution
------------------
depth 0: 848
depth 1: 120
depth 2: 19
depth 3: 22
depth 4: 32
depth 5: 103
depth 6: 869
depth 7: 12852
depth 8: 26855
depth 9: 44904
depth 10: 2504
depth 11: 4627
depth 12: 8730
depth 13: 1394
depth 14: 16563
depth 15: 1673
depth 16: 903
depth 17: 340
depth 18: 211
depth 19: 19
depth 20: 1
depth 21: 0
depth 22: 0
depth 23: 0
depth 24: 0
depth 25: 0
depth 26: 0
depth 27: 0
depth 28: 0
depth 29: 0
Total: 123589
------------------
ST read accesses: 119109
ST write accesses: 3622
PT read accesses: 6588788
PT write accesses: 176344
FILTER read accesses: 1511579
FILTER write accesses: 858524
GHR read accesses: 558275
GHR write accesses: 108939
PERC read accesses: 47805579
PERC write accesses: 1434091
GHR counter read accesses: 245462
GHR counter write accesses: 396433
GHR ip read accesses: 801000
GHR ip write accesses: 490924
ST tag read accesses: 3113858
ST tag write accesses: 231136

DRAM Statistics
 CHANNEL 0
 RQ ROW_BUFFER_HIT:      58062  ROW_BUFFER_MISS:     235642
 DBUS_CONGESTED:         10
 WQ ROW_BUFFER_HIT:      14795  ROW_BUFFER_MISS:      95863  FULL:          0

 AVG_CONGESTED_CYCLE: 4
 All warmup complete: 2
Channel 0 Bank busy for read cycles: 0
Channel 0 Bank busy for write cycles: 0
Channel 0
Rank 0
0banks busy for read cycles: 148715017
0banks busy for write cycles: 35864
1banks busy for read cycles: 14306765
1banks busy for write cycles: 5443561
2banks busy for read cycles: 1910507
2banks busy for write cycles: 183608
3banks busy for read cycles: 1048553
3banks busy for write cycles: 63348
4banks busy for read cycles: 547784
4banks busy for write cycles: 40792
5banks busy for read cycles: 402520
5banks busy for write cycles: 27897
6banks busy for read cycles: 357424
6banks busy for write cycles: 25341
7banks busy for read cycles: 407496
7banks busy for write cycles: 114284
8banks busy for read cycles: 1106988
8banks busy for write cycles: 1547377

CPU 0 Branch Prediction Accuracy: 99.978% MPKI: 0.02252 Average ROB Occupancy at Mispredict: 31.429
Branch types
NOT_BRANCH: 89756089 89.7561%
BRANCH_DIRECT_JUMP: 712598 0.712598%
BRANCH_INDIRECT: 16 1.6e-05%
BRANCH_CONDITIONAL: 6681200 6.6812%
BRANCH_DIRECT_CALL: 1424889 1.42489%
BRANCH_INDIRECT_CALL: 0 0%
BRANCH_RETURN: 1424891 1.42489%
BRANCH_OTHER: 0 0%

DRAM PAGES: 1048576
Allocated PAGES: 6008
