Initialize SIGNATURE TABLE
ST_SET: 1
ST_WAY: 256
ST_TAG_BIT: 16
ST_TAG_MASK: ffff

Initialize PATTERN TABLE
PT_SET: 512
PT_WAY: 4
SIG_DELTA_BIT: 7
C_SIG_BIT: 4
C_DELTA_BIT: 4

Initialize PREFETCH FILTER
FILTER_SET: 1024

*** ChampSim Multicore Out-of-Order Simulator ***

Warmup Instructions: 50000000
Simulation Instructions: 100000000
Number of CPUs: 1
LLC sets: 2048
LLC ways: 16
Off-chip DRAM Size: 4096 MB Channels: 1 Width: 64-bit Data Rate: 6400 MT/s
CPU 0 runs ../SPEC2017//654.roms_s-1070B.champsimtrace.xz
.xz
NUM_OF_IPS_IN_CRITICAL_IP_TRAINING: 64
NUM_OF_CRITICAL_IP_TRAINING_TABLE_WAYS: 2
NUM_OF_CRITICAL_IP_TRAINING_TABLE_SETS: 32
WOBBLY_CRITICAL_IP_CACHE_SETS: 32
WOBBLY_CRITICAL_IP_CACHE_WAYS: 4
BTB has LRU replacement policy
ITLB has LRU replacement policy
DTLB has LRU replacement policy
STLB has LRU replacement policy
L1I has LRU replacement policy
L1D has LRU replacement policy
Initialize SRRIP state for L2C
Initialize DRRIP state for LLC
Heartbeat CPU 0 instructions: 10000002 cycles: 3115449 heartbeat IPC: 3.20981 cumulative IPC: 3.20981 (Simulation time: 0 hr 5 min 15 sec) 
Heartbeat CPU 0 instructions: 20000002 cycles: 6334705 heartbeat IPC: 3.10631 cumulative IPC: 3.15721 (Simulation time: 0 hr 10 min 13 sec) 
Heartbeat CPU 0 instructions: 30000003 cycles: 9366909 heartbeat IPC: 3.29793 cumulative IPC: 3.20276 (Simulation time: 0 hr 14 min 35 sec) 
Heartbeat CPU 0 instructions: 40000001 cycles: 12671456 heartbeat IPC: 3.02613 cumulative IPC: 3.1567 (Simulation time: 0 hr 18 min 54 sec) 
Heartbeat CPU 0 instructions: 50000001 cycles: 15858629 heartbeat IPC: 3.13758 cumulative IPC: 3.15286 (Simulation time: 0 hr 22 min 44 sec) 

Warmup complete CPU 0 instructions: 50000001 cycles: 15858629 (Simulation time: 0 hr 22 min 44 sec) 

% increase in all ip prefetch 189.196
% increase in all ip prefetch 4.99813
% increase in all ip prefetch 29.7417
% increase in all ip prefetch 0.0422136
Heartbeat CPU 0 instructions: 60000000 cycles: 30496710 heartbeat IPC: 0.68315 cumulative IPC: 0.68315 (Simulation time: 0 hr 28 min 30 sec) 
Heartbeat CPU 0 instructions: 70000002 cycles: 39745301 heartbeat IPC: 1.08125 cumulative IPC: 0.837287 (Simulation time: 0 hr 32 min 12 sec) 
Heartbeat CPU 0 instructions: 80000003 cycles: 50284825 heartbeat IPC: 0.94881 cumulative IPC: 0.87143 (Simulation time: 0 hr 36 min 3 sec) 
Heartbeat CPU 0 instructions: 90000003 cycles: 63623160 heartbeat IPC: 0.749719 cumulative IPC: 0.837442 (Simulation time: 0 hr 40 min 37 sec) 
Heartbeat CPU 0 instructions: 100000003 cycles: 72239128 heartbeat IPC: 1.16064 cumulative IPC: 0.886831 (Simulation time: 0 hr 43 min 28 sec) 
Heartbeat CPU 0 instructions: 110000000 cycles: 87384697 heartbeat IPC: 0.660259 cumulative IPC: 0.838855 (Simulation time: 0 hr 47 min 37 sec) 
Heartbeat CPU 0 instructions: 120000002 cycles: 96111574 heartbeat IPC: 1.14589 cumulative IPC: 0.872242 (Simulation time: 0 hr 51 min 12 sec) 
Heartbeat CPU 0 instructions: 130000002 cycles: 107664872 heartbeat IPC: 0.865554 cumulative IPC: 0.8714 (Simulation time: 0 hr 58 min 30 sec) 
Heartbeat CPU 0 instructions: 140000001 cycles: 119977956 heartbeat IPC: 0.812144 cumulative IPC: 0.864393 (Simulation time: 1 hr 6 min 32 sec) 
Heartbeat CPU 0 instructions: 150000003 cycles: 128688653 heartbeat IPC: 1.14801 cumulative IPC: 0.886289 (Simulation time: 1 hr 12 min 23 sec) 
Finished CPU 0 instructions: 100000002 cycles: 112830024 cumulative IPC: 0.886289 (Simulation time: 1 hr 12 min 23 sec) 

ChampSim completed all CPUs

Region of Interest Statistics

CPU 0 cumulative IPC: 0.886289 instructions: 100000002 cycles: 112830024

CPU 0 Average Load ROB stall cycles: 3.21559e+07
CPU 0 Fraction of times ROB stalled by Loads: 44.5818
CPU 0 Percentage of Load stall cycles in Total stall cycles: 3.71958e+08
Issued all: 83604103
Issued LT all: 72868553
rob_not_full_when_issued_lt_all: 24190905
Issued LT one: 59795869
rob_not_full_when_issued_lt_one: 19747453
 Total stall cycles: 88360402
 Total load stall cycles: 328663762737515
CPU 0 NUM of IPS identified critical: 0
CPU 0 Num of Load IPs stalling ROB: 84
Threshold modification factor: -3
Max PIST entries: 28
Min PIST entries: 0
Avg PIST entries: 6.63333
Trouble in retire width: 0.970557
MaC = Marked as critical.
lt_50_percent_before_Mac: 0
gt_90_percent_before_Mac: 0
gt_75_percent_before_Mac: 0
gt_50_percent_before_Mac: 0
stall_proportion_bin_same_before_after: 0
stall_proportion_bin_lower_before_after: 0
stall_proportion_bin_upper_before_after: 0
average_stall_proportion_before: -nan
average_stall_proportion_after: -nan
Critical IP stalls, total frequency: 0
Non-critical IP stalls, total frequency: 4556680
Total Freq all stalling IPs: 4556680
stat_90_percent_critical_ip_stalls_freq: 4111821
stat_90_percent_non_critical_ip_stalls_freq: 444859
Critical_IP_ROB_Stalls_Bucket_0: 0
Non-critical_IP_ROB_Stalls_Bucket_0: 583675
Critical_IP_ROB_Stalls_Bucket_1: 0
Non-critical_IP_ROB_Stalls_Bucket_1: 1050010
Critical_IP_ROB_Stalls_Bucket_2: 0
Non-critical_IP_ROB_Stalls_Bucket_2: 253733
Critical_IP_ROB_Stalls_Bucket_3: 0
Non-critical_IP_ROB_Stalls_Bucket_3: 113771
Critical_IP_ROB_Stalls_Bucket_4: 0
Non-critical_IP_ROB_Stalls_Bucket_4: 140623
Critical_IP_ROB_Stalls_Bucket_5: 0
Non-critical_IP_ROB_Stalls_Bucket_5: 137384
Critical_IP_ROB_Stalls_Bucket_6: 0
Non-critical_IP_ROB_Stalls_Bucket_6: 2277484
0 => IPs accounting for >50 percent of stalls, 1 => 55, 2 => 60, 3 => 65 and so on till 90.
percent50: 62.1037 num IPs:  3
percent55: 62.1037 num IPs: 3
percent60: 62.1037 num IPs: 3
percent65: 72.596 num IPs: 4
percent70: 72.596 num IPs: 4
percent75: 83.0422 num IPs: 5
percent80: 83.0422 num IPs: 5
percent85: 86.7191 num IPs: 6
percent90: 90.2372 num IPs: 8
Critical_ROB_Stalls_Percent_0_Bucket_0: 8192
Non-critical_ROB_Stalls_Percent_0_Bucket_0: 575483
Critical_ROB_Stalls_Percent_0_Bucket_1: 555519
Non-critical_ROB_Stalls_Percent_0_Bucket_1: 494491
Critical_ROB_Stalls_Percent_0_Bucket_2: 103796
Non-critical_ROB_Stalls_Percent_0_Bucket_2: 149937
Critical_ROB_Stalls_Percent_0_Bucket_3: 34975
Non-critical_ROB_Stalls_Percent_0_Bucket_3: 78796
Critical_ROB_Stalls_Percent_0_Bucket_4: 43450
Non-critical_ROB_Stalls_Percent_0_Bucket_4: 97173
Critical_ROB_Stalls_Percent_0_Bucket_5: 36713
Non-critical_ROB_Stalls_Percent_0_Bucket_5: 100671
Critical_ROB_Stalls_Percent_0_Bucket_6: 2047220
Non-critical_ROB_Stalls_Percent_0_Bucket_6: 230264
Critical_ROB_Stalls_Percent_1_Bucket_0: 8192
Non-critical_ROB_Stalls_Percent_1_Bucket_0: 575483
Critical_ROB_Stalls_Percent_1_Bucket_1: 555519
Non-critical_ROB_Stalls_Percent_1_Bucket_1: 494491
Critical_ROB_Stalls_Percent_1_Bucket_2: 103796
Non-critical_ROB_Stalls_Percent_1_Bucket_2: 149937
Critical_ROB_Stalls_Percent_1_Bucket_3: 34975
Non-critical_ROB_Stalls_Percent_1_Bucket_3: 78796
Critical_ROB_Stalls_Percent_1_Bucket_4: 43450
Non-critical_ROB_Stalls_Percent_1_Bucket_4: 97173
Critical_ROB_Stalls_Percent_1_Bucket_5: 36713
Non-critical_ROB_Stalls_Percent_1_Bucket_5: 100671
Critical_ROB_Stalls_Percent_1_Bucket_6: 2047220
Non-critical_ROB_Stalls_Percent_1_Bucket_6: 230264
Critical_ROB_Stalls_Percent_2_Bucket_0: 8192
Non-critical_ROB_Stalls_Percent_2_Bucket_0: 575483
Critical_ROB_Stalls_Percent_2_Bucket_1: 555519
Non-critical_ROB_Stalls_Percent_2_Bucket_1: 494491
Critical_ROB_Stalls_Percent_2_Bucket_2: 103796
Non-critical_ROB_Stalls_Percent_2_Bucket_2: 149937
Critical_ROB_Stalls_Percent_2_Bucket_3: 34975
Non-critical_ROB_Stalls_Percent_2_Bucket_3: 78796
Critical_ROB_Stalls_Percent_2_Bucket_4: 43450
Non-critical_ROB_Stalls_Percent_2_Bucket_4: 97173
Critical_ROB_Stalls_Percent_2_Bucket_5: 36713
Non-critical_ROB_Stalls_Percent_2_Bucket_5: 100671
Critical_ROB_Stalls_Percent_2_Bucket_6: 2047220
Non-critical_ROB_Stalls_Percent_2_Bucket_6: 230264
Critical_ROB_Stalls_Percent_3_Bucket_0: 295541
Non-critical_ROB_Stalls_Percent_3_Bucket_0: 288134
Critical_ROB_Stalls_Percent_3_Bucket_1: 690104
Non-critical_ROB_Stalls_Percent_3_Bucket_1: 359906
Critical_ROB_Stalls_Percent_3_Bucket_2: 124086
Non-critical_ROB_Stalls_Percent_3_Bucket_2: 129647
Critical_ROB_Stalls_Percent_3_Bucket_3: 42228
Non-critical_ROB_Stalls_Percent_3_Bucket_3: 71543
Critical_ROB_Stalls_Percent_3_Bucket_4: 54412
Non-critical_ROB_Stalls_Percent_3_Bucket_4: 86211
Critical_ROB_Stalls_Percent_3_Bucket_5: 42967
Non-critical_ROB_Stalls_Percent_3_Bucket_5: 94417
Critical_ROB_Stalls_Percent_3_Bucket_6: 2058631
Non-critical_ROB_Stalls_Percent_3_Bucket_6: 218853
Critical_ROB_Stalls_Percent_4_Bucket_0: 295541
Non-critical_ROB_Stalls_Percent_4_Bucket_0: 288134
Critical_ROB_Stalls_Percent_4_Bucket_1: 690104
Non-critical_ROB_Stalls_Percent_4_Bucket_1: 359906
Critical_ROB_Stalls_Percent_4_Bucket_2: 124086
Non-critical_ROB_Stalls_Percent_4_Bucket_2: 129647
Critical_ROB_Stalls_Percent_4_Bucket_3: 42228
Non-critical_ROB_Stalls_Percent_4_Bucket_3: 71543
Critical_ROB_Stalls_Percent_4_Bucket_4: 54412
Non-critical_ROB_Stalls_Percent_4_Bucket_4: 86211
Critical_ROB_Stalls_Percent_4_Bucket_5: 42967
Non-critical_ROB_Stalls_Percent_4_Bucket_5: 94417
Critical_ROB_Stalls_Percent_4_Bucket_6: 2058631
Non-critical_ROB_Stalls_Percent_4_Bucket_6: 218853
Critical_ROB_Stalls_Percent_5_Bucket_0: 561587
Non-critical_ROB_Stalls_Percent_5_Bucket_0: 22088
Critical_ROB_Stalls_Percent_5_Bucket_1: 831618
Non-critical_ROB_Stalls_Percent_5_Bucket_1: 218392
Critical_ROB_Stalls_Percent_5_Bucket_2: 148161
Non-critical_ROB_Stalls_Percent_5_Bucket_2: 105572
Critical_ROB_Stalls_Percent_5_Bucket_3: 50715
Non-critical_ROB_Stalls_Percent_5_Bucket_3: 63056
Critical_ROB_Stalls_Percent_5_Bucket_4: 65163
Non-critical_ROB_Stalls_Percent_5_Bucket_4: 75460
Critical_ROB_Stalls_Percent_5_Bucket_5: 53367
Non-critical_ROB_Stalls_Percent_5_Bucket_5: 84017
Critical_ROB_Stalls_Percent_5_Bucket_6: 2073354
Non-critical_ROB_Stalls_Percent_5_Bucket_6: 204130
Critical_ROB_Stalls_Percent_6_Bucket_0: 561587
Non-critical_ROB_Stalls_Percent_6_Bucket_0: 22088
Critical_ROB_Stalls_Percent_6_Bucket_1: 831618
Non-critical_ROB_Stalls_Percent_6_Bucket_1: 218392
Critical_ROB_Stalls_Percent_6_Bucket_2: 148161
Non-critical_ROB_Stalls_Percent_6_Bucket_2: 105572
Critical_ROB_Stalls_Percent_6_Bucket_3: 50715
Non-critical_ROB_Stalls_Percent_6_Bucket_3: 63056
Critical_ROB_Stalls_Percent_6_Bucket_4: 65163
Non-critical_ROB_Stalls_Percent_6_Bucket_4: 75460
Critical_ROB_Stalls_Percent_6_Bucket_5: 53367
Non-critical_ROB_Stalls_Percent_6_Bucket_5: 84017
Critical_ROB_Stalls_Percent_6_Bucket_6: 2073354
Non-critical_ROB_Stalls_Percent_6_Bucket_6: 204130
Critical_ROB_Stalls_Percent_7_Bucket_0: 563561
Non-critical_ROB_Stalls_Percent_7_Bucket_0: 20114
Critical_ROB_Stalls_Percent_7_Bucket_1: 858253
Non-critical_ROB_Stalls_Percent_7_Bucket_1: 191757
Critical_ROB_Stalls_Percent_7_Bucket_2: 169337
Non-critical_ROB_Stalls_Percent_7_Bucket_2: 84396
Critical_ROB_Stalls_Percent_7_Bucket_3: 72065
Non-critical_ROB_Stalls_Percent_7_Bucket_3: 41706
Critical_ROB_Stalls_Percent_7_Bucket_4: 94117
Non-critical_ROB_Stalls_Percent_7_Bucket_4: 46506
Critical_ROB_Stalls_Percent_7_Bucket_5: 89800
Non-critical_ROB_Stalls_Percent_7_Bucket_5: 47584
Critical_ROB_Stalls_Percent_7_Bucket_6: 2104379
Non-critical_ROB_Stalls_Percent_7_Bucket_6: 173105
Critical_ROB_Stalls_Percent_8_Bucket_0: 563882
Non-critical_ROB_Stalls_Percent_8_Bucket_0: 19793
Critical_ROB_Stalls_Percent_8_Bucket_1: 919750
Non-critical_ROB_Stalls_Percent_8_Bucket_1: 130260
Critical_ROB_Stalls_Percent_8_Bucket_2: 201367
Non-critical_ROB_Stalls_Percent_8_Bucket_2: 52366
Critical_ROB_Stalls_Percent_8_Bucket_3: 83088
Non-critical_ROB_Stalls_Percent_8_Bucket_3: 30683
Critical_ROB_Stalls_Percent_8_Bucket_4: 109009
Non-critical_ROB_Stalls_Percent_8_Bucket_4: 31614
Critical_ROB_Stalls_Percent_8_Bucket_5: 105381
Non-critical_ROB_Stalls_Percent_8_Bucket_5: 32003
Critical_ROB_Stalls_Percent_8_Bucket_6: 2129344
Non-critical_ROB_Stalls_Percent_8_Bucket_6: 148140
Average ROB occupancy Load Stall Begin: 213.333
Average ROB occupancy Load Stall End: 223.463
Min ROB occupancy Load Stall Begin: 3
Max ROB occupancy Load Stall Begin: 352
Min ROB occupancy Load Stall End: 3
Max ROB occupancy Load Stall End: 352
Average ROB occupancy Critical Load Stall Begin: -nan
Average ROB occupancy Critical Load Stall End: -nan
Min ROB occupancy Critical Load Stall Begin: 400
Max ROB occupancy Critical Load Stall Begin: 0
Min ROB occupancy Critical Load Stall End: 400
Max ROB occupancy Critical Load Stall End: 0
 ROB Load Stall Begin Bucket Count 0: 1075508
 ROB Load Stall End Bucket Count 0: 583675
 ROB Critical Load Stall Begin Bucket Count 0: 0
 ROB Critical Load Stall End Bucket Count 0: 0
 ROB Load Stall Begin Bucket Count 1: 716427
 ROB Load Stall End Bucket Count 1: 1050010
 ROB Critical Load Stall Begin Bucket Count 1: 0
 ROB Critical Load Stall End Bucket Count 1: 0
 ROB Load Stall Begin Bucket Count 2: 154137
 ROB Load Stall End Bucket Count 2: 253733
 ROB Critical Load Stall Begin Bucket Count 2: 0
 ROB Critical Load Stall End Bucket Count 2: 0
 ROB Load Stall Begin Bucket Count 3: 122379
 ROB Load Stall End Bucket Count 3: 113771
 ROB Critical Load Stall Begin Bucket Count 3: 0
 ROB Critical Load Stall End Bucket Count 3: 0
 ROB Load Stall Begin Bucket Count 4: 144472
 ROB Load Stall End Bucket Count 4: 140623
 ROB Critical Load Stall Begin Bucket Count 4: 0
 ROB Critical Load Stall End Bucket Count 4: 0
 ROB Load Stall Begin Bucket Count 5: 132196
 ROB Load Stall End Bucket Count 5: 137384
 ROB Critical Load Stall Begin Bucket Count 5: 0
 ROB Critical Load Stall End Bucket Count 5: 0
 ROB Load Stall Begin Bucket Count 6: 2211561
 ROB Load Stall End Bucket Count 6: 2277484
 ROB Critical Load Stall Begin Bucket Count 6: 0
 ROB Critical Load Stall End Bucket Count 6: 0
PIST Tag Read Accesses: 45528
PIST Read Accesses: 22764
PIST Tag Write Accesses: 45528
PIST Write Accesses: 22764
Criticality detector called times: 23799
Max global_stall_cycles_count: 347196
Threshold Modified: 3 times, factor: -3
Sturdy critical IP cache stats: 
 Unused entries: 0
CIC Tag Read Accesses: 0
CIC Read Accesses: 0
CIC Tag Write Accesses: 0
CIC Write Accesses: 0
Wobbly critical IP cache stats: 
 Unused entries: 94
CIC Tag Read Accesses: 234183405
CIC Read Accesses: 0
CIC Tag Write Accesses: 5469942
CIC Write Accesses: 0
ITLB TOTAL     ACCESS:   15086338  HIT:   15086338  MISS:          0  HIT %:        100  MISS %:          0   MPKI: 0
ITLB LOAD TRANSLATION ACCESS:   15086338  HIT:   15086338  MISS:          0  HIT %:        100  MISS %:          0   MPKI: 0
ITLB PREFETCH  REQUESTED:          0  ISSUED:          0  USEFUL:          0  USELESS:          0
ITLB USEFUL LOAD PREFETCHES:          0 PREFETCH ISSUED TO LOWER LEVEL:          0  ACCURACY: -nan
ITLB TIMELY PREFETCHES:          0 LATE PREFETCHES: 0 DROPPED PREFETCHES: 0
ITLB PREFETCHES SAME FILL-ORIGIN LEVEL: 0 DIFFERENT FILL-ORIGIN LEVEL: 0
ITLB AVERAGE MISS LATENCY: -nan cycles
ITLB RQ	ACCESS:   16167521	FORWARD:          0	MERGED:    1081184	TO_CACHE:   15086337

DTLB TOTAL     ACCESS:   25388291  HIT:   25339543  MISS:      48748  HIT %:     99.808  MISS %:    0.19201   MPKI: 0.48748
DTLB LOAD TRANSLATION ACCESS:   25388291  HIT:   25339543  MISS:      48748  HIT %:     99.808  MISS %:    0.19201   MPKI: 0.48748
DTLB PREFETCH  REQUESTED:          0  ISSUED:          0  USEFUL:          0  USELESS:          0
DTLB USEFUL LOAD PREFETCHES:          0 PREFETCH ISSUED TO LOWER LEVEL:          0  ACCURACY: -nan
DTLB TIMELY PREFETCHES:          0 LATE PREFETCHES: 0 DROPPED PREFETCHES: 0
DTLB PREFETCHES SAME FILL-ORIGIN LEVEL: 0 DIFFERENT FILL-ORIGIN LEVEL: 0
DTLB AVERAGE MISS LATENCY: 190.653 cycles
DTLB RQ	ACCESS:   28189884	FORWARD:          0	MERGED:    2752371	TO_CACHE:   25437513

STLB TOTAL     ACCESS:      48748  HIT:         41  MISS:      48707  HIT %:   0.084106  MISS %:    99.9159   MPKI: 0.48707
STLB LOAD TRANSLATION ACCESS:      48748  HIT:         41  MISS:      48707  HIT %:   0.084106  MISS %:    99.9159   MPKI: 0.48707
STLB PREFETCH  REQUESTED:          0  ISSUED:          0  USEFUL:          0  USELESS:          0
STLB USEFUL LOAD PREFETCHES:          0 PREFETCH ISSUED TO LOWER LEVEL:          0  ACCURACY: -nan
STLB TIMELY PREFETCHES:          0 LATE PREFETCHES: 0 DROPPED PREFETCHES: 0
STLB PREFETCHES SAME FILL-ORIGIN LEVEL: 0 DIFFERENT FILL-ORIGIN LEVEL: 0
STLB AVERAGE MISS LATENCY: 181.212 cycles
STLB RQ	ACCESS:      48748	FORWARD:          0	MERGED:          0	TO_CACHE:      48748

STLB Hit, L1D data hit: 0
STLB Hit, L2C data hit: 0
STLB Hit, LLC data hit: 0
STLB Hit, LLC data miss: 0
STLB STLB hints to L2: 0
L1D TOTAL     ACCESS:   23824379  HIT:   21641924  MISS:    2182455  HIT %:    90.8394  MISS %:     9.1606   MPKI: 21.8245
L1D LOAD      ACCESS:   22280878  HIT:   20780919  MISS:    1499959  HIT %:     93.268  MISS %:    6.73205   MPKI: 14.9996
L1D RFO       ACCESS:    1543501  HIT:     861005  MISS:     682496  HIT %:    55.7826  MISS %:    44.2174   MPKI: 6.82496
L1D PREFETCH  REQUESTED:          0  ISSUED:          0  USEFUL:          0  USELESS:          0
L1D USEFUL LOAD PREFETCHES:          0 PREFETCH ISSUED TO LOWER LEVEL:          0  ACCURACY: -nan
L1D TIMELY PREFETCHES:          0 LATE PREFETCHES: 0 DROPPED PREFETCHES: 0
L1D PREFETCHES SAME FILL-ORIGIN LEVEL: 0 DIFFERENT FILL-ORIGIN LEVEL: 0
L1D AVERAGE MISS LATENCY: 128.754 cycles
L1D RQ	ACCESS:   37614366	FORWARD:          0	MERGED:   14853016	TO_CACHE:   22761350
L1D WQ	ACCESS:    5428534	FORWARD:          0	MERGED:          0	TO_CACHE:    5428534

L1D UNIQUE REGIONS ACCESSED: 0
L1D REGIONS CONFLICTS: 0
L1D Cross Page Prefetch Requests: 0
L1D Same Page Prefetch Requests: 0
L1D ROI Sum of L1D PQ occupancy: 0
L1D PREFETCHES PUSHED FROM L2C: 0
L1I TOTAL     ACCESS:   16167521  HIT:   16167521  MISS:          0  HIT %:        100  MISS %:          0   MPKI: 0
L1I LOAD      ACCESS:   16167521  HIT:   16167521  MISS:          0  HIT %:        100  MISS %:          0   MPKI: 0
L1I PREFETCH  REQUESTED:          0  ISSUED:          0  USEFUL:          0  USELESS:          0
L1I USEFUL LOAD PREFETCHES:          0 PREFETCH ISSUED TO LOWER LEVEL:          0  ACCURACY: -nan
L1I TIMELY PREFETCHES:          0 LATE PREFETCHES: 0 DROPPED PREFETCHES: 0
L1I PREFETCHES SAME FILL-ORIGIN LEVEL: 0 DIFFERENT FILL-ORIGIN LEVEL: 0
L1I AVERAGE MISS LATENCY: -nan cycles
L1I RQ	ACCESS:   25987941	FORWARD:          0	MERGED:    9820420	TO_CACHE:   16167521

BTB TOTAL     ACCESS:    5346355  HIT:    5346346  MISS:          9  HIT %:    99.9998  MISS %: 0.000168339   MPKI: 9e-05
BTB BRANCH_DIRECT_JUMP	ACCESS:          0  HIT:          0  MISS:          0
BTB BRANCH_INDIRECT	ACCESS:          0  HIT:          0  MISS:          0
BTB BRANCH_CONDITIONAL	ACCESS:    5346355  HIT:    5346346  MISS:          9
BTB BRANCH_DIRECT_CALL	ACCESS:          0  HIT:          0  MISS:          0
BTB BRANCH_INDIRECT_CALL	ACCESS:          0  HIT:          0  MISS:          0
BTB BRANCH_RETURN	ACCESS:          0  HIT:          0  MISS:          0
BTB BRANCH_OTHER ACCESS:          0  HIT:          0  MISS:          0

L2C TOTAL     ACCESS:    3900858  HIT:    1686061  MISS:    2214797  HIT %:    43.2228  MISS %:    56.7772   MPKI: 22.148
L2C LOAD      ACCESS:    1499960  HIT:     977148  MISS:     522812  HIT %:    65.1449  MISS %:    34.8551   MPKI: 5.22812
L2C DATA LOAD MPKI: 5.22812
L2C INSTRUCTION LOAD MPKI: 0
L2C RFO       ACCESS:     682496  HIT:          0  MISS:     682496  HIT %:          0  MISS %:        100   MPKI: 6.82496
L2C PREFETCH  ACCESS:     987398  HIT:       1267  MISS:     986131  HIT %:   0.128317  MISS %:    99.8717   MPKI: 9.86131
L2C DATA PREFETCH MPKI: 9.86131
L2C INSTRUCTION PREFETCH MPKI: 0
L2C WRITEBACK ACCESS:     682232  HIT:     669002  MISS:      13230  HIT %:    98.0608  MISS %:    1.93922   MPKI: 0.1323
L2C LOAD TRANSLATION ACCESS:      48772  HIT:      38644  MISS:      10128  HIT %:     79.234  MISS %:     20.766   MPKI: 0.10128
L2C PREFETCH  REQUESTED:   10532587  ISSUED:    9430648  USEFUL:     977143  USELESS:       8995
L2C USEFUL LOAD PREFETCHES:     977143 PREFETCH ISSUED TO LOWER LEVEL:    9363376  ACCURACY: 10.4358
L2C TIMELY PREFETCHES:     977143 LATE PREFETCHES: 42145 DROPPED PREFETCHES: 0
L2C PREFETCHES SAME FILL-ORIGIN LEVEL: 1028276 DIFFERENT FILL-ORIGIN LEVEL: 8335100
L2C AVERAGE MISS LATENCY: 130.783 cycles
L2C RQ	ACCESS:    2231235	FORWARD:          0	MERGED:          0	TO_CACHE:    2231235
L2C WQ	ACCESS:     682232	FORWARD:          0	MERGED:          0	TO_CACHE:     682232
L2C PQ	ACCESS:    9430648	FORWARD:          0	MERGED:      53564	TO_CACHE:    9377084

L2C Instructions Evicting Data 0
L2C Translations Evicting Data 10098
L2C Data Evicting Data 2181427
L2C Instructions Evicting Instructions 0
L2C Translations Evicting Instructions 0
L2C Data Evicting Instructions 0
L2C Instructions Evicting Translations 0
L2C Translations Evicting Translations 30
L2C Data Evicting Translations 10012
L2C Dense regions hint from L2: 0
PSCL5 TOTAL     ACCESS:      48707  HIT:      48707  MISS:          0  HIT %:        100  MISS %:          0   MPKI: 0
PSCL5 LOAD TRANSLATION ACCESS:      48707  HIT:      48707  MISS:          0  HIT %:        100  MISS %:          0   MPKI: 0
PSCL5 PREFETCH  REQUESTED:          0  ISSUED:          0  USEFUL:          0  USELESS:          0
PSCL5 USEFUL LOAD PREFETCHES:          0 PREFETCH ISSUED TO LOWER LEVEL:          0  ACCURACY: -nan
PSCL5 TIMELY PREFETCHES:          0 LATE PREFETCHES: 0 DROPPED PREFETCHES: 0
PSCL5 PREFETCHES SAME FILL-ORIGIN LEVEL: 0 DIFFERENT FILL-ORIGIN LEVEL: 0

PSCL4 TOTAL     ACCESS:      48707  HIT:      48707  MISS:          0  HIT %:        100  MISS %:          0   MPKI: 0
PSCL4 LOAD TRANSLATION ACCESS:      48707  HIT:      48707  MISS:          0  HIT %:        100  MISS %:          0   MPKI: 0
PSCL4 PREFETCH  REQUESTED:          0  ISSUED:          0  USEFUL:          0  USELESS:          0
PSCL4 USEFUL LOAD PREFETCHES:          0 PREFETCH ISSUED TO LOWER LEVEL:          0  ACCURACY: -nan
PSCL4 TIMELY PREFETCHES:          0 LATE PREFETCHES: 0 DROPPED PREFETCHES: 0
PSCL4 PREFETCHES SAME FILL-ORIGIN LEVEL: 0 DIFFERENT FILL-ORIGIN LEVEL: 0

PSCL3 TOTAL     ACCESS:      48707  HIT:      48707  MISS:          0  HIT %:        100  MISS %:          0   MPKI: 0
PSCL3 LOAD TRANSLATION ACCESS:      48707  HIT:      48707  MISS:          0  HIT %:        100  MISS %:          0   MPKI: 0
PSCL3 PREFETCH  REQUESTED:          0  ISSUED:          0  USEFUL:          0  USELESS:          0
PSCL3 USEFUL LOAD PREFETCHES:          0 PREFETCH ISSUED TO LOWER LEVEL:          0  ACCURACY: -nan
PSCL3 TIMELY PREFETCHES:          0 LATE PREFETCHES: 0 DROPPED PREFETCHES: 0
PSCL3 PREFETCHES SAME FILL-ORIGIN LEVEL: 0 DIFFERENT FILL-ORIGIN LEVEL: 0

PSCL2 TOTAL     ACCESS:      48707  HIT:      48570  MISS:        137  HIT %:    99.7187  MISS %:   0.281274   MPKI: 0.00137
PSCL2 LOAD TRANSLATION ACCESS:      48707  HIT:      48570  MISS:        137  HIT %:    99.7187  MISS %:   0.281274   MPKI: 0.00137
PSCL2 PREFETCH  REQUESTED:          0  ISSUED:          0  USEFUL:          0  USELESS:          0
PSCL2 USEFUL LOAD PREFETCHES:          0 PREFETCH ISSUED TO LOWER LEVEL:          0  ACCURACY: -nan
PSCL2 TIMELY PREFETCHES:          0 LATE PREFETCHES: 0 DROPPED PREFETCHES: 0
PSCL2 PREFETCHES SAME FILL-ORIGIN LEVEL: 0 DIFFERENT FILL-ORIGIN LEVEL: 0

LLC TOTAL     ACCESS:   10369670  HIT:    7985212  MISS:    2384458  HIT %:    77.0055  MISS %:    22.9945   MPKI: 23.8446
LLC LOAD      ACCESS:     480667  HIT:     410475  MISS:      70192  HIT %:     85.397  MISS %:     14.603   MPKI: 0.70192
LLC RFO       ACCESS:     682496  HIT:          0  MISS:     682496  HIT %:          0  MISS %:        100   MPKI: 6.82496
LLC PREFETCH  ACCESS:    8517409  HIT:    7010216  MISS:    1507193  HIT %:    82.3046  MISS %:    17.6954   MPKI: 15.0719
LLC WRITEBACK ACCESS:     678970  HIT:     564401  MISS:     114569  HIT %:    83.1261  MISS %:    16.8739   MPKI: 1.14569
LLC LOAD TRANSLATION ACCESS:      10128  HIT:        120  MISS:      10008  HIT %:    1.18483  MISS %:    98.8152   MPKI: 0.10008
LLC PREFETCH  REQUESTED:          0  ISSUED:          0  USEFUL:     410473  USELESS:    1103384
LLC USEFUL LOAD PREFETCHES:     410473 PREFETCH ISSUED TO LOWER LEVEL:    1515610  ACCURACY: 27.083
LLC TIMELY PREFETCHES:     410473 LATE PREFETCHES: 8415 DROPPED PREFETCHES: 0
LLC PREFETCHES SAME FILL-ORIGIN LEVEL: 1478516 DIFFERENT FILL-ORIGIN LEVEL: 0
LLC AVERAGE MISS LATENCY: 249.95 cycles
LLC RQ	ACCESS:    1173297	FORWARD:          0	MERGED:          0	TO_CACHE:    1173297
LLC WQ	ACCESS:     678971	FORWARD:          0	MERGED:          0	TO_CACHE:     678971
LLC PQ	ACCESS:    9363376	FORWARD:          0	MERGED:      13818	TO_CACHE:    9349558

LLC Dense regions hint to LLC: 0

RAW hits: 10
Loads Generated: 37614382
Loads sent to L1D: 37614366
Stores Generated: 5428535
Stores sent to L1D: 5428534
Major fault: 0 Minor fault: 32209
Allocated PAGES: 32209
 All Calls: 2248240
 Critical Calls: 2248240
------------------
Depth Distribution
------------------
depth 0: 0
depth 1: 2093977
depth 2: 2004288
depth 3: 1932117
depth 4: 1857528
depth 5: 1762659
depth 6: 1578151
depth 7: 1159607
depth 8: 809394
depth 9: 372894
depth 10: 274658
depth 11: 218455
depth 12: 155649
depth 13: 89274
depth 14: 20077
depth 15: 19536
depth 16: 4
depth 17: 0
depth 18: 0
depth 19: 0
depth 20: 0
depth 21: 0
depth 22: 0
depth 23: 0
depth 24: 0
depth 25: 0
depth 26: 0
depth 27: 0
depth 28: 0
depth 29: 0
Total: 14348268
-----------------------------
-----------------------------
	Captured at Filter
-----------------------------
depth 0: 0
depth 1: 11924
depth 2: 11341
depth 3: 11290
depth 4: 10907
depth 5: 10698
depth 6: 9771
depth 7: 6751
depth 8: 4777
depth 9: 2014
depth 10: 1334
depth 11: 1046
depth 12: 737
depth 13: 477
depth 14: 85
depth 15: 100
depth 16: 0
depth 17: 0
depth 18: 0
depth 19: 0
depth 20: 0
depth 21: 0
depth 22: 0
depth 23: 0
depth 24: 0
depth 25: 0
depth 26: 0
depth 27: 0
depth 28: 0
depth 29: 0
-----------------------------
-----------------------------
		Lost at Page
-----------------------------
depth 0: 0
depth 1: 34871
depth 2: 69630
depth 3: 104453
depth 4: 139273
depth 5: 174076
depth 6: 194891
depth 7: 168087
depth 8: 141069
depth 9: 74285
depth 10: 54740
depth 11: 48649
depth 12: 33484
depth 13: 22398
depth 14: 3208
depth 15: 3592
depth 16: 2
depth 17: 0
depth 18: 0
depth 19: 0
depth 20: 0
depth 21: 0
depth 22: 0
depth 23: 0
depth 24: 0
depth 25: 0
depth 26: 0
depth 27: 0
depth 28: 0
depth 29: 0
-----------------------------
-----------------------------
	Lost due to PQ Size
-----------------------------
1771130
-----------------------------
ST read accesses: 1463979
ST write accesses: 35981
PT read accesses: 64398320
PT write accesses: 2179465
FILTER read accesses: 14304980
FILTER write accesses: 4275452
GHR read accesses: 3136093
GHR write accesses: 808857
GHR counter read accesses: 54543472
GHR counter write accesses: 3620025
ST tag read accesses: 594732925
ST tag write accesses: 16415018

DRAM Statistics
 CHANNEL 0
 RQ ROW_BUFFER_HIT:     447699  ROW_BUFFER_MISS:    1822190
 DBUS_CONGESTED:        319
 WQ ROW_BUFFER_HIT:     199750  ROW_BUFFER_MISS:     473660  FULL:          0

 AVG_CONGESTED_CYCLE: 4
 All warmup complete: 2
Channel 0 Bank busy for read cycles: 0
Channel 0 Bank busy for write cycles: 0
Channel 0
Rank 0
0banks busy for read cycles: 194068
0banks busy for write cycles: 0
1banks busy for read cycles: 17172576
1banks busy for write cycles: 188072
2banks busy for read cycles: 23783659
2banks busy for write cycles: 187651
3banks busy for read cycles: 15596217
3banks busy for write cycles: 186896
4banks busy for read cycles: 12027153
4banks busy for write cycles: 187665
5banks busy for read cycles: 6128256
5banks busy for write cycles: 193967
6banks busy for read cycles: 3976125
6banks busy for write cycles: 248223
7banks busy for read cycles: 3639195
7banks busy for write cycles: 1601249
8banks busy for read cycles: 7883332
8banks busy for write cycles: 19635721

CPU 0 Branch Prediction Accuracy: 99.8815% MPKI: 0.0634 Average ROB Occupancy at Mispredict: 220.219
Branch types
NOT_BRANCH: 94651514 94.6515%
BRANCH_DIRECT_JUMP: 0 0%
BRANCH_INDIRECT: 0 0%
BRANCH_CONDITIONAL: 5348417 5.34842%
BRANCH_DIRECT_CALL: 0 0%
BRANCH_INDIRECT_CALL: 0 0%
BRANCH_RETURN: 0 0%
BRANCH_OTHER: 0 0%

DRAM PAGES: 1048576
Allocated PAGES: 32209
