
*** ChampSim Multicore Out-of-Order Simulator ***

Warmup Instructions: 50000000
Simulation Instructions: 100000000
Number of CPUs: 1
LLC sets: 2048
LLC ways: 16
Off-chip DRAM Size: 4096 MB Channels: 1 Width: 64-bit Data Rate: 6400 MT/s
CPU 0 runs ../SPEC2017//654.roms_s-523B.champsimtrace.xz
.xz
BTB has LRU replacement policy
ITLB has LRU replacement policy
DTLB has LRU replacement policy
STLB has LRU replacement policy
L1I has LRU replacement policy
L1D has LRU replacement policy
Bingo PHT WAYS: 16 and PHT_SIZE: 16384
Initialize SRRIP state for L2C
Initialize DRRIP state for LLC
Heartbeat CPU 0 instructions: 10000002 cycles: 2899238 heartbeat IPC: 3.44918 cumulative IPC: 3.44918 (Simulation time: 0 hr 1 min 37 sec) 
Heartbeat CPU 0 instructions: 20000001 cycles: 5752033 heartbeat IPC: 3.50533 cumulative IPC: 3.47703 (Simulation time: 0 hr 2 min 47 sec) 
Heartbeat CPU 0 instructions: 30000003 cycles: 9279289 heartbeat IPC: 2.83507 cumulative IPC: 3.23301 (Simulation time: 0 hr 4 min 25 sec) 
Heartbeat CPU 0 instructions: 40000000 cycles: 12557748 heartbeat IPC: 3.05021 cumulative IPC: 3.18528 (Simulation time: 0 hr 5 min 41 sec) 
Heartbeat CPU 0 instructions: 50000001 cycles: 15647559 heartbeat IPC: 3.23644 cumulative IPC: 3.19539 (Simulation time: 0 hr 7 min 4 sec) 

Warmup complete CPU 0 instructions: 50000001 cycles: 15647559 (Simulation time: 0 hr 7 min 4 sec) 

Heartbeat CPU 0 instructions: 60000003 cycles: 27318513 heartbeat IPC: 0.856828 cumulative IPC: 0.856828 (Simulation time: 0 hr 8 min 55 sec) 
Heartbeat CPU 0 instructions: 70000000 cycles: 37927370 heartbeat IPC: 0.942608 cumulative IPC: 0.897674 (Simulation time: 0 hr 10 min 30 sec) 
Heartbeat CPU 0 instructions: 80000002 cycles: 47409643 heartbeat IPC: 1.0546 cumulative IPC: 0.944522 (Simulation time: 0 hr 11 min 35 sec) 
Heartbeat CPU 0 instructions: 90000003 cycles: 59378555 heartbeat IPC: 0.835498 cumulative IPC: 0.914683 (Simulation time: 0 hr 12 min 33 sec) 
Heartbeat CPU 0 instructions: 100000001 cycles: 71116966 heartbeat IPC: 0.851904 cumulative IPC: 0.901398 (Simulation time: 0 hr 13 min 14 sec) 
Heartbeat CPU 0 instructions: 110000000 cycles: 85060122 heartbeat IPC: 0.717198 cumulative IPC: 0.864397 (Simulation time: 0 hr 13 min 52 sec) 
Heartbeat CPU 0 instructions: 120000000 cycles: 99126300 heartbeat IPC: 0.710925 cumulative IPC: 0.838537 (Simulation time: 0 hr 14 min 26 sec) 
Heartbeat CPU 0 instructions: 130000002 cycles: 110010556 heartbeat IPC: 0.918758 cumulative IPC: 0.84779 (Simulation time: 0 hr 15 min 0 sec) 
Heartbeat CPU 0 instructions: 140000001 cycles: 120943113 heartbeat IPC: 0.914699 cumulative IPC: 0.854737 (Simulation time: 0 hr 15 min 36 sec) 
Heartbeat CPU 0 instructions: 150000000 cycles: 131193313 heartbeat IPC: 0.975591 cumulative IPC: 0.865458 (Simulation time: 0 hr 16 min 12 sec) 
Finished CPU 0 instructions: 100000003 cycles: 115545755 cumulative IPC: 0.865458 (Simulation time: 0 hr 16 min 12 sec) 

ChampSim completed all CPUs

Region of Interest Statistics

CPU 0 cumulative IPC: 0.865458 instructions: 100000003 cycles: 115545755

CPU 0 Average Load ROB stall cycles: 2.66011e+07
CPU 0 Fraction of times ROB stalled by Loads: 35.5358
CPU 0 Percentage of Load stall cycles in Total stall cycles: 3.31751e+08
Issued all: 66741613
Issued LT all: 54561289
rob_not_full_when_issued_lt_all: 39452577
Issued LT one: 47187322
rob_not_full_when_issued_lt_one: 33549431
FVP critical_dynamic_instances_0: 34799964
FVP unique_critical_ips_0: 268
 Total stall cycles: 91932697
 Total load stall cycles: 304987677170998
Unique Load IPs: 551
CPU 0 NUM of IPS identified critical: 0
CPU 0 Num of Load IPs stalling ROB: 0
Threshold modification factor: 0
Trouble in retire width: -nan
MaC = Marked as critical.
lt_50_percent_before_Mac: 0
gt_90_percent_before_Mac: 0
gt_75_percent_before_Mac: 0
gt_50_percent_before_Mac: 0
stall_proportion_bin_same_before_after: 0
stall_proportion_bin_lower_before_after: 0
stall_proportion_bin_upper_before_after: 0
average_stall_proportion_before: -nan
average_stall_proportion_after: -nan
Critical IP stalls, total frequency: 0
Non-critical IP stalls, total frequency: 0
Total Freq all stalling IPs: 0
Critical_IP_Detector_Accuracy_70: 0.00373134
Critical_IP_Detector_Accuracy_80: 0.00373134
Critical_IP_Detector_Accuracy_90: 0.00373134
Critical_IP_Detector_Coverage_70: 1
Critical_IP_Detector_Coverage_80: 1
Critical_IP_Detector_Coverage_90: 1
stat_90_percent_critical_ip_stalls_freq: 282331
stat_90_percent_non_critical_ip_stalls_freq: 18446744073709269285
AVERAGE_ROB_Occupancy_90_Percent_Critical_IP_Stalls: 45.5618
AVERAGE_ROB_Occupancy_90_Percent_Non_Critical_IP_Stalls: 2.68072e-11
Critical_IP_ROB_Stalls_Bucket_0: 0
Non-critical_IP_ROB_Stalls_Bucket_0: 1411114
Critical_IP_ROB_Stalls_Bucket_1: 0
Non-critical_IP_ROB_Stalls_Bucket_1: 1168582
Critical_IP_ROB_Stalls_Bucket_2: 0
Non-critical_IP_ROB_Stalls_Bucket_2: 259656
Critical_IP_ROB_Stalls_Bucket_3: 0
Non-critical_IP_ROB_Stalls_Bucket_3: 205583
Critical_IP_ROB_Stalls_Bucket_4: 0
Non-critical_IP_ROB_Stalls_Bucket_4: 195721
Critical_IP_ROB_Stalls_Bucket_5: 0
Non-critical_IP_ROB_Stalls_Bucket_5: 234626
Critical_IP_ROB_Stalls_Bucket_6: 0
Non-critical_IP_ROB_Stalls_Bucket_6: 598979
0 => IPs accounting for >50 percent of stalls, 1 => 55, 2 => 60, 3 => 65 and so on till 90.
percent50: inf num IPs:  1
percent55: inf num IPs: 1
percent60: inf num IPs: 1
percent65: inf num IPs: 1
percent70: inf num IPs: 1
percent75: inf num IPs: 1
percent80: inf num IPs: 1
percent85: inf num IPs: 1
percent90: inf num IPs: 1
Critical_ROB_Stalls_Percent_0_Bucket_0: 246432
Non-critical_ROB_Stalls_Percent_0_Bucket_0: 1164682
Critical_ROB_Stalls_Percent_0_Bucket_1: 17037
Non-critical_ROB_Stalls_Percent_0_Bucket_1: 1151545
Critical_ROB_Stalls_Percent_0_Bucket_2: 4205
Non-critical_ROB_Stalls_Percent_0_Bucket_2: 255451
Critical_ROB_Stalls_Percent_0_Bucket_3: 5326
Non-critical_ROB_Stalls_Percent_0_Bucket_3: 200257
Critical_ROB_Stalls_Percent_0_Bucket_4: 2641
Non-critical_ROB_Stalls_Percent_0_Bucket_4: 193080
Critical_ROB_Stalls_Percent_0_Bucket_5: 2342
Non-critical_ROB_Stalls_Percent_0_Bucket_5: 232284
Critical_ROB_Stalls_Percent_0_Bucket_6: 4348
Non-critical_ROB_Stalls_Percent_0_Bucket_6: 594631
Critical_ROB_Stalls_Percent_1_Bucket_0: 246432
Non-critical_ROB_Stalls_Percent_1_Bucket_0: 1164682
Critical_ROB_Stalls_Percent_1_Bucket_1: 17037
Non-critical_ROB_Stalls_Percent_1_Bucket_1: 1151545
Critical_ROB_Stalls_Percent_1_Bucket_2: 4205
Non-critical_ROB_Stalls_Percent_1_Bucket_2: 255451
Critical_ROB_Stalls_Percent_1_Bucket_3: 5326
Non-critical_ROB_Stalls_Percent_1_Bucket_3: 200257
Critical_ROB_Stalls_Percent_1_Bucket_4: 2641
Non-critical_ROB_Stalls_Percent_1_Bucket_4: 193080
Critical_ROB_Stalls_Percent_1_Bucket_5: 2342
Non-critical_ROB_Stalls_Percent_1_Bucket_5: 232284
Critical_ROB_Stalls_Percent_1_Bucket_6: 4348
Non-critical_ROB_Stalls_Percent_1_Bucket_6: 594631
Critical_ROB_Stalls_Percent_2_Bucket_0: 246432
Non-critical_ROB_Stalls_Percent_2_Bucket_0: 1164682
Critical_ROB_Stalls_Percent_2_Bucket_1: 17037
Non-critical_ROB_Stalls_Percent_2_Bucket_1: 1151545
Critical_ROB_Stalls_Percent_2_Bucket_2: 4205
Non-critical_ROB_Stalls_Percent_2_Bucket_2: 255451
Critical_ROB_Stalls_Percent_2_Bucket_3: 5326
Non-critical_ROB_Stalls_Percent_2_Bucket_3: 200257
Critical_ROB_Stalls_Percent_2_Bucket_4: 2641
Non-critical_ROB_Stalls_Percent_2_Bucket_4: 193080
Critical_ROB_Stalls_Percent_2_Bucket_5: 2342
Non-critical_ROB_Stalls_Percent_2_Bucket_5: 232284
Critical_ROB_Stalls_Percent_2_Bucket_6: 4348
Non-critical_ROB_Stalls_Percent_2_Bucket_6: 594631
Critical_ROB_Stalls_Percent_3_Bucket_0: 246432
Non-critical_ROB_Stalls_Percent_3_Bucket_0: 1164682
Critical_ROB_Stalls_Percent_3_Bucket_1: 17037
Non-critical_ROB_Stalls_Percent_3_Bucket_1: 1151545
Critical_ROB_Stalls_Percent_3_Bucket_2: 4205
Non-critical_ROB_Stalls_Percent_3_Bucket_2: 255451
Critical_ROB_Stalls_Percent_3_Bucket_3: 5326
Non-critical_ROB_Stalls_Percent_3_Bucket_3: 200257
Critical_ROB_Stalls_Percent_3_Bucket_4: 2641
Non-critical_ROB_Stalls_Percent_3_Bucket_4: 193080
Critical_ROB_Stalls_Percent_3_Bucket_5: 2342
Non-critical_ROB_Stalls_Percent_3_Bucket_5: 232284
Critical_ROB_Stalls_Percent_3_Bucket_6: 4348
Non-critical_ROB_Stalls_Percent_3_Bucket_6: 594631
Critical_ROB_Stalls_Percent_4_Bucket_0: 246432
Non-critical_ROB_Stalls_Percent_4_Bucket_0: 1164682
Critical_ROB_Stalls_Percent_4_Bucket_1: 17037
Non-critical_ROB_Stalls_Percent_4_Bucket_1: 1151545
Critical_ROB_Stalls_Percent_4_Bucket_2: 4205
Non-critical_ROB_Stalls_Percent_4_Bucket_2: 255451
Critical_ROB_Stalls_Percent_4_Bucket_3: 5326
Non-critical_ROB_Stalls_Percent_4_Bucket_3: 200257
Critical_ROB_Stalls_Percent_4_Bucket_4: 2641
Non-critical_ROB_Stalls_Percent_4_Bucket_4: 193080
Critical_ROB_Stalls_Percent_4_Bucket_5: 2342
Non-critical_ROB_Stalls_Percent_4_Bucket_5: 232284
Critical_ROB_Stalls_Percent_4_Bucket_6: 4348
Non-critical_ROB_Stalls_Percent_4_Bucket_6: 594631
Critical_ROB_Stalls_Percent_5_Bucket_0: 246432
Non-critical_ROB_Stalls_Percent_5_Bucket_0: 1164682
Critical_ROB_Stalls_Percent_5_Bucket_1: 17037
Non-critical_ROB_Stalls_Percent_5_Bucket_1: 1151545
Critical_ROB_Stalls_Percent_5_Bucket_2: 4205
Non-critical_ROB_Stalls_Percent_5_Bucket_2: 255451
Critical_ROB_Stalls_Percent_5_Bucket_3: 5326
Non-critical_ROB_Stalls_Percent_5_Bucket_3: 200257
Critical_ROB_Stalls_Percent_5_Bucket_4: 2641
Non-critical_ROB_Stalls_Percent_5_Bucket_4: 193080
Critical_ROB_Stalls_Percent_5_Bucket_5: 2342
Non-critical_ROB_Stalls_Percent_5_Bucket_5: 232284
Critical_ROB_Stalls_Percent_5_Bucket_6: 4348
Non-critical_ROB_Stalls_Percent_5_Bucket_6: 594631
Critical_ROB_Stalls_Percent_6_Bucket_0: 246432
Non-critical_ROB_Stalls_Percent_6_Bucket_0: 1164682
Critical_ROB_Stalls_Percent_6_Bucket_1: 17037
Non-critical_ROB_Stalls_Percent_6_Bucket_1: 1151545
Critical_ROB_Stalls_Percent_6_Bucket_2: 4205
Non-critical_ROB_Stalls_Percent_6_Bucket_2: 255451
Critical_ROB_Stalls_Percent_6_Bucket_3: 5326
Non-critical_ROB_Stalls_Percent_6_Bucket_3: 200257
Critical_ROB_Stalls_Percent_6_Bucket_4: 2641
Non-critical_ROB_Stalls_Percent_6_Bucket_4: 193080
Critical_ROB_Stalls_Percent_6_Bucket_5: 2342
Non-critical_ROB_Stalls_Percent_6_Bucket_5: 232284
Critical_ROB_Stalls_Percent_6_Bucket_6: 4348
Non-critical_ROB_Stalls_Percent_6_Bucket_6: 594631
Critical_ROB_Stalls_Percent_7_Bucket_0: 246432
Non-critical_ROB_Stalls_Percent_7_Bucket_0: 1164682
Critical_ROB_Stalls_Percent_7_Bucket_1: 17037
Non-critical_ROB_Stalls_Percent_7_Bucket_1: 1151545
Critical_ROB_Stalls_Percent_7_Bucket_2: 4205
Non-critical_ROB_Stalls_Percent_7_Bucket_2: 255451
Critical_ROB_Stalls_Percent_7_Bucket_3: 5326
Non-critical_ROB_Stalls_Percent_7_Bucket_3: 200257
Critical_ROB_Stalls_Percent_7_Bucket_4: 2641
Non-critical_ROB_Stalls_Percent_7_Bucket_4: 193080
Critical_ROB_Stalls_Percent_7_Bucket_5: 2342
Non-critical_ROB_Stalls_Percent_7_Bucket_5: 232284
Critical_ROB_Stalls_Percent_7_Bucket_6: 4348
Non-critical_ROB_Stalls_Percent_7_Bucket_6: 594631
Critical_ROB_Stalls_Percent_8_Bucket_0: 246432
Non-critical_ROB_Stalls_Percent_8_Bucket_0: 1164682
Critical_ROB_Stalls_Percent_8_Bucket_1: 17037
Non-critical_ROB_Stalls_Percent_8_Bucket_1: 1151545
Critical_ROB_Stalls_Percent_8_Bucket_2: 4205
Non-critical_ROB_Stalls_Percent_8_Bucket_2: 255451
Critical_ROB_Stalls_Percent_8_Bucket_3: 5326
Non-critical_ROB_Stalls_Percent_8_Bucket_3: 200257
Critical_ROB_Stalls_Percent_8_Bucket_4: 2641
Non-critical_ROB_Stalls_Percent_8_Bucket_4: 193080
Critical_ROB_Stalls_Percent_8_Bucket_5: 2342
Non-critical_ROB_Stalls_Percent_8_Bucket_5: 232284
Critical_ROB_Stalls_Percent_8_Bucket_6: 4348
Non-critical_ROB_Stalls_Percent_8_Bucket_6: 594631
Average ROB occupancy Load Stall Begin: 112.28
Average ROB occupancy Load Stall End: 124.53
Min ROB occupancy Load Stall Begin: 1
Max ROB occupancy Load Stall Begin: 352
Min ROB occupancy Load Stall End: 1
Max ROB occupancy Load Stall End: 352
Average ROB occupancy Critical Load Stall Begin: -nan
Average ROB occupancy Critical Load Stall End: -nan
Min ROB occupancy Critical Load Stall Begin: 400
Max ROB occupancy Critical Load Stall Begin: 0
Min ROB occupancy Critical Load Stall End: 400
Max ROB occupancy Critical Load Stall End: 0
 ROB Load Stall Begin Bucket Count 0: 1845679
 ROB Load Stall End Bucket Count 0: 1411114
 ROB Critical Load Stall Begin Bucket Count 0: 0
 ROB Critical Load Stall End Bucket Count 0: 0
 ROB Load Stall Begin Bucket Count 1: 865255
 ROB Load Stall End Bucket Count 1: 1168582
 ROB Critical Load Stall Begin Bucket Count 1: 0
 ROB Critical Load Stall End Bucket Count 1: 0
 ROB Load Stall Begin Bucket Count 2: 219837
 ROB Load Stall End Bucket Count 2: 259656
 ROB Critical Load Stall Begin Bucket Count 2: 0
 ROB Critical Load Stall End Bucket Count 2: 0
 ROB Load Stall Begin Bucket Count 3: 209603
 ROB Load Stall End Bucket Count 3: 205583
 ROB Critical Load Stall Begin Bucket Count 3: 0
 ROB Critical Load Stall End Bucket Count 3: 0
 ROB Load Stall Begin Bucket Count 4: 193519
 ROB Load Stall End Bucket Count 4: 195721
 ROB Critical Load Stall Begin Bucket Count 4: 0
 ROB Critical Load Stall End Bucket Count 4: 0
 ROB Load Stall Begin Bucket Count 5: 281107
 ROB Load Stall End Bucket Count 5: 234626
 ROB Critical Load Stall Begin Bucket Count 5: 0
 ROB Critical Load Stall End Bucket Count 5: 0
 ROB Load Stall Begin Bucket Count 6: 459261
 ROB Load Stall End Bucket Count 6: 598979
 ROB Critical Load Stall Begin Bucket Count 6: 0
 ROB Critical Load Stall End Bucket Count 6: 0
PIST Tag Read Accesses: 0
PIST Read Accesses: 0
PIST Tag Write Accesses: 0
PIST Write Accesses: 0
Criticality detector called times: 0
Max global_stall_cycles_count: 0
Threshold Modified: 0 times, factor: 0
ITLB TOTAL     ACCESS:   15490804  HIT:   15490804  MISS:          0  HIT %:        100  MISS %:          0   MPKI: 0
ITLB LOAD TRANSLATION ACCESS:   15490804  HIT:   15490804  MISS:          0  HIT %:        100  MISS %:          0   MPKI: 0
ITLB PREFETCH  REQUESTED:          0  ISSUED:          0  USEFUL:          0  USELESS:          0
ITLB USEFUL LOAD PREFETCHES:          0 PREFETCH ISSUED TO LOWER LEVEL:          0  ACCURACY: -nan
ITLB TIMELY PREFETCHES:          0 LATE PREFETCHES: 0 DROPPED PREFETCHES: 0
ITLB PREFETCHES SAME FILL-ORIGIN LEVEL: 0 DIFFERENT FILL-ORIGIN LEVEL: 0
ITLB AVERAGE MISS LATENCY: -nan cycles
ITLB RQ	ACCESS:   18497484	FORWARD:          0	MERGED:    3006681	TO_CACHE:   15490803

DTLB TOTAL     ACCESS:   25557290  HIT:   25505931  MISS:      51359  HIT %:     99.799  MISS %:   0.200956   MPKI: 0.51359
DTLB LOAD TRANSLATION ACCESS:   25557290  HIT:   25505931  MISS:      51359  HIT %:     99.799  MISS %:   0.200956   MPKI: 0.51359
DTLB PREFETCH  REQUESTED:          0  ISSUED:          0  USEFUL:          0  USELESS:          0
DTLB USEFUL LOAD PREFETCHES:          0 PREFETCH ISSUED TO LOWER LEVEL:          0  ACCURACY: -nan
DTLB TIMELY PREFETCHES:          0 LATE PREFETCHES: 0 DROPPED PREFETCHES: 0
DTLB PREFETCHES SAME FILL-ORIGIN LEVEL: 0 DIFFERENT FILL-ORIGIN LEVEL: 0
DTLB AVERAGE MISS LATENCY: 124.43 cycles
DTLB RQ	ACCESS:   28395403	FORWARD:          0	MERGED:    2789989	TO_CACHE:   25605414

STLB TOTAL     ACCESS:      51359  HIT:        366  MISS:      50993  HIT %:   0.712631  MISS %:    99.2874   MPKI: 0.50993
STLB LOAD TRANSLATION ACCESS:      51359  HIT:        366  MISS:      50993  HIT %:   0.712631  MISS %:    99.2874   MPKI: 0.50993
STLB PREFETCH  REQUESTED:          0  ISSUED:          0  USEFUL:          0  USELESS:          0
STLB USEFUL LOAD PREFETCHES:          0 PREFETCH ISSUED TO LOWER LEVEL:          0  ACCURACY: -nan
STLB TIMELY PREFETCHES:          0 LATE PREFETCHES: 0 DROPPED PREFETCHES: 0
STLB PREFETCHES SAME FILL-ORIGIN LEVEL: 0 DIFFERENT FILL-ORIGIN LEVEL: 0
STLB AVERAGE MISS LATENCY: 116.187 cycles
STLB RQ	ACCESS:      51359	FORWARD:          0	MERGED:          0	TO_CACHE:      51359

STLB Hit, L1D data hit: 0
STLB Hit, L2C data hit: 0
STLB Hit, LLC data hit: 0
STLB Hit, LLC data miss: 0
STLB STLB hints to L2: 0
L1D TOTAL     ACCESS:   23940522  HIT:   21698473  MISS:    2242049  HIT %:    90.6349  MISS %:    9.36508   MPKI: 22.4205
L1D LOAD      ACCESS:   21932996  HIT:   20324010  MISS:    1608986  HIT %:    92.6641  MISS %:    7.33592   MPKI: 16.0899
L1D RFO       ACCESS:    2007526  HIT:    1374463  MISS:     633063  HIT %:    68.4655  MISS %:    31.5345   MPKI: 6.33063
L1D PREFETCH  REQUESTED:          0  ISSUED:          0  USEFUL:          0  USELESS:          0
L1D USEFUL LOAD PREFETCHES:          0 PREFETCH ISSUED TO LOWER LEVEL:          0  ACCURACY: -nan
L1D TIMELY PREFETCHES:          0 LATE PREFETCHES: 0 DROPPED PREFETCHES: 0
L1D PREFETCHES SAME FILL-ORIGIN LEVEL: 0 DIFFERENT FILL-ORIGIN LEVEL: 0
L1D AVERAGE MISS LATENCY: 106.074 cycles
L1D RQ	ACCESS:   37844262	FORWARD:          0	MERGED:   15401152	TO_CACHE:   22442781
L1D WQ	ACCESS:    5952622	FORWARD:        329	MERGED:          0	TO_CACHE:    5952622

L1D UNIQUE REGIONS ACCESSED: 0
L1D REGIONS CONFLICTS: 0
L1D Cross Page Prefetch Requests: 0
L1D Same Page Prefetch Requests: 0
L1D ROI Sum of L1D PQ occupancy: 0
L1D PREFETCHES PUSHED FROM L2C: 0
L1I TOTAL     ACCESS:   18497470  HIT:   18497438  MISS:         32  HIT %:    99.9998  MISS %: 0.000172997   MPKI: 0.00032
L1I LOAD      ACCESS:   18497470  HIT:   18497438  MISS:         32  HIT %:    99.9998  MISS %: 0.000172997   MPKI: 0.00032
L1I PREFETCH  REQUESTED:          0  ISSUED:          0  USEFUL:          0  USELESS:          0
L1I USEFUL LOAD PREFETCHES:          0 PREFETCH ISSUED TO LOWER LEVEL:          0  ACCURACY: -nan
L1I TIMELY PREFETCHES:          0 LATE PREFETCHES: 0 DROPPED PREFETCHES: 0
L1I PREFETCHES SAME FILL-ORIGIN LEVEL: 0 DIFFERENT FILL-ORIGIN LEVEL: 0
L1I AVERAGE MISS LATENCY: 270.219 cycles
L1I RQ	ACCESS:   27796568	FORWARD:          0	MERGED:    9299084	TO_CACHE:   18497484

BTB TOTAL     ACCESS:    6884697  HIT:    6884651  MISS:         46  HIT %:    99.9993  MISS %: 0.000668149   MPKI: 0.00046
BTB BRANCH_DIRECT_JUMP	ACCESS:     801242  HIT:     801237  MISS:          5
BTB BRANCH_INDIRECT	ACCESS:          0  HIT:          0  MISS:          0
BTB BRANCH_CONDITIONAL	ACCESS:    6083455  HIT:    6083414  MISS:         41
BTB BRANCH_DIRECT_CALL	ACCESS:          0  HIT:          0  MISS:          0
BTB BRANCH_INDIRECT_CALL	ACCESS:          0  HIT:          0  MISS:          0
BTB BRANCH_RETURN	ACCESS:          0  HIT:          0  MISS:          0
BTB BRANCH_OTHER ACCESS:          0  HIT:          0  MISS:          0

L2C TOTAL     ACCESS:    4763542  HIT:    2244755  MISS:    2518787  HIT %:    47.1237  MISS %:    52.8763   MPKI: 25.1879
L2C LOAD      ACCESS:    1609016  HIT:    1447566  MISS:     161450  HIT %:    89.9659  MISS %:    10.0341   MPKI: 1.6145
L2C DATA LOAD MPKI: 1.61418
L2C INSTRUCTION LOAD MPKI: 0.00032
L2C RFO       ACCESS:     633063  HIT:          0  MISS:     633063  HIT %:          0  MISS %:        100   MPKI: 6.33063
L2C PREFETCH  ACCESS:    1704260  HIT:      15451  MISS:    1688809  HIT %:    0.90661  MISS %:    99.0934   MPKI: 16.8881
L2C DATA PREFETCH MPKI: 16.8881
L2C INSTRUCTION PREFETCH MPKI: 0
L2C WRITEBACK ACCESS:     766124  HIT:     741508  MISS:      24616  HIT %:    96.7869  MISS %:    3.21306   MPKI: 0.24616
L2C LOAD TRANSLATION ACCESS:      51079  HIT:      40230  MISS:      10849  HIT %:    78.7604  MISS %:    21.2396   MPKI: 0.10849
L2C PREFETCH  REQUESTED:    1733717  ISSUED:    1733717  USEFUL:    1447269  USELESS:     241250
L2C USEFUL LOAD PREFETCHES:    1447269 PREFETCH ISSUED TO LOWER LEVEL:    1711159  ACCURACY: 84.5783
L2C TIMELY PREFETCHES:    1447269 LATE PREFETCHES: 22335 DROPPED PREFETCHES: 0
L2C PREFETCHES SAME FILL-ORIGIN LEVEL: 1711159 DIFFERENT FILL-ORIGIN LEVEL: 0
L2C AVERAGE MISS LATENCY: 266.68 cycles
L2C RQ	ACCESS:    2293161	FORWARD:          0	MERGED:          0	TO_CACHE:    2293159
L2C WQ	ACCESS:     766124	FORWARD:          2	MERGED:          0	TO_CACHE:     766124
L2C PQ	ACCESS:    1733717	FORWARD:          0	MERGED:          1	TO_CACHE:    1733716

L2C Instructions Evicting Data 32
L2C Translations Evicting Data 10811
L2C Data Evicting Data 2472531
L2C Instructions Evicting Instructions 0
L2C Translations Evicting Instructions 0
L2C Data Evicting Instructions 32
L2C Instructions Evicting Translations 0
L2C Translations Evicting Translations 38
L2C Data Evicting Translations 10727
L2C Dense regions hint from L2: 0
PSCL5 TOTAL     ACCESS:      50993  HIT:      50993  MISS:          0  HIT %:        100  MISS %:          0   MPKI: 0
PSCL5 LOAD TRANSLATION ACCESS:      50993  HIT:      50993  MISS:          0  HIT %:        100  MISS %:          0   MPKI: 0
PSCL5 PREFETCH  REQUESTED:          0  ISSUED:          0  USEFUL:          0  USELESS:          0
PSCL5 USEFUL LOAD PREFETCHES:          0 PREFETCH ISSUED TO LOWER LEVEL:          0  ACCURACY: -nan
PSCL5 TIMELY PREFETCHES:          0 LATE PREFETCHES: 0 DROPPED PREFETCHES: 0
PSCL5 PREFETCHES SAME FILL-ORIGIN LEVEL: 0 DIFFERENT FILL-ORIGIN LEVEL: 0

PSCL4 TOTAL     ACCESS:      50993  HIT:      50993  MISS:          0  HIT %:        100  MISS %:          0   MPKI: 0
PSCL4 LOAD TRANSLATION ACCESS:      50993  HIT:      50993  MISS:          0  HIT %:        100  MISS %:          0   MPKI: 0
PSCL4 PREFETCH  REQUESTED:          0  ISSUED:          0  USEFUL:          0  USELESS:          0
PSCL4 USEFUL LOAD PREFETCHES:          0 PREFETCH ISSUED TO LOWER LEVEL:          0  ACCURACY: -nan
PSCL4 TIMELY PREFETCHES:          0 LATE PREFETCHES: 0 DROPPED PREFETCHES: 0
PSCL4 PREFETCHES SAME FILL-ORIGIN LEVEL: 0 DIFFERENT FILL-ORIGIN LEVEL: 0

PSCL3 TOTAL     ACCESS:      50993  HIT:      50993  MISS:          0  HIT %:        100  MISS %:          0   MPKI: 0
PSCL3 LOAD TRANSLATION ACCESS:      50993  HIT:      50993  MISS:          0  HIT %:        100  MISS %:          0   MPKI: 0
PSCL3 PREFETCH  REQUESTED:          0  ISSUED:          0  USEFUL:          0  USELESS:          0
PSCL3 USEFUL LOAD PREFETCHES:          0 PREFETCH ISSUED TO LOWER LEVEL:          0  ACCURACY: -nan
PSCL3 TIMELY PREFETCHES:          0 LATE PREFETCHES: 0 DROPPED PREFETCHES: 0
PSCL3 PREFETCHES SAME FILL-ORIGIN LEVEL: 0 DIFFERENT FILL-ORIGIN LEVEL: 0

PSCL2 TOTAL     ACCESS:      50993  HIT:      50870  MISS:        123  HIT %:    99.7588  MISS %:    0.24121   MPKI: 0.00123
PSCL2 LOAD TRANSLATION ACCESS:      50993  HIT:      50870  MISS:        123  HIT %:    99.7588  MISS %:    0.24121   MPKI: 0.00123
PSCL2 PREFETCH  REQUESTED:          0  ISSUED:          0  USEFUL:          0  USELESS:          0
PSCL2 USEFUL LOAD PREFETCHES:          0 PREFETCH ISSUED TO LOWER LEVEL:          0  ACCURACY: -nan
PSCL2 TIMELY PREFETCHES:          0 LATE PREFETCHES: 0 DROPPED PREFETCHES: 0
PSCL2 PREFETCHES SAME FILL-ORIGIN LEVEL: 0 DIFFERENT FILL-ORIGIN LEVEL: 0

LLC TOTAL     ACCESS:    3259490  HIT:     503869  MISS:    2755621  HIT %:    15.4585  MISS %:    84.5415   MPKI: 27.5562
LLC LOAD      ACCESS:     139115  HIT:       1072  MISS:     138043  HIT %:   0.770585  MISS %:    99.2294   MPKI: 1.38043
LLC RFO       ACCESS:     633063  HIT:          0  MISS:     633063  HIT %:          0  MISS %:        100   MPKI: 6.33063
LLC PREFETCH  ACCESS:    1711144  HIT:       7166  MISS:    1703978  HIT %:   0.418784  MISS %:    99.5812   MPKI: 17.0398
LLC WRITEBACK ACCESS:     765319  HIT:     495486  MISS:     269833  HIT %:    64.7424  MISS %:    35.2576   MPKI: 2.69833
LLC LOAD TRANSLATION ACCESS:      10849  HIT:        145  MISS:      10704  HIT %:    1.33653  MISS %:    98.6635   MPKI: 0.10704
LLC PREFETCH  REQUESTED:          0  ISSUED:          0  USEFUL:        495  USELESS:    1701418
LLC USEFUL LOAD PREFETCHES:        495 PREFETCH ISSUED TO LOWER LEVEL:    1703993  ACCURACY: 0.0290494
LLC TIMELY PREFETCHES:        495 LATE PREFETCHES: 0 DROPPED PREFETCHES: 0
LLC PREFETCHES SAME FILL-ORIGIN LEVEL: 0 DIFFERENT FILL-ORIGIN LEVEL: 0
LLC AVERAGE MISS LATENCY: 217.583 cycles
LLC RQ	ACCESS:     783028	FORWARD:          0	MERGED:          0	TO_CACHE:     783028
LLC WQ	ACCESS:     765319	FORWARD:          0	MERGED:          0	TO_CACHE:     765319
LLC PQ	ACCESS:    1711159	FORWARD:          0	MERGED:          0	TO_CACHE:    1711159

LLC Dense regions hint to LLC: 0

RAW hits: 9754
Loads Generated: 37854023
Loads sent to L1D: 37844262
Stores Generated: 5952622
Stores sent to L1D: 5952622
Major fault: 0 Minor fault: 27917
Allocated PAGES: 27917
[Bingo] PHT Access: 67375
[Bingo] PHT Hit PC+Addr: 171
[Bingo] PHT Hit PC+Offs: 65104
[Bingo] PHT Miss: 2100
[Bingo] Prefetch PC+Addr: 0
[Bingo] Prefetch PC+Offs: 0
[Bingo] Useful PC+Addr: 0
[Bingo] Useful PC+Offs: 0
[Bingo] Useless PC+Addr: 0
[Bingo] Useless PC+Offs: 0
[Bingo] L1 Prefetch per Region: 0
[Bingo] L2 Prefetch per Region: 27.7397
[Bingo] L3 Prefetch per Region: 0
[Bingo] No Prefetch per Region: 4.2603
[Bingo] Number of Voters Mean: 13.9824
[Bingo] Number of Voters SD: 5.27754
PHT read accesses: 1014958
PHT write accesses: 66030
AT read accesses: 1552606
AT write accesses: 1566958
FT read accesses: 199657
FT write accesses: 67375
PS read accesses: 214620
PS write accesses: 65275
PHT tag read accesses: 3143920
PHT tag write accesses: 66201
AT tag read accesses: 68108917
AT tag write accesses: 1618726
FT tag read accesses: 44660905
FT tag write accesses: 200909
PS tag read accesses: 27633641
PS tag write accesses: 279500

DRAM Statistics
 CHANNEL 0
 RQ ROW_BUFFER_HIT:    1118879  ROW_BUFFER_MISS:    1366886
 DBUS_CONGESTED:        721
 WQ ROW_BUFFER_HIT:     169642  ROW_BUFFER_MISS:     571929  FULL:       3168

 AVG_CONGESTED_CYCLE: 4
 All warmup complete: 2
Channel 0 Bank busy for read cycles: 0
Channel 0 Bank busy for write cycles: 0
Channel 0
Rank 0
0banks busy for read cycles: 13706888
0banks busy for write cycles: 20836
1banks busy for read cycles: 26349721
1banks busy for write cycles: 2559979
2banks busy for read cycles: 16585413
2banks busy for write cycles: 1246079
3banks busy for read cycles: 5340024
3banks busy for write cycles: 931503
4banks busy for read cycles: 2739293
4banks busy for write cycles: 834297
5banks busy for read cycles: 1749891
5banks busy for write cycles: 815649
6banks busy for read cycles: 1535325
6banks busy for write cycles: 871617
7banks busy for read cycles: 3320189
7banks busy for write cycles: 1829055
8banks busy for read cycles: 17309588
8banks busy for write cycles: 17800409

CPU 0 Branch Prediction Accuracy: 99.8514% MPKI: 0.10457 Average ROB Occupancy at Mispredict: 117.433
Branch types
NOT_BRANCH: 92964043 92.964%
BRANCH_DIRECT_JUMP: 801242 0.801242%
BRANCH_INDIRECT: 0 0%
BRANCH_CONDITIONAL: 6234634 6.23463%
BRANCH_DIRECT_CALL: 0 0%
BRANCH_INDIRECT_CALL: 0 0%
BRANCH_RETURN: 0 0%
BRANCH_OTHER: 0 0%

DRAM PAGES: 1048576
Allocated PAGES: 27917
