
*** ChampSim Multicore Out-of-Order Simulator ***

Warmup Instructions: 50000000
Simulation Instructions: 100000000
Number of CPUs: 1
LLC sets: 2048
LLC ways: 16
Off-chip DRAM Size: 4096 MB Channels: 1 Width: 64-bit Data Rate: 6400 MT/s
CPU 0 runs ../SPEC2017//654.roms_s-1070B.champsimtrace.xz
.xz
NUM_OF_IPS_IN_CRITICAL_IP_TRAINING: 64
NUM_OF_CRITICAL_IP_TRAINING_TABLE_WAYS: 2
NUM_OF_CRITICAL_IP_TRAINING_TABLE_SETS: 32
WOBBLY_CRITICAL_IP_CACHE_SETS: 32
WOBBLY_CRITICAL_IP_CACHE_WAYS: 4
BTB has LRU replacement policy
ITLB has LRU replacement policy
DTLB has LRU replacement policy
STLB has LRU replacement policy
L1I has LRU replacement policy
L1D has LRU replacement policy
Bingo PHT WAYS: 16 and PHT_SIZE: 16384
Initialize SRRIP state for L2C
Initialize DRRIP state for LLC
Heartbeat CPU 0 instructions: 10000003 cycles: 3124370 heartbeat IPC: 3.20065 cumulative IPC: 3.20065 (Simulation time: 0 hr 5 min 29 sec) 
Heartbeat CPU 0 instructions: 20000002 cycles: 6344946 heartbeat IPC: 3.10503 cumulative IPC: 3.15212 (Simulation time: 0 hr 10 min 15 sec) 
Heartbeat CPU 0 instructions: 30000003 cycles: 9385976 heartbeat IPC: 3.28836 cumulative IPC: 3.19626 (Simulation time: 0 hr 14 min 34 sec) 
Heartbeat CPU 0 instructions: 40000001 cycles: 12692041 heartbeat IPC: 3.02474 cumulative IPC: 3.15158 (Simulation time: 0 hr 18 min 38 sec) 
Heartbeat CPU 0 instructions: 50000001 cycles: 15878289 heartbeat IPC: 3.13849 cumulative IPC: 3.14895 (Simulation time: 0 hr 22 min 21 sec) 

Warmup complete CPU 0 instructions: 50000001 cycles: 15878289 (Simulation time: 0 hr 22 min 21 sec) 

Heartbeat CPU 0 instructions: 60000000 cycles: 31302793 heartbeat IPC: 0.648319 cumulative IPC: 0.648319 (Simulation time: 0 hr 28 min 6 sec) 
Heartbeat CPU 0 instructions: 70000002 cycles: 40662693 heartbeat IPC: 1.06839 cumulative IPC: 0.806959 (Simulation time: 0 hr 31 min 58 sec) 
Heartbeat CPU 0 instructions: 80000003 cycles: 51181929 heartbeat IPC: 0.950639 cumulative IPC: 0.849771 (Simulation time: 0 hr 35 min 48 sec) 
Heartbeat CPU 0 instructions: 90000000 cycles: 64612428 heartbeat IPC: 0.744574 cumulative IPC: 0.82078 (Simulation time: 0 hr 40 min 8 sec) 
Heartbeat CPU 0 instructions: 100000003 cycles: 73420462 heartbeat IPC: 1.13533 cumulative IPC: 0.868928 (Simulation time: 0 hr 42 min 51 sec) 
Heartbeat CPU 0 instructions: 110000000 cycles: 88203408 heartbeat IPC: 0.676455 cumulative IPC: 0.829587 (Simulation time: 0 hr 46 min 28 sec) 
Heartbeat CPU 0 instructions: 120000002 cycles: 96956082 heartbeat IPC: 1.14251 cumulative IPC: 0.863368 (Simulation time: 0 hr 48 min 50 sec) 
Heartbeat CPU 0 instructions: 130000002 cycles: 108597562 heartbeat IPC: 0.858997 cumulative IPC: 0.86282 (Simulation time: 0 hr 51 min 41 sec) 
Heartbeat CPU 0 instructions: 140000001 cycles: 120965471 heartbeat IPC: 0.808544 cumulative IPC: 0.856432 (Simulation time: 0 hr 56 min 38 sec) 
Heartbeat CPU 0 instructions: 150000003 cycles: 129892328 heartbeat IPC: 1.12022 cumulative IPC: 0.877085 (Simulation time: 0 hr 59 min 55 sec) 
Finished CPU 0 instructions: 100000002 cycles: 114014039 cumulative IPC: 0.877085 (Simulation time: 0 hr 59 min 55 sec) 

ChampSim completed all CPUs

Region of Interest Statistics

CPU 0 cumulative IPC: 0.877085 instructions: 100000002 cycles: 114014039

CPU 0 Average Load ROB stall cycles: 3.39922e+07
CPU 0 Fraction of times ROB stalled by Loads: 46.2803
CPU 0 Percentage of Load stall cycles in Total stall cycles: 3.91164e+08
Issued all: 84880722
Issued LT all: 74166046
rob_not_full_when_issued_lt_all: 24137067
Issued LT one: 61038658
rob_not_full_when_issued_lt_one: 19696596
 Total stall cycles: 89588570
 Total load stall cycles: 350437971980212
CPU 0 NUM of IPS identified critical: 0
CPU 0 Num of Load IPs stalling ROB: 84
Threshold modification factor: 0
Max PIST entries: 28
Min PIST entries: 0
Avg PIST entries: 4.98
Trouble in retire width: 0.974229
MaC = Marked as critical.
lt_50_percent_before_Mac: 0
gt_90_percent_before_Mac: 0
gt_75_percent_before_Mac: 0
gt_50_percent_before_Mac: 0
stall_proportion_bin_same_before_after: 0
stall_proportion_bin_lower_before_after: 0
stall_proportion_bin_upper_before_after: 0
average_stall_proportion_before: -nan
average_stall_proportion_after: -nan
Critical IP stalls, total frequency: 0
Non-critical IP stalls, total frequency: 4771207
Total Freq all stalling IPs: 4771207
stat_90_percent_critical_ip_stalls_freq: 4343589
stat_90_percent_non_critical_ip_stalls_freq: 427618
Critical_IP_ROB_Stalls_Bucket_0: 0
Non-critical_IP_ROB_Stalls_Bucket_0: 745231
Critical_IP_ROB_Stalls_Bucket_1: 0
Non-critical_IP_ROB_Stalls_Bucket_1: 1283976
Critical_IP_ROB_Stalls_Bucket_2: 0
Non-critical_IP_ROB_Stalls_Bucket_2: 125398
Critical_IP_ROB_Stalls_Bucket_3: 0
Non-critical_IP_ROB_Stalls_Bucket_3: 94588
Critical_IP_ROB_Stalls_Bucket_4: 0
Non-critical_IP_ROB_Stalls_Bucket_4: 126183
Critical_IP_ROB_Stalls_Bucket_5: 0
Non-critical_IP_ROB_Stalls_Bucket_5: 106294
Critical_IP_ROB_Stalls_Bucket_6: 0
Non-critical_IP_ROB_Stalls_Bucket_6: 2289537
0 => IPs accounting for >50 percent of stalls, 1 => 55, 2 => 60, 3 => 65 and so on till 90.
percent50: 61.6739 num IPs:  3
percent55: 61.6739 num IPs: 3
percent60: 61.6739 num IPs: 3
percent65: 73.2293 num IPs: 4
percent70: 73.2293 num IPs: 4
percent75: 84.5969 num IPs: 5
percent80: 84.5969 num IPs: 5
percent85: 89.3886 num IPs: 6
percent90: 91.0375 num IPs: 7
Critical_ROB_Stalls_Percent_0_Bucket_0: 8192
Non-critical_ROB_Stalls_Percent_0_Bucket_0: 737039
Critical_ROB_Stalls_Percent_0_Bucket_1: 700440
Non-critical_ROB_Stalls_Percent_0_Bucket_1: 583536
Critical_ROB_Stalls_Percent_0_Bucket_2: 49796
Non-critical_ROB_Stalls_Percent_0_Bucket_2: 75602
Critical_ROB_Stalls_Percent_0_Bucket_3: 37711
Non-critical_ROB_Stalls_Percent_0_Bucket_3: 56877
Critical_ROB_Stalls_Percent_0_Bucket_4: 53303
Non-critical_ROB_Stalls_Percent_0_Bucket_4: 72880
Critical_ROB_Stalls_Percent_0_Bucket_5: 38200
Non-critical_ROB_Stalls_Percent_0_Bucket_5: 68094
Critical_ROB_Stalls_Percent_0_Bucket_6: 2054946
Non-critical_ROB_Stalls_Percent_0_Bucket_6: 234591
Critical_ROB_Stalls_Percent_1_Bucket_0: 8192
Non-critical_ROB_Stalls_Percent_1_Bucket_0: 737039
Critical_ROB_Stalls_Percent_1_Bucket_1: 700440
Non-critical_ROB_Stalls_Percent_1_Bucket_1: 583536
Critical_ROB_Stalls_Percent_1_Bucket_2: 49796
Non-critical_ROB_Stalls_Percent_1_Bucket_2: 75602
Critical_ROB_Stalls_Percent_1_Bucket_3: 37711
Non-critical_ROB_Stalls_Percent_1_Bucket_3: 56877
Critical_ROB_Stalls_Percent_1_Bucket_4: 53303
Non-critical_ROB_Stalls_Percent_1_Bucket_4: 72880
Critical_ROB_Stalls_Percent_1_Bucket_5: 38200
Non-critical_ROB_Stalls_Percent_1_Bucket_5: 68094
Critical_ROB_Stalls_Percent_1_Bucket_6: 2054946
Non-critical_ROB_Stalls_Percent_1_Bucket_6: 234591
Critical_ROB_Stalls_Percent_2_Bucket_0: 8192
Non-critical_ROB_Stalls_Percent_2_Bucket_0: 737039
Critical_ROB_Stalls_Percent_2_Bucket_1: 700440
Non-critical_ROB_Stalls_Percent_2_Bucket_1: 583536
Critical_ROB_Stalls_Percent_2_Bucket_2: 49796
Non-critical_ROB_Stalls_Percent_2_Bucket_2: 75602
Critical_ROB_Stalls_Percent_2_Bucket_3: 37711
Non-critical_ROB_Stalls_Percent_2_Bucket_3: 56877
Critical_ROB_Stalls_Percent_2_Bucket_4: 53303
Non-critical_ROB_Stalls_Percent_2_Bucket_4: 72880
Critical_ROB_Stalls_Percent_2_Bucket_5: 38200
Non-critical_ROB_Stalls_Percent_2_Bucket_5: 68094
Critical_ROB_Stalls_Percent_2_Bucket_6: 2054946
Non-critical_ROB_Stalls_Percent_2_Bucket_6: 234591
Critical_ROB_Stalls_Percent_3_Bucket_0: 375273
Non-critical_ROB_Stalls_Percent_3_Bucket_0: 369958
Critical_ROB_Stalls_Percent_3_Bucket_1: 841585
Non-critical_ROB_Stalls_Percent_3_Bucket_1: 442391
Critical_ROB_Stalls_Percent_3_Bucket_2: 54644
Non-critical_ROB_Stalls_Percent_3_Bucket_2: 70754
Critical_ROB_Stalls_Percent_3_Bucket_3: 45425
Non-critical_ROB_Stalls_Percent_3_Bucket_3: 49163
Critical_ROB_Stalls_Percent_3_Bucket_4: 63769
Non-critical_ROB_Stalls_Percent_3_Bucket_4: 62414
Critical_ROB_Stalls_Percent_3_Bucket_5: 44482
Non-critical_ROB_Stalls_Percent_3_Bucket_5: 61812
Critical_ROB_Stalls_Percent_3_Bucket_6: 2068743
Non-critical_ROB_Stalls_Percent_3_Bucket_6: 220794
Critical_ROB_Stalls_Percent_4_Bucket_0: 375273
Non-critical_ROB_Stalls_Percent_4_Bucket_0: 369958
Critical_ROB_Stalls_Percent_4_Bucket_1: 841585
Non-critical_ROB_Stalls_Percent_4_Bucket_1: 442391
Critical_ROB_Stalls_Percent_4_Bucket_2: 54644
Non-critical_ROB_Stalls_Percent_4_Bucket_2: 70754
Critical_ROB_Stalls_Percent_4_Bucket_3: 45425
Non-critical_ROB_Stalls_Percent_4_Bucket_3: 49163
Critical_ROB_Stalls_Percent_4_Bucket_4: 63769
Non-critical_ROB_Stalls_Percent_4_Bucket_4: 62414
Critical_ROB_Stalls_Percent_4_Bucket_5: 44482
Non-critical_ROB_Stalls_Percent_4_Bucket_5: 61812
Critical_ROB_Stalls_Percent_4_Bucket_6: 2068743
Non-critical_ROB_Stalls_Percent_4_Bucket_6: 220794
Critical_ROB_Stalls_Percent_5_Bucket_0: 710539
Non-critical_ROB_Stalls_Percent_5_Bucket_0: 34692
Critical_ROB_Stalls_Percent_5_Bucket_1: 990880
Non-critical_ROB_Stalls_Percent_5_Bucket_1: 293096
Critical_ROB_Stalls_Percent_5_Bucket_2: 60729
Non-critical_ROB_Stalls_Percent_5_Bucket_2: 64669
Critical_ROB_Stalls_Percent_5_Bucket_3: 54772
Non-critical_ROB_Stalls_Percent_5_Bucket_3: 39816
Critical_ROB_Stalls_Percent_5_Bucket_4: 74573
Non-critical_ROB_Stalls_Percent_5_Bucket_4: 51610
Critical_ROB_Stalls_Percent_5_Bucket_5: 55830
Non-critical_ROB_Stalls_Percent_5_Bucket_5: 50464
Critical_ROB_Stalls_Percent_5_Bucket_6: 2088971
Non-critical_ROB_Stalls_Percent_5_Bucket_6: 200566
Critical_ROB_Stalls_Percent_6_Bucket_0: 710539
Non-critical_ROB_Stalls_Percent_6_Bucket_0: 34692
Critical_ROB_Stalls_Percent_6_Bucket_1: 990880
Non-critical_ROB_Stalls_Percent_6_Bucket_1: 293096
Critical_ROB_Stalls_Percent_6_Bucket_2: 60729
Non-critical_ROB_Stalls_Percent_6_Bucket_2: 64669
Critical_ROB_Stalls_Percent_6_Bucket_3: 54772
Non-critical_ROB_Stalls_Percent_6_Bucket_3: 39816
Critical_ROB_Stalls_Percent_6_Bucket_4: 74573
Non-critical_ROB_Stalls_Percent_6_Bucket_4: 51610
Critical_ROB_Stalls_Percent_6_Bucket_5: 55830
Non-critical_ROB_Stalls_Percent_6_Bucket_5: 50464
Critical_ROB_Stalls_Percent_6_Bucket_6: 2088971
Non-critical_ROB_Stalls_Percent_6_Bucket_6: 200566
Critical_ROB_Stalls_Percent_7_Bucket_0: 720766
Non-critical_ROB_Stalls_Percent_7_Bucket_0: 24465
Critical_ROB_Stalls_Percent_7_Bucket_1: 1096095
Non-critical_ROB_Stalls_Percent_7_Bucket_1: 187881
Critical_ROB_Stalls_Percent_7_Bucket_2: 83872
Non-critical_ROB_Stalls_Percent_7_Bucket_2: 41526
Critical_ROB_Stalls_Percent_7_Bucket_3: 71963
Non-critical_ROB_Stalls_Percent_7_Bucket_3: 22625
Critical_ROB_Stalls_Percent_7_Bucket_4: 95595
Non-critical_ROB_Stalls_Percent_7_Bucket_4: 30588
Critical_ROB_Stalls_Percent_7_Bucket_5: 79857
Non-critical_ROB_Stalls_Percent_7_Bucket_5: 26437
Critical_ROB_Stalls_Percent_7_Bucket_6: 2116769
Non-critical_ROB_Stalls_Percent_7_Bucket_6: 172768
Critical_ROB_Stalls_Percent_8_Bucket_0: 720983
Non-critical_ROB_Stalls_Percent_8_Bucket_0: 24248
Critical_ROB_Stalls_Percent_8_Bucket_1: 1155082
Non-critical_ROB_Stalls_Percent_8_Bucket_1: 128894
Critical_ROB_Stalls_Percent_8_Bucket_2: 90136
Non-critical_ROB_Stalls_Percent_8_Bucket_2: 35262
Critical_ROB_Stalls_Percent_8_Bucket_3: 76012
Non-critical_ROB_Stalls_Percent_8_Bucket_3: 18576
Critical_ROB_Stalls_Percent_8_Bucket_4: 99226
Non-critical_ROB_Stalls_Percent_8_Bucket_4: 26957
Critical_ROB_Stalls_Percent_8_Bucket_5: 81442
Non-critical_ROB_Stalls_Percent_8_Bucket_5: 24852
Critical_ROB_Stalls_Percent_8_Bucket_6: 2120708
Non-critical_ROB_Stalls_Percent_8_Bucket_6: 168829
Average ROB occupancy Load Stall Begin: 202.185
Average ROB occupancy Load Stall End: 211.942
Min ROB occupancy Load Stall Begin: 3
Max ROB occupancy Load Stall Begin: 352
Min ROB occupancy Load Stall End: 3
Max ROB occupancy Load Stall End: 352
Average ROB occupancy Critical Load Stall Begin: -nan
Average ROB occupancy Critical Load Stall End: -nan
Min ROB occupancy Critical Load Stall Begin: 400
Max ROB occupancy Critical Load Stall Begin: 0
Min ROB occupancy Critical Load Stall End: 400
Max ROB occupancy Critical Load Stall End: 0
 ROB Load Stall Begin Bucket Count 0: 1389161
 ROB Load Stall End Bucket Count 0: 745231
 ROB Critical Load Stall Begin Bucket Count 0: 0
 ROB Critical Load Stall End Bucket Count 0: 0
 ROB Load Stall Begin Bucket Count 1: 722481
 ROB Load Stall End Bucket Count 1: 1283976
 ROB Critical Load Stall Begin Bucket Count 1: 0
 ROB Critical Load Stall End Bucket Count 1: 0
 ROB Load Stall Begin Bucket Count 2: 92908
 ROB Load Stall End Bucket Count 2: 125398
 ROB Critical Load Stall Begin Bucket Count 2: 0
 ROB Critical Load Stall End Bucket Count 2: 0
 ROB Load Stall Begin Bucket Count 3: 114049
 ROB Load Stall End Bucket Count 3: 94588
 ROB Critical Load Stall Begin Bucket Count 3: 0
 ROB Critical Load Stall End Bucket Count 3: 0
 ROB Load Stall Begin Bucket Count 4: 118094
 ROB Load Stall End Bucket Count 4: 126183
 ROB Critical Load Stall Begin Bucket Count 4: 0
 ROB Critical Load Stall End Bucket Count 4: 0
 ROB Load Stall Begin Bucket Count 5: 111639
 ROB Load Stall End Bucket Count 5: 106294
 ROB Critical Load Stall Begin Bucket Count 5: 0
 ROB Critical Load Stall End Bucket Count 5: 0
 ROB Load Stall Begin Bucket Count 6: 2222875
 ROB Load Stall End Bucket Count 6: 2289537
 ROB Critical Load Stall Begin Bucket Count 6: 0
 ROB Critical Load Stall End Bucket Count 6: 0
PIST Tag Read Accesses: 24422
PIST Read Accesses: 12211
PIST Tag Write Accesses: 24422
PIST Write Accesses: 12211
Criticality detector called times: 28618
Max global_stall_cycles_count: 428672
Threshold Modified: 0 times, factor: 0
Sturdy critical IP cache stats: 
 Unused entries: 0
CIC Tag Read Accesses: 0
CIC Read Accesses: 0
CIC Tag Write Accesses: 0
CIC Write Accesses: 0
Wobbly critical IP cache stats: 
 Unused entries: 96
CIC Tag Read Accesses: 328955806
CIC Read Accesses: 0
CIC Tag Write Accesses: 4090068
CIC Write Accesses: 0
ITLB TOTAL     ACCESS:   15100880  HIT:   15100880  MISS:          0  HIT %:        100  MISS %:          0   MPKI: 0
ITLB LOAD TRANSLATION ACCESS:   15100880  HIT:   15100880  MISS:          0  HIT %:        100  MISS %:          0   MPKI: 0
ITLB PREFETCH  REQUESTED:          0  ISSUED:          0  USEFUL:          0  USELESS:          0
ITLB USEFUL LOAD PREFETCHES:          0 PREFETCH ISSUED TO LOWER LEVEL:          0  ACCURACY: -nan
ITLB TIMELY PREFETCHES:          0 LATE PREFETCHES: 0 DROPPED PREFETCHES: 0
ITLB PREFETCHES SAME FILL-ORIGIN LEVEL: 0 DIFFERENT FILL-ORIGIN LEVEL: 0
ITLB AVERAGE MISS LATENCY: -nan cycles
ITLB RQ	ACCESS:   16182920	FORWARD:          0	MERGED:    1082041	TO_CACHE:   15100879

DTLB TOTAL     ACCESS:   25551413  HIT:   25502667  MISS:      48746  HIT %:    99.8092  MISS %:   0.190776   MPKI: 0.48746
DTLB LOAD TRANSLATION ACCESS:   25551413  HIT:   25502667  MISS:      48746  HIT %:    99.8092  MISS %:   0.190776   MPKI: 0.48746
DTLB PREFETCH  REQUESTED:          0  ISSUED:          0  USEFUL:          0  USELESS:          0
DTLB USEFUL LOAD PREFETCHES:          0 PREFETCH ISSUED TO LOWER LEVEL:          0  ACCURACY: -nan
DTLB TIMELY PREFETCHES:          0 LATE PREFETCHES: 0 DROPPED PREFETCHES: 0
DTLB PREFETCHES SAME FILL-ORIGIN LEVEL: 0 DIFFERENT FILL-ORIGIN LEVEL: 0
DTLB AVERAGE MISS LATENCY: 178.445 cycles
DTLB RQ	ACCESS:   28303894	FORWARD:          0	MERGED:    2703192	TO_CACHE:   25600702

STLB TOTAL     ACCESS:      48746  HIT:         39  MISS:      48707  HIT %:  0.0800066  MISS %:      99.92   MPKI: 0.48707
STLB LOAD TRANSLATION ACCESS:      48746  HIT:         39  MISS:      48707  HIT %:  0.0800066  MISS %:      99.92   MPKI: 0.48707
STLB PREFETCH  REQUESTED:          0  ISSUED:          0  USEFUL:          0  USELESS:          0
STLB USEFUL LOAD PREFETCHES:          0 PREFETCH ISSUED TO LOWER LEVEL:          0  ACCURACY: -nan
STLB TIMELY PREFETCHES:          0 LATE PREFETCHES: 0 DROPPED PREFETCHES: 0
STLB PREFETCHES SAME FILL-ORIGIN LEVEL: 0 DIFFERENT FILL-ORIGIN LEVEL: 0
STLB AVERAGE MISS LATENCY: 169.166 cycles
STLB RQ	ACCESS:      48746	FORWARD:          0	MERGED:          0	TO_CACHE:      48746

STLB Hit, L1D data hit: 0
STLB Hit, L2C data hit: 0
STLB Hit, LLC data hit: 0
STLB Hit, LLC data miss: 0
STLB STLB hints to L2: 0
L1D TOTAL     ACCESS:   24309458  HIT:   22127006  MISS:    2182452  HIT %:    91.0222  MISS %:    8.97779   MPKI: 21.8245
L1D LOAD      ACCESS:   22597431  HIT:   21097475  MISS:    1499956  HIT %:    93.3623  MISS %:    6.63773   MPKI: 14.9996
L1D RFO       ACCESS:    1712027  HIT:    1029531  MISS:     682496  HIT %:    60.1352  MISS %:    39.8648   MPKI: 6.82496
L1D PREFETCH  REQUESTED:          0  ISSUED:          0  USEFUL:          0  USELESS:          0
L1D USEFUL LOAD PREFETCHES:          0 PREFETCH ISSUED TO LOWER LEVEL:          0  ACCURACY: -nan
L1D TIMELY PREFETCHES:          0 LATE PREFETCHES: 0 DROPPED PREFETCHES: 0
L1D PREFETCHES SAME FILL-ORIGIN LEVEL: 0 DIFFERENT FILL-ORIGIN LEVEL: 0
L1D AVERAGE MISS LATENCY: 111.478 cycles
L1D RQ	ACCESS:   37614365	FORWARD:          0	MERGED:   14739005	TO_CACHE:   22875360
L1D WQ	ACCESS:    5428534	FORWARD:          0	MERGED:          0	TO_CACHE:    5428534

L1D UNIQUE REGIONS ACCESSED: 0
L1D REGIONS CONFLICTS: 0
L1D Cross Page Prefetch Requests: 0
L1D Same Page Prefetch Requests: 0
L1D ROI Sum of L1D PQ occupancy: 0
L1D PREFETCHES PUSHED FROM L2C: 0
L1I TOTAL     ACCESS:   16182921  HIT:   16182921  MISS:          0  HIT %:        100  MISS %:          0   MPKI: 0
L1I LOAD      ACCESS:   16182921  HIT:   16182921  MISS:          0  HIT %:        100  MISS %:          0   MPKI: 0
L1I PREFETCH  REQUESTED:          0  ISSUED:          0  USEFUL:          0  USELESS:          0
L1I USEFUL LOAD PREFETCHES:          0 PREFETCH ISSUED TO LOWER LEVEL:          0  ACCURACY: -nan
L1I TIMELY PREFETCHES:          0 LATE PREFETCHES: 0 DROPPED PREFETCHES: 0
L1I PREFETCHES SAME FILL-ORIGIN LEVEL: 0 DIFFERENT FILL-ORIGIN LEVEL: 0
L1I AVERAGE MISS LATENCY: -nan cycles
L1I RQ	ACCESS:   25997145	FORWARD:          0	MERGED:    9814225	TO_CACHE:   16182920

BTB TOTAL     ACCESS:    5346353  HIT:    5346344  MISS:          9  HIT %:    99.9998  MISS %: 0.000168339   MPKI: 9e-05
BTB BRANCH_DIRECT_JUMP	ACCESS:          0  HIT:          0  MISS:          0
BTB BRANCH_INDIRECT	ACCESS:          0  HIT:          0  MISS:          0
BTB BRANCH_CONDITIONAL	ACCESS:    5346353  HIT:    5346344  MISS:          9
BTB BRANCH_DIRECT_CALL	ACCESS:          0  HIT:          0  MISS:          0
BTB BRANCH_INDIRECT_CALL	ACCESS:          0  HIT:          0  MISS:          0
BTB BRANCH_RETURN	ACCESS:          0  HIT:          0  MISS:          0
BTB BRANCH_OTHER ACCESS:          0  HIT:          0  MISS:          0

L2C TOTAL     ACCESS:    4571266  HIT:    2163209  MISS:    2408057  HIT %:    47.3219  MISS %:    52.6781   MPKI: 24.0806
L2C LOAD      ACCESS:    1499957  HIT:    1394044  MISS:     105913  HIT %:    92.9389  MISS %:    7.06107   MPKI: 1.05913
L2C DATA LOAD MPKI: 1.05913
L2C INSTRUCTION LOAD MPKI: 0
L2C RFO       ACCESS:     682496  HIT:          0  MISS:     682496  HIT %:          0  MISS %:        100   MPKI: 6.82496
L2C PREFETCH  ACCESS:    1657809  HIT:      79219  MISS:    1578590  HIT %:    4.77854  MISS %:    95.2215   MPKI: 15.7859
L2C DATA PREFETCH MPKI: 15.7859
L2C INSTRUCTION PREFETCH MPKI: 0
L2C WRITEBACK ACCESS:     682232  HIT:     651437  MISS:      30795  HIT %:    95.4861  MISS %:    4.51386   MPKI: 0.30795
L2C LOAD TRANSLATION ACCESS:      48772  HIT:      38509  MISS:      10263  HIT %:    78.9572  MISS %:    21.0428   MPKI: 0.10263
L2C PREFETCH  REQUESTED:    1675741  ISSUED:    1675741  USEFUL:    1394042  USELESS:     184347
L2C USEFUL LOAD PREFETCHES:    1394042 PREFETCH ISSUED TO LOWER LEVEL:    1591856  ACCURACY: 87.5734
L2C TIMELY PREFETCHES:    1394042 LATE PREFETCHES: 13247 DROPPED PREFETCHES: 0
L2C PREFETCHES SAME FILL-ORIGIN LEVEL: 1591856 DIFFERENT FILL-ORIGIN LEVEL: 0
L2C AVERAGE MISS LATENCY: 258.85 cycles
L2C RQ	ACCESS:    2231232	FORWARD:          0	MERGED:          0	TO_CACHE:    2231232
L2C WQ	ACCESS:     682233	FORWARD:          0	MERGED:          0	TO_CACHE:     682233
L2C PQ	ACCESS:    1675741	FORWARD:          0	MERGED:          0	TO_CACHE:    1675741

L2C Instructions Evicting Data 0
L2C Translations Evicting Data 10233
L2C Data Evicting Data 2356886
L2C Instructions Evicting Instructions 0
L2C Translations Evicting Instructions 0
L2C Data Evicting Instructions 0
L2C Instructions Evicting Translations 0
L2C Translations Evicting Translations 30
L2C Data Evicting Translations 10113
L2C Dense regions hint from L2: 0
PSCL5 TOTAL     ACCESS:      48707  HIT:      48707  MISS:          0  HIT %:        100  MISS %:          0   MPKI: 0
PSCL5 LOAD TRANSLATION ACCESS:      48707  HIT:      48707  MISS:          0  HIT %:        100  MISS %:          0   MPKI: 0
PSCL5 PREFETCH  REQUESTED:          0  ISSUED:          0  USEFUL:          0  USELESS:          0
PSCL5 USEFUL LOAD PREFETCHES:          0 PREFETCH ISSUED TO LOWER LEVEL:          0  ACCURACY: -nan
PSCL5 TIMELY PREFETCHES:          0 LATE PREFETCHES: 0 DROPPED PREFETCHES: 0
PSCL5 PREFETCHES SAME FILL-ORIGIN LEVEL: 0 DIFFERENT FILL-ORIGIN LEVEL: 0

PSCL4 TOTAL     ACCESS:      48707  HIT:      48707  MISS:          0  HIT %:        100  MISS %:          0   MPKI: 0
PSCL4 LOAD TRANSLATION ACCESS:      48707  HIT:      48707  MISS:          0  HIT %:        100  MISS %:          0   MPKI: 0
PSCL4 PREFETCH  REQUESTED:          0  ISSUED:          0  USEFUL:          0  USELESS:          0
PSCL4 USEFUL LOAD PREFETCHES:          0 PREFETCH ISSUED TO LOWER LEVEL:          0  ACCURACY: -nan
PSCL4 TIMELY PREFETCHES:          0 LATE PREFETCHES: 0 DROPPED PREFETCHES: 0
PSCL4 PREFETCHES SAME FILL-ORIGIN LEVEL: 0 DIFFERENT FILL-ORIGIN LEVEL: 0

PSCL3 TOTAL     ACCESS:      48707  HIT:      48707  MISS:          0  HIT %:        100  MISS %:          0   MPKI: 0
PSCL3 LOAD TRANSLATION ACCESS:      48707  HIT:      48707  MISS:          0  HIT %:        100  MISS %:          0   MPKI: 0
PSCL3 PREFETCH  REQUESTED:          0  ISSUED:          0  USEFUL:          0  USELESS:          0
PSCL3 USEFUL LOAD PREFETCHES:          0 PREFETCH ISSUED TO LOWER LEVEL:          0  ACCURACY: -nan
PSCL3 TIMELY PREFETCHES:          0 LATE PREFETCHES: 0 DROPPED PREFETCHES: 0
PSCL3 PREFETCHES SAME FILL-ORIGIN LEVEL: 0 DIFFERENT FILL-ORIGIN LEVEL: 0

PSCL2 TOTAL     ACCESS:      48707  HIT:      48570  MISS:        137  HIT %:    99.7187  MISS %:   0.281274   MPKI: 0.00137
PSCL2 LOAD TRANSLATION ACCESS:      48707  HIT:      48570  MISS:        137  HIT %:    99.7187  MISS %:   0.281274   MPKI: 0.00137
PSCL2 PREFETCH  REQUESTED:          0  ISSUED:          0  USEFUL:          0  USELESS:          0
PSCL2 USEFUL LOAD PREFETCHES:          0 PREFETCH ISSUED TO LOWER LEVEL:          0  ACCURACY: -nan
PSCL2 TIMELY PREFETCHES:          0 LATE PREFETCHES: 0 DROPPED PREFETCHES: 0
PSCL2 PREFETCHES SAME FILL-ORIGIN LEVEL: 0 DIFFERENT FILL-ORIGIN LEVEL: 0

LLC TOTAL     ACCESS:    3058034  HIT:     380895  MISS:    2677139  HIT %:    12.4556  MISS %:    87.5444   MPKI: 26.7714
LLC LOAD      ACCESS:      92666  HIT:        808  MISS:      91858  HIT %:   0.871949  MISS %:    99.1281   MPKI: 0.91858
LLC RFO       ACCESS:     682496  HIT:          1  MISS:     682495  HIT %: 0.000146521  MISS %:    99.9999   MPKI: 6.82495
LLC PREFETCH  ACCESS:    1591837  HIT:       6186  MISS:    1585651  HIT %:   0.388608  MISS %:    99.6114   MPKI: 15.8565
LLC WRITEBACK ACCESS:     680772  HIT:     373687  MISS:     307085  HIT %:    54.8917  MISS %:    45.1083   MPKI: 3.07085
LLC LOAD TRANSLATION ACCESS:      10263  HIT:        213  MISS:      10050  HIT %:    2.07542  MISS %:    97.9246   MPKI: 0.1005
LLC PREFETCH  REQUESTED:          0  ISSUED:          0  USEFUL:        726  USELESS:    1579913
LLC USEFUL LOAD PREFETCHES:        726 PREFETCH ISSUED TO LOWER LEVEL:    1585670  ACCURACY: 0.0457851
LLC TIMELY PREFETCHES:        726 LATE PREFETCHES: 0 DROPPED PREFETCHES: 0
LLC PREFETCHES SAME FILL-ORIGIN LEVEL: 0 DIFFERENT FILL-ORIGIN LEVEL: 0
LLC AVERAGE MISS LATENCY: 206.304 cycles
LLC RQ	ACCESS:     785431	FORWARD:          0	MERGED:          0	TO_CACHE:     785431
LLC WQ	ACCESS:     680772	FORWARD:          0	MERGED:          0	TO_CACHE:     680772
LLC PQ	ACCESS:    1591856	FORWARD:          0	MERGED:          0	TO_CACHE:    1591856

LLC Dense regions hint to LLC: 0

RAW hits: 10
Loads Generated: 37614380
Loads sent to L1D: 37614365
Stores Generated: 5428535
Stores sent to L1D: 5428534
Major fault: 0 Minor fault: 32209
Allocated PAGES: 32209
[Bingo] PHT Access: 63943
[Bingo] PHT Hit PC+Addr: 1021
[Bingo] PHT Hit PC+Offs: 61967
[Bingo] PHT Miss: 955
[Bingo] Prefetch PC+Addr: 0
[Bingo] Prefetch PC+Offs: 0
[Bingo] Useful PC+Addr: 0
[Bingo] Useful PC+Offs: 0
[Bingo] Useless PC+Addr: 0
[Bingo] Useless PC+Offs: 0
[Bingo] L1 Prefetch per Region: 0
[Bingo] L2 Prefetch per Region: 28.3774
[Bingo] L3 Prefetch per Region: 0
[Bingo] No Prefetch per Region: 3.62263
[Bingo] Number of Voters Mean: 15.095
[Bingo] Number of Voters SD: 2.85534
PHT read accesses: 966441
PHT write accesses: 62470
AT read accesses: 1481003
AT write accesses: 1496503
FT read accesses: 189007
FT write accesses: 63943
PS read accesses: 245188
PS write accesses: 62988
PHT tag read accesses: 2963210
PHT tag write accesses: 63491
AT tag read accesses: 65063497
AT tag write accesses: 1543536
FT tag read accesses: 42657122
FT tag write accesses: 190417
PS tag read accesses: 26445250
PS tag write accesses: 307226

DRAM Statistics
 CHANNEL 0
 RQ ROW_BUFFER_HIT:    1145292  ROW_BUFFER_MISS:    1224768
 DBUS_CONGESTED:       2708
 WQ ROW_BUFFER_HIT:     272081  ROW_BUFFER_MISS:     386249  FULL:        949

 AVG_CONGESTED_CYCLE: 4
 All warmup complete: 2
Channel 0 Bank busy for read cycles: 0
Channel 0 Bank busy for write cycles: 0
Channel 0
Rank 0
0banks busy for read cycles: 14379234
0banks busy for write cycles: 26240
1banks busy for read cycles: 29879291
1banks busy for write cycles: 3666840
2banks busy for read cycles: 14326007
2banks busy for write cycles: 2128621
3banks busy for read cycles: 2862609
3banks busy for write cycles: 1727520
4banks busy for read cycles: 2076936
4banks busy for write cycles: 1620833
5banks busy for read cycles: 1696238
5banks busy for write cycles: 1606860
6banks busy for read cycles: 1826995
6banks busy for write cycles: 1692957
7banks busy for read cycles: 3505949
7banks busy for write cycles: 2618411
8banks busy for read cycles: 15735115
8banks busy for write cycles: 12637384

CPU 0 Branch Prediction Accuracy: 99.8815% MPKI: 0.0634 Average ROB Occupancy at Mispredict: 200.719
Branch types
NOT_BRANCH: 94651490 94.6515%
BRANCH_DIRECT_JUMP: 0 0%
BRANCH_INDIRECT: 0 0%
BRANCH_CONDITIONAL: 5348415 5.34841%
BRANCH_DIRECT_CALL: 0 0%
BRANCH_INDIRECT_CALL: 0 0%
BRANCH_RETURN: 0 0%
BRANCH_OTHER: 0 0%

DRAM PAGES: 1048576
Allocated PAGES: 32209
