
*** ChampSim Multicore Out-of-Order Simulator ***

Warmup Instructions: 50000000
Simulation Instructions: 100000000
Number of CPUs: 1
LLC sets: 2048
LLC ways: 16
Off-chip DRAM Size: 4096 MB Channels: 1 Width: 64-bit Data Rate: 6400 MT/s
CPU 0 runs ../SPEC2017//654.roms_s-1390B.champsimtrace.xz
.xz
BTB has LRU replacement policy
ITLB has LRU replacement policy
DTLB has LRU replacement policy
STLB has LRU replacement policy
L1I has LRU replacement policy
IP Table Entries: 64
L1D has LRU replacement policy
Initialize SRRIP state for L2C
Initialize DRRIP state for LLC
Heartbeat CPU 0 instructions: 10000001 cycles: 3756024 heartbeat IPC: 2.66239 cumulative IPC: 2.66239 (Simulation time: 0 hr 6 min 49 sec) 
Heartbeat CPU 0 instructions: 20000000 cycles: 7248728 heartbeat IPC: 2.86311 cumulative IPC: 2.7591 (Simulation time: 0 hr 10 min 32 sec) 
Heartbeat CPU 0 instructions: 30000003 cycles: 10665452 heartbeat IPC: 2.92678 cumulative IPC: 2.81282 (Simulation time: 0 hr 13 min 31 sec) 
Heartbeat CPU 0 instructions: 40000002 cycles: 14438039 heartbeat IPC: 2.6507 cumulative IPC: 2.77046 (Simulation time: 0 hr 18 min 0 sec) 
Heartbeat CPU 0 instructions: 50000000 cycles: 18783661 heartbeat IPC: 2.30117 cumulative IPC: 2.66189 (Simulation time: 0 hr 22 min 9 sec) 

Warmup complete CPU 0 instructions: 50000002 cycles: 18783662 (Simulation time: 0 hr 22 min 9 sec) 

Heartbeat CPU 0 instructions: 60000001 cycles: 36207752 heartbeat IPC: 0.573918 cumulative IPC: 0.573918 (Simulation time: 0 hr 26 min 10 sec) 
Heartbeat CPU 0 instructions: 70000002 cycles: 52549880 heartbeat IPC: 0.611915 cumulative IPC: 0.592308 (Simulation time: 0 hr 29 min 57 sec) 
Heartbeat CPU 0 instructions: 80000001 cycles: 68889657 heartbeat IPC: 0.612003 cumulative IPC: 0.598731 (Simulation time: 0 hr 33 min 41 sec) 
Heartbeat CPU 0 instructions: 90000001 cycles: 91785781 heartbeat IPC: 0.436755 cumulative IPC: 0.547929 (Simulation time: 0 hr 38 min 38 sec) 
Heartbeat CPU 0 instructions: 100000001 cycles: 117165086 heartbeat IPC: 0.394022 cumulative IPC: 0.508226 (Simulation time: 0 hr 44 min 31 sec) 
Heartbeat CPU 0 instructions: 110000000 cycles: 139549682 heartbeat IPC: 0.446736 cumulative IPC: 0.496828 (Simulation time: 0 hr 49 min 45 sec) 
Heartbeat CPU 0 instructions: 120000001 cycles: 157611878 heartbeat IPC: 0.553643 cumulative IPC: 0.50422 (Simulation time: 0 hr 53 min 50 sec) 
Heartbeat CPU 0 instructions: 130000000 cycles: 175646647 heartbeat IPC: 0.554484 cumulative IPC: 0.509999 (Simulation time: 0 hr 58 min 3 sec) 
Heartbeat CPU 0 instructions: 140000001 cycles: 207021177 heartbeat IPC: 0.31873 cumulative IPC: 0.478119 (Simulation time: 1 hr 3 min 13 sec) 
Heartbeat CPU 0 instructions: 150000000 cycles: 232832323 heartbeat IPC: 0.387429 cumulative IPC: 0.467183 (Simulation time: 1 hr 6 min 15 sec) 
Finished CPU 0 instructions: 100000002 cycles: 214048662 cumulative IPC: 0.467184 (Simulation time: 1 hr 6 min 15 sec) 

ChampSim completed all CPUs

Region of Interest Statistics

CPU 0 cumulative IPC: 0.467184 instructions: 100000002 cycles: 214048662

CPU 0 Average Load ROB stall cycles: 4.29262e+07
CPU 0 Fraction of times ROB stalled by Loads: 35.8517
CPU 0 Percentage of Load stall cycles in Total stall cycles: 1.91608e+08
Issued all: 168759225
Issued LT all: 158063887
rob_not_full_when_issued_lt_all: 32338907
Issued LT one: 144145271
rob_not_full_when_issued_lt_one: 27804334
 Total stall cycles: 190003277
 Total load stall cycles: 364060679429938
Unique Load IPs: 1142
CPU 0 NUM of IPS identified critical: 5
CPU 0 Num of Load IPs stalling ROB: 0
Threshold modification factor: 0
Trouble in retire width: -nan
MaC = Marked as critical.
lt_50_percent_before_Mac: 2
gt_90_percent_before_Mac: 1
gt_75_percent_before_Mac: 0
gt_50_percent_before_Mac: 2
stall_proportion_bin_same_before_after: 0
stall_proportion_bin_lower_before_after: 0
stall_proportion_bin_upper_before_after: 0
average_stall_proportion_before: 0.0134094
average_stall_proportion_after: 0.0125825
Critical_IP_Detector_Accuracy_70: 0
Critical_IP_Detector_Accuracy_80: 0
Critical_IP_Detector_Accuracy_90: 0
Critical_IP_Detector_Coverage_70: 0
Critical_IP_Detector_Coverage_80: 0
Critical_IP_Detector_Coverage_90: 0
stat_90_percent_critical_ip_stalls_freq: 125966
stat_90_percent_non_critical_ip_stalls_freq: 18446744073709425650
AVERAGE_ROB_Occupancy_90_Percent_Critical_IP_Stalls: 349.032
AVERAGE_ROB_Occupancy_90_Percent_Non_Critical_IP_Stalls: 4.66525e-11
Critical_IP_ROB_Stalls_Bucket_0: 199
Non-critical_IP_ROB_Stalls_Bucket_0: 206453
Critical_IP_ROB_Stalls_Bucket_1: 515
Non-critical_IP_ROB_Stalls_Bucket_1: 99785
Critical_IP_ROB_Stalls_Bucket_2: 73
Non-critical_IP_ROB_Stalls_Bucket_2: 69370
Critical_IP_ROB_Stalls_Bucket_3: 376
Non-critical_IP_ROB_Stalls_Bucket_3: 36774
Critical_IP_ROB_Stalls_Bucket_4: 183
Non-critical_IP_ROB_Stalls_Bucket_4: 110370
Critical_IP_ROB_Stalls_Bucket_5: 7555
Non-critical_IP_ROB_Stalls_Bucket_5: 287391
Critical_IP_ROB_Stalls_Bucket_6: 34389
Non-critical_IP_ROB_Stalls_Bucket_6: 2187178
0 => IPs accounting for >50 percent of stalls, 1 => 55, 2 => 60, 3 => 65 and so on till 90.
percent50: inf num IPs:  1
percent55: inf num IPs: 1
percent60: inf num IPs: 1
percent65: inf num IPs: 1
percent70: inf num IPs: 1
percent75: inf num IPs: 1
percent80: inf num IPs: 1
percent85: inf num IPs: 1
percent90: inf num IPs: 1
Critical_ROB_Stalls_Percent_0_Bucket_0: 19
Non-critical_ROB_Stalls_Percent_0_Bucket_0: 206633
Critical_ROB_Stalls_Percent_0_Bucket_1: 126
Non-critical_ROB_Stalls_Percent_0_Bucket_1: 100174
Critical_ROB_Stalls_Percent_0_Bucket_2: 507
Non-critical_ROB_Stalls_Percent_0_Bucket_2: 68936
Critical_ROB_Stalls_Percent_0_Bucket_3: 245
Non-critical_ROB_Stalls_Percent_0_Bucket_3: 36905
Critical_ROB_Stalls_Percent_0_Bucket_4: 526
Non-critical_ROB_Stalls_Percent_0_Bucket_4: 110027
Critical_ROB_Stalls_Percent_0_Bucket_5: 568
Non-critical_ROB_Stalls_Percent_0_Bucket_5: 294378
Critical_ROB_Stalls_Percent_0_Bucket_6: 123975
Non-critical_ROB_Stalls_Percent_0_Bucket_6: 2097592
Critical_ROB_Stalls_Percent_1_Bucket_0: 19
Non-critical_ROB_Stalls_Percent_1_Bucket_0: 206633
Critical_ROB_Stalls_Percent_1_Bucket_1: 126
Non-critical_ROB_Stalls_Percent_1_Bucket_1: 100174
Critical_ROB_Stalls_Percent_1_Bucket_2: 507
Non-critical_ROB_Stalls_Percent_1_Bucket_2: 68936
Critical_ROB_Stalls_Percent_1_Bucket_3: 245
Non-critical_ROB_Stalls_Percent_1_Bucket_3: 36905
Critical_ROB_Stalls_Percent_1_Bucket_4: 526
Non-critical_ROB_Stalls_Percent_1_Bucket_4: 110027
Critical_ROB_Stalls_Percent_1_Bucket_5: 568
Non-critical_ROB_Stalls_Percent_1_Bucket_5: 294378
Critical_ROB_Stalls_Percent_1_Bucket_6: 123975
Non-critical_ROB_Stalls_Percent_1_Bucket_6: 2097592
Critical_ROB_Stalls_Percent_2_Bucket_0: 19
Non-critical_ROB_Stalls_Percent_2_Bucket_0: 206633
Critical_ROB_Stalls_Percent_2_Bucket_1: 126
Non-critical_ROB_Stalls_Percent_2_Bucket_1: 100174
Critical_ROB_Stalls_Percent_2_Bucket_2: 507
Non-critical_ROB_Stalls_Percent_2_Bucket_2: 68936
Critical_ROB_Stalls_Percent_2_Bucket_3: 245
Non-critical_ROB_Stalls_Percent_2_Bucket_3: 36905
Critical_ROB_Stalls_Percent_2_Bucket_4: 526
Non-critical_ROB_Stalls_Percent_2_Bucket_4: 110027
Critical_ROB_Stalls_Percent_2_Bucket_5: 568
Non-critical_ROB_Stalls_Percent_2_Bucket_5: 294378
Critical_ROB_Stalls_Percent_2_Bucket_6: 123975
Non-critical_ROB_Stalls_Percent_2_Bucket_6: 2097592
Critical_ROB_Stalls_Percent_3_Bucket_0: 19
Non-critical_ROB_Stalls_Percent_3_Bucket_0: 206633
Critical_ROB_Stalls_Percent_3_Bucket_1: 126
Non-critical_ROB_Stalls_Percent_3_Bucket_1: 100174
Critical_ROB_Stalls_Percent_3_Bucket_2: 507
Non-critical_ROB_Stalls_Percent_3_Bucket_2: 68936
Critical_ROB_Stalls_Percent_3_Bucket_3: 245
Non-critical_ROB_Stalls_Percent_3_Bucket_3: 36905
Critical_ROB_Stalls_Percent_3_Bucket_4: 526
Non-critical_ROB_Stalls_Percent_3_Bucket_4: 110027
Critical_ROB_Stalls_Percent_3_Bucket_5: 568
Non-critical_ROB_Stalls_Percent_3_Bucket_5: 294378
Critical_ROB_Stalls_Percent_3_Bucket_6: 123975
Non-critical_ROB_Stalls_Percent_3_Bucket_6: 2097592
Critical_ROB_Stalls_Percent_4_Bucket_0: 19
Non-critical_ROB_Stalls_Percent_4_Bucket_0: 206633
Critical_ROB_Stalls_Percent_4_Bucket_1: 126
Non-critical_ROB_Stalls_Percent_4_Bucket_1: 100174
Critical_ROB_Stalls_Percent_4_Bucket_2: 507
Non-critical_ROB_Stalls_Percent_4_Bucket_2: 68936
Critical_ROB_Stalls_Percent_4_Bucket_3: 245
Non-critical_ROB_Stalls_Percent_4_Bucket_3: 36905
Critical_ROB_Stalls_Percent_4_Bucket_4: 526
Non-critical_ROB_Stalls_Percent_4_Bucket_4: 110027
Critical_ROB_Stalls_Percent_4_Bucket_5: 568
Non-critical_ROB_Stalls_Percent_4_Bucket_5: 294378
Critical_ROB_Stalls_Percent_4_Bucket_6: 123975
Non-critical_ROB_Stalls_Percent_4_Bucket_6: 2097592
Critical_ROB_Stalls_Percent_5_Bucket_0: 19
Non-critical_ROB_Stalls_Percent_5_Bucket_0: 206633
Critical_ROB_Stalls_Percent_5_Bucket_1: 126
Non-critical_ROB_Stalls_Percent_5_Bucket_1: 100174
Critical_ROB_Stalls_Percent_5_Bucket_2: 507
Non-critical_ROB_Stalls_Percent_5_Bucket_2: 68936
Critical_ROB_Stalls_Percent_5_Bucket_3: 245
Non-critical_ROB_Stalls_Percent_5_Bucket_3: 36905
Critical_ROB_Stalls_Percent_5_Bucket_4: 526
Non-critical_ROB_Stalls_Percent_5_Bucket_4: 110027
Critical_ROB_Stalls_Percent_5_Bucket_5: 568
Non-critical_ROB_Stalls_Percent_5_Bucket_5: 294378
Critical_ROB_Stalls_Percent_5_Bucket_6: 123975
Non-critical_ROB_Stalls_Percent_5_Bucket_6: 2097592
Critical_ROB_Stalls_Percent_6_Bucket_0: 19
Non-critical_ROB_Stalls_Percent_6_Bucket_0: 206633
Critical_ROB_Stalls_Percent_6_Bucket_1: 126
Non-critical_ROB_Stalls_Percent_6_Bucket_1: 100174
Critical_ROB_Stalls_Percent_6_Bucket_2: 507
Non-critical_ROB_Stalls_Percent_6_Bucket_2: 68936
Critical_ROB_Stalls_Percent_6_Bucket_3: 245
Non-critical_ROB_Stalls_Percent_6_Bucket_3: 36905
Critical_ROB_Stalls_Percent_6_Bucket_4: 526
Non-critical_ROB_Stalls_Percent_6_Bucket_4: 110027
Critical_ROB_Stalls_Percent_6_Bucket_5: 568
Non-critical_ROB_Stalls_Percent_6_Bucket_5: 294378
Critical_ROB_Stalls_Percent_6_Bucket_6: 123975
Non-critical_ROB_Stalls_Percent_6_Bucket_6: 2097592
Critical_ROB_Stalls_Percent_7_Bucket_0: 19
Non-critical_ROB_Stalls_Percent_7_Bucket_0: 206633
Critical_ROB_Stalls_Percent_7_Bucket_1: 126
Non-critical_ROB_Stalls_Percent_7_Bucket_1: 100174
Critical_ROB_Stalls_Percent_7_Bucket_2: 507
Non-critical_ROB_Stalls_Percent_7_Bucket_2: 68936
Critical_ROB_Stalls_Percent_7_Bucket_3: 245
Non-critical_ROB_Stalls_Percent_7_Bucket_3: 36905
Critical_ROB_Stalls_Percent_7_Bucket_4: 526
Non-critical_ROB_Stalls_Percent_7_Bucket_4: 110027
Critical_ROB_Stalls_Percent_7_Bucket_5: 568
Non-critical_ROB_Stalls_Percent_7_Bucket_5: 294378
Critical_ROB_Stalls_Percent_7_Bucket_6: 123975
Non-critical_ROB_Stalls_Percent_7_Bucket_6: 2097592
Critical_ROB_Stalls_Percent_8_Bucket_0: 19
Non-critical_ROB_Stalls_Percent_8_Bucket_0: 206633
Critical_ROB_Stalls_Percent_8_Bucket_1: 126
Non-critical_ROB_Stalls_Percent_8_Bucket_1: 100174
Critical_ROB_Stalls_Percent_8_Bucket_2: 507
Non-critical_ROB_Stalls_Percent_8_Bucket_2: 68936
Critical_ROB_Stalls_Percent_8_Bucket_3: 245
Non-critical_ROB_Stalls_Percent_8_Bucket_3: 36905
Critical_ROB_Stalls_Percent_8_Bucket_4: 526
Non-critical_ROB_Stalls_Percent_8_Bucket_4: 110027
Critical_ROB_Stalls_Percent_8_Bucket_5: 568
Non-critical_ROB_Stalls_Percent_8_Bucket_5: 294378
Critical_ROB_Stalls_Percent_8_Bucket_6: 123975
Non-critical_ROB_Stalls_Percent_8_Bucket_6: 2097592
Average ROB occupancy Load Stall Begin: 280.071
Average ROB occupancy Load Stall End: 297.491
Min ROB occupancy Load Stall Begin: 1
Max ROB occupancy Load Stall Begin: 352
Min ROB occupancy Load Stall End: 1
Max ROB occupancy Load Stall End: 352
Average ROB occupancy Critical Load Stall Begin: 294.966
Average ROB occupancy Critical Load Stall End: 299.427
Min ROB occupancy Critical Load Stall Begin: 8
Max ROB occupancy Critical Load Stall Begin: 352
Min ROB occupancy Critical Load Stall End: 8
Max ROB occupancy Critical Load Stall End: 352
 ROB Load Stall Begin Bucket Count 0: 284877
 ROB Load Stall End Bucket Count 0: 206652
 ROB Critical Load Stall Begin Bucket Count 0: 120
 ROB Critical Load Stall End Bucket Count 0: 115
 ROB Load Stall Begin Bucket Count 1: 70554
 ROB Load Stall End Bucket Count 1: 100300
 ROB Critical Load Stall Begin Bucket Count 1: 280
 ROB Critical Load Stall End Bucket Count 1: 285
 ROB Load Stall Begin Bucket Count 2: 70098
 ROB Load Stall End Bucket Count 2: 69443
 ROB Critical Load Stall Begin Bucket Count 2: 18
 ROB Critical Load Stall End Bucket Count 2: 18
 ROB Load Stall Begin Bucket Count 3: 38247
 ROB Load Stall End Bucket Count 3: 37150
 ROB Critical Load Stall Begin Bucket Count 3: 146
 ROB Critical Load Stall End Bucket Count 3: 145
 ROB Load Stall Begin Bucket Count 4: 137499
 ROB Load Stall End Bucket Count 4: 110553
 ROB Critical Load Stall Begin Bucket Count 4: 18
 ROB Critical Load Stall End Bucket Count 4: 19
 ROB Load Stall Begin Bucket Count 5: 580285
 ROB Load Stall End Bucket Count 5: 294946
 ROB Critical Load Stall Begin Bucket Count 5: 2545
 ROB Critical Load Stall End Bucket Count 5: 2376
 ROB Load Stall Begin Bucket Count 6: 1859051
 ROB Load Stall End Bucket Count 6: 2221567
 ROB Critical Load Stall Begin Bucket Count 6: 2892
 ROB Critical Load Stall End Bucket Count 6: 3061
PIST Tag Read Accesses: 0
PIST Read Accesses: 0
PIST Tag Write Accesses: 0
PIST Write Accesses: 0
Criticality detector called times: 0
Max global_stall_cycles_count: 0
Threshold Modified: 0 times, factor: 0
Sturdy critical IP cache stats: 
 Unused entries: 0
CIC Tag Read Accesses: 0
CIC Read Accesses: 0
CIC Tag Write Accesses: 0
CIC Write Accesses: 0
Wobbly critical IP cache stats: 
 Unused entries: 5
CIC Tag Read Accesses: 288290088
CIC Read Accesses: 0
CIC Tag Write Accesses: 596171
CIC Write Accesses: 0
ITLB TOTAL     ACCESS:   15194522  HIT:   15194517  MISS:          5  HIT %:        100  MISS %: 3.29066e-05   MPKI: 5e-05
ITLB LOAD TRANSLATION ACCESS:   15194522  HIT:   15194517  MISS:          5  HIT %:        100  MISS %: 3.29066e-05   MPKI: 5e-05
ITLB PREFETCH  REQUESTED:          0  ISSUED:          0  USEFUL:          0  USELESS:          0
ITLB USEFUL LOAD PREFETCHES:          0 PREFETCH ISSUED TO LOWER LEVEL:          0  ACCURACY: -nan
ITLB TIMELY PREFETCHES:          0 LATE PREFETCHES: 0 DROPPED PREFETCHES: 0
ITLB PREFETCHES SAME FILL-ORIGIN LEVEL: 0 DIFFERENT FILL-ORIGIN LEVEL: 0
ITLB AVERAGE MISS LATENCY: 378 cycles
ITLB RQ	ACCESS:   18545221	FORWARD:          0	MERGED:    3350699	TO_CACHE:   15194522

DTLB TOTAL     ACCESS:   18438336  HIT:   18391408  MISS:      46928  HIT %:    99.7455  MISS %:   0.254513   MPKI: 0.46928
DTLB LOAD TRANSLATION ACCESS:   18438336  HIT:   18391408  MISS:      46928  HIT %:    99.7455  MISS %:   0.254513   MPKI: 0.46928
DTLB PREFETCH  REQUESTED:          0  ISSUED:          0  USEFUL:          0  USELESS:          0
DTLB USEFUL LOAD PREFETCHES:          0 PREFETCH ISSUED TO LOWER LEVEL:          0  ACCURACY: -nan
DTLB TIMELY PREFETCHES:          0 LATE PREFETCHES: 0 DROPPED PREFETCHES: 0
DTLB PREFETCHES SAME FILL-ORIGIN LEVEL: 0 DIFFERENT FILL-ORIGIN LEVEL: 0
DTLB AVERAGE MISS LATENCY: 106.207 cycles
DTLB RQ	ACCESS:   19874869	FORWARD:          0	MERGED:    1406883	TO_CACHE:   18467986

STLB TOTAL     ACCESS:      79861  HIT:      34762  MISS:      45099  HIT %:    43.5281  MISS %:    56.4719   MPKI: 0.45099
STLB LOAD TRANSLATION ACCESS:      46933  HIT:       1834  MISS:      45099  HIT %:     3.9077  MISS %:    96.0923   MPKI: 0.45099
STLB TRANSLATION FROM L1D PREFETCHER ACCESS:      32928  HIT:      32928  MISS:          0  HIT %:        100  MISS %:          0   MPKI: 0
STLB PREFETCH  REQUESTED:          0  ISSUED:          0  USEFUL:          0  USELESS:          0
STLB USEFUL LOAD PREFETCHES:          0 PREFETCH ISSUED TO LOWER LEVEL:          0  ACCURACY: -nan
STLB TIMELY PREFETCHES:          0 LATE PREFETCHES: 0 DROPPED PREFETCHES: 0
STLB PREFETCHES SAME FILL-ORIGIN LEVEL: 0 DIFFERENT FILL-ORIGIN LEVEL: 0
STLB AVERAGE MISS LATENCY: 100.677 cycles
STLB RQ	ACCESS:      86434	FORWARD:          0	MERGED:       6573	TO_CACHE:      79861

STLB Hit, L1D data hit: 0
STLB Hit, L2C data hit: 0
STLB Hit, LLC data hit: 0
STLB Hit, LLC data miss: 0
STLB STLB hints to L2: 0
L1D TOTAL     ACCESS:   16765952  HIT:   14213613  MISS:    2552339  HIT %:    84.7767  MISS %:    15.2233   MPKI: 25.5234
L1D LOAD      ACCESS:   14278917  HIT:   12352003  MISS:    1926914  HIT %:    86.5052  MISS %:    13.4948   MPKI: 19.2691
L1D RFO       ACCESS:    2447556  HIT:    1851604  MISS:     595952  HIT %:    75.6511  MISS %:    24.3489   MPKI: 5.95952
L1D PREFETCH  ACCESS:      39479  HIT:      10006  MISS:      29473  HIT %:    25.3451  MISS %:    74.6549   MPKI: 0.29473
L1D PREFETCH  REQUESTED:      79002  ISSUED:      79002  USEFUL:      26198  USELESS:       3277
L1D USEFUL LOAD PREFETCHES:      26198 PREFETCH ISSUED TO LOWER LEVEL:      29495  ACCURACY: 88.8218
L1D TIMELY PREFETCHES:      26198 LATE PREFETCHES: 22 DROPPED PREFETCHES: 0
L1D PREFETCHES SAME FILL-ORIGIN LEVEL: 29495 DIFFERENT FILL-ORIGIN LEVEL: 0
L1D AVERAGE MISS LATENCY: 1551.61 cycles
L1D RQ	ACCESS:   29523335	FORWARD:          0	MERGED:   13745990	TO_CACHE:   15776711
L1D WQ	ACCESS:    4098158	FORWARD:        634	MERGED:          0	TO_CACHE:    4098158
L1D PQ	ACCESS:      39501	FORWARD:          0	MERGED:          0	TO_CACHE:      39501

L1D UNIQUE REGIONS ACCESSED: 0
L1D REGIONS CONFLICTS: 0
L1D Cross Page Prefetch Requests: 0
L1D Same Page Prefetch Requests: 3943587
L1D ROI Sum of L1D PQ occupancy: 520115
L1D PREFETCHES PUSHED FROM L2C: 0
L1I TOTAL     ACCESS:   18545044  HIT:   18544712  MISS:        332  HIT %:    99.9982  MISS %: 0.00179024   MPKI: 0.00332
L1I LOAD      ACCESS:   18545044  HIT:   18544712  MISS:        332  HIT %:    99.9982  MISS %: 0.00179024   MPKI: 0.00332
L1I PREFETCH  REQUESTED:          0  ISSUED:          0  USEFUL:          0  USELESS:          0
L1I USEFUL LOAD PREFETCHES:          0 PREFETCH ISSUED TO LOWER LEVEL:          0  ACCURACY: -nan
L1I TIMELY PREFETCHES:          0 LATE PREFETCHES: 0 DROPPED PREFETCHES: 0
L1I PREFETCHES SAME FILL-ORIGIN LEVEL: 0 DIFFERENT FILL-ORIGIN LEVEL: 0
L1I AVERAGE MISS LATENCY: 237.566 cycles
L1I RQ	ACCESS:   27123229	FORWARD:          0	MERGED:    8578008	TO_CACHE:   18545221

BTB TOTAL     ACCESS:    3186003  HIT:    3185934  MISS:         69  HIT %:    99.9978  MISS %: 0.00216572   MPKI: 0.00069
BTB BRANCH_DIRECT_JUMP	ACCESS:        512  HIT:        511  MISS:          1
BTB BRANCH_INDIRECT	ACCESS:          0  HIT:          0  MISS:          0
BTB BRANCH_CONDITIONAL	ACCESS:    3185485  HIT:    3185423  MISS:         62
BTB BRANCH_DIRECT_CALL	ACCESS:          3  HIT:          0  MISS:          3
BTB BRANCH_INDIRECT_CALL	ACCESS:          0  HIT:          0  MISS:          0
BTB BRANCH_RETURN	ACCESS:          3  HIT:          0  MISS:          3
BTB BRANCH_OTHER ACCESS:          0  HIT:          0  MISS:          0

L2C TOTAL     ACCESS:    3328662  HIT:    1013120  MISS:    2315542  HIT %:    30.4363  MISS %:    69.5637   MPKI: 23.1554
L2C LOAD      ACCESS:    1927224  HIT:     247638  MISS:    1679586  HIT %:    12.8495  MISS %:    87.1505   MPKI: 16.7959
L2C DATA LOAD MPKI: 16.7925
L2C INSTRUCTION LOAD MPKI: 0.00332
L2C RFO       ACCESS:     595952  HIT:          4  MISS:     595948  HIT %: 0.000671195  MISS %:    99.9993   MPKI: 5.95948
L2C PREFETCH  ACCESS:      29495  HIT:          2  MISS:      29493  HIT %: 0.00678081  MISS %:    99.9932   MPKI: 0.29493
L2C DATA PREFETCH MPKI: 0.29493
L2C INSTRUCTION PREFETCH MPKI: 0
L2C WRITEBACK ACCESS:     730811  HIT:     728818  MISS:       1993  HIT %:    99.7273  MISS %:   0.272711   MPKI: 0.01993
L2C LOAD TRANSLATION ACCESS:      45180  HIT:      36658  MISS:       8522  HIT %:    81.1377  MISS %:    18.8623   MPKI: 0.08522
L2C PREFETCH  REQUESTED:          0  ISSUED:          0  USEFUL:      21106  USELESS:      10352
L2C USEFUL LOAD PREFETCHES:      21106 PREFETCH ISSUED TO LOWER LEVEL:      29493  ACCURACY: 71.5627
L2C TIMELY PREFETCHES:      21106 LATE PREFETCHES: 0 DROPPED PREFETCHES: 0
L2C PREFETCHES SAME FILL-ORIGIN LEVEL: 0 DIFFERENT FILL-ORIGIN LEVEL: 0
L2C AVERAGE MISS LATENCY: 219.276 cycles
L2C RQ	ACCESS:    2568357	FORWARD:          0	MERGED:          0	TO_CACHE:    2568357
L2C WQ	ACCESS:     730811	FORWARD:          0	MERGED:          0	TO_CACHE:     730811
L2C PQ	ACCESS:      29495	FORWARD:          0	MERGED:          0	TO_CACHE:      29495

L2C Instructions Evicting Data 330
L2C Translations Evicting Data 8487
L2C Data Evicting Data 2295914
L2C Instructions Evicting Instructions 0
L2C Translations Evicting Instructions 1
L2C Data Evicting Instructions 331
L2C Instructions Evicting Translations 2
L2C Translations Evicting Translations 34
L2C Data Evicting Translations 8450
L2C Dense regions hint from L2: 0
PSCL5 TOTAL     ACCESS:      45099  HIT:      45099  MISS:          0  HIT %:        100  MISS %:          0   MPKI: 0
PSCL5 LOAD TRANSLATION ACCESS:      45099  HIT:      45099  MISS:          0  HIT %:        100  MISS %:          0   MPKI: 0
PSCL5 PREFETCH  REQUESTED:          0  ISSUED:          0  USEFUL:          0  USELESS:          0
PSCL5 USEFUL LOAD PREFETCHES:          0 PREFETCH ISSUED TO LOWER LEVEL:          0  ACCURACY: -nan
PSCL5 TIMELY PREFETCHES:          0 LATE PREFETCHES: 0 DROPPED PREFETCHES: 0
PSCL5 PREFETCHES SAME FILL-ORIGIN LEVEL: 0 DIFFERENT FILL-ORIGIN LEVEL: 0

PSCL4 TOTAL     ACCESS:      45099  HIT:      45099  MISS:          0  HIT %:        100  MISS %:          0   MPKI: 0
PSCL4 LOAD TRANSLATION ACCESS:      45099  HIT:      45099  MISS:          0  HIT %:        100  MISS %:          0   MPKI: 0
PSCL4 PREFETCH  REQUESTED:          0  ISSUED:          0  USEFUL:          0  USELESS:          0
PSCL4 USEFUL LOAD PREFETCHES:          0 PREFETCH ISSUED TO LOWER LEVEL:          0  ACCURACY: -nan
PSCL4 TIMELY PREFETCHES:          0 LATE PREFETCHES: 0 DROPPED PREFETCHES: 0
PSCL4 PREFETCHES SAME FILL-ORIGIN LEVEL: 0 DIFFERENT FILL-ORIGIN LEVEL: 0

PSCL3 TOTAL     ACCESS:      44838  HIT:      44836  MISS:          2  HIT %:    99.9955  MISS %:  0.0044605   MPKI: 2e-05
PSCL3 LOAD TRANSLATION ACCESS:      44838  HIT:      44836  MISS:          2  HIT %:    99.9955  MISS %:  0.0044605   MPKI: 2e-05
PSCL3 PREFETCH  REQUESTED:          0  ISSUED:          0  USEFUL:          0  USELESS:          0
PSCL3 USEFUL LOAD PREFETCHES:          0 PREFETCH ISSUED TO LOWER LEVEL:          0  ACCURACY: -nan
PSCL3 TIMELY PREFETCHES:          0 LATE PREFETCHES: 0 DROPPED PREFETCHES: 0
PSCL3 PREFETCHES SAME FILL-ORIGIN LEVEL: 0 DIFFERENT FILL-ORIGIN LEVEL: 0

PSCL2 TOTAL     ACCESS:      45099  HIT:      44995  MISS:        104  HIT %:    99.7694  MISS %:   0.230604   MPKI: 0.00104
PSCL2 LOAD TRANSLATION ACCESS:      45099  HIT:      44995  MISS:        104  HIT %:    99.7694  MISS %:   0.230604   MPKI: 0.00104
PSCL2 PREFETCH  REQUESTED:          0  ISSUED:          0  USEFUL:          0  USELESS:          0
PSCL2 USEFUL LOAD PREFETCHES:          0 PREFETCH ISSUED TO LOWER LEVEL:          0  ACCURACY: -nan
PSCL2 TIMELY PREFETCHES:          0 LATE PREFETCHES: 0 DROPPED PREFETCHES: 0
PSCL2 PREFETCHES SAME FILL-ORIGIN LEVEL: 0 DIFFERENT FILL-ORIGIN LEVEL: 0

LLC TOTAL     ACCESS:    3045780  HIT:     396833  MISS:    2648947  HIT %:    13.0289  MISS %:    86.9711   MPKI: 26.4895
LLC LOAD      ACCESS:    1679586  HIT:      26298  MISS:    1653288  HIT %:    1.56574  MISS %:    98.4343   MPKI: 16.5329
LLC RFO       ACCESS:     595948  HIT:       7490  MISS:     588458  HIT %:    1.25682  MISS %:    98.7432   MPKI: 5.88458
LLC PREFETCH  ACCESS:      29493  HIT:          0  MISS:      29493  HIT %:          0  MISS %:        100   MPKI: 0.29493
LLC WRITEBACK ACCESS:     732231  HIT:     363002  MISS:     369229  HIT %:    49.5748  MISS %:    50.4252   MPKI: 3.69229
LLC LOAD TRANSLATION ACCESS:       8522  HIT:         43  MISS:       8479  HIT %:   0.504576  MISS %:    99.4954   MPKI: 0.08479
LLC PREFETCH  REQUESTED:          0  ISSUED:          0  USEFUL:       1595  USELESS:      39208
LLC USEFUL LOAD PREFETCHES:       1595 PREFETCH ISSUED TO LOWER LEVEL:      29493  ACCURACY: 5.40806
LLC TIMELY PREFETCHES:       1595 LATE PREFETCHES: 0 DROPPED PREFETCHES: 0
LLC PREFETCHES SAME FILL-ORIGIN LEVEL: 0 DIFFERENT FILL-ORIGIN LEVEL: 0
LLC AVERAGE MISS LATENCY: 165.418 cycles
LLC RQ	ACCESS:    2284056	FORWARD:          0	MERGED:          0	TO_CACHE:    2284056
LLC WQ	ACCESS:     732231	FORWARD:          0	MERGED:          0	TO_CACHE:     732231
LLC PQ	ACCESS:      29493	FORWARD:          0	MERGED:          0	TO_CACHE:      29493

LLC Dense regions hint to LLC: 0

RAW hits: 11627
Loads Generated: 29534970
Loads sent to L1D: 29523335
Stores Generated: 4098299
Stores sent to L1D: 4098298
Major fault: 0 Minor fault: 39258
Allocated PAGES: 39258

stream: 
stream:times selected: 1446043
stream:pref_filled: 1343882
stream:pref_useful: 1269207
stream:pref_late: 526
stream:misses: 102
stream:misses_by_poll: 0

CS: 
CS:times selected: 1304564
CS:pref_filled: 6859
CS:pref_useful: 6775
CS:pref_late: 6
CS:misses: 26075
CS:misses_by_poll: 2

CPLX: 
CPLX:times selected: 141363
CPLX:pref_filled: 7473
CPLX:pref_useful: 7177
CPLX:pref_late: 2
CPLX:misses: 1618
CPLX:misses_by_poll: 0

NL_L1: 
NL:times selected: 36
NL:pref_filled: 35
NL:pref_useful: 35
NL:pref_late: 0
NL:misses: 3
NL:misses_by_poll: 0

total selections: 2892006
total_filled: 29473
total_useful: 26198
total_late: 535
total_polluted: 2
total_misses_after_warmup: 1442
conflicts: 5
Degree Incremented Times: 64165
Degree Decremented Times: 0

L1 IP Table Write Accesses: 295271
L1 IP Table Read Accesses: 295266
L1 RST Write Accesses: 36271
L1 RST Read Accesses: 72542
L1 CSPT Write Accesses: 36271
L1 CSPT Read Accesses: 37596
L1 RR Filter Tag Write Accesses: 39501
L1 RR Filter Tag Read Accesses: 8947998
L1 IP Table Tag Write Accesses: 295273
L1 IP Table Tag Read Accesses: 295273
L1 RST Tag Write Accesses: 0
L1 RST Tag Read Accesses: 326887
L1 RR Filter Write Accesses: 0
L1 RR Filter Read Accesses: 310867
test: 35262

DRAM Statistics
 CHANNEL 0
 RQ ROW_BUFFER_HIT:     136107  ROW_BUFFER_MISS:    2143606
 DBUS_CONGESTED:        147
 WQ ROW_BUFFER_HIT:     452390  ROW_BUFFER_MISS:     257096  FULL:          0

 AVG_CONGESTED_CYCLE: 6
 All warmup complete: 2
Channel 0 Bank busy for read cycles: 0
Channel 0 Bank busy for write cycles: 0
Channel 0
Rank 0
0banks busy for read cycles: 12869155
0banks busy for write cycles: 35183
1banks busy for read cycles: 57414705
1banks busy for write cycles: 7353641
2banks busy for read cycles: 44458054
2banks busy for write cycles: 5458984
3banks busy for read cycles: 26905388
3banks busy for write cycles: 4004401
4banks busy for read cycles: 14060853
4banks busy for write cycles: 3132915
5banks busy for read cycles: 2496727
5banks busy for write cycles: 2741225
6banks busy for read cycles: 3092118
6banks busy for write cycles: 2762354
7banks busy for read cycles: 2048949
7banks busy for write cycles: 4306354
8banks busy for read cycles: 46072
8banks busy for write cycles: 20861585

CPU 0 Branch Prediction Accuracy: 99.74% MPKI: 0.08327 Average ROB Occupancy at Mispredict: 306.582
Branch types
NOT_BRANCH: 96797564 96.7976%
BRANCH_DIRECT_JUMP: 512 0.000512%
BRANCH_INDIRECT: 0 0%
BRANCH_CONDITIONAL: 3202246 3.20225%
BRANCH_DIRECT_CALL: 3 3e-06%
BRANCH_INDIRECT_CALL: 0 0%
BRANCH_RETURN: 3 3e-06%
BRANCH_OTHER: 0 0%

DRAM PAGES: 1048576
Allocated PAGES: 39258
