
*** ChampSim Multicore Out-of-Order Simulator ***

Warmup Instructions: 50000000
Simulation Instructions: 100000000
Number of CPUs: 1
LLC sets: 2048
LLC ways: 16
Off-chip DRAM Size: 4096 MB Channels: 1 Width: 64-bit Data Rate: 6400 MT/s
CPU 0 runs ../SPEC2017//654.roms_s-1390B.champsimtrace.xz
.xz
NUM_OF_IPS_IN_CRITICAL_IP_TRAINING: 64
NUM_OF_CRITICAL_IP_TRAINING_TABLE_WAYS: 2
NUM_OF_CRITICAL_IP_TRAINING_TABLE_SETS: 32
WOBBLY_CRITICAL_IP_CACHE_SETS: 32
WOBBLY_CRITICAL_IP_CACHE_WAYS: 4
BTB has LRU replacement policy
ITLB has LRU replacement policy
DTLB has LRU replacement policy
STLB has LRU replacement policy
L1I has LRU replacement policy
IP Table Entries: 256
L1D has LRU replacement policy
Initialize SRRIP state for L2C
Initialize DRRIP state for LLC
Heartbeat CPU 0 instructions: 10000001 cycles: 3755999 heartbeat IPC: 2.66241 cumulative IPC: 2.66241 (Simulation time: 0 hr 4 min 4 sec) 
Heartbeat CPU 0 instructions: 20000000 cycles: 7248673 heartbeat IPC: 2.86314 cumulative IPC: 2.75913 (Simulation time: 0 hr 6 min 51 sec) 
Heartbeat CPU 0 instructions: 30000003 cycles: 10665397 heartbeat IPC: 2.92678 cumulative IPC: 2.81283 (Simulation time: 0 hr 9 min 22 sec) 
Heartbeat CPU 0 instructions: 40000002 cycles: 14438616 heartbeat IPC: 2.65026 cumulative IPC: 2.77035 (Simulation time: 0 hr 12 min 50 sec) 
Heartbeat CPU 0 instructions: 50000000 cycles: 18785413 heartbeat IPC: 2.30054 cumulative IPC: 2.66164 (Simulation time: 0 hr 16 min 39 sec) 

Warmup complete CPU 0 instructions: 50000002 cycles: 18785414 (Simulation time: 0 hr 16 min 39 sec) 

% increase in all ip prefetch 246.53
% increase in all ip prefetch -0.396072
Heartbeat CPU 0 instructions: 60000001 cycles: 30854771 heartbeat IPC: 0.828545 cumulative IPC: 0.828544 (Simulation time: 0 hr 19 min 0 sec) 
Heartbeat CPU 0 instructions: 70000003 cycles: 42209232 heartbeat IPC: 0.880711 cumulative IPC: 0.853832 (Simulation time: 0 hr 21 min 6 sec) 
Heartbeat CPU 0 instructions: 80000001 cycles: 53558035 heartbeat IPC: 0.88115 cumulative IPC: 0.862748 (Simulation time: 0 hr 23 min 24 sec) 
Heartbeat CPU 0 instructions: 90000003 cycles: 65580224 heartbeat IPC: 0.831795 cumulative IPC: 0.854796 (Simulation time: 0 hr 26 min 19 sec) 
Heartbeat CPU 0 instructions: 100000000 cycles: 79073539 heartbeat IPC: 0.741108 cumulative IPC: 0.829351 (Simulation time: 0 hr 29 min 6 sec) 
Heartbeat CPU 0 instructions: 110000000 cycles: 92246047 heartbeat IPC: 0.759157 cumulative IPC: 0.816764 (Simulation time: 0 hr 31 min 38 sec) 
Heartbeat CPU 0 instructions: 120000002 cycles: 104505885 heartbeat IPC: 0.815672 cumulative IPC: 0.816608 (Simulation time: 0 hr 33 min 44 sec) 
Heartbeat CPU 0 instructions: 130000000 cycles: 116467343 heartbeat IPC: 0.836018 cumulative IPC: 0.818985 (Simulation time: 0 hr 35 min 46 sec) 
Heartbeat CPU 0 instructions: 140000000 cycles: 129815177 heartbeat IPC: 0.749185 cumulative IPC: 0.810593 (Simulation time: 0 hr 43 min 3 sec) 
Heartbeat CPU 0 instructions: 150000001 cycles: 141945043 heartbeat IPC: 0.824412 cumulative IPC: 0.811954 (Simulation time: 0 hr 49 min 28 sec) 
Finished CPU 0 instructions: 100000003 cycles: 123159630 cumulative IPC: 0.811954 (Simulation time: 0 hr 49 min 28 sec) 

ChampSim completed all CPUs

Region of Interest Statistics

CPU 0 cumulative IPC: 0.811954 instructions: 100000003 cycles: 123159630

CPU 0 Average Load ROB stall cycles: 2.25436e+07
CPU 0 Fraction of times ROB stalled by Loads: 30.8631
CPU 0 Percentage of Load stall cycles in Total stall cycles: 3.75907e+08
Issued all: 68693546
Issued LT all: 54645176
rob_not_full_when_issued_lt_all: 41093704
Issued LT one: 47697074
rob_not_full_when_issued_lt_one: 35743469
 Total stall cycles: 101037524
 Total load stall cycles: 379807603621464
CPU 0 NUM of IPS identified critical: 0
CPU 0 Num of Load IPs stalling ROB: 750
Threshold modification factor: -1
Max PIST entries: 52
Min PIST entries: 0
Avg PIST entries: 15.3533
Trouble in retire width: 0.890452
MaC = Marked as critical.
lt_50_percent_before_Mac: 0
gt_90_percent_before_Mac: 0
gt_75_percent_before_Mac: 0
gt_50_percent_before_Mac: 0
stall_proportion_bin_same_before_after: 0
stall_proportion_bin_lower_before_after: 0
stall_proportion_bin_upper_before_after: 0
average_stall_proportion_before: -nan
average_stall_proportion_after: -nan
Critical IP stalls, total frequency: 0
Non-critical IP stalls, total frequency: 5199705
Total Freq all stalling IPs: 5199705
stat_90_percent_critical_ip_stalls_freq: 4695952
stat_90_percent_non_critical_ip_stalls_freq: 503753
Critical_IP_ROB_Stalls_Bucket_0: 0
Non-critical_IP_ROB_Stalls_Bucket_0: 3995995
Critical_IP_ROB_Stalls_Bucket_1: 0
Non-critical_IP_ROB_Stalls_Bucket_1: 440570
Critical_IP_ROB_Stalls_Bucket_2: 0
Non-critical_IP_ROB_Stalls_Bucket_2: 83092
Critical_IP_ROB_Stalls_Bucket_3: 0
Non-critical_IP_ROB_Stalls_Bucket_3: 53051
Critical_IP_ROB_Stalls_Bucket_4: 0
Non-critical_IP_ROB_Stalls_Bucket_4: 47074
Critical_IP_ROB_Stalls_Bucket_5: 0
Non-critical_IP_ROB_Stalls_Bucket_5: 64809
Critical_IP_ROB_Stalls_Bucket_6: 0
Non-critical_IP_ROB_Stalls_Bucket_6: 515114
0 => IPs accounting for >50 percent of stalls, 1 => 55, 2 => 60, 3 => 65 and so on till 90.
percent50: 50.7681 num IPs:  19
percent55: 55.1855 num IPs: 21
percent60: 61.5337 num IPs: 24
percent65: 66.5958 num IPs: 27
percent70: 71.1453 num IPs: 30
percent75: 75.4598 num IPs: 33
percent80: 80.1753 num IPs: 37
percent85: 85.4006 num IPs: 45
percent90: 90.3119 num IPs: 55
Critical_ROB_Stalls_Percent_0_Bucket_0: 2157442
Non-critical_ROB_Stalls_Percent_0_Bucket_0: 1838553
Critical_ROB_Stalls_Percent_0_Bucket_1: 197028
Non-critical_ROB_Stalls_Percent_0_Bucket_1: 243542
Critical_ROB_Stalls_Percent_0_Bucket_2: 20202
Non-critical_ROB_Stalls_Percent_0_Bucket_2: 62890
Critical_ROB_Stalls_Percent_0_Bucket_3: 22085
Non-critical_ROB_Stalls_Percent_0_Bucket_3: 30966
Critical_ROB_Stalls_Percent_0_Bucket_4: 18402
Non-critical_ROB_Stalls_Percent_0_Bucket_4: 28672
Critical_ROB_Stalls_Percent_0_Bucket_5: 17525
Non-critical_ROB_Stalls_Percent_0_Bucket_5: 47284
Critical_ROB_Stalls_Percent_0_Bucket_6: 207108
Non-critical_ROB_Stalls_Percent_0_Bucket_6: 308006
Critical_ROB_Stalls_Percent_1_Bucket_0: 2378344
Non-critical_ROB_Stalls_Percent_1_Bucket_0: 1617651
Critical_ROB_Stalls_Percent_1_Bucket_1: 197889
Non-critical_ROB_Stalls_Percent_1_Bucket_1: 242681
Critical_ROB_Stalls_Percent_1_Bucket_2: 21404
Non-critical_ROB_Stalls_Percent_1_Bucket_2: 61688
Critical_ROB_Stalls_Percent_1_Bucket_3: 24082
Non-critical_ROB_Stalls_Percent_1_Bucket_3: 28969
Critical_ROB_Stalls_Percent_1_Bucket_4: 20262
Non-critical_ROB_Stalls_Percent_1_Bucket_4: 26812
Critical_ROB_Stalls_Percent_1_Bucket_5: 18542
Non-critical_ROB_Stalls_Percent_1_Bucket_5: 46267
Critical_ROB_Stalls_Percent_1_Bucket_6: 208961
Non-critical_ROB_Stalls_Percent_1_Bucket_6: 306153
Critical_ROB_Stalls_Percent_2_Bucket_0: 2701496
Non-critical_ROB_Stalls_Percent_2_Bucket_0: 1294499
Critical_ROB_Stalls_Percent_2_Bucket_1: 201183
Non-critical_ROB_Stalls_Percent_2_Bucket_1: 239387
Critical_ROB_Stalls_Percent_2_Bucket_2: 22459
Non-critical_ROB_Stalls_Percent_2_Bucket_2: 60633
Critical_ROB_Stalls_Percent_2_Bucket_3: 25044
Non-critical_ROB_Stalls_Percent_2_Bucket_3: 28007
Critical_ROB_Stalls_Percent_2_Bucket_4: 20782
Non-critical_ROB_Stalls_Percent_2_Bucket_4: 26292
Critical_ROB_Stalls_Percent_2_Bucket_5: 19106
Non-critical_ROB_Stalls_Percent_2_Bucket_5: 45703
Critical_ROB_Stalls_Percent_2_Bucket_6: 209503
Non-critical_ROB_Stalls_Percent_2_Bucket_6: 305611
Critical_ROB_Stalls_Percent_3_Bucket_0: 2796052
Non-critical_ROB_Stalls_Percent_3_Bucket_0: 1199943
Critical_ROB_Stalls_Percent_3_Bucket_1: 299313
Non-critical_ROB_Stalls_Percent_3_Bucket_1: 141257
Critical_ROB_Stalls_Percent_3_Bucket_2: 49286
Non-critical_ROB_Stalls_Percent_3_Bucket_2: 33806
Critical_ROB_Stalls_Percent_3_Bucket_3: 29358
Non-critical_ROB_Stalls_Percent_3_Bucket_3: 23693
Critical_ROB_Stalls_Percent_3_Bucket_4: 23896
Non-critical_ROB_Stalls_Percent_3_Bucket_4: 23178
Critical_ROB_Stalls_Percent_3_Bucket_5: 23699
Non-critical_ROB_Stalls_Percent_3_Bucket_5: 41110
Critical_ROB_Stalls_Percent_3_Bucket_6: 241183
Non-critical_ROB_Stalls_Percent_3_Bucket_6: 273931
Critical_ROB_Stalls_Percent_4_Bucket_0: 3010740
Non-critical_ROB_Stalls_Percent_4_Bucket_0: 985255
Critical_ROB_Stalls_Percent_4_Bucket_1: 313485
Non-critical_ROB_Stalls_Percent_4_Bucket_1: 127085
Critical_ROB_Stalls_Percent_4_Bucket_2: 50815
Non-critical_ROB_Stalls_Percent_4_Bucket_2: 32277
Critical_ROB_Stalls_Percent_4_Bucket_3: 30606
Non-critical_ROB_Stalls_Percent_4_Bucket_3: 22445
Critical_ROB_Stalls_Percent_4_Bucket_4: 25080
Non-critical_ROB_Stalls_Percent_4_Bucket_4: 21994
Critical_ROB_Stalls_Percent_4_Bucket_5: 25061
Non-critical_ROB_Stalls_Percent_4_Bucket_5: 39748
Critical_ROB_Stalls_Percent_4_Bucket_6: 243560
Non-critical_ROB_Stalls_Percent_4_Bucket_6: 271554
Critical_ROB_Stalls_Percent_5_Bucket_0: 3232608
Non-critical_ROB_Stalls_Percent_5_Bucket_0: 763387
Critical_ROB_Stalls_Percent_5_Bucket_1: 315143
Non-critical_ROB_Stalls_Percent_5_Bucket_1: 125427
Critical_ROB_Stalls_Percent_5_Bucket_2: 50881
Non-critical_ROB_Stalls_Percent_5_Bucket_2: 32211
Critical_ROB_Stalls_Percent_5_Bucket_3: 30658
Non-critical_ROB_Stalls_Percent_5_Bucket_3: 22393
Critical_ROB_Stalls_Percent_5_Bucket_4: 25526
Non-critical_ROB_Stalls_Percent_5_Bucket_4: 21548
Critical_ROB_Stalls_Percent_5_Bucket_5: 25118
Non-critical_ROB_Stalls_Percent_5_Bucket_5: 39691
Critical_ROB_Stalls_Percent_5_Bucket_6: 243755
Non-critical_ROB_Stalls_Percent_5_Bucket_6: 271359
Critical_ROB_Stalls_Percent_6_Bucket_0: 3435673
Non-critical_ROB_Stalls_Percent_6_Bucket_0: 560322
Critical_ROB_Stalls_Percent_6_Bucket_1: 345270
Non-critical_ROB_Stalls_Percent_6_Bucket_1: 95300
Critical_ROB_Stalls_Percent_6_Bucket_2: 57946
Non-critical_ROB_Stalls_Percent_6_Bucket_2: 25146
Critical_ROB_Stalls_Percent_6_Bucket_3: 31663
Non-critical_ROB_Stalls_Percent_6_Bucket_3: 21388
Critical_ROB_Stalls_Percent_6_Bucket_4: 26543
Non-critical_ROB_Stalls_Percent_6_Bucket_4: 20531
Critical_ROB_Stalls_Percent_6_Bucket_5: 26225
Non-critical_ROB_Stalls_Percent_6_Bucket_5: 38584
Critical_ROB_Stalls_Percent_6_Bucket_6: 245561
Non-critical_ROB_Stalls_Percent_6_Bucket_6: 269553
Critical_ROB_Stalls_Percent_7_Bucket_0: 3626707
Non-critical_ROB_Stalls_Percent_7_Bucket_0: 369288
Critical_ROB_Stalls_Percent_7_Bucket_1: 354553
Non-critical_ROB_Stalls_Percent_7_Bucket_1: 86017
Critical_ROB_Stalls_Percent_7_Bucket_2: 60638
Non-critical_ROB_Stalls_Percent_7_Bucket_2: 22454
Critical_ROB_Stalls_Percent_7_Bucket_3: 35169
Non-critical_ROB_Stalls_Percent_7_Bucket_3: 17882
Critical_ROB_Stalls_Percent_7_Bucket_4: 29632
Non-critical_ROB_Stalls_Percent_7_Bucket_4: 17442
Critical_ROB_Stalls_Percent_7_Bucket_5: 30899
Non-critical_ROB_Stalls_Percent_7_Bucket_5: 33910
Critical_ROB_Stalls_Percent_7_Bucket_6: 302979
Non-critical_ROB_Stalls_Percent_7_Bucket_6: 212135
Critical_ROB_Stalls_Percent_8_Bucket_0: 3813738
Non-critical_ROB_Stalls_Percent_8_Bucket_0: 182257
Critical_ROB_Stalls_Percent_8_Bucket_1: 366615
Non-critical_ROB_Stalls_Percent_8_Bucket_1: 73955
Critical_ROB_Stalls_Percent_8_Bucket_2: 64021
Non-critical_ROB_Stalls_Percent_8_Bucket_2: 19071
Critical_ROB_Stalls_Percent_8_Bucket_3: 38971
Non-critical_ROB_Stalls_Percent_8_Bucket_3: 14080
Critical_ROB_Stalls_Percent_8_Bucket_4: 32936
Non-critical_ROB_Stalls_Percent_8_Bucket_4: 14138
Critical_ROB_Stalls_Percent_8_Bucket_5: 41761
Non-critical_ROB_Stalls_Percent_8_Bucket_5: 23048
Critical_ROB_Stalls_Percent_8_Bucket_6: 337910
Non-critical_ROB_Stalls_Percent_8_Bucket_6: 177204
Average ROB occupancy Load Stall Begin: 61.5777
Average ROB occupancy Load Stall End: 70.2154
Min ROB occupancy Load Stall Begin: 1
Max ROB occupancy Load Stall Begin: 352
Min ROB occupancy Load Stall End: 1
Max ROB occupancy Load Stall End: 352
Average ROB occupancy Critical Load Stall Begin: -nan
Average ROB occupancy Critical Load Stall End: -nan
Min ROB occupancy Critical Load Stall Begin: 400
Max ROB occupancy Critical Load Stall Begin: 0
Min ROB occupancy Critical Load Stall End: 400
Max ROB occupancy Critical Load Stall End: 0
 ROB Load Stall Begin Bucket Count 0: 4227937
 ROB Load Stall End Bucket Count 0: 3995995
 ROB Critical Load Stall Begin Bucket Count 0: 0
 ROB Critical Load Stall End Bucket Count 0: 0
 ROB Load Stall Begin Bucket Count 1: 259980
 ROB Load Stall End Bucket Count 1: 440570
 ROB Critical Load Stall Begin Bucket Count 1: 0
 ROB Critical Load Stall End Bucket Count 1: 0
 ROB Load Stall Begin Bucket Count 2: 70226
 ROB Load Stall End Bucket Count 2: 83092
 ROB Critical Load Stall Begin Bucket Count 2: 0
 ROB Critical Load Stall End Bucket Count 2: 0
 ROB Load Stall Begin Bucket Count 3: 50124
 ROB Load Stall End Bucket Count 3: 53051
 ROB Critical Load Stall Begin Bucket Count 3: 0
 ROB Critical Load Stall End Bucket Count 3: 0
 ROB Load Stall Begin Bucket Count 4: 43037
 ROB Load Stall End Bucket Count 4: 47074
 ROB Critical Load Stall Begin Bucket Count 4: 0
 ROB Critical Load Stall End Bucket Count 4: 0
 ROB Load Stall Begin Bucket Count 5: 91815
 ROB Load Stall End Bucket Count 5: 64809
 ROB Critical Load Stall Begin Bucket Count 5: 0
 ROB Critical Load Stall End Bucket Count 5: 0
 ROB Load Stall Begin Bucket Count 6: 456586
 ROB Load Stall End Bucket Count 6: 515114
 ROB Critical Load Stall Begin Bucket Count 6: 0
 ROB Critical Load Stall End Bucket Count 6: 0
PIST Tag Read Accesses: 112772
PIST Read Accesses: 56386
PIST Tag Write Accesses: 112772
PIST Write Accesses: 56386
Criticality detector called times: 635482
Max global_stall_cycles_count: 710117
Threshold Modified: 1 times, factor: -1
Sturdy critical IP cache stats: 
 Unused entries: 0
CIC Tag Read Accesses: 0
CIC Read Accesses: 0
CIC Tag Write Accesses: 0
CIC Write Accesses: 0
Wobbly critical IP cache stats: 
 Unused entries: 11
CIC Tag Read Accesses: 223528937
CIC Read Accesses: 0
CIC Tag Write Accesses: 2864270
CIC Write Accesses: 0
ITLB TOTAL     ACCESS:   14444330  HIT:   14444325  MISS:          5  HIT %:        100  MISS %: 3.46157e-05   MPKI: 5e-05
ITLB LOAD TRANSLATION ACCESS:   14444330  HIT:   14444325  MISS:          5  HIT %:        100  MISS %: 3.46157e-05   MPKI: 5e-05
ITLB PREFETCH  REQUESTED:          0  ISSUED:          0  USEFUL:          0  USELESS:          0
ITLB USEFUL LOAD PREFETCHES:          0 PREFETCH ISSUED TO LOWER LEVEL:          0  ACCURACY: -nan
ITLB TIMELY PREFETCHES:          0 LATE PREFETCHES: 0 DROPPED PREFETCHES: 0
ITLB PREFETCHES SAME FILL-ORIGIN LEVEL: 0 DIFFERENT FILL-ORIGIN LEVEL: 0
ITLB AVERAGE MISS LATENCY: 370.6 cycles
ITLB RQ	ACCESS:   17832755	FORWARD:          0	MERGED:    3388425	TO_CACHE:   14444330

DTLB TOTAL     ACCESS:   21298392  HIT:   21251523  MISS:      46869  HIT %:    99.7799  MISS %:   0.220059   MPKI: 0.46869
DTLB LOAD TRANSLATION ACCESS:   21298392  HIT:   21251523  MISS:      46869  HIT %:    99.7799  MISS %:   0.220059   MPKI: 0.46869
DTLB PREFETCH  REQUESTED:          0  ISSUED:          0  USEFUL:          0  USELESS:          0
DTLB USEFUL LOAD PREFETCHES:          0 PREFETCH ISSUED TO LOWER LEVEL:          0  ACCURACY: -nan
DTLB TIMELY PREFETCHES:          0 LATE PREFETCHES: 0 DROPPED PREFETCHES: 0
DTLB PREFETCHES SAME FILL-ORIGIN LEVEL: 0 DIFFERENT FILL-ORIGIN LEVEL: 0
DTLB AVERAGE MISS LATENCY: 127.559 cycles
DTLB RQ	ACCESS:   22649245	FORWARD:          0	MERGED:    1317290	TO_CACHE:   21331955

STLB TOTAL     ACCESS:    2179918  HIT:    2134820  MISS:      45098  HIT %:    97.9312  MISS %:    2.06879   MPKI: 0.45098
STLB LOAD TRANSLATION ACCESS:      46874  HIT:       1776  MISS:      45098  HIT %:    3.78888  MISS %:    96.2111   MPKI: 0.45098
STLB TRANSLATION FROM L1D PREFETCHER ACCESS:    2133044  HIT:    2133044  MISS:          0  HIT %:        100  MISS %:          0   MPKI: 0
STLB PREFETCH  REQUESTED:          0  ISSUED:          0  USEFUL:          0  USELESS:          0
STLB USEFUL LOAD PREFETCHES:          0 PREFETCH ISSUED TO LOWER LEVEL:          0  ACCURACY: -nan
STLB TIMELY PREFETCHES:          0 LATE PREFETCHES: 0 DROPPED PREFETCHES: 0
STLB PREFETCHES SAME FILL-ORIGIN LEVEL: 0 DIFFERENT FILL-ORIGIN LEVEL: 0
STLB AVERAGE MISS LATENCY: 123.074 cycles
STLB RQ	ACCESS:    5054335	FORWARD:          0	MERGED:    2874417	TO_CACHE:    2179918

STLB Hit, L1D data hit: 0
STLB Hit, L2C data hit: 0
STLB Hit, LLC data hit: 0
STLB Hit, LLC data miss: 0
STLB STLB hints to L2: 0
L1D TOTAL     ACCESS:   24499715  HIT:   21801529  MISS:    2698186  HIT %:    88.9869  MISS %:    11.0131   MPKI: 26.9819
L1D LOAD      ACCESS:   18380956  HIT:   18014813  MISS:     366143  HIT %:     98.008  MISS %:    1.99197   MPKI: 3.66143
L1D RFO       ACCESS:    1415448  HIT:     819513  MISS:     595935  HIT %:    57.8978  MISS %:    42.1022   MPKI: 5.95935
L1D PREFETCH  ACCESS:    4703311  HIT:    2967203  MISS:    1736108  HIT %:    63.0875  MISS %:    36.9125   MPKI: 17.3611
L1D PREFETCH  REQUESTED:   10347137  ISSUED:   10017034  USEFUL:    1653703  USELESS:      82346
L1D USEFUL LOAD PREFETCHES:    1653703 PREFETCH ISSUED TO LOWER LEVEL:    1888049  ACCURACY: 87.5879
L1D TIMELY PREFETCHES:    1653703 LATE PREFETCHES: 151929 DROPPED PREFETCHES: 0
L1D PREFETCHES SAME FILL-ORIGIN LEVEL: 1888049 DIFFERENT FILL-ORIGIN LEVEL: 0
L1D AVERAGE MISS LATENCY: 6.56113e+06 cycles
L1D RQ	ACCESS:   29526101	FORWARD:          0	MERGED:   10973827	TO_CACHE:   18551110
L1D WQ	ACCESS:    4098135	FORWARD:       1164	MERGED:          0	TO_CACHE:    4098135
L1D PQ	ACCESS:    5009573	FORWARD:          0	MERGED:       2112	TO_CACHE:    5007461

L1D UNIQUE REGIONS ACCESSED: 0
L1D REGIONS CONFLICTS: 0
L1D Cross Page Prefetch Requests: 0
L1D Same Page Prefetch Requests: 9710485
L1D ROI Sum of L1D PQ occupancy: 120790503
L1D PREFETCHES PUSHED FROM L2C: 0
L1I TOTAL     ACCESS:   17832580  HIT:   17832248  MISS:        332  HIT %:    99.9981  MISS %: 0.00186176   MPKI: 0.00332
L1I LOAD      ACCESS:   17832580  HIT:   17832248  MISS:        332  HIT %:    99.9981  MISS %: 0.00186176   MPKI: 0.00332
L1I PREFETCH  REQUESTED:          0  ISSUED:          0  USEFUL:          0  USELESS:          0
L1I USEFUL LOAD PREFETCHES:          0 PREFETCH ISSUED TO LOWER LEVEL:          0  ACCURACY: -nan
L1I TIMELY PREFETCHES:          0 LATE PREFETCHES: 0 DROPPED PREFETCHES: 0
L1I PREFETCHES SAME FILL-ORIGIN LEVEL: 0 DIFFERENT FILL-ORIGIN LEVEL: 0
L1I AVERAGE MISS LATENCY: 249.72 cycles
L1I RQ	ACCESS:   25555216	FORWARD:          0	MERGED:    7722461	TO_CACHE:   17832755

BTB TOTAL     ACCESS:    3186003  HIT:    3185934  MISS:         69  HIT %:    99.9978  MISS %: 0.00216572   MPKI: 0.00069
BTB BRANCH_DIRECT_JUMP	ACCESS:        512  HIT:        511  MISS:          1
BTB BRANCH_INDIRECT	ACCESS:          0  HIT:          0  MISS:          0
BTB BRANCH_CONDITIONAL	ACCESS:    3185485  HIT:    3185423  MISS:         62
BTB BRANCH_DIRECT_CALL	ACCESS:          3  HIT:          0  MISS:          3
BTB BRANCH_INDIRECT_CALL	ACCESS:          0  HIT:          0  MISS:          0
BTB BRANCH_RETURN	ACCESS:          3  HIT:          0  MISS:          3
BTB BRANCH_OTHER ACCESS:          0  HIT:          0  MISS:          0

L2C TOTAL     ACCESS:    3474658  HIT:    1108353  MISS:    2366305  HIT %:    31.8982  MISS %:    68.1018   MPKI: 23.663
L2C LOAD      ACCESS:     214542  HIT:     153629  MISS:      60913  HIT %:    71.6079  MISS %:    28.3921   MPKI: 0.60913
L2C DATA LOAD MPKI: 0.60581
L2C INSTRUCTION LOAD MPKI: 0.00332
L2C RFO       ACCESS:     595935  HIT:          4  MISS:     595931  HIT %: 0.000671214  MISS %:    99.9993   MPKI: 5.95931
L2C PREFETCH  ACCESS:    1888037  HIT:     188988  MISS:    1699049  HIT %:    10.0098  MISS %:    89.9902   MPKI: 16.9905
L2C DATA PREFETCH MPKI: 16.9905
L2C INSTRUCTION PREFETCH MPKI: 0
L2C WRITEBACK ACCESS:     730965  HIT:     729076  MISS:       1889  HIT %:    99.7416  MISS %:   0.258426   MPKI: 0.01889
L2C LOAD TRANSLATION ACCESS:      45179  HIT:      36656  MISS:       8523  HIT %:     81.135  MISS %:     18.865   MPKI: 0.08523
L2C PREFETCH  REQUESTED:          0  ISSUED:          0  USEFUL:     125442  USELESS:    1570144
L2C USEFUL LOAD PREFETCHES:     125442 PREFETCH ISSUED TO LOWER LEVEL:    1699061  ACCURACY: 7.38302
L2C TIMELY PREFETCHES:     125442 LATE PREFETCHES: 0 DROPPED PREFETCHES: 0
L2C PREFETCHES SAME FILL-ORIGIN LEVEL: 0 DIFFERENT FILL-ORIGIN LEVEL: 0
L2C AVERAGE MISS LATENCY: 287.841 cycles
L2C RQ	ACCESS:     855662	FORWARD:          0	MERGED:          0	TO_CACHE:     855658
L2C WQ	ACCESS:     730965	FORWARD:          4	MERGED:          0	TO_CACHE:     730965
L2C PQ	ACCESS:    1888049	FORWARD:          0	MERGED:          0	TO_CACHE:    1888049

L2C Instructions Evicting Data 329
L2C Translations Evicting Data 8500
L2C Data Evicting Data 2346757
L2C Instructions Evicting Instructions 0
L2C Translations Evicting Instructions 3
L2C Data Evicting Instructions 329
L2C Instructions Evicting Translations 3
L2C Translations Evicting Translations 20
L2C Data Evicting Translations 8475
L2C Dense regions hint from L2: 0
PSCL5 TOTAL     ACCESS:      45098  HIT:      45098  MISS:          0  HIT %:        100  MISS %:          0   MPKI: 0
PSCL5 LOAD TRANSLATION ACCESS:      45098  HIT:      45098  MISS:          0  HIT %:        100  MISS %:          0   MPKI: 0
PSCL5 PREFETCH  REQUESTED:          0  ISSUED:          0  USEFUL:          0  USELESS:          0
PSCL5 USEFUL LOAD PREFETCHES:          0 PREFETCH ISSUED TO LOWER LEVEL:          0  ACCURACY: -nan
PSCL5 TIMELY PREFETCHES:          0 LATE PREFETCHES: 0 DROPPED PREFETCHES: 0
PSCL5 PREFETCHES SAME FILL-ORIGIN LEVEL: 0 DIFFERENT FILL-ORIGIN LEVEL: 0

PSCL4 TOTAL     ACCESS:      45098  HIT:      45098  MISS:          0  HIT %:        100  MISS %:          0   MPKI: 0
PSCL4 LOAD TRANSLATION ACCESS:      45098  HIT:      45098  MISS:          0  HIT %:        100  MISS %:          0   MPKI: 0
PSCL4 PREFETCH  REQUESTED:          0  ISSUED:          0  USEFUL:          0  USELESS:          0
PSCL4 USEFUL LOAD PREFETCHES:          0 PREFETCH ISSUED TO LOWER LEVEL:          0  ACCURACY: -nan
PSCL4 TIMELY PREFETCHES:          0 LATE PREFETCHES: 0 DROPPED PREFETCHES: 0
PSCL4 PREFETCHES SAME FILL-ORIGIN LEVEL: 0 DIFFERENT FILL-ORIGIN LEVEL: 0

PSCL3 TOTAL     ACCESS:      44837  HIT:      44835  MISS:          2  HIT %:    99.9955  MISS %:  0.0044606   MPKI: 2e-05
PSCL3 LOAD TRANSLATION ACCESS:      44837  HIT:      44835  MISS:          2  HIT %:    99.9955  MISS %:  0.0044606   MPKI: 2e-05
PSCL3 PREFETCH  REQUESTED:          0  ISSUED:          0  USEFUL:          0  USELESS:          0
PSCL3 USEFUL LOAD PREFETCHES:          0 PREFETCH ISSUED TO LOWER LEVEL:          0  ACCURACY: -nan
PSCL3 TIMELY PREFETCHES:          0 LATE PREFETCHES: 0 DROPPED PREFETCHES: 0
PSCL3 PREFETCHES SAME FILL-ORIGIN LEVEL: 0 DIFFERENT FILL-ORIGIN LEVEL: 0

PSCL2 TOTAL     ACCESS:      45098  HIT:      44994  MISS:        104  HIT %:    99.7694  MISS %:   0.230609   MPKI: 0.00104
PSCL2 LOAD TRANSLATION ACCESS:      45098  HIT:      44994  MISS:        104  HIT %:    99.7694  MISS %:   0.230609   MPKI: 0.00104
PSCL2 PREFETCH  REQUESTED:          0  ISSUED:          0  USEFUL:          0  USELESS:          0
PSCL2 USEFUL LOAD PREFETCHES:          0 PREFETCH ISSUED TO LOWER LEVEL:          0  ACCURACY: -nan
PSCL2 TIMELY PREFETCHES:          0 LATE PREFETCHES: 0 DROPPED PREFETCHES: 0
PSCL2 PREFETCHES SAME FILL-ORIGIN LEVEL: 0 DIFFERENT FILL-ORIGIN LEVEL: 0

LLC TOTAL     ACCESS:    3096978  HIT:     301882  MISS:    2795096  HIT %:    9.74763  MISS %:    90.2524   MPKI: 27.951
LLC LOAD      ACCESS:      60913  HIT:       3875  MISS:      57038  HIT %:    6.36153  MISS %:    93.6385   MPKI: 0.57038
LLC RFO       ACCESS:     595931  HIT:       9580  MISS:     586351  HIT %:    1.60757  MISS %:    98.3924   MPKI: 5.86351
LLC PREFETCH  ACCESS:    1699049  HIT:      24773  MISS:    1674276  HIT %:    1.45805  MISS %:    98.5419   MPKI: 16.7428
LLC WRITEBACK ACCESS:     732562  HIT:     263621  MISS:     468941  HIT %:    35.9862  MISS %:    64.0138   MPKI: 4.68941
LLC LOAD TRANSLATION ACCESS:       8523  HIT:         33  MISS:       8490  HIT %:   0.387188  MISS %:    99.6128   MPKI: 0.0849
LLC PREFETCH  REQUESTED:          0  ISSUED:          0  USEFUL:       2740  USELESS:    1680997
LLC USEFUL LOAD PREFETCHES:       2740 PREFETCH ISSUED TO LOWER LEVEL:    1674288  ACCURACY: 0.163652
LLC TIMELY PREFETCHES:       2740 LATE PREFETCHES: 0 DROPPED PREFETCHES: 0
LLC PREFETCHES SAME FILL-ORIGIN LEVEL: 0 DIFFERENT FILL-ORIGIN LEVEL: 0
LLC AVERAGE MISS LATENCY: 218.011 cycles
LLC RQ	ACCESS:     665368	FORWARD:          0	MERGED:          0	TO_CACHE:     665368
LLC WQ	ACCESS:     732562	FORWARD:          0	MERGED:          0	TO_CACHE:     732562
LLC PQ	ACCESS:    1699061	FORWARD:          0	MERGED:          0	TO_CACHE:    1699061

LLC Dense regions hint to LLC: 0

RAW hits: 8861
Loads Generated: 29534975
Loads sent to L1D: 29526101
Stores Generated: 4098297
Stores sent to L1D: 4098298
Major fault: 0 Minor fault: 39258
Allocated PAGES: 39258

stream: 
stream:times selected: 5810447
stream:pref_filled: 3112904
stream:pref_useful: 2957494
stream:pref_late: 149653
stream:misses: 626
stream:misses_by_poll: 0

CS: 
CS:times selected: 5583353
CS:pref_filled: 12272
CS:pref_useful: 11837
CS:pref_late: 800
CS:misses: 545695
CS:misses_by_poll: 86

CPLX: 
CPLX:times selected: 226963
CPLX:pref_filled: 8015
CPLX:pref_useful: 6231
CPLX:pref_late: 320
CPLX:misses: 14960
CPLX:misses_by_poll: 33

NL_L1: 
NL:times selected: 165
NL:pref_filled: 5
NL:pref_useful: 5
NL:pref_late: 0
NL:misses: 10
NL:misses_by_poll: 0

total selections: 11620928
total_filled: 1736108
total_useful: 1653703
total_late: 152388
total_polluted: 119
total_misses_after_warmup: 536296
conflicts: 1761
Degree Incremented Times: 236575
Degree Decremented Times: 0

L1 IP Table Write Accesses: 18504178
L1 IP Table Read Accesses: 18502417
L1 RST Write Accesses: 4122335
L1 RST Read Accesses: 8244670
L1 CSPT Write Accesses: 4122335
L1 CSPT Read Accesses: 4747000
L1 RR Filter Tag Write Accesses: 5339676
L1 RR Filter Tag Read Accesses: 638405734
L1 IP Table Tag Write Accesses: 18551109
L1 IP Table Tag Read Accesses: 18551109
L1 RST Tag Write Accesses: 0
L1 RST Tag Read Accesses: 37169638
L1 RR Filter Write Accesses: 0
L1 RR Filter Read Accesses: 27427214
test: 143140

DRAM Statistics
 CHANNEL 0
 RQ ROW_BUFFER_HIT:     261573  ROW_BUFFER_MISS:    2064468
 DBUS_CONGESTED:         44
 WQ ROW_BUFFER_HIT:     121738  ROW_BUFFER_MISS:     585979  FULL:       1800

 AVG_CONGESTED_CYCLE: 5
 All warmup complete: 2
Channel 0 Bank busy for read cycles: 0
Channel 0 Bank busy for write cycles: 0
Channel 0
Rank 0
0banks busy for read cycles: 8609040
0banks busy for write cycles: 11862
1banks busy for read cycles: 13326178
1banks busy for write cycles: 1674084
2banks busy for read cycles: 24881440
2banks busy for write cycles: 430218
3banks busy for read cycles: 19766413
3banks busy for write cycles: 215308
4banks busy for read cycles: 9298262
4banks busy for write cycles: 201444
5banks busy for read cycles: 6770667
5banks busy for write cycles: 205523
6banks busy for read cycles: 5770659
6banks busy for write cycles: 231638
7banks busy for read cycles: 6339468
7banks busy for write cycles: 1188653
8banks busy for read cycles: 7807964
8banks busy for write cycles: 16430810

CPU 0 Branch Prediction Accuracy: 99.74% MPKI: 0.08327 Average ROB Occupancy at Mispredict: 95.0263
Branch types
NOT_BRANCH: 96797549 96.7975%
BRANCH_DIRECT_JUMP: 512 0.000512%
BRANCH_INDIRECT: 0 0%
BRANCH_CONDITIONAL: 3202246 3.20225%
BRANCH_DIRECT_CALL: 3 3e-06%
BRANCH_INDIRECT_CALL: 0 0%
BRANCH_RETURN: 3 3e-06%
BRANCH_OTHER: 0 0%

DRAM PAGES: 1048576
Allocated PAGES: 39258
