
*** ChampSim Multicore Out-of-Order Simulator ***

Warmup Instructions: 50000000
Simulation Instructions: 100000000
Number of CPUs: 1
LLC sets: 2048
LLC ways: 16
Off-chip DRAM Size: 4096 MB Channels: 1 Width: 64-bit Data Rate: 6400 MT/s
CPU 0 runs ../SPEC2017//654.roms_s-293B.champsimtrace.xz
.xz
BTB has LRU replacement policy
ITLB has LRU replacement policy
DTLB has LRU replacement policy
STLB has LRU replacement policy
L1I has LRU replacement policy
IP Table Entries: 64
L1D has LRU replacement policy
Initialize SRRIP state for L2C
Initialize DRRIP state for LLC
Heartbeat CPU 0 instructions: 10000001 cycles: 3119471 heartbeat IPC: 3.20567 cumulative IPC: 3.20567 (Simulation time: 0 hr 5 min 39 sec) 
Heartbeat CPU 0 instructions: 20000003 cycles: 6304621 heartbeat IPC: 3.13957 cumulative IPC: 3.17228 (Simulation time: 0 hr 11 min 2 sec) 
Heartbeat CPU 0 instructions: 30000000 cycles: 9424464 heartbeat IPC: 3.20529 cumulative IPC: 3.1832 (Simulation time: 0 hr 16 min 13 sec) 
Heartbeat CPU 0 instructions: 40000002 cycles: 12610113 heartbeat IPC: 3.13908 cumulative IPC: 3.17206 (Simulation time: 0 hr 21 min 20 sec) 
Heartbeat CPU 0 instructions: 50000003 cycles: 15729154 heartbeat IPC: 3.20611 cumulative IPC: 3.17881 (Simulation time: 0 hr 26 min 3 sec) 

Warmup complete CPU 0 instructions: 50000003 cycles: 15729154 (Simulation time: 0 hr 26 min 3 sec) 

Heartbeat CPU 0 instructions: 60000002 cycles: 27188872 heartbeat IPC: 0.872622 cumulative IPC: 0.872622 (Simulation time: 0 hr 31 min 10 sec) 
Heartbeat CPU 0 instructions: 70000003 cycles: 37531871 heartbeat IPC: 0.966838 cumulative IPC: 0.917317 (Simulation time: 0 hr 35 min 31 sec) 
Heartbeat CPU 0 instructions: 80000002 cycles: 48769574 heartbeat IPC: 0.889861 cumulative IPC: 0.907979 (Simulation time: 0 hr 39 min 56 sec) 
Heartbeat CPU 0 instructions: 90000002 cycles: 59316636 heartbeat IPC: 0.948131 cumulative IPC: 0.917695 (Simulation time: 0 hr 44 min 8 sec) 
Heartbeat CPU 0 instructions: 100000002 cycles: 70114053 heartbeat IPC: 0.926147 cumulative IPC: 0.919373 (Simulation time: 0 hr 48 min 8 sec) 
Heartbeat CPU 0 instructions: 110000000 cycles: 80954289 heartbeat IPC: 0.922489 cumulative IPC: 0.919891 (Simulation time: 0 hr 52 min 30 sec) 
Heartbeat CPU 0 instructions: 120000000 cycles: 91372671 heartbeat IPC: 0.959842 cumulative IPC: 0.925393 (Simulation time: 0 hr 56 min 32 sec) 
Heartbeat CPU 0 instructions: 130000000 cycles: 103866446 heartbeat IPC: 0.800399 cumulative IPC: 0.907675 (Simulation time: 1 hr 0 min 44 sec) 
Heartbeat CPU 0 instructions: 140000003 cycles: 119451352 heartbeat IPC: 0.641647 cumulative IPC: 0.867702 (Simulation time: 1 hr 5 min 26 sec) 
Heartbeat CPU 0 instructions: 150000000 cycles: 135114150 heartbeat IPC: 0.638455 cumulative IPC: 0.837626 (Simulation time: 1 hr 9 min 37 sec) 
Finished CPU 0 instructions: 100000001 cycles: 119384997 cumulative IPC: 0.837626 (Simulation time: 1 hr 9 min 37 sec) 

ChampSim completed all CPUs

Region of Interest Statistics

CPU 0 cumulative IPC: 0.837626 instructions: 100000001 cycles: 119384997

CPU 0 Average Load ROB stall cycles: 2.7854e+07
CPU 0 Fraction of times ROB stalled by Loads: 39.2119
CPU 0 Percentage of Load stall cycles in Total stall cycles: 2.82484e+08
Issued all: 77188512
Issued LT all: 64379737
rob_not_full_when_issued_lt_all: 32279633
Issued LT one: 56325449
rob_not_full_when_issued_lt_one: 27651427
 Total stall cycles: 95953510
 Total load stall cycles: 271053413038660
Unique Load IPs: 907
CPU 0 NUM of IPS identified critical: 4
CPU 0 Num of Load IPs stalling ROB: 0
Threshold modification factor: 0
Trouble in retire width: -nan
MaC = Marked as critical.
lt_50_percent_before_Mac: 3
gt_90_percent_before_Mac: 0
gt_75_percent_before_Mac: 0
gt_50_percent_before_Mac: 1
stall_proportion_bin_same_before_after: 0
stall_proportion_bin_lower_before_after: 0
stall_proportion_bin_upper_before_after: 0
average_stall_proportion_before: 0.0162924
average_stall_proportion_after: 0.0155839
Critical_IP_Detector_Accuracy_70: 0
Critical_IP_Detector_Accuracy_80: 0
Critical_IP_Detector_Accuracy_90: 0
Critical_IP_Detector_Coverage_70: 0
Critical_IP_Detector_Coverage_80: 0
Critical_IP_Detector_Coverage_90: 0
stat_90_percent_critical_ip_stalls_freq: 319858
stat_90_percent_non_critical_ip_stalls_freq: 18446744073709231758
AVERAGE_ROB_Occupancy_90_Percent_Critical_IP_Stalls: 322.252
AVERAGE_ROB_Occupancy_90_Percent_Non_Critical_IP_Stalls: 3.43726e-11
Critical_IP_ROB_Stalls_Bucket_0: 10820
Non-critical_IP_ROB_Stalls_Bucket_0: 586334
Critical_IP_ROB_Stalls_Bucket_1: 6271
Non-critical_IP_ROB_Stalls_Bucket_1: 796370
Critical_IP_ROB_Stalls_Bucket_2: 1465
Non-critical_IP_ROB_Stalls_Bucket_2: 349042
Critical_IP_ROB_Stalls_Bucket_3: 1109
Non-critical_IP_ROB_Stalls_Bucket_3: 197508
Critical_IP_ROB_Stalls_Bucket_4: 1671
Non-critical_IP_ROB_Stalls_Bucket_4: 183466
Critical_IP_ROB_Stalls_Bucket_5: 1223
Non-critical_IP_ROB_Stalls_Bucket_5: 511766
Critical_IP_ROB_Stalls_Bucket_6: 11393
Non-critical_IP_ROB_Stalls_Bucket_6: 1157354
0 => IPs accounting for >50 percent of stalls, 1 => 55, 2 => 60, 3 => 65 and so on till 90.
percent50: inf num IPs:  1
percent55: inf num IPs: 1
percent60: inf num IPs: 1
percent65: inf num IPs: 1
percent70: inf num IPs: 1
percent75: inf num IPs: 1
percent80: inf num IPs: 1
percent85: inf num IPs: 1
percent90: inf num IPs: 1
Critical_ROB_Stalls_Percent_0_Bucket_0: 645
Non-critical_ROB_Stalls_Percent_0_Bucket_0: 596509
Critical_ROB_Stalls_Percent_0_Bucket_1: 616
Non-critical_ROB_Stalls_Percent_0_Bucket_1: 802025
Critical_ROB_Stalls_Percent_0_Bucket_2: 5
Non-critical_ROB_Stalls_Percent_0_Bucket_2: 350502
Critical_ROB_Stalls_Percent_0_Bucket_3: 655
Non-critical_ROB_Stalls_Percent_0_Bucket_3: 197962
Critical_ROB_Stalls_Percent_0_Bucket_4: 2664
Non-critical_ROB_Stalls_Percent_0_Bucket_4: 182473
Critical_ROB_Stalls_Percent_0_Bucket_5: 90285
Non-critical_ROB_Stalls_Percent_0_Bucket_5: 422704
Critical_ROB_Stalls_Percent_0_Bucket_6: 224988
Non-critical_ROB_Stalls_Percent_0_Bucket_6: 943759
Critical_ROB_Stalls_Percent_1_Bucket_0: 645
Non-critical_ROB_Stalls_Percent_1_Bucket_0: 596509
Critical_ROB_Stalls_Percent_1_Bucket_1: 616
Non-critical_ROB_Stalls_Percent_1_Bucket_1: 802025
Critical_ROB_Stalls_Percent_1_Bucket_2: 5
Non-critical_ROB_Stalls_Percent_1_Bucket_2: 350502
Critical_ROB_Stalls_Percent_1_Bucket_3: 655
Non-critical_ROB_Stalls_Percent_1_Bucket_3: 197962
Critical_ROB_Stalls_Percent_1_Bucket_4: 2664
Non-critical_ROB_Stalls_Percent_1_Bucket_4: 182473
Critical_ROB_Stalls_Percent_1_Bucket_5: 90285
Non-critical_ROB_Stalls_Percent_1_Bucket_5: 422704
Critical_ROB_Stalls_Percent_1_Bucket_6: 224988
Non-critical_ROB_Stalls_Percent_1_Bucket_6: 943759
Critical_ROB_Stalls_Percent_2_Bucket_0: 645
Non-critical_ROB_Stalls_Percent_2_Bucket_0: 596509
Critical_ROB_Stalls_Percent_2_Bucket_1: 616
Non-critical_ROB_Stalls_Percent_2_Bucket_1: 802025
Critical_ROB_Stalls_Percent_2_Bucket_2: 5
Non-critical_ROB_Stalls_Percent_2_Bucket_2: 350502
Critical_ROB_Stalls_Percent_2_Bucket_3: 655
Non-critical_ROB_Stalls_Percent_2_Bucket_3: 197962
Critical_ROB_Stalls_Percent_2_Bucket_4: 2664
Non-critical_ROB_Stalls_Percent_2_Bucket_4: 182473
Critical_ROB_Stalls_Percent_2_Bucket_5: 90285
Non-critical_ROB_Stalls_Percent_2_Bucket_5: 422704
Critical_ROB_Stalls_Percent_2_Bucket_6: 224988
Non-critical_ROB_Stalls_Percent_2_Bucket_6: 943759
Critical_ROB_Stalls_Percent_3_Bucket_0: 645
Non-critical_ROB_Stalls_Percent_3_Bucket_0: 596509
Critical_ROB_Stalls_Percent_3_Bucket_1: 616
Non-critical_ROB_Stalls_Percent_3_Bucket_1: 802025
Critical_ROB_Stalls_Percent_3_Bucket_2: 5
Non-critical_ROB_Stalls_Percent_3_Bucket_2: 350502
Critical_ROB_Stalls_Percent_3_Bucket_3: 655
Non-critical_ROB_Stalls_Percent_3_Bucket_3: 197962
Critical_ROB_Stalls_Percent_3_Bucket_4: 2664
Non-critical_ROB_Stalls_Percent_3_Bucket_4: 182473
Critical_ROB_Stalls_Percent_3_Bucket_5: 90285
Non-critical_ROB_Stalls_Percent_3_Bucket_5: 422704
Critical_ROB_Stalls_Percent_3_Bucket_6: 224988
Non-critical_ROB_Stalls_Percent_3_Bucket_6: 943759
Critical_ROB_Stalls_Percent_4_Bucket_0: 645
Non-critical_ROB_Stalls_Percent_4_Bucket_0: 596509
Critical_ROB_Stalls_Percent_4_Bucket_1: 616
Non-critical_ROB_Stalls_Percent_4_Bucket_1: 802025
Critical_ROB_Stalls_Percent_4_Bucket_2: 5
Non-critical_ROB_Stalls_Percent_4_Bucket_2: 350502
Critical_ROB_Stalls_Percent_4_Bucket_3: 655
Non-critical_ROB_Stalls_Percent_4_Bucket_3: 197962
Critical_ROB_Stalls_Percent_4_Bucket_4: 2664
Non-critical_ROB_Stalls_Percent_4_Bucket_4: 182473
Critical_ROB_Stalls_Percent_4_Bucket_5: 90285
Non-critical_ROB_Stalls_Percent_4_Bucket_5: 422704
Critical_ROB_Stalls_Percent_4_Bucket_6: 224988
Non-critical_ROB_Stalls_Percent_4_Bucket_6: 943759
Critical_ROB_Stalls_Percent_5_Bucket_0: 645
Non-critical_ROB_Stalls_Percent_5_Bucket_0: 596509
Critical_ROB_Stalls_Percent_5_Bucket_1: 616
Non-critical_ROB_Stalls_Percent_5_Bucket_1: 802025
Critical_ROB_Stalls_Percent_5_Bucket_2: 5
Non-critical_ROB_Stalls_Percent_5_Bucket_2: 350502
Critical_ROB_Stalls_Percent_5_Bucket_3: 655
Non-critical_ROB_Stalls_Percent_5_Bucket_3: 197962
Critical_ROB_Stalls_Percent_5_Bucket_4: 2664
Non-critical_ROB_Stalls_Percent_5_Bucket_4: 182473
Critical_ROB_Stalls_Percent_5_Bucket_5: 90285
Non-critical_ROB_Stalls_Percent_5_Bucket_5: 422704
Critical_ROB_Stalls_Percent_5_Bucket_6: 224988
Non-critical_ROB_Stalls_Percent_5_Bucket_6: 943759
Critical_ROB_Stalls_Percent_6_Bucket_0: 645
Non-critical_ROB_Stalls_Percent_6_Bucket_0: 596509
Critical_ROB_Stalls_Percent_6_Bucket_1: 616
Non-critical_ROB_Stalls_Percent_6_Bucket_1: 802025
Critical_ROB_Stalls_Percent_6_Bucket_2: 5
Non-critical_ROB_Stalls_Percent_6_Bucket_2: 350502
Critical_ROB_Stalls_Percent_6_Bucket_3: 655
Non-critical_ROB_Stalls_Percent_6_Bucket_3: 197962
Critical_ROB_Stalls_Percent_6_Bucket_4: 2664
Non-critical_ROB_Stalls_Percent_6_Bucket_4: 182473
Critical_ROB_Stalls_Percent_6_Bucket_5: 90285
Non-critical_ROB_Stalls_Percent_6_Bucket_5: 422704
Critical_ROB_Stalls_Percent_6_Bucket_6: 224988
Non-critical_ROB_Stalls_Percent_6_Bucket_6: 943759
Critical_ROB_Stalls_Percent_7_Bucket_0: 645
Non-critical_ROB_Stalls_Percent_7_Bucket_0: 596509
Critical_ROB_Stalls_Percent_7_Bucket_1: 616
Non-critical_ROB_Stalls_Percent_7_Bucket_1: 802025
Critical_ROB_Stalls_Percent_7_Bucket_2: 5
Non-critical_ROB_Stalls_Percent_7_Bucket_2: 350502
Critical_ROB_Stalls_Percent_7_Bucket_3: 655
Non-critical_ROB_Stalls_Percent_7_Bucket_3: 197962
Critical_ROB_Stalls_Percent_7_Bucket_4: 2664
Non-critical_ROB_Stalls_Percent_7_Bucket_4: 182473
Critical_ROB_Stalls_Percent_7_Bucket_5: 90285
Non-critical_ROB_Stalls_Percent_7_Bucket_5: 422704
Critical_ROB_Stalls_Percent_7_Bucket_6: 224988
Non-critical_ROB_Stalls_Percent_7_Bucket_6: 943759
Critical_ROB_Stalls_Percent_8_Bucket_0: 645
Non-critical_ROB_Stalls_Percent_8_Bucket_0: 596509
Critical_ROB_Stalls_Percent_8_Bucket_1: 616
Non-critical_ROB_Stalls_Percent_8_Bucket_1: 802025
Critical_ROB_Stalls_Percent_8_Bucket_2: 5
Non-critical_ROB_Stalls_Percent_8_Bucket_2: 350502
Critical_ROB_Stalls_Percent_8_Bucket_3: 655
Non-critical_ROB_Stalls_Percent_8_Bucket_3: 197962
Critical_ROB_Stalls_Percent_8_Bucket_4: 2664
Non-critical_ROB_Stalls_Percent_8_Bucket_4: 182473
Critical_ROB_Stalls_Percent_8_Bucket_5: 90285
Non-critical_ROB_Stalls_Percent_8_Bucket_5: 422704
Critical_ROB_Stalls_Percent_8_Bucket_6: 224988
Non-critical_ROB_Stalls_Percent_8_Bucket_6: 943759
Average ROB occupancy Load Stall Begin: 178.864
Average ROB occupancy Load Stall End: 193.181
Min ROB occupancy Load Stall Begin: 1
Max ROB occupancy Load Stall Begin: 352
Min ROB occupancy Load Stall End: 1
Max ROB occupancy Load Stall End: 352
Average ROB occupancy Critical Load Stall Begin: 106.696
Average ROB occupancy Critical Load Stall End: 116.594
Min ROB occupancy Critical Load Stall Begin: 6
Max ROB occupancy Critical Load Stall Begin: 352
Min ROB occupancy Critical Load Stall End: 11
Max ROB occupancy Critical Load Stall End: 352
 ROB Load Stall Begin Bucket Count 0: 822164
 ROB Load Stall End Bucket Count 0: 597154
 ROB Critical Load Stall Begin Bucket Count 0: 9904
 ROB Critical Load Stall End Bucket Count 0: 8519
 ROB Load Stall Begin Bucket Count 1: 781063
 ROB Load Stall End Bucket Count 1: 802641
 ROB Critical Load Stall Begin Bucket Count 1: 3106
 ROB Critical Load Stall End Bucket Count 1: 4439
 ROB Load Stall Begin Bucket Count 2: 242531
 ROB Load Stall End Bucket Count 2: 350507
 ROB Critical Load Stall Begin Bucket Count 2: 1374
 ROB Critical Load Stall End Bucket Count 2: 971
 ROB Load Stall Begin Bucket Count 3: 172673
 ROB Load Stall End Bucket Count 3: 198617
 ROB Critical Load Stall Begin Bucket Count 3: 456
 ROB Critical Load Stall End Bucket Count 3: 688
 ROB Load Stall Begin Bucket Count 4: 243297
 ROB Load Stall End Bucket Count 4: 185137
 ROB Critical Load Stall Begin Bucket Count 4: 985
 ROB Critical Load Stall End Bucket Count 4: 1069
 ROB Load Stall Begin Bucket Count 5: 594024
 ROB Load Stall End Bucket Count 5: 512989
 ROB Critical Load Stall Begin Bucket Count 5: 1139
 ROB Critical Load Stall End Bucket Count 5: 788
 ROB Load Stall Begin Bucket Count 6: 960040
 ROB Load Stall End Bucket Count 6: 1168747
 ROB Critical Load Stall Begin Bucket Count 6: 2162
 ROB Critical Load Stall End Bucket Count 6: 2652
PIST Tag Read Accesses: 0
PIST Read Accesses: 0
PIST Tag Write Accesses: 0
PIST Write Accesses: 0
Criticality detector called times: 0
Max global_stall_cycles_count: 0
Threshold Modified: 0 times, factor: 0
Sturdy critical IP cache stats: 
 Unused entries: 0
CIC Tag Read Accesses: 0
CIC Read Accesses: 0
CIC Tag Write Accesses: 0
CIC Write Accesses: 0
Wobbly critical IP cache stats: 
 Unused entries: 10
CIC Tag Read Accesses: 346067489
CIC Read Accesses: 0
CIC Tag Write Accesses: 2014980
CIC Write Accesses: 0
ITLB TOTAL     ACCESS:   14315305  HIT:   14315289  MISS:         16  HIT %:    99.9999  MISS %: 0.000111768   MPKI: 0.00016
ITLB LOAD TRANSLATION ACCESS:   14315305  HIT:   14315289  MISS:         16  HIT %:    99.9999  MISS %: 0.000111768   MPKI: 0.00016
ITLB PREFETCH  REQUESTED:          0  ISSUED:          0  USEFUL:          0  USELESS:          0
ITLB USEFUL LOAD PREFETCHES:          0 PREFETCH ISSUED TO LOWER LEVEL:          0  ACCURACY: -nan
ITLB TIMELY PREFETCHES:          0 LATE PREFETCHES: 0 DROPPED PREFETCHES: 0
ITLB PREFETCHES SAME FILL-ORIGIN LEVEL: 0 DIFFERENT FILL-ORIGIN LEVEL: 0
ITLB AVERAGE MISS LATENCY: 252.312 cycles
ITLB RQ	ACCESS:   17982236	FORWARD:          0	MERGED:    3666929	TO_CACHE:   14315307

DTLB TOTAL     ACCESS:   24838129  HIT:   24807824  MISS:      30305  HIT %:     99.878  MISS %:    0.12201   MPKI: 0.30305
DTLB LOAD TRANSLATION ACCESS:   24838129  HIT:   24807824  MISS:      30305  HIT %:     99.878  MISS %:    0.12201   MPKI: 0.30305
DTLB PREFETCH  REQUESTED:          0  ISSUED:          0  USEFUL:          0  USELESS:          0
DTLB USEFUL LOAD PREFETCHES:          0 PREFETCH ISSUED TO LOWER LEVEL:          0  ACCURACY: -nan
DTLB TIMELY PREFETCHES:          0 LATE PREFETCHES: 0 DROPPED PREFETCHES: 0
DTLB PREFETCHES SAME FILL-ORIGIN LEVEL: 0 DIFFERENT FILL-ORIGIN LEVEL: 0
DTLB AVERAGE MISS LATENCY: 221.501 cycles
DTLB RQ	ACCESS:   28551357	FORWARD:          0	MERGED:    3670519	TO_CACHE:   24880838

STLB TOTAL     ACCESS:      99031  HIT:      84065  MISS:      14966  HIT %:    84.8876  MISS %:    15.1124   MPKI: 0.14966
STLB LOAD TRANSLATION ACCESS:      30321  HIT:      15355  MISS:      14966  HIT %:    50.6415  MISS %:    49.3585   MPKI: 0.14966
STLB TRANSLATION FROM L1D PREFETCHER ACCESS:      68710  HIT:      68710  MISS:          0  HIT %:        100  MISS %:          0   MPKI: 0
STLB PREFETCH  REQUESTED:          0  ISSUED:          0  USEFUL:          0  USELESS:          0
STLB USEFUL LOAD PREFETCHES:          0 PREFETCH ISSUED TO LOWER LEVEL:          0  ACCURACY: -nan
STLB TIMELY PREFETCHES:          0 LATE PREFETCHES: 0 DROPPED PREFETCHES: 0
STLB PREFETCHES SAME FILL-ORIGIN LEVEL: 0 DIFFERENT FILL-ORIGIN LEVEL: 0
STLB AVERAGE MISS LATENCY: 429.111 cycles
STLB RQ	ACCESS:     106454	FORWARD:          0	MERGED:       7423	TO_CACHE:      99031

STLB Hit, L1D data hit: 0
STLB Hit, L2C data hit: 0
STLB Hit, LLC data hit: 0
STLB Hit, LLC data miss: 0
STLB STLB hints to L2: 0
L1D TOTAL     ACCESS:   27347926  HIT:   26144492  MISS:    1203434  HIT %:    95.5995  MISS %:    4.40046   MPKI: 12.0343
L1D LOAD      ACCESS:   19915214  HIT:   19155752  MISS:     759462  HIT %:    96.1865  MISS %:    3.81348   MPKI: 7.59462
L1D RFO       ACCESS:    7356632  HIT:    6962829  MISS:     393803  HIT %:     94.647  MISS %:    5.35303   MPKI: 3.93803
L1D PREFETCH  ACCESS:      76080  HIT:      25911  MISS:      50169  HIT %:    34.0576  MISS %:    65.9424   MPKI: 0.50169
L1D PREFETCH  REQUESTED:     152266  ISSUED:     152266  USEFUL:      48568  USELESS:       1615
L1D USEFUL LOAD PREFETCHES:      48568 PREFETCH ISSUED TO LOWER LEVEL:      50210  ACCURACY: 96.7297
L1D TIMELY PREFETCHES:      48568 LATE PREFETCHES: 41 DROPPED PREFETCHES: 0
L1D PREFETCHES SAME FILL-ORIGIN LEVEL: 50210 DIFFERENT FILL-ORIGIN LEVEL: 0
L1D AVERAGE MISS LATENCY: 2436.21 cycles
L1D RQ	ACCESS:   34194955	FORWARD:          0	MERGED:   13502239	TO_CACHE:   20543272
L1D WQ	ACCESS:    8008110	FORWARD:     149444	MERGED:         25	TO_CACHE:    8008085
L1D PQ	ACCESS:      76133	FORWARD:          0	MERGED:          0	TO_CACHE:      76133

L1D UNIQUE REGIONS ACCESSED: 0
L1D REGIONS CONFLICTS: 0
L1D Cross Page Prefetch Requests: 0
L1D Same Page Prefetch Requests: 955656
L1D ROI Sum of L1D PQ occupancy: 1000956
L1D PREFETCHES PUSHED FROM L2C: 0
L1I TOTAL     ACCESS:   17982182  HIT:   17982009  MISS:        173  HIT %:     99.999  MISS %: 0.000962063   MPKI: 0.00173
L1I LOAD      ACCESS:   17982182  HIT:   17982009  MISS:        173  HIT %:     99.999  MISS %: 0.000962063   MPKI: 0.00173
L1I PREFETCH  REQUESTED:          0  ISSUED:          0  USEFUL:          0  USELESS:          0
L1I USEFUL LOAD PREFETCHES:          0 PREFETCH ISSUED TO LOWER LEVEL:          0  ACCURACY: -nan
L1I TIMELY PREFETCHES:          0 LATE PREFETCHES: 0 DROPPED PREFETCHES: 0
L1I PREFETCHES SAME FILL-ORIGIN LEVEL: 0 DIFFERENT FILL-ORIGIN LEVEL: 0
L1I AVERAGE MISS LATENCY: 204.029 cycles
L1I RQ	ACCESS:   24769159	FORWARD:          0	MERGED:    6786923	TO_CACHE:   17982236

BTB TOTAL     ACCESS:    2075457  HIT:    2075325  MISS:        132  HIT %:    99.9936  MISS %: 0.00636005   MPKI: 0.00132
BTB BRANCH_DIRECT_JUMP	ACCESS:         66  HIT:         53  MISS:         13
BTB BRANCH_INDIRECT	ACCESS:          0  HIT:          0  MISS:          0
BTB BRANCH_CONDITIONAL	ACCESS:    2075295  HIT:    2075236  MISS:         59
BTB BRANCH_DIRECT_CALL	ACCESS:         48  HIT:         18  MISS:         30
BTB BRANCH_INDIRECT_CALL	ACCESS:          0  HIT:          0  MISS:          0
BTB BRANCH_RETURN	ACCESS:         48  HIT:         18  MISS:         30
BTB BRANCH_OTHER ACCESS:          0  HIT:          0  MISS:          0

L2C TOTAL     ACCESS:    1870033  HIT:     774502  MISS:    1095531  HIT %:    41.4165  MISS %:    58.5835   MPKI: 10.9553
L2C LOAD      ACCESS:     759594  HIT:     134971  MISS:     624623  HIT %:    17.7688  MISS %:    82.2312   MPKI: 6.24623
L2C DATA LOAD MPKI: 6.2445
L2C INSTRUCTION LOAD MPKI: 0.00173
L2C RFO       ACCESS:     393803  HIT:       1021  MISS:     392782  HIT %:   0.259267  MISS %:    99.7407   MPKI: 3.92782
L2C PREFETCH  ACCESS:     297247  HIT:     245608  MISS:      51639  HIT %:    82.6276  MISS %:    17.3724   MPKI: 0.51639
L2C DATA PREFETCH MPKI: 0.51639
L2C INSTRUCTION PREFETCH MPKI: 0
L2C WRITEBACK ACCESS:     396978  HIT:     379796  MISS:      17182  HIT %:    95.6718  MISS %:     4.3282   MPKI: 0.17182
L2C LOAD TRANSLATION ACCESS:      22411  HIT:      13106  MISS:       9305  HIT %:    58.4802  MISS %:    41.5198   MPKI: 0.09305
L2C PREFETCH  REQUESTED:     255354  ISSUED:     255354  USEFUL:        842  USELESS:      52238
L2C USEFUL LOAD PREFETCHES:        842 PREFETCH ISSUED TO LOWER LEVEL:      51639  ACCURACY: 1.63055
L2C TIMELY PREFETCHES:        842 LATE PREFETCHES: 0 DROPPED PREFETCHES: 0
L2C PREFETCHES SAME FILL-ORIGIN LEVEL: 44373 DIFFERENT FILL-ORIGIN LEVEL: 0
L2C AVERAGE MISS LATENCY: 131.312 cycles
L2C RQ	ACCESS:    1175809	FORWARD:          0	MERGED:          0	TO_CACHE:    1175809
L2C WQ	ACCESS:     396978	FORWARD:          0	MERGED:          0	TO_CACHE:     396978
L2C PQ	ACCESS:     305564	FORWARD:          0	MERGED:       7795	TO_CACHE:     297769

L2C Instructions Evicting Data 172
L2C Translations Evicting Data 9218
L2C Data Evicting Data 1059895
L2C Instructions Evicting Instructions 0
L2C Translations Evicting Instructions 4
L2C Data Evicting Instructions 166
L2C Instructions Evicting Translations 1
L2C Translations Evicting Translations 83
L2C Data Evicting Translations 8810
L2C Dense regions hint from L2: 0
PSCL5 TOTAL     ACCESS:      14966  HIT:      14966  MISS:          0  HIT %:        100  MISS %:          0   MPKI: 0
PSCL5 LOAD TRANSLATION ACCESS:      14966  HIT:      14966  MISS:          0  HIT %:        100  MISS %:          0   MPKI: 0
PSCL5 PREFETCH  REQUESTED:          0  ISSUED:          0  USEFUL:          0  USELESS:          0
PSCL5 USEFUL LOAD PREFETCHES:          0 PREFETCH ISSUED TO LOWER LEVEL:          0  ACCURACY: -nan
PSCL5 TIMELY PREFETCHES:          0 LATE PREFETCHES: 0 DROPPED PREFETCHES: 0
PSCL5 PREFETCHES SAME FILL-ORIGIN LEVEL: 0 DIFFERENT FILL-ORIGIN LEVEL: 0

PSCL4 TOTAL     ACCESS:      14966  HIT:      14966  MISS:          0  HIT %:        100  MISS %:          0   MPKI: 0
PSCL4 LOAD TRANSLATION ACCESS:      14966  HIT:      14966  MISS:          0  HIT %:        100  MISS %:          0   MPKI: 0
PSCL4 PREFETCH  REQUESTED:          0  ISSUED:          0  USEFUL:          0  USELESS:          0
PSCL4 USEFUL LOAD PREFETCHES:          0 PREFETCH ISSUED TO LOWER LEVEL:          0  ACCURACY: -nan
PSCL4 TIMELY PREFETCHES:          0 LATE PREFETCHES: 0 DROPPED PREFETCHES: 0
PSCL4 PREFETCHES SAME FILL-ORIGIN LEVEL: 0 DIFFERENT FILL-ORIGIN LEVEL: 0

PSCL3 TOTAL     ACCESS:      14956  HIT:      14824  MISS:        132  HIT %:    99.1174  MISS %:   0.882589   MPKI: 0.00132
PSCL3 LOAD TRANSLATION ACCESS:      14956  HIT:      14824  MISS:        132  HIT %:    99.1174  MISS %:   0.882589   MPKI: 0.00132
PSCL3 PREFETCH  REQUESTED:          0  ISSUED:          0  USEFUL:          0  USELESS:          0
PSCL3 USEFUL LOAD PREFETCHES:          0 PREFETCH ISSUED TO LOWER LEVEL:          0  ACCURACY: -nan
PSCL3 TIMELY PREFETCHES:          0 LATE PREFETCHES: 0 DROPPED PREFETCHES: 0
PSCL3 PREFETCHES SAME FILL-ORIGIN LEVEL: 0 DIFFERENT FILL-ORIGIN LEVEL: 0

PSCL2 TOTAL     ACCESS:      14966  HIT:       7505  MISS:       7461  HIT %:     50.147  MISS %:     49.853   MPKI: 0.07461
PSCL2 LOAD TRANSLATION ACCESS:      14966  HIT:       7505  MISS:       7461  HIT %:     50.147  MISS %:     49.853   MPKI: 0.07461
PSCL2 PREFETCH  REQUESTED:          0  ISSUED:          0  USEFUL:          0  USELESS:          0
PSCL2 USEFUL LOAD PREFETCHES:          0 PREFETCH ISSUED TO LOWER LEVEL:          0  ACCURACY: -nan
PSCL2 TIMELY PREFETCHES:          0 LATE PREFETCHES: 0 DROPPED PREFETCHES: 0
PSCL2 PREFETCHES SAME FILL-ORIGIN LEVEL: 0 DIFFERENT FILL-ORIGIN LEVEL: 0

LLC TOTAL     ACCESS:    1478526  HIT:     668871  MISS:     809655  HIT %:     45.239  MISS %:     54.761   MPKI: 8.09655
LLC LOAD      ACCESS:     624623  HIT:     186074  MISS:     438549  HIT %:    29.7898  MISS %:    70.2102   MPKI: 4.38549
LLC RFO       ACCESS:     392782  HIT:     217306  MISS:     175476  HIT %:    55.3248  MISS %:    44.6752   MPKI: 1.75476
LLC PREFETCH  ACCESS:      51639  HIT:      29974  MISS:      21665  HIT %:    58.0453  MISS %:    41.9547   MPKI: 0.21665
LLC WRITEBACK ACCESS:     400177  HIT:     234530  MISS:     165647  HIT %:    58.6066  MISS %:    41.3934   MPKI: 1.65647
LLC LOAD TRANSLATION ACCESS:       9305  HIT:        987  MISS:       8318  HIT %:    10.6072  MISS %:    89.3928   MPKI: 0.08318
LLC PREFETCH  REQUESTED:          0  ISSUED:          0  USEFUL:       1980  USELESS:      23465
LLC USEFUL LOAD PREFETCHES:       1980 PREFETCH ISSUED TO LOWER LEVEL:      21665  ACCURACY: 9.13916
LLC TIMELY PREFETCHES:       1980 LATE PREFETCHES: 0 DROPPED PREFETCHES: 0
LLC PREFETCHES SAME FILL-ORIGIN LEVEL: 0 DIFFERENT FILL-ORIGIN LEVEL: 0
LLC AVERAGE MISS LATENCY: 137.188 cycles
LLC RQ	ACCESS:    1026711	FORWARD:          0	MERGED:          0	TO_CACHE:    1026711
LLC WQ	ACCESS:     400177	FORWARD:          0	MERGED:          0	TO_CACHE:     400177
LLC PQ	ACCESS:      51639	FORWARD:          0	MERGED:          0	TO_CACHE:      51639

LLC Dense regions hint to LLC: 0

RAW hits: 1276437
Loads Generated: 35471401
Loads sent to L1D: 34194955
Stores Generated: 8008102
Stores sent to L1D: 8008110
Major fault: 0 Minor fault: 20496
Allocated PAGES: 20496

stream: 
stream:times selected: 353029
stream:pref_filled: 338400
stream:pref_useful: 329636
stream:pref_late: 135
stream:misses: 1
stream:misses_by_poll: 0

CS: 
CS:times selected: 290586
CS:pref_filled: 256
CS:pref_useful: 254
CS:pref_late: 3
CS:misses: 5904
CS:misses_by_poll: 0

CPLX: 
CPLX:times selected: 62352
CPLX:pref_filled: 204
CPLX:pref_useful: 148
CPLX:pref_late: 1
CPLX:misses: 192
CPLX:misses_by_poll: 0

NL_L1: 
NL:times selected: 7
NL:pref_filled: 4
NL:pref_useful: 4
NL:pref_late: 0
NL:misses: 0
NL:misses_by_poll: 0

total selections: 705974
total_filled: 50169
total_useful: 48568
total_late: 144
total_polluted: 0
total_misses_after_warmup: 2725
conflicts: 3
Degree Incremented Times: 82064
Degree Decremented Times: 0

L1 IP Table Write Accesses: 578373
L1 IP Table Read Accesses: 578370
L1 RST Write Accesses: 77048
L1 RST Read Accesses: 154096
L1 CSPT Write Accesses: 77048
L1 CSPT Read Accesses: 77105
L1 RR Filter Tag Write Accesses: 76133
L1 RR Filter Tag Read Accesses: 19548789
L1 IP Table Tag Write Accesses: 578377
L1 IP Table Tag Read Accesses: 578377
L1 RST Tag Write Accesses: 0
L1 RST Tag Read Accesses: 699763
L1 RR Filter Write Accesses: 0
L1 RR Filter Read Accesses: 660228
test: 7674
L2 IP Table Read Accesses: 90634
L2 IP Table Write Accesses: 89160
L2 IP Table Tag Read Accesses: 45319
L2 IP Table Tag Write Accesses: 45319

DRAM Statistics
 CHANNEL 0
 RQ ROW_BUFFER_HIT:     244315  ROW_BUFFER_MISS:     399688
 DBUS_CONGESTED:        296
 WQ ROW_BUFFER_HIT:      59508  ROW_BUFFER_MISS:     142692  FULL:          0

 AVG_CONGESTED_CYCLE: 4
 All warmup complete: 2
Channel 0 Bank busy for read cycles: 0
Channel 0 Bank busy for write cycles: 0
Channel 0
Rank 0
0banks busy for read cycles: 45579008
0banks busy for write cycles: 94624
1banks busy for read cycles: 34322395
1banks busy for write cycles: 14520823
2banks busy for read cycles: 14183494
2banks busy for write cycles: 5036479
3banks busy for read cycles: 2279437
3banks busy for write cycles: 1447093
4banks busy for read cycles: 231760
4banks busy for write cycles: 356445
5banks busy for read cycles: 105194
5banks busy for write cycles: 125301
6banks busy for read cycles: 68305
6banks busy for write cycles: 83295
7banks busy for read cycles: 95464
7banks busy for write cycles: 105287
8banks busy for read cycles: 23211
8banks busy for write cycles: 727383

CPU 0 Branch Prediction Accuracy: 99.8613% MPKI: 0.0288 Average ROB Occupancy at Mispredict: 218.091
Branch types
NOT_BRANCH: 97923400 97.9234%
BRANCH_DIRECT_JUMP: 66 6.6e-05%
BRANCH_INDIRECT: 0 0%
BRANCH_CONDITIONAL: 2076424 2.07642%
BRANCH_DIRECT_CALL: 48 4.8e-05%
BRANCH_INDIRECT_CALL: 0 0%
BRANCH_RETURN: 48 4.8e-05%
BRANCH_OTHER: 0 0%

DRAM PAGES: 1048576
Allocated PAGES: 20496
