
*** ChampSim Multicore Out-of-Order Simulator ***

Warmup Instructions: 50000000
Simulation Instructions: 100000000
Number of CPUs: 1
LLC sets: 2048
LLC ways: 16
Off-chip DRAM Size: 4096 MB Channels: 1 Width: 64-bit Data Rate: 6400 MT/s
CPU 0 runs ../SPEC2017//654.roms_s-1613B.champsimtrace.xz
.xz
BTB has LRU replacement policy
ITLB has LRU replacement policy
DTLB has LRU replacement policy
STLB has LRU replacement policy
L1I has LRU replacement policy
IP Table Entries: 64
L1D has LRU replacement policy
Initialize SRRIP state for L2C
Initialize DRRIP state for LLC
Heartbeat CPU 0 instructions: 10000001 cycles: 2914341 heartbeat IPC: 3.43131 cumulative IPC: 3.43131 (Simulation time: 0 hr 5 min 26 sec) 
Heartbeat CPU 0 instructions: 20000000 cycles: 5828653 heartbeat IPC: 3.43134 cumulative IPC: 3.43132 (Simulation time: 0 hr 10 min 14 sec) 
Heartbeat CPU 0 instructions: 30000000 cycles: 8742672 heartbeat IPC: 3.43169 cumulative IPC: 3.43145 (Simulation time: 0 hr 14 min 52 sec) 
Heartbeat CPU 0 instructions: 40000000 cycles: 11656592 heartbeat IPC: 3.4318 cumulative IPC: 3.43153 (Simulation time: 0 hr 18 min 54 sec) 
Heartbeat CPU 0 instructions: 50000001 cycles: 15124419 heartbeat IPC: 2.88365 cumulative IPC: 3.30591 (Simulation time: 0 hr 22 min 38 sec) 

Warmup complete CPU 0 instructions: 50000001 cycles: 15124419 (Simulation time: 0 hr 22 min 38 sec) 

Heartbeat CPU 0 instructions: 60000001 cycles: 32408005 heartbeat IPC: 0.578584 cumulative IPC: 0.578584 (Simulation time: 0 hr 26 min 52 sec) 
Heartbeat CPU 0 instructions: 70000003 cycles: 49695762 heartbeat IPC: 0.578444 cumulative IPC: 0.578514 (Simulation time: 0 hr 30 min 53 sec) 
Heartbeat CPU 0 instructions: 80000000 cycles: 66809492 heartbeat IPC: 0.584326 cumulative IPC: 0.580438 (Simulation time: 0 hr 34 min 45 sec) 
Heartbeat CPU 0 instructions: 90000001 cycles: 83837496 heartbeat IPC: 0.587268 cumulative IPC: 0.582131 (Simulation time: 0 hr 38 min 36 sec) 
Heartbeat CPU 0 instructions: 100000000 cycles: 100847990 heartbeat IPC: 0.587872 cumulative IPC: 0.58327 (Simulation time: 0 hr 42 min 23 sec) 
Heartbeat CPU 0 instructions: 110000000 cycles: 117862747 heartbeat IPC: 0.587725 cumulative IPC: 0.584008 (Simulation time: 0 hr 45 min 55 sec) 
Heartbeat CPU 0 instructions: 120000001 cycles: 139093556 heartbeat IPC: 0.471014 cumulative IPC: 0.564657 (Simulation time: 0 hr 50 min 11 sec) 
Heartbeat CPU 0 instructions: 130000000 cycles: 156358507 heartbeat IPC: 0.579208 cumulative IPC: 0.566435 (Simulation time: 0 hr 53 min 25 sec) 
Heartbeat CPU 0 instructions: 140000003 cycles: 173634331 heartbeat IPC: 0.578844 cumulative IPC: 0.567788 (Simulation time: 0 hr 56 min 37 sec) 
Heartbeat CPU 0 instructions: 150000001 cycles: 190863837 heartbeat IPC: 0.5804 cumulative IPC: 0.569024 (Simulation time: 0 hr 59 min 42 sec) 
Finished CPU 0 instructions: 100000000 cycles: 175739418 cumulative IPC: 0.569024 (Simulation time: 0 hr 59 min 42 sec) 

ChampSim completed all CPUs

Region of Interest Statistics

CPU 0 cumulative IPC: 0.569024 instructions: 100000000 cycles: 175739418

CPU 0 Average Load ROB stall cycles: 2.96541e+07
CPU 0 Fraction of times ROB stalled by Loads: 28.8134
CPU 0 Percentage of Load stall cycles in Total stall cycles: 5.65943e+08
Issued all: 62586178
Issued LT all: 48703019
rob_not_full_when_issued_lt_all: 43764462
Issued LT one: 40946229
rob_not_full_when_issued_lt_one: 36281165
FVP critical_dynamic_instances_0: 17692415
FVP unique_critical_ips_0: 182
 Total stall cycles: 150488900
 Total load stall cycles: 851681925654104
Unique Load IPs: 414
CPU 0 NUM of IPS identified critical: 0
CPU 0 Num of Load IPs stalling ROB: 0
Threshold modification factor: 0
Trouble in retire width: -nan
MaC = Marked as critical.
lt_50_percent_before_Mac: 0
gt_90_percent_before_Mac: 0
gt_75_percent_before_Mac: 0
gt_50_percent_before_Mac: 0
stall_proportion_bin_same_before_after: 0
stall_proportion_bin_lower_before_after: 0
stall_proportion_bin_upper_before_after: 0
average_stall_proportion_before: -nan
average_stall_proportion_after: -nan
Critical IP stalls, total frequency: 0
Non-critical IP stalls, total frequency: 0
Total Freq all stalling IPs: 0
Critical_IP_Detector_Accuracy_70: 0.00549451
Critical_IP_Detector_Accuracy_80: 0.00549451
Critical_IP_Detector_Accuracy_90: 0.00549451
Critical_IP_Detector_Coverage_70: 1
Critical_IP_Detector_Coverage_80: 1
Critical_IP_Detector_Coverage_90: 1
stat_90_percent_critical_ip_stalls_freq: 712109
stat_90_percent_non_critical_ip_stalls_freq: 18446744073708839507
AVERAGE_ROB_Occupancy_90_Percent_Critical_IP_Stalls: 63.0751
AVERAGE_ROB_Occupancy_90_Percent_Non_Critical_IP_Stalls: 2.0604e-11
Critical_IP_ROB_Stalls_Bucket_0: 0
Non-critical_IP_ROB_Stalls_Bucket_0: 4548765
Critical_IP_ROB_Stalls_Bucket_1: 0
Non-critical_IP_ROB_Stalls_Bucket_1: 3357872
Critical_IP_ROB_Stalls_Bucket_2: 0
Non-critical_IP_ROB_Stalls_Bucket_2: 94792
Critical_IP_ROB_Stalls_Bucket_3: 0
Non-critical_IP_ROB_Stalls_Bucket_3: 3379
Critical_IP_ROB_Stalls_Bucket_4: 0
Non-critical_IP_ROB_Stalls_Bucket_4: 2464
Critical_IP_ROB_Stalls_Bucket_5: 0
Non-critical_IP_ROB_Stalls_Bucket_5: 2918
Critical_IP_ROB_Stalls_Bucket_6: 0
Non-critical_IP_ROB_Stalls_Bucket_6: 265179
0 => IPs accounting for >50 percent of stalls, 1 => 55, 2 => 60, 3 => 65 and so on till 90.
percent50: inf num IPs:  1
percent55: inf num IPs: 1
percent60: inf num IPs: 1
percent65: inf num IPs: 1
percent70: inf num IPs: 1
percent75: inf num IPs: 1
percent80: inf num IPs: 1
percent85: inf num IPs: 1
percent90: inf num IPs: 1
Critical_ROB_Stalls_Percent_0_Bucket_0: 30
Non-critical_ROB_Stalls_Percent_0_Bucket_0: 4548735
Critical_ROB_Stalls_Percent_0_Bucket_1: 666128
Non-critical_ROB_Stalls_Percent_0_Bucket_1: 2691744
Critical_ROB_Stalls_Percent_0_Bucket_2: 45949
Non-critical_ROB_Stalls_Percent_0_Bucket_2: 48843
Critical_ROB_Stalls_Percent_0_Bucket_3: 0
Non-critical_ROB_Stalls_Percent_0_Bucket_3: 3379
Critical_ROB_Stalls_Percent_0_Bucket_4: 1
Non-critical_ROB_Stalls_Percent_0_Bucket_4: 2463
Critical_ROB_Stalls_Percent_0_Bucket_5: 0
Non-critical_ROB_Stalls_Percent_0_Bucket_5: 2918
Critical_ROB_Stalls_Percent_0_Bucket_6: 1
Non-critical_ROB_Stalls_Percent_0_Bucket_6: 265178
Critical_ROB_Stalls_Percent_1_Bucket_0: 30
Non-critical_ROB_Stalls_Percent_1_Bucket_0: 4548735
Critical_ROB_Stalls_Percent_1_Bucket_1: 666128
Non-critical_ROB_Stalls_Percent_1_Bucket_1: 2691744
Critical_ROB_Stalls_Percent_1_Bucket_2: 45949
Non-critical_ROB_Stalls_Percent_1_Bucket_2: 48843
Critical_ROB_Stalls_Percent_1_Bucket_3: 0
Non-critical_ROB_Stalls_Percent_1_Bucket_3: 3379
Critical_ROB_Stalls_Percent_1_Bucket_4: 1
Non-critical_ROB_Stalls_Percent_1_Bucket_4: 2463
Critical_ROB_Stalls_Percent_1_Bucket_5: 0
Non-critical_ROB_Stalls_Percent_1_Bucket_5: 2918
Critical_ROB_Stalls_Percent_1_Bucket_6: 1
Non-critical_ROB_Stalls_Percent_1_Bucket_6: 265178
Critical_ROB_Stalls_Percent_2_Bucket_0: 30
Non-critical_ROB_Stalls_Percent_2_Bucket_0: 4548735
Critical_ROB_Stalls_Percent_2_Bucket_1: 666128
Non-critical_ROB_Stalls_Percent_2_Bucket_1: 2691744
Critical_ROB_Stalls_Percent_2_Bucket_2: 45949
Non-critical_ROB_Stalls_Percent_2_Bucket_2: 48843
Critical_ROB_Stalls_Percent_2_Bucket_3: 0
Non-critical_ROB_Stalls_Percent_2_Bucket_3: 3379
Critical_ROB_Stalls_Percent_2_Bucket_4: 1
Non-critical_ROB_Stalls_Percent_2_Bucket_4: 2463
Critical_ROB_Stalls_Percent_2_Bucket_5: 0
Non-critical_ROB_Stalls_Percent_2_Bucket_5: 2918
Critical_ROB_Stalls_Percent_2_Bucket_6: 1
Non-critical_ROB_Stalls_Percent_2_Bucket_6: 265178
Critical_ROB_Stalls_Percent_3_Bucket_0: 30
Non-critical_ROB_Stalls_Percent_3_Bucket_0: 4548735
Critical_ROB_Stalls_Percent_3_Bucket_1: 666128
Non-critical_ROB_Stalls_Percent_3_Bucket_1: 2691744
Critical_ROB_Stalls_Percent_3_Bucket_2: 45949
Non-critical_ROB_Stalls_Percent_3_Bucket_2: 48843
Critical_ROB_Stalls_Percent_3_Bucket_3: 0
Non-critical_ROB_Stalls_Percent_3_Bucket_3: 3379
Critical_ROB_Stalls_Percent_3_Bucket_4: 1
Non-critical_ROB_Stalls_Percent_3_Bucket_4: 2463
Critical_ROB_Stalls_Percent_3_Bucket_5: 0
Non-critical_ROB_Stalls_Percent_3_Bucket_5: 2918
Critical_ROB_Stalls_Percent_3_Bucket_6: 1
Non-critical_ROB_Stalls_Percent_3_Bucket_6: 265178
Critical_ROB_Stalls_Percent_4_Bucket_0: 30
Non-critical_ROB_Stalls_Percent_4_Bucket_0: 4548735
Critical_ROB_Stalls_Percent_4_Bucket_1: 666128
Non-critical_ROB_Stalls_Percent_4_Bucket_1: 2691744
Critical_ROB_Stalls_Percent_4_Bucket_2: 45949
Non-critical_ROB_Stalls_Percent_4_Bucket_2: 48843
Critical_ROB_Stalls_Percent_4_Bucket_3: 0
Non-critical_ROB_Stalls_Percent_4_Bucket_3: 3379
Critical_ROB_Stalls_Percent_4_Bucket_4: 1
Non-critical_ROB_Stalls_Percent_4_Bucket_4: 2463
Critical_ROB_Stalls_Percent_4_Bucket_5: 0
Non-critical_ROB_Stalls_Percent_4_Bucket_5: 2918
Critical_ROB_Stalls_Percent_4_Bucket_6: 1
Non-critical_ROB_Stalls_Percent_4_Bucket_6: 265178
Critical_ROB_Stalls_Percent_5_Bucket_0: 30
Non-critical_ROB_Stalls_Percent_5_Bucket_0: 4548735
Critical_ROB_Stalls_Percent_5_Bucket_1: 666128
Non-critical_ROB_Stalls_Percent_5_Bucket_1: 2691744
Critical_ROB_Stalls_Percent_5_Bucket_2: 45949
Non-critical_ROB_Stalls_Percent_5_Bucket_2: 48843
Critical_ROB_Stalls_Percent_5_Bucket_3: 0
Non-critical_ROB_Stalls_Percent_5_Bucket_3: 3379
Critical_ROB_Stalls_Percent_5_Bucket_4: 1
Non-critical_ROB_Stalls_Percent_5_Bucket_4: 2463
Critical_ROB_Stalls_Percent_5_Bucket_5: 0
Non-critical_ROB_Stalls_Percent_5_Bucket_5: 2918
Critical_ROB_Stalls_Percent_5_Bucket_6: 1
Non-critical_ROB_Stalls_Percent_5_Bucket_6: 265178
Critical_ROB_Stalls_Percent_6_Bucket_0: 30
Non-critical_ROB_Stalls_Percent_6_Bucket_0: 4548735
Critical_ROB_Stalls_Percent_6_Bucket_1: 666128
Non-critical_ROB_Stalls_Percent_6_Bucket_1: 2691744
Critical_ROB_Stalls_Percent_6_Bucket_2: 45949
Non-critical_ROB_Stalls_Percent_6_Bucket_2: 48843
Critical_ROB_Stalls_Percent_6_Bucket_3: 0
Non-critical_ROB_Stalls_Percent_6_Bucket_3: 3379
Critical_ROB_Stalls_Percent_6_Bucket_4: 1
Non-critical_ROB_Stalls_Percent_6_Bucket_4: 2463
Critical_ROB_Stalls_Percent_6_Bucket_5: 0
Non-critical_ROB_Stalls_Percent_6_Bucket_5: 2918
Critical_ROB_Stalls_Percent_6_Bucket_6: 1
Non-critical_ROB_Stalls_Percent_6_Bucket_6: 265178
Critical_ROB_Stalls_Percent_7_Bucket_0: 30
Non-critical_ROB_Stalls_Percent_7_Bucket_0: 4548735
Critical_ROB_Stalls_Percent_7_Bucket_1: 666128
Non-critical_ROB_Stalls_Percent_7_Bucket_1: 2691744
Critical_ROB_Stalls_Percent_7_Bucket_2: 45949
Non-critical_ROB_Stalls_Percent_7_Bucket_2: 48843
Critical_ROB_Stalls_Percent_7_Bucket_3: 0
Non-critical_ROB_Stalls_Percent_7_Bucket_3: 3379
Critical_ROB_Stalls_Percent_7_Bucket_4: 1
Non-critical_ROB_Stalls_Percent_7_Bucket_4: 2463
Critical_ROB_Stalls_Percent_7_Bucket_5: 0
Non-critical_ROB_Stalls_Percent_7_Bucket_5: 2918
Critical_ROB_Stalls_Percent_7_Bucket_6: 1
Non-critical_ROB_Stalls_Percent_7_Bucket_6: 265178
Critical_ROB_Stalls_Percent_8_Bucket_0: 30
Non-critical_ROB_Stalls_Percent_8_Bucket_0: 4548735
Critical_ROB_Stalls_Percent_8_Bucket_1: 666128
Non-critical_ROB_Stalls_Percent_8_Bucket_1: 2691744
Critical_ROB_Stalls_Percent_8_Bucket_2: 45949
Non-critical_ROB_Stalls_Percent_8_Bucket_2: 48843
Critical_ROB_Stalls_Percent_8_Bucket_3: 0
Non-critical_ROB_Stalls_Percent_8_Bucket_3: 3379
Critical_ROB_Stalls_Percent_8_Bucket_4: 1
Non-critical_ROB_Stalls_Percent_8_Bucket_4: 2463
Critical_ROB_Stalls_Percent_8_Bucket_5: 0
Non-critical_ROB_Stalls_Percent_8_Bucket_5: 2918
Critical_ROB_Stalls_Percent_8_Bucket_6: 1
Non-critical_ROB_Stalls_Percent_8_Bucket_6: 265178
Average ROB occupancy Load Stall Begin: 44.9408
Average ROB occupancy Load Stall End: 51.3564
Min ROB occupancy Load Stall Begin: 1
Max ROB occupancy Load Stall Begin: 352
Min ROB occupancy Load Stall End: 1
Max ROB occupancy Load Stall End: 352
Average ROB occupancy Critical Load Stall Begin: -nan
Average ROB occupancy Critical Load Stall End: -nan
Min ROB occupancy Critical Load Stall Begin: 400
Max ROB occupancy Critical Load Stall Begin: 0
Min ROB occupancy Critical Load Stall End: 400
Max ROB occupancy Critical Load Stall End: 0
 ROB Load Stall Begin Bucket Count 0: 6366741
 ROB Load Stall End Bucket Count 0: 4548765
 ROB Critical Load Stall Begin Bucket Count 0: 0
 ROB Critical Load Stall End Bucket Count 0: 0
 ROB Load Stall Begin Bucket Count 1: 1589553
 ROB Load Stall End Bucket Count 1: 3357872
 ROB Critical Load Stall Begin Bucket Count 1: 0
 ROB Critical Load Stall End Bucket Count 1: 0
 ROB Load Stall Begin Bucket Count 2: 48426
 ROB Load Stall End Bucket Count 2: 94792
 ROB Critical Load Stall Begin Bucket Count 2: 0
 ROB Critical Load Stall End Bucket Count 2: 0
 ROB Load Stall Begin Bucket Count 3: 2857
 ROB Load Stall End Bucket Count 3: 3379
 ROB Critical Load Stall Begin Bucket Count 3: 0
 ROB Critical Load Stall End Bucket Count 3: 0
 ROB Load Stall Begin Bucket Count 4: 2252
 ROB Load Stall End Bucket Count 4: 2464
 ROB Critical Load Stall Begin Bucket Count 4: 0
 ROB Critical Load Stall End Bucket Count 4: 0
 ROB Load Stall Begin Bucket Count 5: 1846
 ROB Load Stall End Bucket Count 5: 2918
 ROB Critical Load Stall Begin Bucket Count 5: 0
 ROB Critical Load Stall End Bucket Count 5: 0
 ROB Load Stall Begin Bucket Count 6: 263694
 ROB Load Stall End Bucket Count 6: 265179
 ROB Critical Load Stall Begin Bucket Count 6: 0
 ROB Critical Load Stall End Bucket Count 6: 0
PIST Tag Read Accesses: 0
PIST Read Accesses: 0
PIST Tag Write Accesses: 0
PIST Write Accesses: 0
Criticality detector called times: 0
Max global_stall_cycles_count: 0
Threshold Modified: 0 times, factor: 0
ITLB TOTAL     ACCESS:   15214035  HIT:   15214027  MISS:          8  HIT %:    99.9999  MISS %: 5.2583e-05   MPKI: 8e-05
ITLB LOAD TRANSLATION ACCESS:   15214035  HIT:   15214027  MISS:          8  HIT %:    99.9999  MISS %: 5.2583e-05   MPKI: 8e-05
ITLB PREFETCH  REQUESTED:          0  ISSUED:          0  USEFUL:          0  USELESS:          0
ITLB USEFUL LOAD PREFETCHES:          0 PREFETCH ISSUED TO LOWER LEVEL:          0  ACCURACY: -nan
ITLB TIMELY PREFETCHES:          0 LATE PREFETCHES: 0 DROPPED PREFETCHES: 0
ITLB PREFETCHES SAME FILL-ORIGIN LEVEL: 0 DIFFERENT FILL-ORIGIN LEVEL: 0
ITLB AVERAGE MISS LATENCY: 283.75 cycles
ITLB RQ	ACCESS:   19844232	FORWARD:          0	MERGED:    4630197	TO_CACHE:   15214035

DTLB TOTAL     ACCESS:   20735916  HIT:   20729799  MISS:       6117  HIT %:    99.9705  MISS %:  0.0294995   MPKI: 0.06117
DTLB LOAD TRANSLATION ACCESS:   20735916  HIT:   20729799  MISS:       6117  HIT %:    99.9705  MISS %:  0.0294995   MPKI: 0.06117
DTLB PREFETCH  REQUESTED:          0  ISSUED:          0  USEFUL:          0  USELESS:          0
DTLB USEFUL LOAD PREFETCHES:          0 PREFETCH ISSUED TO LOWER LEVEL:          0  ACCURACY: -nan
DTLB TIMELY PREFETCHES:          0 LATE PREFETCHES: 0 DROPPED PREFETCHES: 0
DTLB PREFETCHES SAME FILL-ORIGIN LEVEL: 0 DIFFERENT FILL-ORIGIN LEVEL: 0
DTLB AVERAGE MISS LATENCY: 104.734 cycles
DTLB RQ	ACCESS:   24967448	FORWARD:          0	MERGED:    4225649	TO_CACHE:   20741799

STLB TOTAL     ACCESS:     193978  HIT:     188263  MISS:       5715  HIT %:    97.0538  MISS %:    2.94621   MPKI: 0.05715
STLB LOAD TRANSLATION ACCESS:       6125  HIT:        412  MISS:       5713  HIT %:    6.72653  MISS %:    93.2735   MPKI: 0.05713
STLB TRANSLATION FROM L1D PREFETCHER ACCESS:     187853  HIT:     187851  MISS:          2  HIT %:    99.9989  MISS %: 0.00106466   MPKI: 2e-05
STLB PREFETCH  REQUESTED:          0  ISSUED:          0  USEFUL:          2  USELESS:          0
STLB USEFUL LOAD PREFETCHES:          2 PREFETCH ISSUED TO LOWER LEVEL:          0  ACCURACY: inf
STLB TIMELY PREFETCHES:          2 LATE PREFETCHES: 0 DROPPED PREFETCHES: 0
STLB PREFETCHES SAME FILL-ORIGIN LEVEL: 0 DIFFERENT FILL-ORIGIN LEVEL: 0
STLB AVERAGE MISS LATENCY: 102.894 cycles
STLB RQ	ACCESS:     353548	FORWARD:          0	MERGED:     159569	TO_CACHE:     193979

STLB Hit, L1D data hit: 0
STLB Hit, L2C data hit: 0
STLB Hit, LLC data hit: 0
STLB Hit, LLC data miss: 0
STLB STLB hints to L2: 0
L1D TOTAL     ACCESS:   24836508  HIT:   24545513  MISS:     290995  HIT %:    98.8284  MISS %:    1.17164   MPKI: 2.90995
L1D LOAD      ACCESS:   14809812  HIT:   14755421  MISS:      54391  HIT %:    99.6327  MISS %:   0.367263   MPKI: 0.54391
L1D RFO       ACCESS:    9684665  HIT:    9573093  MISS:     111572  HIT %:     98.848  MISS %:    1.15205   MPKI: 1.11572
L1D PREFETCH  ACCESS:     342031  HIT:     216999  MISS:     125032  HIT %:    63.4442  MISS %:    36.5558   MPKI: 1.25032
L1D PREFETCH  REQUESTED:     694846  ISSUED:     694846  USEFUL:     113470  USELESS:      11538
L1D USEFUL LOAD PREFETCHES:     113470 PREFETCH ISSUED TO LOWER LEVEL:     128862  ACCURACY: 88.0554
L1D TIMELY PREFETCHES:     113470 LATE PREFETCHES: 3829 DROPPED PREFETCHES: 0
L1D PREFETCHES SAME FILL-ORIGIN LEVEL: 128862 DIFFERENT FILL-ORIGIN LEVEL: 0
L1D AVERAGE MISS LATENCY: 1.75304e+06 cycles
L1D RQ	ACCESS:   20014791	FORWARD:          0	MERGED:    5143333	TO_CACHE:   14826200
L1D WQ	ACCESS:   10855420	FORWARD:      45258	MERGED:     714172	TO_CACHE:   10141248
L1D PQ	ACCESS:     347423	FORWARD:          0	MERGED:          0	TO_CACHE:     347423

L1D UNIQUE REGIONS ACCESSED: 0
L1D REGIONS CONFLICTS: 0
L1D Cross Page Prefetch Requests: 0
L1D Same Page Prefetch Requests: 429273
L1D ROI Sum of L1D PQ occupancy: 4877539
L1D PREFETCHES PUSHED FROM L2C: 0
L1I TOTAL     ACCESS:   19844217  HIT:   19844111  MISS:        106  HIT %:    99.9995  MISS %: 0.000534161   MPKI: 0.00106
L1I LOAD      ACCESS:   19844217  HIT:   19844111  MISS:        106  HIT %:    99.9995  MISS %: 0.000534161   MPKI: 0.00106
L1I PREFETCH  REQUESTED:          0  ISSUED:          0  USEFUL:          0  USELESS:          0
L1I USEFUL LOAD PREFETCHES:          0 PREFETCH ISSUED TO LOWER LEVEL:          0  ACCURACY: -nan
L1I TIMELY PREFETCHES:          0 LATE PREFETCHES: 0 DROPPED PREFETCHES: 0
L1I PREFETCHES SAME FILL-ORIGIN LEVEL: 0 DIFFERENT FILL-ORIGIN LEVEL: 0
L1I AVERAGE MISS LATENCY: 162.604 cycles
L1I RQ	ACCESS:   28927267	FORWARD:          0	MERGED:    9083035	TO_CACHE:   19844232

BTB TOTAL     ACCESS:    6673576  HIT:    5961136  MISS:     712440  HIT %:    89.3245  MISS %:    10.6755   MPKI: 7.1244
BTB BRANCH_DIRECT_JUMP	ACCESS:     712598  HIT:     712560  MISS:         38
BTB BRANCH_INDIRECT	ACCESS:         16  HIT:         15  MISS:          1
BTB BRANCH_CONDITIONAL	ACCESS:    3111182  HIT:    3111055  MISS:        127
BTB BRANCH_DIRECT_CALL	ACCESS:    1424889  HIT:    1424844  MISS:         45
BTB BRANCH_INDIRECT_CALL	ACCESS:          0  HIT:          0  MISS:          0
BTB BRANCH_RETURN	ACCESS:    1424891  HIT:     712662  MISS:     712229
BTB BRANCH_OTHER ACCESS:          0  HIT:          0  MISS:          0

L2C TOTAL     ACCESS:     723392  HIT:     420235  MISS:     303157  HIT %:    58.0923  MISS %:    41.9077   MPKI: 3.03157
L2C LOAD      ACCESS:      50668  HIT:        166  MISS:      50502  HIT %:   0.327623  MISS %:    99.6724   MPKI: 0.50502
L2C DATA LOAD MPKI: 0.50396
L2C INSTRUCTION LOAD MPKI: 0.00106
L2C RFO       ACCESS:     111571  HIT:          2  MISS:     111569  HIT %: 0.00179258  MISS %:    99.9982   MPKI: 1.11569
L2C PREFETCH  ACCESS:     443839  HIT:     306694  MISS:     137145  HIT %:    69.1003  MISS %:    30.8997   MPKI: 1.37145
L2C DATA PREFETCH MPKI: 1.37145
L2C INSTRUCTION PREFETCH MPKI: 0
L2C WRITEBACK ACCESS:     111596  HIT:     108723  MISS:       2873  HIT %:    97.4255  MISS %:    2.57447   MPKI: 0.02873
L2C LOAD TRANSLATION ACCESS:       5716  HIT:       4649  MISS:       1067  HIT %:    81.3331  MISS %:    18.6669   MPKI: 0.01067
L2C TRANSLATION FROM L1D PREFETCHER ACCESS:          2  HIT:          1  MISS:          1  HIT %:         50  MISS %:         50   MPKI: 1e-05
L2C PREFETCH  REQUESTED:     508809  ISSUED:     508809  USEFUL:        166  USELESS:     135980
L2C USEFUL LOAD PREFETCHES:        166 PREFETCH ISSUED TO LOWER LEVEL:     137208  ACCURACY: 0.120984
L2C TIMELY PREFETCHES:        166 LATE PREFETCHES: 63 DROPPED PREFETCHES: 0
L2C PREFETCHES SAME FILL-ORIGIN LEVEL: 110662 DIFFERENT FILL-ORIGIN LEVEL: 0
L2C AVERAGE MISS LATENCY: 251.583 cycles
L2C RQ	ACCESS:     167957	FORWARD:          0	MERGED:          0	TO_CACHE:     167957
L2C WQ	ACCESS:     111596	FORWARD:          0	MERGED:          0	TO_CACHE:     111596
L2C PQ	ACCESS:     637671	FORWARD:          0	MERGED:      55858	TO_CACHE:     581813

L2C Instructions Evicting Data 105
L2C Translations Evicting Data 1060
L2C Data Evicting Data 297946
L2C Instructions Evicting Instructions 0
L2C Translations Evicting Instructions 1
L2C Data Evicting Instructions 111
L2C Instructions Evicting Translations 1
L2C Translations Evicting Translations 7
L2C Data Evicting Translations 1053
L2C Dense regions hint from L2: 0
PSCL5 TOTAL     ACCESS:       5715  HIT:       5715  MISS:          0  HIT %:        100  MISS %:          0   MPKI: 0
PSCL5 LOAD TRANSLATION ACCESS:       5713  HIT:       5713  MISS:          0  HIT %:        100  MISS %:          0   MPKI: 0
PSCL5 TRANSLATION FROM L1D PREFETCHER ACCESS:          2  HIT:          2  MISS:          0  HIT %:        100  MISS %:          0   MPKI: 0
PSCL5 PREFETCH  REQUESTED:          0  ISSUED:          0  USEFUL:          0  USELESS:          0
PSCL5 USEFUL LOAD PREFETCHES:          0 PREFETCH ISSUED TO LOWER LEVEL:          0  ACCURACY: -nan
PSCL5 TIMELY PREFETCHES:          0 LATE PREFETCHES: 0 DROPPED PREFETCHES: 0
PSCL5 PREFETCHES SAME FILL-ORIGIN LEVEL: 0 DIFFERENT FILL-ORIGIN LEVEL: 0

PSCL4 TOTAL     ACCESS:       5715  HIT:       5715  MISS:          0  HIT %:        100  MISS %:          0   MPKI: 0
PSCL4 LOAD TRANSLATION ACCESS:       5713  HIT:       5713  MISS:          0  HIT %:        100  MISS %:          0   MPKI: 0
PSCL4 TRANSLATION FROM L1D PREFETCHER ACCESS:          2  HIT:          2  MISS:          0  HIT %:        100  MISS %:          0   MPKI: 0
PSCL4 PREFETCH  REQUESTED:          0  ISSUED:          0  USEFUL:          0  USELESS:          0
PSCL4 USEFUL LOAD PREFETCHES:          0 PREFETCH ISSUED TO LOWER LEVEL:          0  ACCURACY: -nan
PSCL4 TIMELY PREFETCHES:          0 LATE PREFETCHES: 0 DROPPED PREFETCHES: 0
PSCL4 PREFETCHES SAME FILL-ORIGIN LEVEL: 0 DIFFERENT FILL-ORIGIN LEVEL: 0

PSCL3 TOTAL     ACCESS:       5715  HIT:       5715  MISS:          0  HIT %:        100  MISS %:          0   MPKI: 0
PSCL3 LOAD TRANSLATION ACCESS:       5713  HIT:       5713  MISS:          0  HIT %:        100  MISS %:          0   MPKI: 0
PSCL3 TRANSLATION FROM L1D PREFETCHER ACCESS:          2  HIT:          2  MISS:          0  HIT %:        100  MISS %:          0   MPKI: 0
PSCL3 PREFETCH  REQUESTED:          0  ISSUED:          0  USEFUL:          0  USELESS:          0
PSCL3 USEFUL LOAD PREFETCHES:          0 PREFETCH ISSUED TO LOWER LEVEL:          0  ACCURACY: -nan
PSCL3 TIMELY PREFETCHES:          0 LATE PREFETCHES: 0 DROPPED PREFETCHES: 0
PSCL3 PREFETCHES SAME FILL-ORIGIN LEVEL: 0 DIFFERENT FILL-ORIGIN LEVEL: 0

PSCL2 TOTAL     ACCESS:       5715  HIT:       5707  MISS:          8  HIT %:      99.86  MISS %:   0.139983   MPKI: 8e-05
PSCL2 LOAD TRANSLATION ACCESS:       5713  HIT:       5705  MISS:          8  HIT %:      99.86  MISS %:   0.140032   MPKI: 8e-05
PSCL2 TRANSLATION FROM L1D PREFETCHER ACCESS:          2  HIT:          2  MISS:          0  HIT %:        100  MISS %:          0   MPKI: 0
PSCL2 PREFETCH  REQUESTED:          0  ISSUED:          0  USEFUL:          0  USELESS:          0
PSCL2 USEFUL LOAD PREFETCHES:          0 PREFETCH ISSUED TO LOWER LEVEL:          0  ACCURACY: -nan
PSCL2 TIMELY PREFETCHES:          0 LATE PREFETCHES: 0 DROPPED PREFETCHES: 0
PSCL2 PREFETCHES SAME FILL-ORIGIN LEVEL: 0 DIFFERENT FILL-ORIGIN LEVEL: 0

LLC TOTAL     ACCESS:     411910  HIT:     110374  MISS:     301536  HIT %:    26.7957  MISS %:    73.2043   MPKI: 3.01536
LLC LOAD      ACCESS:      50439  HIT:        149  MISS:      50290  HIT %:   0.295406  MISS %:    99.7046   MPKI: 0.5029
LLC RFO       ACCESS:     111569  HIT:        111  MISS:     111458  HIT %:    0.09949  MISS %:    99.9005   MPKI: 1.11458
LLC PREFETCH  ACCESS:     137208  HIT:        260  MISS:     136948  HIT %:   0.189493  MISS %:    99.8105   MPKI: 1.36948
LLC WRITEBACK ACCESS:     111626  HIT:     109844  MISS:       1782  HIT %:    98.4036  MISS %:     1.5964   MPKI: 0.01782
LLC LOAD TRANSLATION ACCESS:       1067  HIT:         10  MISS:       1057  HIT %:   0.937207  MISS %:    99.0628   MPKI: 0.01057
LLC TRANSLATION FROM L1D PREFETCHER ACCESS:          1  HIT:          0  MISS:          1  HIT %:          0  MISS %:        100   MPKI: 1e-05
LLC PREFETCH  REQUESTED:          0  ISSUED:          0  USEFUL:          4  USELESS:     143250
LLC USEFUL LOAD PREFETCHES:          4 PREFETCH ISSUED TO LOWER LEVEL:     136948  ACCURACY: 0.00292082
LLC TIMELY PREFETCHES:          4 LATE PREFETCHES: 0 DROPPED PREFETCHES: 0
LLC PREFETCHES SAME FILL-ORIGIN LEVEL: 0 DIFFERENT FILL-ORIGIN LEVEL: 0
LLC AVERAGE MISS LATENCY: 222.593 cycles
LLC RQ	ACCESS:     163076	FORWARD:          0	MERGED:          0	TO_CACHE:     163076
LLC WQ	ACCESS:     111626	FORWARD:          0	MERGED:          0	TO_CACHE:     111626
LLC PQ	ACCESS:     137208	FORWARD:          0	MERGED:          0	TO_CACHE:     137208

LLC Dense regions hint to LLC: 0

RAW hits: 2869270
Loads Generated: 22884063
Loads sent to L1D: 20014791
Stores Generated: 10855417
Stores sent to L1D: 10855420
Major fault: 0 Minor fault: 6008
Allocated PAGES: 6008

stream: 
stream:times selected: 1543826
stream:pref_filled: 197080
stream:pref_useful: 182585
stream:pref_late: 4469
stream:misses: 105
stream:misses_by_poll: 0

CS: 
CS:times selected: 191311
CS:pref_filled: 3290
CS:pref_useful: 3041
CS:pref_late: 27
CS:misses: 25737
CS:misses_by_poll: 7

CPLX: 
CPLX:times selected: 1352386
CPLX:pref_filled: 2165
CPLX:pref_useful: 1382
CPLX:pref_late: 6
CPLX:misses: 1497
CPLX:misses_by_poll: 0

NL_L1: 
NL:times selected: 15
NL:pref_filled: 6
NL:pref_useful: 6
NL:pref_late: 0
NL:misses: 2
NL:misses_by_poll: 0

total selections: 3087538
total_filled: 125032
total_useful: 113470
total_late: 4577
total_polluted: 7
total_misses_after_warmup: 25646
conflicts: 149
Degree Incremented Times: 148096
Degree Decremented Times: 0

L1 IP Table Write Accesses: 11889081
L1 IP Table Read Accesses: 11888932
L1 RST Write Accesses: 1506216
L1 RST Read Accesses: 3012432
L1 CSPT Write Accesses: 1506216
L1 CSPT Read Accesses: 5498782
L1 RR Filter Tag Write Accesses: 347423
L1 RR Filter Tag Read Accesses: 210857246
L1 IP Table Tag Write Accesses: 12294854
L1 IP Table Tag Read Accesses: 12294854
L1 RST Tag Write Accesses: 0
L1 RST Tag Read Accesses: 12401044
L1 RR Filter Write Accesses: 0
L1 RR Filter Read Accesses: 11722648
test: 652222
L2 IP Table Read Accesses: 183596
L2 IP Table Write Accesses: 178182
L2 IP Table Tag Read Accesses: 91812
L2 IP Table Tag Write Accesses: 91812

DRAM Statistics
 CHANNEL 0
 RQ ROW_BUFFER_HIT:      60495  ROW_BUFFER_MISS:     239259
 DBUS_CONGESTED:         13
 WQ ROW_BUFFER_HIT:      15313  ROW_BUFFER_MISS:      94202  FULL:          0

 AVG_CONGESTED_CYCLE: 4
 All warmup complete: 2
Channel 0 Bank busy for read cycles: 0
Channel 0 Bank busy for write cycles: 0
Channel 0
Rank 0
0banks busy for read cycles: 148865688
0banks busy for write cycles: 34165
1banks busy for read cycles: 13504849
1banks busy for write cycles: 5224185
2banks busy for read cycles: 1980275
2banks busy for write cycles: 144354
3banks busy for read cycles: 968858
3banks busy for write cycles: 61386
4banks busy for read cycles: 832350
4banks busy for write cycles: 50587
5banks busy for read cycles: 359065
5banks busy for write cycles: 44370
6banks busy for read cycles: 349567
6banks busy for write cycles: 37538
7banks busy for read cycles: 571181
7banks busy for write cycles: 139785
8banks busy for read cycles: 1058656
8banks busy for write cycles: 1512560

CPU 0 Branch Prediction Accuracy: 99.978% MPKI: 0.02252 Average ROB Occupancy at Mispredict: 26.3859
Branch types
NOT_BRANCH: 89756089 89.7561%
BRANCH_DIRECT_JUMP: 712598 0.712598%
BRANCH_INDIRECT: 16 1.6e-05%
BRANCH_CONDITIONAL: 6681200 6.6812%
BRANCH_DIRECT_CALL: 1424889 1.42489%
BRANCH_INDIRECT_CALL: 0 0%
BRANCH_RETURN: 1424891 1.42489%
BRANCH_OTHER: 0 0%

DRAM PAGES: 1048576
Allocated PAGES: 6008
