
*** ChampSim Multicore Out-of-Order Simulator ***

Warmup Instructions: 50000000
Simulation Instructions: 100000000
Number of CPUs: 1
LLC sets: 2048
LLC ways: 16
Off-chip DRAM Size: 4096 MB Channels: 1 Width: 64-bit Data Rate: 6400 MT/s
CPU 0 runs ../SPEC2017//654.roms_s-294B.champsimtrace.xz
.xz
BTB has LRU replacement policy
ITLB has LRU replacement policy
DTLB has LRU replacement policy
STLB has LRU replacement policy
L1I has LRU replacement policy
L1D has LRU replacement policy
Bingo PHT WAYS: 16 and PHT_SIZE: 16384
Initialize SRRIP state for L2C
Initialize DRRIP state for LLC
Heartbeat CPU 0 instructions: 10000001 cycles: 3210920 heartbeat IPC: 3.11437 cumulative IPC: 3.11437 (Simulation time: 0 hr 3 min 51 sec) 
Heartbeat CPU 0 instructions: 20000000 cycles: 6421706 heartbeat IPC: 3.1145 cumulative IPC: 3.11444 (Simulation time: 0 hr 7 min 25 sec) 
Heartbeat CPU 0 instructions: 30000003 cycles: 9632461 heartbeat IPC: 3.11453 cumulative IPC: 3.11447 (Simulation time: 0 hr 10 min 23 sec) 
Heartbeat CPU 0 instructions: 40000001 cycles: 12842959 heartbeat IPC: 3.11478 cumulative IPC: 3.11455 (Simulation time: 0 hr 13 min 16 sec) 
Heartbeat CPU 0 instructions: 50000001 cycles: 16053326 heartbeat IPC: 3.11491 cumulative IPC: 3.11462 (Simulation time: 0 hr 15 min 59 sec) 

Warmup complete CPU 0 instructions: 50000001 cycles: 16053326 (Simulation time: 0 hr 15 min 59 sec) 

Heartbeat CPU 0 instructions: 60000002 cycles: 29613446 heartbeat IPC: 0.737457 cumulative IPC: 0.737457 (Simulation time: 0 hr 20 min 19 sec) 
Heartbeat CPU 0 instructions: 70000000 cycles: 42725830 heartbeat IPC: 0.762638 cumulative IPC: 0.749836 (Simulation time: 0 hr 24 min 2 sec) 
Heartbeat CPU 0 instructions: 80000001 cycles: 55616818 heartbeat IPC: 0.775736 cumulative IPC: 0.758275 (Simulation time: 0 hr 27 min 1 sec) 
Heartbeat CPU 0 instructions: 90000001 cycles: 67615983 heartbeat IPC: 0.833391 cumulative IPC: 0.775755 (Simulation time: 0 hr 28 min 16 sec) 
Heartbeat CPU 0 instructions: 100000000 cycles: 79246049 heartbeat IPC: 0.85984 cumulative IPC: 0.79123 (Simulation time: 0 hr 28 min 56 sec) 
Heartbeat CPU 0 instructions: 110000000 cycles: 90863576 heartbeat IPC: 0.860768 cumulative IPC: 0.802029 (Simulation time: 0 hr 29 min 37 sec) 
Heartbeat CPU 0 instructions: 120000002 cycles: 102352832 heartbeat IPC: 0.870379 cumulative IPC: 0.811129 (Simulation time: 0 hr 30 min 17 sec) 
Heartbeat CPU 0 instructions: 130000001 cycles: 113952045 heartbeat IPC: 0.862127 cumulative IPC: 0.817171 (Simulation time: 0 hr 30 min 57 sec) 
Heartbeat CPU 0 instructions: 140000000 cycles: 125538781 heartbeat IPC: 0.863056 cumulative IPC: 0.822027 (Simulation time: 0 hr 31 min 37 sec) 
Heartbeat CPU 0 instructions: 150000000 cycles: 137117961 heartbeat IPC: 0.863619 cumulative IPC: 0.826005 (Simulation time: 0 hr 32 min 18 sec) 
Finished CPU 0 instructions: 100000003 cycles: 121064636 cumulative IPC: 0.826005 (Simulation time: 0 hr 32 min 18 sec) 

ChampSim completed all CPUs

Region of Interest Statistics

CPU 0 cumulative IPC: 0.826005 instructions: 100000003 cycles: 121064636

CPU 0 Average Load ROB stall cycles: 3.26012e+07
CPU 0 Fraction of times ROB stalled by Loads: 42.0446
CPU 0 Percentage of Load stall cycles in Total stall cycles: 2.77148e+08
Issued all: 81780651
Issued LT all: 70726296
rob_not_full_when_issued_lt_all: 30608278
Issued LT one: 60196650
rob_not_full_when_issued_lt_one: 25797430
 Total stall cycles: 96722377
 Total load stall cycles: 268064447200240
Unique Load IPs: 93
CPU 0 NUM of IPS identified critical: 6
CPU 0 Num of Load IPs stalling ROB: 0
Threshold modification factor: 0
Trouble in retire width: -nan
MaC = Marked as critical.
lt_50_percent_before_Mac: 2
gt_90_percent_before_Mac: 1
gt_75_percent_before_Mac: 0
gt_50_percent_before_Mac: 3
stall_proportion_bin_same_before_after: 0
stall_proportion_bin_lower_before_after: 0
stall_proportion_bin_upper_before_after: 0
average_stall_proportion_before: 0.0159377
average_stall_proportion_after: 0.0138668
Critical_IP_Detector_Accuracy_70: 0
Critical_IP_Detector_Accuracy_80: 0
Critical_IP_Detector_Accuracy_90: 0
Critical_IP_Detector_Coverage_70: 0
Critical_IP_Detector_Coverage_80: 0
Critical_IP_Detector_Coverage_90: 0
stat_90_percent_critical_ip_stalls_freq: 1563565
stat_90_percent_non_critical_ip_stalls_freq: 18446744073707988051
AVERAGE_ROB_Occupancy_90_Percent_Critical_IP_Stalls: 311.765
AVERAGE_ROB_Occupancy_90_Percent_Non_Critical_IP_Stalls: 3.25589e-11
Critical_IP_ROB_Stalls_Bucket_0: 586
Non-critical_IP_ROB_Stalls_Bucket_0: 17330
Critical_IP_ROB_Stalls_Bucket_1: 520
Non-critical_IP_ROB_Stalls_Bucket_1: 6088
Critical_IP_ROB_Stalls_Bucket_2: 229
Non-critical_IP_ROB_Stalls_Bucket_2: 3005
Critical_IP_ROB_Stalls_Bucket_3: 828
Non-critical_IP_ROB_Stalls_Bucket_3: 7146
Critical_IP_ROB_Stalls_Bucket_4: 8464
Non-critical_IP_ROB_Stalls_Bucket_4: 116428
Critical_IP_ROB_Stalls_Bucket_5: 56019
Non-critical_IP_ROB_Stalls_Bucket_5: 971061
Critical_IP_ROB_Stalls_Bucket_6: 227508
Non-critical_IP_ROB_Stalls_Bucket_6: 2041911
0 => IPs accounting for >50 percent of stalls, 1 => 55, 2 => 60, 3 => 65 and so on till 90.
percent50: inf num IPs:  1
percent55: inf num IPs: 1
percent60: inf num IPs: 1
percent65: inf num IPs: 1
percent70: inf num IPs: 1
percent75: inf num IPs: 1
percent80: inf num IPs: 1
percent85: inf num IPs: 1
percent90: inf num IPs: 1
Critical_ROB_Stalls_Percent_0_Bucket_0: 3071
Non-critical_ROB_Stalls_Percent_0_Bucket_0: 14845
Critical_ROB_Stalls_Percent_0_Bucket_1: 3180
Non-critical_ROB_Stalls_Percent_0_Bucket_1: 3428
Critical_ROB_Stalls_Percent_0_Bucket_2: 48
Non-critical_ROB_Stalls_Percent_0_Bucket_2: 3186
Critical_ROB_Stalls_Percent_0_Bucket_3: 3165
Non-critical_ROB_Stalls_Percent_0_Bucket_3: 4809
Critical_ROB_Stalls_Percent_0_Bucket_4: 47516
Non-critical_ROB_Stalls_Percent_0_Bucket_4: 77376
Critical_ROB_Stalls_Percent_0_Bucket_5: 572609
Non-critical_ROB_Stalls_Percent_0_Bucket_5: 454471
Critical_ROB_Stalls_Percent_0_Bucket_6: 933976
Non-critical_ROB_Stalls_Percent_0_Bucket_6: 1335443
Critical_ROB_Stalls_Percent_1_Bucket_0: 3071
Non-critical_ROB_Stalls_Percent_1_Bucket_0: 14845
Critical_ROB_Stalls_Percent_1_Bucket_1: 3180
Non-critical_ROB_Stalls_Percent_1_Bucket_1: 3428
Critical_ROB_Stalls_Percent_1_Bucket_2: 48
Non-critical_ROB_Stalls_Percent_1_Bucket_2: 3186
Critical_ROB_Stalls_Percent_1_Bucket_3: 3165
Non-critical_ROB_Stalls_Percent_1_Bucket_3: 4809
Critical_ROB_Stalls_Percent_1_Bucket_4: 47516
Non-critical_ROB_Stalls_Percent_1_Bucket_4: 77376
Critical_ROB_Stalls_Percent_1_Bucket_5: 572609
Non-critical_ROB_Stalls_Percent_1_Bucket_5: 454471
Critical_ROB_Stalls_Percent_1_Bucket_6: 933976
Non-critical_ROB_Stalls_Percent_1_Bucket_6: 1335443
Critical_ROB_Stalls_Percent_2_Bucket_0: 3071
Non-critical_ROB_Stalls_Percent_2_Bucket_0: 14845
Critical_ROB_Stalls_Percent_2_Bucket_1: 3180
Non-critical_ROB_Stalls_Percent_2_Bucket_1: 3428
Critical_ROB_Stalls_Percent_2_Bucket_2: 48
Non-critical_ROB_Stalls_Percent_2_Bucket_2: 3186
Critical_ROB_Stalls_Percent_2_Bucket_3: 3165
Non-critical_ROB_Stalls_Percent_2_Bucket_3: 4809
Critical_ROB_Stalls_Percent_2_Bucket_4: 47516
Non-critical_ROB_Stalls_Percent_2_Bucket_4: 77376
Critical_ROB_Stalls_Percent_2_Bucket_5: 572609
Non-critical_ROB_Stalls_Percent_2_Bucket_5: 454471
Critical_ROB_Stalls_Percent_2_Bucket_6: 933976
Non-critical_ROB_Stalls_Percent_2_Bucket_6: 1335443
Critical_ROB_Stalls_Percent_3_Bucket_0: 3071
Non-critical_ROB_Stalls_Percent_3_Bucket_0: 14845
Critical_ROB_Stalls_Percent_3_Bucket_1: 3180
Non-critical_ROB_Stalls_Percent_3_Bucket_1: 3428
Critical_ROB_Stalls_Percent_3_Bucket_2: 48
Non-critical_ROB_Stalls_Percent_3_Bucket_2: 3186
Critical_ROB_Stalls_Percent_3_Bucket_3: 3165
Non-critical_ROB_Stalls_Percent_3_Bucket_3: 4809
Critical_ROB_Stalls_Percent_3_Bucket_4: 47516
Non-critical_ROB_Stalls_Percent_3_Bucket_4: 77376
Critical_ROB_Stalls_Percent_3_Bucket_5: 572609
Non-critical_ROB_Stalls_Percent_3_Bucket_5: 454471
Critical_ROB_Stalls_Percent_3_Bucket_6: 933976
Non-critical_ROB_Stalls_Percent_3_Bucket_6: 1335443
Critical_ROB_Stalls_Percent_4_Bucket_0: 3071
Non-critical_ROB_Stalls_Percent_4_Bucket_0: 14845
Critical_ROB_Stalls_Percent_4_Bucket_1: 3180
Non-critical_ROB_Stalls_Percent_4_Bucket_1: 3428
Critical_ROB_Stalls_Percent_4_Bucket_2: 48
Non-critical_ROB_Stalls_Percent_4_Bucket_2: 3186
Critical_ROB_Stalls_Percent_4_Bucket_3: 3165
Non-critical_ROB_Stalls_Percent_4_Bucket_3: 4809
Critical_ROB_Stalls_Percent_4_Bucket_4: 47516
Non-critical_ROB_Stalls_Percent_4_Bucket_4: 77376
Critical_ROB_Stalls_Percent_4_Bucket_5: 572609
Non-critical_ROB_Stalls_Percent_4_Bucket_5: 454471
Critical_ROB_Stalls_Percent_4_Bucket_6: 933976
Non-critical_ROB_Stalls_Percent_4_Bucket_6: 1335443
Critical_ROB_Stalls_Percent_5_Bucket_0: 3071
Non-critical_ROB_Stalls_Percent_5_Bucket_0: 14845
Critical_ROB_Stalls_Percent_5_Bucket_1: 3180
Non-critical_ROB_Stalls_Percent_5_Bucket_1: 3428
Critical_ROB_Stalls_Percent_5_Bucket_2: 48
Non-critical_ROB_Stalls_Percent_5_Bucket_2: 3186
Critical_ROB_Stalls_Percent_5_Bucket_3: 3165
Non-critical_ROB_Stalls_Percent_5_Bucket_3: 4809
Critical_ROB_Stalls_Percent_5_Bucket_4: 47516
Non-critical_ROB_Stalls_Percent_5_Bucket_4: 77376
Critical_ROB_Stalls_Percent_5_Bucket_5: 572609
Non-critical_ROB_Stalls_Percent_5_Bucket_5: 454471
Critical_ROB_Stalls_Percent_5_Bucket_6: 933976
Non-critical_ROB_Stalls_Percent_5_Bucket_6: 1335443
Critical_ROB_Stalls_Percent_6_Bucket_0: 3071
Non-critical_ROB_Stalls_Percent_6_Bucket_0: 14845
Critical_ROB_Stalls_Percent_6_Bucket_1: 3180
Non-critical_ROB_Stalls_Percent_6_Bucket_1: 3428
Critical_ROB_Stalls_Percent_6_Bucket_2: 48
Non-critical_ROB_Stalls_Percent_6_Bucket_2: 3186
Critical_ROB_Stalls_Percent_6_Bucket_3: 3165
Non-critical_ROB_Stalls_Percent_6_Bucket_3: 4809
Critical_ROB_Stalls_Percent_6_Bucket_4: 47516
Non-critical_ROB_Stalls_Percent_6_Bucket_4: 77376
Critical_ROB_Stalls_Percent_6_Bucket_5: 572609
Non-critical_ROB_Stalls_Percent_6_Bucket_5: 454471
Critical_ROB_Stalls_Percent_6_Bucket_6: 933976
Non-critical_ROB_Stalls_Percent_6_Bucket_6: 1335443
Critical_ROB_Stalls_Percent_7_Bucket_0: 3071
Non-critical_ROB_Stalls_Percent_7_Bucket_0: 14845
Critical_ROB_Stalls_Percent_7_Bucket_1: 3180
Non-critical_ROB_Stalls_Percent_7_Bucket_1: 3428
Critical_ROB_Stalls_Percent_7_Bucket_2: 48
Non-critical_ROB_Stalls_Percent_7_Bucket_2: 3186
Critical_ROB_Stalls_Percent_7_Bucket_3: 3165
Non-critical_ROB_Stalls_Percent_7_Bucket_3: 4809
Critical_ROB_Stalls_Percent_7_Bucket_4: 47516
Non-critical_ROB_Stalls_Percent_7_Bucket_4: 77376
Critical_ROB_Stalls_Percent_7_Bucket_5: 572609
Non-critical_ROB_Stalls_Percent_7_Bucket_5: 454471
Critical_ROB_Stalls_Percent_7_Bucket_6: 933976
Non-critical_ROB_Stalls_Percent_7_Bucket_6: 1335443
Critical_ROB_Stalls_Percent_8_Bucket_0: 3071
Non-critical_ROB_Stalls_Percent_8_Bucket_0: 14845
Critical_ROB_Stalls_Percent_8_Bucket_1: 3180
Non-critical_ROB_Stalls_Percent_8_Bucket_1: 3428
Critical_ROB_Stalls_Percent_8_Bucket_2: 48
Non-critical_ROB_Stalls_Percent_8_Bucket_2: 3186
Critical_ROB_Stalls_Percent_8_Bucket_3: 3165
Non-critical_ROB_Stalls_Percent_8_Bucket_3: 4809
Critical_ROB_Stalls_Percent_8_Bucket_4: 47516
Non-critical_ROB_Stalls_Percent_8_Bucket_4: 77376
Critical_ROB_Stalls_Percent_8_Bucket_5: 572609
Non-critical_ROB_Stalls_Percent_8_Bucket_5: 454471
Critical_ROB_Stalls_Percent_8_Bucket_6: 933976
Non-critical_ROB_Stalls_Percent_8_Bucket_6: 1335443
Average ROB occupancy Load Stall Begin: 300.244
Average ROB occupancy Load Stall End: 314.733
Min ROB occupancy Load Stall Begin: 3
Max ROB occupancy Load Stall Begin: 352
Min ROB occupancy Load Stall End: 5
Max ROB occupancy Load Stall End: 352
Average ROB occupancy Critical Load Stall Begin: 301.984
Average ROB occupancy Critical Load Stall End: 311.23
Min ROB occupancy Critical Load Stall Begin: 7
Max ROB occupancy Critical Load Stall Begin: 352
Min ROB occupancy Critical Load Stall End: 7
Max ROB occupancy Critical Load Stall End: 352
 ROB Load Stall Begin Bucket Count 0: 21895
 ROB Load Stall End Bucket Count 0: 17916
 ROB Critical Load Stall Begin Bucket Count 0: 250
 ROB Critical Load Stall End Bucket Count 0: 227
 ROB Load Stall Begin Bucket Count 1: 6157
 ROB Load Stall End Bucket Count 1: 6608
 ROB Critical Load Stall Begin Bucket Count 1: 171
 ROB Critical Load Stall End Bucket Count 1: 185
 ROB Load Stall Begin Bucket Count 2: 3183
 ROB Load Stall End Bucket Count 2: 3234
 ROB Critical Load Stall Begin Bucket Count 2: 162
 ROB Critical Load Stall End Bucket Count 2: 146
 ROB Load Stall Begin Bucket Count 3: 10670
 ROB Load Stall End Bucket Count 3: 7974
 ROB Critical Load Stall Begin Bucket Count 3: 321
 ROB Critical Load Stall End Bucket Count 3: 265
 ROB Load Stall Begin Bucket Count 4: 367073
 ROB Load Stall End Bucket Count 4: 124892
 ROB Critical Load Stall Begin Bucket Count 4: 15001
 ROB Critical Load Stall End Bucket Count 4: 5598
 ROB Load Stall Begin Bucket Count 5: 1166777
 ROB Load Stall End Bucket Count 5: 1027080
 ROB Critical Load Stall Begin Bucket Count 5: 36338
 ROB Critical Load Stall End Bucket Count 5: 36203
 ROB Load Stall Begin Bucket Count 6: 1881368
 ROB Load Stall End Bucket Count 6: 2269419
 ROB Critical Load Stall Begin Bucket Count 6: 64394
 ROB Critical Load Stall End Bucket Count 6: 74013
PIST Tag Read Accesses: 0
PIST Read Accesses: 0
PIST Tag Write Accesses: 0
PIST Write Accesses: 0
Criticality detector called times: 0
Max global_stall_cycles_count: 0
Threshold Modified: 0 times, factor: 0
Sturdy critical IP cache stats: 
 Unused entries: 0
CIC Tag Read Accesses: 0
CIC Read Accesses: 0
CIC Tag Write Accesses: 0
CIC Write Accesses: 0
Wobbly critical IP cache stats: 
 Unused entries: 24
CIC Tag Read Accesses: 349215823
CIC Read Accesses: 0
CIC Tag Write Accesses: 9304277
CIC Write Accesses: 0
ITLB TOTAL     ACCESS:   14147280  HIT:   14147280  MISS:          0  HIT %:        100  MISS %:          0   MPKI: 0
ITLB LOAD TRANSLATION ACCESS:   14147280  HIT:   14147280  MISS:          0  HIT %:        100  MISS %:          0   MPKI: 0
ITLB PREFETCH  REQUESTED:          0  ISSUED:          0  USEFUL:          0  USELESS:          0
ITLB USEFUL LOAD PREFETCHES:          0 PREFETCH ISSUED TO LOWER LEVEL:          0  ACCURACY: -nan
ITLB TIMELY PREFETCHES:          0 LATE PREFETCHES: 0 DROPPED PREFETCHES: 0
ITLB PREFETCHES SAME FILL-ORIGIN LEVEL: 0 DIFFERENT FILL-ORIGIN LEVEL: 0
ITLB AVERAGE MISS LATENCY: -nan cycles
ITLB RQ	ACCESS:   17468236	FORWARD:          0	MERGED:    3320957	TO_CACHE:   14147279

DTLB TOTAL     ACCESS:   24799362  HIT:   24758420  MISS:      40942  HIT %:    99.8349  MISS %:   0.165093   MPKI: 0.40942
DTLB LOAD TRANSLATION ACCESS:   24799362  HIT:   24758420  MISS:      40942  HIT %:    99.8349  MISS %:   0.165093   MPKI: 0.40942
DTLB PREFETCH  REQUESTED:          0  ISSUED:          0  USEFUL:          0  USELESS:          0
DTLB USEFUL LOAD PREFETCHES:          0 PREFETCH ISSUED TO LOWER LEVEL:          0  ACCURACY: -nan
DTLB TIMELY PREFETCHES:          0 LATE PREFETCHES: 0 DROPPED PREFETCHES: 0
DTLB PREFETCHES SAME FILL-ORIGIN LEVEL: 0 DIFFERENT FILL-ORIGIN LEVEL: 0
DTLB AVERAGE MISS LATENCY: 367.976 cycles
DTLB RQ	ACCESS:   27352742	FORWARD:          0	MERGED:    2548402	TO_CACHE:   24804340

STLB TOTAL     ACCESS:      40942  HIT:       8066  MISS:      32876  HIT %:     19.701  MISS %:     80.299   MPKI: 0.32876
STLB LOAD TRANSLATION ACCESS:      40942  HIT:       8066  MISS:      32876  HIT %:     19.701  MISS %:     80.299   MPKI: 0.32876
STLB PREFETCH  REQUESTED:          0  ISSUED:          0  USEFUL:          0  USELESS:          0
STLB USEFUL LOAD PREFETCHES:          0 PREFETCH ISSUED TO LOWER LEVEL:          0  ACCURACY: -nan
STLB TIMELY PREFETCHES:          0 LATE PREFETCHES: 0 DROPPED PREFETCHES: 0
STLB PREFETCHES SAME FILL-ORIGIN LEVEL: 0 DIFFERENT FILL-ORIGIN LEVEL: 0
STLB AVERAGE MISS LATENCY: 445.942 cycles
STLB RQ	ACCESS:      40942	FORWARD:          0	MERGED:          0	TO_CACHE:      40942

STLB Hit, L1D data hit: 0
STLB Hit, L2C data hit: 0
STLB Hit, LLC data hit: 0
STLB Hit, LLC data miss: 0
STLB STLB hints to L2: 0
L1D TOTAL     ACCESS:   26182315  HIT:   24889090  MISS:    1293225  HIT %:    95.0607  MISS %:    4.93931   MPKI: 12.9322
L1D LOAD      ACCESS:   22828600  HIT:   21545925  MISS:    1282675  HIT %:    94.3813  MISS %:    5.61872   MPKI: 12.8267
L1D RFO       ACCESS:    3353715  HIT:    3343165  MISS:      10550  HIT %:    99.6854  MISS %:   0.314577   MPKI: 0.1055
L1D PREFETCH  REQUESTED:          0  ISSUED:          0  USEFUL:          0  USELESS:          0
L1D USEFUL LOAD PREFETCHES:          0 PREFETCH ISSUED TO LOWER LEVEL:          0  ACCURACY: -nan
L1D TIMELY PREFETCHES:          0 LATE PREFETCHES: 0 DROPPED PREFETCHES: 0
L1D PREFETCHES SAME FILL-ORIGIN LEVEL: 0 DIFFERENT FILL-ORIGIN LEVEL: 0
L1D AVERAGE MISS LATENCY: 109.736 cycles
L1D RQ	ACCESS:   38223671	FORWARD:          0	MERGED:   14271260	TO_CACHE:   23952393
L1D WQ	ACCESS:    3400349	FORWARD:         18	MERGED:          0	TO_CACHE:    3400349

L1D UNIQUE REGIONS ACCESSED: 0
L1D REGIONS CONFLICTS: 0
L1D Cross Page Prefetch Requests: 0
L1D Same Page Prefetch Requests: 0
L1D ROI Sum of L1D PQ occupancy: 0
L1D PREFETCHES PUSHED FROM L2C: 0
L1I TOTAL     ACCESS:   17468237  HIT:   17468237  MISS:          0  HIT %:        100  MISS %:          0   MPKI: 0
L1I LOAD      ACCESS:   17468237  HIT:   17468237  MISS:          0  HIT %:        100  MISS %:          0   MPKI: 0
L1I PREFETCH  REQUESTED:          0  ISSUED:          0  USEFUL:          0  USELESS:          0
L1I USEFUL LOAD PREFETCHES:          0 PREFETCH ISSUED TO LOWER LEVEL:          0  ACCURACY: -nan
L1I TIMELY PREFETCHES:          0 LATE PREFETCHES: 0 DROPPED PREFETCHES: 0
L1I PREFETCHES SAME FILL-ORIGIN LEVEL: 0 DIFFERENT FILL-ORIGIN LEVEL: 0
L1I AVERAGE MISS LATENCY: -nan cycles
L1I RQ	ACCESS:   27961223	FORWARD:          0	MERGED:   10492987	TO_CACHE:   17468236

BTB TOTAL     ACCESS:    5002852  HIT:    5002841  MISS:         11  HIT %:    99.9998  MISS %: 0.000219875   MPKI: 0.00011
BTB BRANCH_DIRECT_JUMP	ACCESS:         81  HIT:         80  MISS:          1
BTB BRANCH_INDIRECT	ACCESS:          0  HIT:          0  MISS:          0
BTB BRANCH_CONDITIONAL	ACCESS:    5002609  HIT:    5002601  MISS:          8
BTB BRANCH_DIRECT_CALL	ACCESS:         81  HIT:         80  MISS:          1
BTB BRANCH_INDIRECT_CALL	ACCESS:          0  HIT:          0  MISS:          0
BTB BRANCH_RETURN	ACCESS:         81  HIT:         80  MISS:          1
BTB BRANCH_OTHER ACCESS:          0  HIT:          0  MISS:          0

L2C TOTAL     ACCESS:    1739867  HIT:     369690  MISS:    1370177  HIT %:    21.2482  MISS %:    78.7518   MPKI: 13.7018
L2C LOAD      ACCESS:    1282673  HIT:     334583  MISS:     948090  HIT %:    26.0848  MISS %:    73.9152   MPKI: 9.4809
L2C DATA LOAD MPKI: 9.4809
L2C INSTRUCTION LOAD MPKI: 0
L2C RFO       ACCESS:      10550  HIT:         22  MISS:      10528  HIT %:   0.208531  MISS %:    99.7915   MPKI: 0.10528
L2C PREFETCH  ACCESS:     380771  HIT:        532  MISS:     380239  HIT %:   0.139717  MISS %:    99.8603   MPKI: 3.80239
L2C DATA PREFETCH MPKI: 3.80239
L2C INSTRUCTION PREFETCH MPKI: 0
L2C WRITEBACK ACCESS:      16539  HIT:       7131  MISS:       9408  HIT %:    43.1163  MISS %:    56.8837   MPKI: 0.09408
L2C LOAD TRANSLATION ACCESS:      49334  HIT:      27422  MISS:      21912  HIT %:    55.5844  MISS %:    44.4156   MPKI: 0.21912
L2C PREFETCH  REQUESTED:     381481  ISSUED:     381481  USEFUL:     305341  USELESS:      75107
L2C USEFUL LOAD PREFETCHES:     305341 PREFETCH ISSUED TO LOWER LEVEL:     380308  ACCURACY: 80.2878
L2C TIMELY PREFETCHES:     305341 LATE PREFETCHES: 69 DROPPED PREFETCHES: 0
L2C PREFETCHES SAME FILL-ORIGIN LEVEL: 380308 DIFFERENT FILL-ORIGIN LEVEL: 0
L2C AVERAGE MISS LATENCY: 132.152 cycles
L2C RQ	ACCESS:    1342558	FORWARD:          0	MERGED:          0	TO_CACHE:    1342557
L2C WQ	ACCESS:      16539	FORWARD:          1	MERGED:          0	TO_CACHE:      16539
L2C PQ	ACCESS:     381481	FORWARD:          0	MERGED:          0	TO_CACHE:     381481

L2C Instructions Evicting Data 0
L2C Translations Evicting Data 21512
L2C Data Evicting Data 1317568
L2C Instructions Evicting Instructions 0
L2C Translations Evicting Instructions 0
L2C Data Evicting Instructions 0
L2C Instructions Evicting Translations 0
L2C Translations Evicting Translations 400
L2C Data Evicting Translations 21289
L2C Dense regions hint from L2: 0
PSCL5 TOTAL     ACCESS:      32876  HIT:      32876  MISS:          0  HIT %:        100  MISS %:          0   MPKI: 0
PSCL5 LOAD TRANSLATION ACCESS:      32876  HIT:      32876  MISS:          0  HIT %:        100  MISS %:          0   MPKI: 0
PSCL5 PREFETCH  REQUESTED:          0  ISSUED:          0  USEFUL:          0  USELESS:          0
PSCL5 USEFUL LOAD PREFETCHES:          0 PREFETCH ISSUED TO LOWER LEVEL:          0  ACCURACY: -nan
PSCL5 TIMELY PREFETCHES:          0 LATE PREFETCHES: 0 DROPPED PREFETCHES: 0
PSCL5 PREFETCHES SAME FILL-ORIGIN LEVEL: 0 DIFFERENT FILL-ORIGIN LEVEL: 0

PSCL4 TOTAL     ACCESS:      32876  HIT:      32876  MISS:          0  HIT %:        100  MISS %:          0   MPKI: 0
PSCL4 LOAD TRANSLATION ACCESS:      32876  HIT:      32876  MISS:          0  HIT %:        100  MISS %:          0   MPKI: 0
PSCL4 PREFETCH  REQUESTED:          0  ISSUED:          0  USEFUL:          0  USELESS:          0
PSCL4 USEFUL LOAD PREFETCHES:          0 PREFETCH ISSUED TO LOWER LEVEL:          0  ACCURACY: -nan
PSCL4 TIMELY PREFETCHES:          0 LATE PREFETCHES: 0 DROPPED PREFETCHES: 0
PSCL4 PREFETCHES SAME FILL-ORIGIN LEVEL: 0 DIFFERENT FILL-ORIGIN LEVEL: 0

PSCL3 TOTAL     ACCESS:      32876  HIT:      32849  MISS:         27  HIT %:    99.9179  MISS %:  0.0821268   MPKI: 0.00027
PSCL3 LOAD TRANSLATION ACCESS:      32876  HIT:      32849  MISS:         27  HIT %:    99.9179  MISS %:  0.0821268   MPKI: 0.00027
PSCL3 PREFETCH  REQUESTED:          0  ISSUED:          0  USEFUL:          0  USELESS:          0
PSCL3 USEFUL LOAD PREFETCHES:          0 PREFETCH ISSUED TO LOWER LEVEL:          0  ACCURACY: -nan
PSCL3 TIMELY PREFETCHES:          0 LATE PREFETCHES: 0 DROPPED PREFETCHES: 0
PSCL3 PREFETCHES SAME FILL-ORIGIN LEVEL: 0 DIFFERENT FILL-ORIGIN LEVEL: 0

PSCL2 TOTAL     ACCESS:      32876  HIT:      16315  MISS:      16561  HIT %:    49.6259  MISS %:    50.3741   MPKI: 0.16561
PSCL2 LOAD TRANSLATION ACCESS:      32876  HIT:      16315  MISS:      16561  HIT %:    49.6259  MISS %:    50.3741   MPKI: 0.16561
PSCL2 PREFETCH  REQUESTED:          0  ISSUED:          0  USEFUL:          0  USELESS:          0
PSCL2 USEFUL LOAD PREFETCHES:          0 PREFETCH ISSUED TO LOWER LEVEL:          0  ACCURACY: -nan
PSCL2 TIMELY PREFETCHES:          0 LATE PREFETCHES: 0 DROPPED PREFETCHES: 0
PSCL2 PREFETCHES SAME FILL-ORIGIN LEVEL: 0 DIFFERENT FILL-ORIGIN LEVEL: 0

LLC TOTAL     ACCESS:    1371518  HIT:     198253  MISS:    1173265  HIT %:     14.455  MISS %:     85.545   MPKI: 11.7326
LLC LOAD      ACCESS:     948021  HIT:     178441  MISS:     769580  HIT %:    18.8225  MISS %:    81.1775   MPKI: 7.6958
LLC RFO       ACCESS:      10528  HIT:         64  MISS:      10464  HIT %:   0.607903  MISS %:    99.3921   MPKI: 0.10464
LLC PREFETCH  ACCESS:     380308  HIT:        152  MISS:     380156  HIT %:  0.0399676  MISS %:      99.96   MPKI: 3.80156
LLC WRITEBACK ACCESS:      10749  HIT:       6805  MISS:       3944  HIT %:    63.3082  MISS %:    36.6918   MPKI: 0.03944
LLC LOAD TRANSLATION ACCESS:      21912  HIT:      12791  MISS:       9121  HIT %:    58.3744  MISS %:    41.6256   MPKI: 0.09121
LLC PREFETCH  REQUESTED:          0  ISSUED:          0  USEFUL:     106087  USELESS:     293493
LLC USEFUL LOAD PREFETCHES:     106087 PREFETCH ISSUED TO LOWER LEVEL:     380156  ACCURACY: 27.9062
LLC TIMELY PREFETCHES:     106087 LATE PREFETCHES: 0 DROPPED PREFETCHES: 0
LLC PREFETCHES SAME FILL-ORIGIN LEVEL: 0 DIFFERENT FILL-ORIGIN LEVEL: 0
LLC AVERAGE MISS LATENCY: 118.517 cycles
LLC RQ	ACCESS:     980461	FORWARD:          0	MERGED:          0	TO_CACHE:     980461
LLC WQ	ACCESS:      10749	FORWARD:          0	MERGED:          0	TO_CACHE:      10749
LLC PQ	ACCESS:     380308	FORWARD:          0	MERGED:          0	TO_CACHE:     380308

LLC Dense regions hint to LLC: 0

RAW hits: 210
Loads Generated: 38223890
Loads sent to L1D: 38223671
Stores Generated: 3400349
Stores sent to L1D: 3400349
Major fault: 0 Minor fault: 49795
Allocated PAGES: 49795
[Bingo] PHT Access: 14909
[Bingo] PHT Hit PC+Addr: 61
[Bingo] PHT Hit PC+Offs: 14805
[Bingo] PHT Miss: 43
[Bingo] Prefetch PC+Addr: 0
[Bingo] Prefetch PC+Offs: 0
[Bingo] Useful PC+Addr: 0
[Bingo] Useful PC+Offs: 0
[Bingo] Useless PC+Addr: 0
[Bingo] Useless PC+Offs: 0
[Bingo] L1 Prefetch per Region: 0
[Bingo] L2 Prefetch per Region: 26.8287
[Bingo] L3 Prefetch per Region: 0
[Bingo] No Prefetch per Region: 5.17133
[Bingo] Number of Voters Mean: 15.7856
[Bingo] Number of Voters SD: 20.4222
PHT read accesses: 236951
PHT write accesses: 14475
AT read accesses: 321245
AT write accesses: 321449
FT read accesses: 44040
FT write accesses: 14909
PS read accesses: 42147
PS write accesses: 14866
PHT tag read accesses: 700033
PHT tag write accesses: 14536
AT tag read accesses: 24613210
AT tag write accesses: 335804
FT tag read accesses: 19868351
FT tag write accesses: 44383
PS tag read accesses: 5747638
PS tag write accesses: 57009

DRAM Statistics
 CHANNEL 0
 RQ ROW_BUFFER_HIT:     965805  ROW_BUFFER_MISS:     203516
 DBUS_CONGESTED:        105
 WQ ROW_BUFFER_HIT:       1603  ROW_BUFFER_MISS:       8940  FULL:          0

 AVG_CONGESTED_CYCLE: 4
 All warmup complete: 2
Channel 0 Bank busy for read cycles: 0
Channel 0 Bank busy for write cycles: 0
Channel 0
Rank 0
0banks busy for read cycles: 73068782
0banks busy for write cycles: 8487
1banks busy for read cycles: 30859404
1banks busy for write cycles: 1290690
2banks busy for read cycles: 11940914
2banks busy for write cycles: 125547
3banks busy for read cycles: 565570
3banks busy for write cycles: 56068
4banks busy for read cycles: 222320
4banks busy for write cycles: 28839
5banks busy for read cycles: 140546
5banks busy for write cycles: 16748
6banks busy for read cycles: 198765
6banks busy for write cycles: 4014
7banks busy for read cycles: 693275
7banks busy for write cycles: 1567
8banks busy for read cycles: 1842949
8banks busy for write cycles: 152

CPU 0 Branch Prediction Accuracy: 99.9308% MPKI: 0.03474 Average ROB Occupancy at Mispredict: 293.723
Branch types
NOT_BRANCH: 94977669 94.9777%
BRANCH_DIRECT_JUMP: 81 8.1e-05%
BRANCH_INDIRECT: 0 0%
BRANCH_CONDITIONAL: 5022061 5.02206%
BRANCH_DIRECT_CALL: 81 8.1e-05%
BRANCH_INDIRECT_CALL: 0 0%
BRANCH_RETURN: 81 8.1e-05%
BRANCH_OTHER: 0 0%

DRAM PAGES: 1048576
Allocated PAGES: 49795
