Initialize SIGNATURE TABLE
ST_SET: 1
ST_WAY: 256
ST_TAG_BIT: 16
ST_TAG_MASK: ffff

Initialize PATTERN TABLE
PT_SET: 512
PT_WAY: 4
SIG_DELTA_BIT: 7
C_SIG_BIT: 4
C_DELTA_BIT: 4

Initialize PREFETCH FILTER
FILTER_SET: 1024

*** ChampSim Multicore Out-of-Order Simulator ***

Warmup Instructions: 50000000
Simulation Instructions: 100000000
Number of CPUs: 1
LLC sets: 2048
LLC ways: 16
Off-chip DRAM Size: 4096 MB Channels: 1 Width: 64-bit Data Rate: 6400 MT/s
CPU 0 runs ../SPEC2017//654.roms_s-294B.champsimtrace.xz
.xz
NUM_OF_IPS_IN_CRITICAL_IP_TRAINING: 64
NUM_OF_CRITICAL_IP_TRAINING_TABLE_WAYS: 2
NUM_OF_CRITICAL_IP_TRAINING_TABLE_SETS: 32
WOBBLY_CRITICAL_IP_CACHE_SETS: 32
WOBBLY_CRITICAL_IP_CACHE_WAYS: 4
BTB has LRU replacement policy
ITLB has LRU replacement policy
DTLB has LRU replacement policy
STLB has LRU replacement policy
L1I has LRU replacement policy
L1D has LRU replacement policy
Initialize SRRIP state for L2C
Initialize DRRIP state for LLC
Heartbeat CPU 0 instructions: 10000001 cycles: 3209741 heartbeat IPC: 3.11552 cumulative IPC: 3.11552 (Simulation time: 0 hr 5 min 19 sec) 
Heartbeat CPU 0 instructions: 20000000 cycles: 6419549 heartbeat IPC: 3.11545 cumulative IPC: 3.11548 (Simulation time: 0 hr 10 min 15 sec) 
Heartbeat CPU 0 instructions: 30000003 cycles: 9629359 heartbeat IPC: 3.11545 cumulative IPC: 3.11547 (Simulation time: 0 hr 14 min 39 sec) 
Heartbeat CPU 0 instructions: 40000001 cycles: 12839072 heartbeat IPC: 3.11554 cumulative IPC: 3.11549 (Simulation time: 0 hr 18 min 51 sec) 
Heartbeat CPU 0 instructions: 50000001 cycles: 16048521 heartbeat IPC: 3.1158 cumulative IPC: 3.11555 (Simulation time: 0 hr 22 min 36 sec) 

Warmup complete CPU 0 instructions: 50000001 cycles: 16048521 (Simulation time: 0 hr 22 min 36 sec) 

% increase in all ip prefetch 195.185
% increase in all ip prefetch -0.161558
Heartbeat CPU 0 instructions: 60000002 cycles: 25818239 heartbeat IPC: 1.02357 cumulative IPC: 1.02357 (Simulation time: 0 hr 26 min 44 sec) 
Heartbeat CPU 0 instructions: 70000000 cycles: 35562063 heartbeat IPC: 1.02629 cumulative IPC: 1.02493 (Simulation time: 0 hr 30 min 35 sec) 
Heartbeat CPU 0 instructions: 80000001 cycles: 45310737 heartbeat IPC: 1.02578 cumulative IPC: 1.02521 (Simulation time: 0 hr 34 min 8 sec) 
Heartbeat CPU 0 instructions: 90000001 cycles: 55067440 heartbeat IPC: 1.02494 cumulative IPC: 1.02514 (Simulation time: 0 hr 37 min 35 sec) 
Heartbeat CPU 0 instructions: 100000001 cycles: 64812868 heartbeat IPC: 1.02612 cumulative IPC: 1.02534 (Simulation time: 0 hr 40 min 53 sec) 
Heartbeat CPU 0 instructions: 110000000 cycles: 74566911 heartbeat IPC: 1.02522 cumulative IPC: 1.02532 (Simulation time: 0 hr 43 min 44 sec) 
Heartbeat CPU 0 instructions: 120000002 cycles: 84317315 heartbeat IPC: 1.0256 cumulative IPC: 1.02536 (Simulation time: 0 hr 46 min 35 sec) 
Heartbeat CPU 0 instructions: 130000001 cycles: 94068268 heartbeat IPC: 1.02554 cumulative IPC: 1.02538 (Simulation time: 0 hr 49 min 13 sec) 
Heartbeat CPU 0 instructions: 140000000 cycles: 103805420 heartbeat IPC: 1.02699 cumulative IPC: 1.02556 (Simulation time: 0 hr 55 min 11 sec) 
Heartbeat CPU 0 instructions: 150000000 cycles: 113570676 heartbeat IPC: 1.02404 cumulative IPC: 1.02541 (Simulation time: 1 hr 1 min 31 sec) 
Finished CPU 0 instructions: 100000003 cycles: 97522156 cumulative IPC: 1.02541 (Simulation time: 1 hr 1 min 31 sec) 

ChampSim completed all CPUs

Region of Interest Statistics

CPU 0 cumulative IPC: 1.02541 instructions: 100000003 cycles: 97522156

CPU 0 Average Load ROB stall cycles: 2.67319e+07
CPU 0 Fraction of times ROB stalled by Loads: 41.2405
CPU 0 Percentage of Load stall cycles in Total stall cycles: 3.06415e+08
Issued all: 52674682
Issued LT all: 39482848
rob_not_full_when_issued_lt_all: 34889176
Issued LT one: 34177978
rob_not_full_when_issued_lt_one: 29847213
 Total stall cycles: 73136109
 Total load stall cycles: 224100028515419
CPU 0 NUM of IPS identified critical: 0
CPU 0 Num of Load IPs stalling ROB: 75
Threshold modification factor: -1
Max PIST entries: 37
Min PIST entries: 0
Avg PIST entries: 13.72
Trouble in retire width: 0.870407
MaC = Marked as critical.
lt_50_percent_before_Mac: 0
gt_90_percent_before_Mac: 0
gt_75_percent_before_Mac: 0
gt_50_percent_before_Mac: 0
stall_proportion_bin_same_before_after: 0
stall_proportion_bin_lower_before_after: 0
stall_proportion_bin_upper_before_after: 0
average_stall_proportion_before: -nan
average_stall_proportion_after: -nan
Critical IP stalls, total frequency: 0
Non-critical IP stalls, total frequency: 3457293
Total Freq all stalling IPs: 3457293
stat_90_percent_critical_ip_stalls_freq: 3177946
stat_90_percent_non_critical_ip_stalls_freq: 279347
Critical_IP_ROB_Stalls_Bucket_0: 0
Non-critical_IP_ROB_Stalls_Bucket_0: 29171
Critical_IP_ROB_Stalls_Bucket_1: 0
Non-critical_IP_ROB_Stalls_Bucket_1: 1697038
Critical_IP_ROB_Stalls_Bucket_2: 0
Non-critical_IP_ROB_Stalls_Bucket_2: 855609
Critical_IP_ROB_Stalls_Bucket_3: 0
Non-critical_IP_ROB_Stalls_Bucket_3: 386881
Critical_IP_ROB_Stalls_Bucket_4: 0
Non-critical_IP_ROB_Stalls_Bucket_4: 199290
Critical_IP_ROB_Stalls_Bucket_5: 0
Non-critical_IP_ROB_Stalls_Bucket_5: 161413
Critical_IP_ROB_Stalls_Bucket_6: 0
Non-critical_IP_ROB_Stalls_Bucket_6: 127891
0 => IPs accounting for >50 percent of stalls, 1 => 55, 2 => 60, 3 => 65 and so on till 90.
percent50: 57.3503 num IPs:  2
percent55: 57.3503 num IPs: 2
percent60: 71.3605 num IPs: 3
percent65: 71.3605 num IPs: 3
percent70: 71.3605 num IPs: 3
percent75: 77.4871 num IPs: 4
percent80: 83.5209 num IPs: 5
percent85: 87.5443 num IPs: 6
percent90: 91.9201 num IPs: 8
Critical_ROB_Stalls_Percent_0_Bucket_0: 7487
Non-critical_ROB_Stalls_Percent_0_Bucket_0: 21684
Critical_ROB_Stalls_Percent_0_Bucket_1: 1089541
Non-critical_ROB_Stalls_Percent_0_Bucket_1: 607497
Critical_ROB_Stalls_Percent_0_Bucket_2: 505653
Non-critical_ROB_Stalls_Percent_0_Bucket_2: 349956
Critical_ROB_Stalls_Percent_0_Bucket_3: 153142
Non-critical_ROB_Stalls_Percent_0_Bucket_3: 233739
Critical_ROB_Stalls_Percent_0_Bucket_4: 93474
Non-critical_ROB_Stalls_Percent_0_Bucket_4: 105816
Critical_ROB_Stalls_Percent_0_Bucket_5: 89845
Non-critical_ROB_Stalls_Percent_0_Bucket_5: 71568
Critical_ROB_Stalls_Percent_0_Bucket_6: 43627
Non-critical_ROB_Stalls_Percent_0_Bucket_6: 84264
Critical_ROB_Stalls_Percent_1_Bucket_0: 7487
Non-critical_ROB_Stalls_Percent_1_Bucket_0: 21684
Critical_ROB_Stalls_Percent_1_Bucket_1: 1089541
Non-critical_ROB_Stalls_Percent_1_Bucket_1: 607497
Critical_ROB_Stalls_Percent_1_Bucket_2: 505653
Non-critical_ROB_Stalls_Percent_1_Bucket_2: 349956
Critical_ROB_Stalls_Percent_1_Bucket_3: 153142
Non-critical_ROB_Stalls_Percent_1_Bucket_3: 233739
Critical_ROB_Stalls_Percent_1_Bucket_4: 93474
Non-critical_ROB_Stalls_Percent_1_Bucket_4: 105816
Critical_ROB_Stalls_Percent_1_Bucket_5: 89845
Non-critical_ROB_Stalls_Percent_1_Bucket_5: 71568
Critical_ROB_Stalls_Percent_1_Bucket_6: 43627
Non-critical_ROB_Stalls_Percent_1_Bucket_6: 84264
Critical_ROB_Stalls_Percent_2_Bucket_0: 8688
Non-critical_ROB_Stalls_Percent_2_Bucket_0: 20483
Critical_ROB_Stalls_Percent_2_Bucket_1: 1350061
Non-critical_ROB_Stalls_Percent_2_Bucket_1: 346977
Critical_ROB_Stalls_Percent_2_Bucket_2: 614577
Non-critical_ROB_Stalls_Percent_2_Bucket_2: 241032
Critical_ROB_Stalls_Percent_2_Bucket_3: 207184
Non-critical_ROB_Stalls_Percent_2_Bucket_3: 179697
Critical_ROB_Stalls_Percent_2_Bucket_4: 118427
Non-critical_ROB_Stalls_Percent_2_Bucket_4: 80863
Critical_ROB_Stalls_Percent_2_Bucket_5: 111632
Non-critical_ROB_Stalls_Percent_2_Bucket_5: 49781
Critical_ROB_Stalls_Percent_2_Bucket_6: 56574
Non-critical_ROB_Stalls_Percent_2_Bucket_6: 71317
Critical_ROB_Stalls_Percent_3_Bucket_0: 8688
Non-critical_ROB_Stalls_Percent_3_Bucket_0: 20483
Critical_ROB_Stalls_Percent_3_Bucket_1: 1350061
Non-critical_ROB_Stalls_Percent_3_Bucket_1: 346977
Critical_ROB_Stalls_Percent_3_Bucket_2: 614577
Non-critical_ROB_Stalls_Percent_3_Bucket_2: 241032
Critical_ROB_Stalls_Percent_3_Bucket_3: 207184
Non-critical_ROB_Stalls_Percent_3_Bucket_3: 179697
Critical_ROB_Stalls_Percent_3_Bucket_4: 118427
Non-critical_ROB_Stalls_Percent_3_Bucket_4: 80863
Critical_ROB_Stalls_Percent_3_Bucket_5: 111632
Non-critical_ROB_Stalls_Percent_3_Bucket_5: 49781
Critical_ROB_Stalls_Percent_3_Bucket_6: 56574
Non-critical_ROB_Stalls_Percent_3_Bucket_6: 71317
Critical_ROB_Stalls_Percent_4_Bucket_0: 8688
Non-critical_ROB_Stalls_Percent_4_Bucket_0: 20483
Critical_ROB_Stalls_Percent_4_Bucket_1: 1350061
Non-critical_ROB_Stalls_Percent_4_Bucket_1: 346977
Critical_ROB_Stalls_Percent_4_Bucket_2: 614577
Non-critical_ROB_Stalls_Percent_4_Bucket_2: 241032
Critical_ROB_Stalls_Percent_4_Bucket_3: 207184
Non-critical_ROB_Stalls_Percent_4_Bucket_3: 179697
Critical_ROB_Stalls_Percent_4_Bucket_4: 118427
Non-critical_ROB_Stalls_Percent_4_Bucket_4: 80863
Critical_ROB_Stalls_Percent_4_Bucket_5: 111632
Non-critical_ROB_Stalls_Percent_4_Bucket_5: 49781
Critical_ROB_Stalls_Percent_4_Bucket_6: 56574
Non-critical_ROB_Stalls_Percent_4_Bucket_6: 71317
Critical_ROB_Stalls_Percent_5_Bucket_0: 8880
Non-critical_ROB_Stalls_Percent_5_Bucket_0: 20291
Critical_ROB_Stalls_Percent_5_Bucket_1: 1383605
Non-critical_ROB_Stalls_Percent_5_Bucket_1: 313433
Critical_ROB_Stalls_Percent_5_Bucket_2: 693964
Non-critical_ROB_Stalls_Percent_5_Bucket_2: 161645
Critical_ROB_Stalls_Percent_5_Bucket_3: 255530
Non-critical_ROB_Stalls_Percent_5_Bucket_3: 131351
Critical_ROB_Stalls_Percent_5_Bucket_4: 140821
Non-critical_ROB_Stalls_Percent_5_Bucket_4: 58469
Critical_ROB_Stalls_Percent_5_Bucket_5: 119584
Non-critical_ROB_Stalls_Percent_5_Bucket_5: 41829
Critical_ROB_Stalls_Percent_5_Bucket_6: 76573
Non-critical_ROB_Stalls_Percent_5_Bucket_6: 51318
Critical_ROB_Stalls_Percent_6_Bucket_0: 10846
Non-critical_ROB_Stalls_Percent_6_Bucket_0: 18325
Critical_ROB_Stalls_Percent_6_Bucket_1: 1482528
Non-critical_ROB_Stalls_Percent_6_Bucket_1: 214510
Critical_ROB_Stalls_Percent_6_Bucket_2: 745682
Non-critical_ROB_Stalls_Percent_6_Bucket_2: 109927
Critical_ROB_Stalls_Percent_6_Bucket_3: 273388
Non-critical_ROB_Stalls_Percent_6_Bucket_3: 113493
Critical_ROB_Stalls_Percent_6_Bucket_4: 156950
Non-critical_ROB_Stalls_Percent_6_Bucket_4: 42340
Critical_ROB_Stalls_Percent_6_Bucket_5: 132145
Non-critical_ROB_Stalls_Percent_6_Bucket_5: 29268
Critical_ROB_Stalls_Percent_6_Bucket_6: 86022
Non-critical_ROB_Stalls_Percent_6_Bucket_6: 41869
Critical_ROB_Stalls_Percent_7_Bucket_0: 11006
Non-critical_ROB_Stalls_Percent_7_Bucket_0: 18165
Critical_ROB_Stalls_Percent_7_Bucket_1: 1514472
Non-critical_ROB_Stalls_Percent_7_Bucket_1: 182566
Critical_ROB_Stalls_Percent_7_Bucket_2: 777160
Non-critical_ROB_Stalls_Percent_7_Bucket_2: 78449
Critical_ROB_Stalls_Percent_7_Bucket_3: 312081
Non-critical_ROB_Stalls_Percent_7_Bucket_3: 74800
Critical_ROB_Stalls_Percent_7_Bucket_4: 170980
Non-critical_ROB_Stalls_Percent_7_Bucket_4: 28310
Critical_ROB_Stalls_Percent_7_Bucket_5: 140718
Non-critical_ROB_Stalls_Percent_7_Bucket_5: 20695
Critical_ROB_Stalls_Percent_7_Bucket_6: 100246
Non-critical_ROB_Stalls_Percent_7_Bucket_6: 27645
Critical_ROB_Stalls_Percent_8_Bucket_0: 11230
Non-critical_ROB_Stalls_Percent_8_Bucket_0: 17941
Critical_ROB_Stalls_Percent_8_Bucket_1: 1559461
Non-critical_ROB_Stalls_Percent_8_Bucket_1: 137577
Critical_ROB_Stalls_Percent_8_Bucket_2: 799991
Non-critical_ROB_Stalls_Percent_8_Bucket_2: 55618
Critical_ROB_Stalls_Percent_8_Bucket_3: 359269
Non-critical_ROB_Stalls_Percent_8_Bucket_3: 27612
Critical_ROB_Stalls_Percent_8_Bucket_4: 183832
Non-critical_ROB_Stalls_Percent_8_Bucket_4: 15458
Critical_ROB_Stalls_Percent_8_Bucket_5: 150373
Non-critical_ROB_Stalls_Percent_8_Bucket_5: 11040
Critical_ROB_Stalls_Percent_8_Bucket_6: 113790
Non-critical_ROB_Stalls_Percent_8_Bucket_6: 14101
Average ROB occupancy Load Stall Begin: 107.471
Average ROB occupancy Load Stall End: 122.909
Min ROB occupancy Load Stall Begin: 3
Max ROB occupancy Load Stall Begin: 352
Min ROB occupancy Load Stall End: 5
Max ROB occupancy Load Stall End: 352
Average ROB occupancy Critical Load Stall Begin: -nan
Average ROB occupancy Critical Load Stall End: -nan
Min ROB occupancy Critical Load Stall Begin: 400
Max ROB occupancy Critical Load Stall Begin: 0
Min ROB occupancy Critical Load Stall End: 400
Max ROB occupancy Critical Load Stall End: 0
 ROB Load Stall Begin Bucket Count 0: 417183
 ROB Load Stall End Bucket Count 0: 29171
 ROB Critical Load Stall Begin Bucket Count 0: 0
 ROB Critical Load Stall End Bucket Count 0: 0
 ROB Load Stall Begin Bucket Count 1: 1687828
 ROB Load Stall End Bucket Count 1: 1697038
 ROB Critical Load Stall Begin Bucket Count 1: 0
 ROB Critical Load Stall End Bucket Count 1: 0
 ROB Load Stall Begin Bucket Count 2: 623554
 ROB Load Stall End Bucket Count 2: 855609
 ROB Critical Load Stall Begin Bucket Count 2: 0
 ROB Critical Load Stall End Bucket Count 2: 0
 ROB Load Stall Begin Bucket Count 3: 330136
 ROB Load Stall End Bucket Count 3: 386881
 ROB Critical Load Stall Begin Bucket Count 3: 0
 ROB Critical Load Stall End Bucket Count 3: 0
 ROB Load Stall Begin Bucket Count 4: 170307
 ROB Load Stall End Bucket Count 4: 199290
 ROB Critical Load Stall Begin Bucket Count 4: 0
 ROB Critical Load Stall End Bucket Count 4: 0
 ROB Load Stall Begin Bucket Count 5: 138329
 ROB Load Stall End Bucket Count 5: 161413
 ROB Critical Load Stall Begin Bucket Count 5: 0
 ROB Critical Load Stall End Bucket Count 5: 0
 ROB Load Stall Begin Bucket Count 6: 89956
 ROB Load Stall End Bucket Count 6: 127891
 ROB Critical Load Stall Begin Bucket Count 6: 0
 ROB Critical Load Stall End Bucket Count 6: 0
PIST Tag Read Accesses: 112916
PIST Read Accesses: 56458
PIST Tag Write Accesses: 112916
PIST Write Accesses: 56458
Criticality detector called times: 62168
Max global_stall_cycles_count: 345936
Threshold Modified: 1 times, factor: -1
Sturdy critical IP cache stats: 
 Unused entries: 0
CIC Tag Read Accesses: 0
CIC Read Accesses: 0
CIC Tag Write Accesses: 0
CIC Write Accesses: 0
Wobbly critical IP cache stats: 
 Unused entries: 112
CIC Tag Read Accesses: 204806024
CIC Read Accesses: 0
CIC Tag Write Accesses: 174
CIC Write Accesses: 0
ITLB TOTAL     ACCESS:   13401847  HIT:   13401847  MISS:          0  HIT %:        100  MISS %:          0   MPKI: 0
ITLB LOAD TRANSLATION ACCESS:   13401847  HIT:   13401847  MISS:          0  HIT %:        100  MISS %:          0   MPKI: 0
ITLB PREFETCH  REQUESTED:          0  ISSUED:          0  USEFUL:          0  USELESS:          0
ITLB USEFUL LOAD PREFETCHES:          0 PREFETCH ISSUED TO LOWER LEVEL:          0  ACCURACY: -nan
ITLB TIMELY PREFETCHES:          0 LATE PREFETCHES: 0 DROPPED PREFETCHES: 0
ITLB PREFETCHES SAME FILL-ORIGIN LEVEL: 0 DIFFERENT FILL-ORIGIN LEVEL: 0
ITLB AVERAGE MISS LATENCY: -nan cycles
ITLB RQ	ACCESS:   16722684	FORWARD:          0	MERGED:    3320838	TO_CACHE:   13401846

DTLB TOTAL     ACCESS:   25809967  HIT:   25768878  MISS:      41089  HIT %:    99.8408  MISS %:   0.159198   MPKI: 0.41089
DTLB LOAD TRANSLATION ACCESS:   25809967  HIT:   25768878  MISS:      41089  HIT %:    99.8408  MISS %:   0.159198   MPKI: 0.41089
DTLB PREFETCH  REQUESTED:          0  ISSUED:          0  USEFUL:          0  USELESS:          0
DTLB USEFUL LOAD PREFETCHES:          0 PREFETCH ISSUED TO LOWER LEVEL:          0  ACCURACY: -nan
DTLB TIMELY PREFETCHES:          0 LATE PREFETCHES: 0 DROPPED PREFETCHES: 0
DTLB PREFETCHES SAME FILL-ORIGIN LEVEL: 0 DIFFERENT FILL-ORIGIN LEVEL: 0
DTLB AVERAGE MISS LATENCY: 456.877 cycles
DTLB RQ	ACCESS:   28155475	FORWARD:          0	MERGED:    2339234	TO_CACHE:   25816241

STLB TOTAL     ACCESS:      41089  HIT:       8213  MISS:      32876  HIT %:    19.9883  MISS %:    80.0117   MPKI: 0.32876
STLB LOAD TRANSLATION ACCESS:      41089  HIT:       8213  MISS:      32876  HIT %:    19.9883  MISS %:    80.0117   MPKI: 0.32876
STLB PREFETCH  REQUESTED:          0  ISSUED:          0  USEFUL:          0  USELESS:          0
STLB USEFUL LOAD PREFETCHES:          0 PREFETCH ISSUED TO LOWER LEVEL:          0  ACCURACY: -nan
STLB TIMELY PREFETCHES:          0 LATE PREFETCHES: 0 DROPPED PREFETCHES: 0
STLB PREFETCHES SAME FILL-ORIGIN LEVEL: 0 DIFFERENT FILL-ORIGIN LEVEL: 0
STLB AVERAGE MISS LATENCY: 558.581 cycles
STLB RQ	ACCESS:      41089	FORWARD:          0	MERGED:          0	TO_CACHE:      41089

STLB Hit, L1D data hit: 0
STLB Hit, L2C data hit: 0
STLB Hit, LLC data hit: 0
STLB Hit, LLC data miss: 0
STLB STLB hints to L2: 0
L1D TOTAL     ACCESS:   27803538  HIT:   26510216  MISS:    1293322  HIT %:    95.3484  MISS %:    4.65165   MPKI: 12.9332
L1D LOAD      ACCESS:   24454549  HIT:   23171777  MISS:    1282772  HIT %:    94.7545  MISS %:    5.24554   MPKI: 12.8277
L1D RFO       ACCESS:    3348989  HIT:    3338439  MISS:      10550  HIT %:     99.685  MISS %:    0.31502   MPKI: 0.1055
L1D PREFETCH  REQUESTED:          0  ISSUED:          0  USEFUL:          0  USELESS:          0
L1D USEFUL LOAD PREFETCHES:          0 PREFETCH ISSUED TO LOWER LEVEL:          0  ACCURACY: -nan
L1D TIMELY PREFETCHES:          0 LATE PREFETCHES: 0 DROPPED PREFETCHES: 0
L1D PREFETCHES SAME FILL-ORIGIN LEVEL: 0 DIFFERENT FILL-ORIGIN LEVEL: 0
L1D AVERAGE MISS LATENCY: 35.7028 cycles
L1D RQ	ACCESS:   38223726	FORWARD:          0	MERGED:   13468579	TO_CACHE:   24755126
L1D WQ	ACCESS:    3400349	FORWARD:         21	MERGED:          0	TO_CACHE:    3400349

L1D UNIQUE REGIONS ACCESSED: 0
L1D REGIONS CONFLICTS: 0
L1D Cross Page Prefetch Requests: 0
L1D Same Page Prefetch Requests: 0
L1D ROI Sum of L1D PQ occupancy: 0
L1D PREFETCHES PUSHED FROM L2C: 0
L1I TOTAL     ACCESS:   16722685  HIT:   16722685  MISS:          0  HIT %:        100  MISS %:          0   MPKI: 0
L1I LOAD      ACCESS:   16722685  HIT:   16722685  MISS:          0  HIT %:        100  MISS %:          0   MPKI: 0
L1I PREFETCH  REQUESTED:          0  ISSUED:          0  USEFUL:          0  USELESS:          0
L1I USEFUL LOAD PREFETCHES:          0 PREFETCH ISSUED TO LOWER LEVEL:          0  ACCURACY: -nan
L1I TIMELY PREFETCHES:          0 LATE PREFETCHES: 0 DROPPED PREFETCHES: 0
L1I PREFETCHES SAME FILL-ORIGIN LEVEL: 0 DIFFERENT FILL-ORIGIN LEVEL: 0
L1I AVERAGE MISS LATENCY: -nan cycles
L1I RQ	ACCESS:   26770228	FORWARD:          0	MERGED:   10047544	TO_CACHE:   16722684

BTB TOTAL     ACCESS:    5002850  HIT:    5002839  MISS:         11  HIT %:    99.9998  MISS %: 0.000219875   MPKI: 0.00011
BTB BRANCH_DIRECT_JUMP	ACCESS:         81  HIT:         80  MISS:          1
BTB BRANCH_INDIRECT	ACCESS:          0  HIT:          0  MISS:          0
BTB BRANCH_CONDITIONAL	ACCESS:    5002607  HIT:    5002599  MISS:          8
BTB BRANCH_DIRECT_CALL	ACCESS:         81  HIT:         80  MISS:          1
BTB BRANCH_INDIRECT_CALL	ACCESS:          0  HIT:          0  MISS:          0
BTB BRANCH_RETURN	ACCESS:         81  HIT:         80  MISS:          1
BTB BRANCH_OTHER ACCESS:          0  HIT:          0  MISS:          0

L2C TOTAL     ACCESS:    2215508  HIT:     885485  MISS:    1330023  HIT %:    39.9676  MISS %:    60.0324   MPKI: 13.3002
L2C LOAD      ACCESS:    1282770  HIT:     827661  MISS:     455109  HIT %:    64.5214  MISS %:    35.4786   MPKI: 4.55109
L2C DATA LOAD MPKI: 4.55109
L2C INSTRUCTION LOAD MPKI: 0
L2C RFO       ACCESS:      10550  HIT:          4  MISS:      10546  HIT %:  0.0379147  MISS %:    99.9621   MPKI: 0.10546
L2C PREFETCH  ACCESS:     856318  HIT:      28460  MISS:     827858  HIT %:    3.32353  MISS %:    96.6765   MPKI: 8.27858
L2C DATA PREFETCH MPKI: 8.27858
L2C INSTRUCTION PREFETCH MPKI: 0
L2C WRITEBACK ACCESS:      16536  HIT:       6745  MISS:       9791  HIT %:    40.7898  MISS %:    59.2102   MPKI: 0.09791
L2C LOAD TRANSLATION ACCESS:      49334  HIT:      22615  MISS:      26719  HIT %:    45.8406  MISS %:    54.1594   MPKI: 0.26719
L2C PREFETCH  REQUESTED:    6511744  ISSUED:    5435476  USEFUL:     814618  USELESS:      13240
L2C USEFUL LOAD PREFETCHES:     814618 PREFETCH ISSUED TO LOWER LEVEL:    5395278  ACCURACY: 15.0987
L2C TIMELY PREFETCHES:     814618 LATE PREFETCHES: 518 DROPPED PREFETCHES: 0
L2C PREFETCHES SAME FILL-ORIGIN LEVEL: 828376 DIFFERENT FILL-ORIGIN LEVEL: 4566902
L2C AVERAGE MISS LATENCY: 43.9113 cycles
L2C RQ	ACCESS:    1342655	FORWARD:          0	MERGED:          0	TO_CACHE:    1342654
L2C WQ	ACCESS:      16536	FORWARD:          1	MERGED:          0	TO_CACHE:      16536
L2C PQ	ACCESS:    5435476	FORWARD:          0	MERGED:       8697	TO_CACHE:    5426779

L2C Instructions Evicting Data 0
L2C Translations Evicting Data 26229
L2C Data Evicting Data 1267493
L2C Instructions Evicting Instructions 0
L2C Translations Evicting Instructions 0
L2C Data Evicting Instructions 0
L2C Instructions Evicting Translations 0
L2C Translations Evicting Translations 490
L2C Data Evicting Translations 26020
L2C Dense regions hint from L2: 0
PSCL5 TOTAL     ACCESS:      32876  HIT:      32876  MISS:          0  HIT %:        100  MISS %:          0   MPKI: 0
PSCL5 LOAD TRANSLATION ACCESS:      32876  HIT:      32876  MISS:          0  HIT %:        100  MISS %:          0   MPKI: 0
PSCL5 PREFETCH  REQUESTED:          0  ISSUED:          0  USEFUL:          0  USELESS:          0
PSCL5 USEFUL LOAD PREFETCHES:          0 PREFETCH ISSUED TO LOWER LEVEL:          0  ACCURACY: -nan
PSCL5 TIMELY PREFETCHES:          0 LATE PREFETCHES: 0 DROPPED PREFETCHES: 0
PSCL5 PREFETCHES SAME FILL-ORIGIN LEVEL: 0 DIFFERENT FILL-ORIGIN LEVEL: 0

PSCL4 TOTAL     ACCESS:      32876  HIT:      32876  MISS:          0  HIT %:        100  MISS %:          0   MPKI: 0
PSCL4 LOAD TRANSLATION ACCESS:      32876  HIT:      32876  MISS:          0  HIT %:        100  MISS %:          0   MPKI: 0
PSCL4 PREFETCH  REQUESTED:          0  ISSUED:          0  USEFUL:          0  USELESS:          0
PSCL4 USEFUL LOAD PREFETCHES:          0 PREFETCH ISSUED TO LOWER LEVEL:          0  ACCURACY: -nan
PSCL4 TIMELY PREFETCHES:          0 LATE PREFETCHES: 0 DROPPED PREFETCHES: 0
PSCL4 PREFETCHES SAME FILL-ORIGIN LEVEL: 0 DIFFERENT FILL-ORIGIN LEVEL: 0

PSCL3 TOTAL     ACCESS:      32876  HIT:      32849  MISS:         27  HIT %:    99.9179  MISS %:  0.0821268   MPKI: 0.00027
PSCL3 LOAD TRANSLATION ACCESS:      32876  HIT:      32849  MISS:         27  HIT %:    99.9179  MISS %:  0.0821268   MPKI: 0.00027
PSCL3 PREFETCH  REQUESTED:          0  ISSUED:          0  USEFUL:          0  USELESS:          0
PSCL3 USEFUL LOAD PREFETCHES:          0 PREFETCH ISSUED TO LOWER LEVEL:          0  ACCURACY: -nan
PSCL3 TIMELY PREFETCHES:          0 LATE PREFETCHES: 0 DROPPED PREFETCHES: 0
PSCL3 PREFETCHES SAME FILL-ORIGIN LEVEL: 0 DIFFERENT FILL-ORIGIN LEVEL: 0

PSCL2 TOTAL     ACCESS:      32876  HIT:      16315  MISS:      16561  HIT %:    49.6259  MISS %:    50.3741   MPKI: 0.16561
PSCL2 LOAD TRANSLATION ACCESS:      32876  HIT:      16315  MISS:      16561  HIT %:    49.6259  MISS %:    50.3741   MPKI: 0.16561
PSCL2 PREFETCH  REQUESTED:          0  ISSUED:          0  USEFUL:          0  USELESS:          0
PSCL2 USEFUL LOAD PREFETCHES:          0 PREFETCH ISSUED TO LOWER LEVEL:          0  ACCURACY: -nan
PSCL2 TIMELY PREFETCHES:          0 LATE PREFETCHES: 0 DROPPED PREFETCHES: 0
PSCL2 PREFETCHES SAME FILL-ORIGIN LEVEL: 0 DIFFERENT FILL-ORIGIN LEVEL: 0

LLC TOTAL     ACCESS:    5890154  HIT:    4714929  MISS:    1175225  HIT %:    80.0476  MISS %:    19.9524   MPKI: 11.7522
LLC LOAD      ACCESS:     454591  HIT:     353677  MISS:     100914  HIT %:    77.8011  MISS %:    22.1989   MPKI: 1.00914
LLC RFO       ACCESS:      10546  HIT:        204  MISS:      10342  HIT %:    1.93438  MISS %:    98.0656   MPKI: 0.10342
LLC PREFETCH  ACCESS:    5387270  HIT:    4346216  MISS:    1041054  HIT %:    80.6757  MISS %:    19.3243   MPKI: 10.4105
LLC WRITEBACK ACCESS:      11028  HIT:       3072  MISS:       7956  HIT %:    27.8564  MISS %:    72.1436   MPKI: 0.07956
LLC LOAD TRANSLATION ACCESS:      26719  HIT:      11760  MISS:      14959  HIT %:    44.0136  MISS %:    55.9864   MPKI: 0.14959
LLC PREFETCH  REQUESTED:          0  ISSUED:          0  USEFUL:     332204  USELESS:     709310
LLC USEFUL LOAD PREFETCHES:     332204 PREFETCH ISSUED TO LOWER LEVEL:    1041379  ACCURACY: 31.9004
LLC TIMELY PREFETCHES:     332204 LATE PREFETCHES: 322 DROPPED PREFETCHES: 0
LLC PREFETCHES SAME FILL-ORIGIN LEVEL: 994553 DIFFERENT FILL-ORIGIN LEVEL: 0
LLC AVERAGE MISS LATENCY: 97.5003 cycles
LLC RQ	ACCESS:     491856	FORWARD:          0	MERGED:          0	TO_CACHE:     491856
LLC WQ	ACCESS:      11028	FORWARD:          0	MERGED:          0	TO_CACHE:      11028
LLC PQ	ACCESS:    5395278	FORWARD:          0	MERGED:        735	TO_CACHE:    5394543

LLC Dense regions hint to LLC: 0

RAW hits: 155
Loads Generated: 38223889
Loads sent to L1D: 38223726
Stores Generated: 3400349
Stores sent to L1D: 3400349
Major fault: 0 Minor fault: 49795
Allocated PAGES: 49795
 All Calls: 1924520
 Critical Calls: 1924520
------------------
Depth Distribution
------------------
depth 0: 0
depth 1: 1696853
depth 2: 1588220
depth 3: 1518119
depth 4: 1454860
depth 5: 1358659
depth 6: 738992
depth 7: 148913
depth 8: 10072
depth 9: 0
depth 10: 0
depth 11: 0
depth 12: 0
depth 13: 0
depth 14: 0
depth 15: 0
depth 16: 0
depth 17: 0
depth 18: 0
depth 19: 0
depth 20: 0
depth 21: 0
depth 22: 0
depth 23: 0
depth 24: 0
depth 25: 0
depth 26: 0
depth 27: 0
depth 28: 0
depth 29: 0
Total: 8514688
-----------------------------
-----------------------------
	Captured at Filter
-----------------------------
depth 0: 0
depth 1: 11584
depth 2: 11334
depth 3: 11091
depth 4: 10814
depth 5: 10650
depth 6: 6226
depth 7: 1282
depth 8: 84
depth 9: 0
depth 10: 0
depth 11: 0
depth 12: 0
depth 13: 0
depth 14: 0
depth 15: 0
depth 16: 0
depth 17: 0
depth 18: 0
depth 19: 0
depth 20: 0
depth 21: 0
depth 22: 0
depth 23: 0
depth 24: 0
depth 25: 0
depth 26: 0
depth 27: 0
depth 28: 0
depth 29: 0
-----------------------------
-----------------------------
		Lost at Page
-----------------------------
depth 0: 0
depth 1: 29676
depth 2: 58849
depth 3: 88107
depth 4: 116908
depth 5: 146113
depth 6: 102708
depth 7: 25582
depth 8: 1902
depth 9: 0
depth 10: 0
depth 11: 0
depth 12: 0
depth 13: 0
depth 14: 0
depth 15: 0
depth 16: 0
depth 17: 0
depth 18: 0
depth 19: 0
depth 20: 0
depth 21: 0
depth 22: 0
depth 23: 0
depth 24: 0
depth 25: 0
depth 26: 0
depth 27: 0
depth 28: 0
depth 29: 0
-----------------------------
-----------------------------
	Lost due to PQ Size
-----------------------------
1685688
-----------------------------
ST read accesses: 1243253
ST write accesses: 39517
PT read accesses: 40890316
PT write accesses: 1837275
FILTER read accesses: 9167328
FILTER write accesses: 2977698
GHR read accesses: 2446706
GHR write accesses: 346110
GHR counter read accesses: 35296432
GHR counter write accesses: 3027961
ST tag read accesses: 513456939
ST tag write accesses: 17768470

DRAM Statistics
 CHANNEL 0
 RQ ROW_BUFFER_HIT:     951913  ROW_BUFFER_MISS:     215357
 DBUS_CONGESTED:        193
 WQ ROW_BUFFER_HIT:       1339  ROW_BUFFER_MISS:       9447  FULL:          0

 AVG_CONGESTED_CYCLE: 4
 All warmup complete: 2
Channel 0 Bank busy for read cycles: 0
Channel 0 Bank busy for write cycles: 0
Channel 0
Rank 0
0banks busy for read cycles: 56255709
0banks busy for write cycles: 9090
1banks busy for read cycles: 18910848
1banks busy for write cycles: 1494880
2banks busy for read cycles: 10966056
2banks busy for write cycles: 185857
3banks busy for read cycles: 4943763
3banks busy for write cycles: 27866
4banks busy for read cycles: 2090048
4banks busy for write cycles: 6162
5banks busy for read cycles: 886999
5banks busy for write cycles: 1683
6banks busy for read cycles: 880791
6banks busy for write cycles: 1856
7banks busy for read cycles: 726377
7banks busy for write cycles: 600
8banks busy for read cycles: 133267
8banks busy for write cycles: 305

CPU 0 Branch Prediction Accuracy: 99.9308% MPKI: 0.03474 Average ROB Occupancy at Mispredict: 109.487
Branch types
NOT_BRANCH: 94977623 94.9776%
BRANCH_DIRECT_JUMP: 81 8.1e-05%
BRANCH_INDIRECT: 0 0%
BRANCH_CONDITIONAL: 5022059 5.02206%
BRANCH_DIRECT_CALL: 81 8.1e-05%
BRANCH_INDIRECT_CALL: 0 0%
BRANCH_RETURN: 81 8.1e-05%
BRANCH_OTHER: 0 0%

DRAM PAGES: 1048576
Allocated PAGES: 49795
