
*** ChampSim Multicore Out-of-Order Simulator ***

Warmup Instructions: 50000000
Simulation Instructions: 100000000
Number of CPUs: 1
LLC sets: 2048
LLC ways: 16
Off-chip DRAM Size: 4096 MB Channels: 1 Width: 64-bit Data Rate: 6400 MT/s
CPU 0 runs ../SPEC2017//654.roms_s-1613B.champsimtrace.xz
.xz
NUM_OF_IPS_IN_CRITICAL_IP_TRAINING: 64
NUM_OF_CRITICAL_IP_TRAINING_TABLE_WAYS: 2
NUM_OF_CRITICAL_IP_TRAINING_TABLE_SETS: 32
WOBBLY_CRITICAL_IP_CACHE_SETS: 32
WOBBLY_CRITICAL_IP_CACHE_WAYS: 4
BTB has LRU replacement policy
ITLB has LRU replacement policy
DTLB has LRU replacement policy
STLB has LRU replacement policy
L1I has LRU replacement policy
IP Table Entries: 64
L1D has LRU replacement policy
IP_Table L2 entries: 64
Initialize SRRIP state for L2C
Initialize DRRIP state for LLC
Heartbeat CPU 0 instructions: 10000001 cycles: 2910580 heartbeat IPC: 3.43574 cumulative IPC: 3.43574 (Simulation time: 0 hr 6 min 38 sec) 
Heartbeat CPU 0 instructions: 20000000 cycles: 5821012 heartbeat IPC: 3.43592 cumulative IPC: 3.43583 (Simulation time: 0 hr 12 min 50 sec) 
Heartbeat CPU 0 instructions: 30000000 cycles: 8731429 heartbeat IPC: 3.43593 cumulative IPC: 3.43586 (Simulation time: 0 hr 17 min 47 sec) 
Heartbeat CPU 0 instructions: 40000000 cycles: 11641901 heartbeat IPC: 3.43587 cumulative IPC: 3.43586 (Simulation time: 0 hr 22 min 19 sec) 
Heartbeat CPU 0 instructions: 50000001 cycles: 15087076 heartbeat IPC: 2.90261 cumulative IPC: 3.31409 (Simulation time: 0 hr 26 min 46 sec) 

Warmup complete CPU 0 instructions: 50000001 cycles: 15087076 (Simulation time: 0 hr 26 min 46 sec) 

% increase in all ip prefetch 405.939
% increase in all ip prefetch -0.0067335
Heartbeat CPU 0 instructions: 60000001 cycles: 31722513 heartbeat IPC: 0.601126 cumulative IPC: 0.601126 (Simulation time: 0 hr 30 min 21 sec) 
Heartbeat CPU 0 instructions: 70000003 cycles: 48360912 heartbeat IPC: 0.60102 cumulative IPC: 0.601073 (Simulation time: 0 hr 33 min 51 sec) 
Heartbeat CPU 0 instructions: 80000000 cycles: 64987101 heartbeat IPC: 0.601461 cumulative IPC: 0.601202 (Simulation time: 0 hr 37 min 17 sec) 
Heartbeat CPU 0 instructions: 90000001 cycles: 81606578 heartbeat IPC: 0.601704 cumulative IPC: 0.601327 (Simulation time: 0 hr 40 min 23 sec) 
Heartbeat CPU 0 instructions: 100000000 cycles: 98227963 heartbeat IPC: 0.601635 cumulative IPC: 0.601389 (Simulation time: 0 hr 43 min 12 sec) 
Heartbeat CPU 0 instructions: 110000000 cycles: 114849512 heartbeat IPC: 0.601629 cumulative IPC: 0.601429 (Simulation time: 0 hr 45 min 55 sec) 
Heartbeat CPU 0 instructions: 120000001 cycles: 135726634 heartbeat IPC: 0.478993 cumulative IPC: 0.580241 (Simulation time: 0 hr 48 min 59 sec) 
Heartbeat CPU 0 instructions: 130000000 cycles: 152342958 heartbeat IPC: 0.601818 cumulative IPC: 0.582853 (Simulation time: 0 hr 51 min 25 sec) 
Heartbeat CPU 0 instructions: 140000003 cycles: 168969413 heartbeat IPC: 0.601451 cumulative IPC: 0.584862 (Simulation time: 0 hr 53 min 49 sec) 
Heartbeat CPU 0 instructions: 150000001 cycles: 185595191 heartbeat IPC: 0.601475 cumulative IPC: 0.586482 (Simulation time: 0 hr 55 min 56 sec) 
Finished CPU 0 instructions: 100000000 cycles: 170508115 cumulative IPC: 0.586482 (Simulation time: 0 hr 55 min 56 sec) 

ChampSim completed all CPUs

Region of Interest Statistics

CPU 0 cumulative IPC: 0.586482 instructions: 100000000 cycles: 170508115

CPU 0 Average Load ROB stall cycles: 9.70487e+06
CPU 0 Fraction of times ROB stalled by Loads: 9.80543
CPU 0 Percentage of Load stall cycles in Total stall cycles: 2.13836e+08
 Total stall cycles: 116651446
 Total load stall cycles: 249443014894148
CPU 0 NUM of IPS identified critical: 3
CPU 0 Num of Load IPs stalling ROB: 75
Threshold modification factor: -1
Max PIST entries: 19
Min PIST entries: 0
Avg PIST entries: 6.4
Trouble in retire width: 0.994353
MaC = Marked as critical.
lt_50_percent_before_Mac: 3
gt_90_percent_before_Mac: 0
gt_75_percent_before_Mac: 0
gt_50_percent_before_Mac: 0
stall_proportion_bin_same_before_after: 0
stall_proportion_bin_lower_before_after: 0
stall_proportion_bin_upper_before_after: 0
average_stall_proportion_before: 0.261672
average_stall_proportion_after: 0.261543
Critical IP stalls, total frequency: 1102937
Non-critical IP stalls, total frequency: 763856
Critical_IP_ROB_Stalls_Bucket_0: 1687
Non-critical_IP_ROB_Stalls_Bucket_0: 1364884
Critical_IP_ROB_Stalls_Bucket_1: 1100090
Non-critical_IP_ROB_Stalls_Bucket_1: 51196
Critical_IP_ROB_Stalls_Bucket_2: 302
Non-critical_IP_ROB_Stalls_Bucket_2: 700
Critical_IP_ROB_Stalls_Bucket_3: 188
Non-critical_IP_ROB_Stalls_Bucket_3: 93
Critical_IP_ROB_Stalls_Bucket_4: 220
Non-critical_IP_ROB_Stalls_Bucket_4: 60
Critical_IP_ROB_Stalls_Bucket_5: 145
Non-critical_IP_ROB_Stalls_Bucket_5: 41
Critical_IP_ROB_Stalls_Bucket_6: 305
Non-critical_IP_ROB_Stalls_Bucket_6: 367
0 => IPs accounting for >50 percent of stalls, 1 => 55, 2 => 60, 3 => 65 and so on till 90.
percent50: 74.9938 num IPs:2
percent55: 74.9938 num IPs:2
percent60: 74.9938 num IPs:2
percent65: 74.9938 num IPs:2
percent70: 74.9938 num IPs:2
percent75: 95.8751 num IPs:3
percent80: 95.8751 num IPs:3
percent85: 95.8751 num IPs:3
percent90: 95.8751 num IPs:3
Critical_ROB_Stalls_Percent_0_Bucket_0: 689410
Non-critical_ROB_Stalls_Percent_0_Bucket_0: 677161
Critical_ROB_Stalls_Percent_0_Bucket_1: 710565
Non-critical_ROB_Stalls_Percent_0_Bucket_1: 440721
Critical_ROB_Stalls_Percent_0_Bucket_2: 0
Non-critical_ROB_Stalls_Percent_0_Bucket_2: 1002
Critical_ROB_Stalls_Percent_0_Bucket_3: 1
Non-critical_ROB_Stalls_Percent_0_Bucket_3: 280
Critical_ROB_Stalls_Percent_0_Bucket_4: 1
Non-critical_ROB_Stalls_Percent_0_Bucket_4: 279
Critical_ROB_Stalls_Percent_0_Bucket_5: 1
Non-critical_ROB_Stalls_Percent_0_Bucket_5: 185
Critical_ROB_Stalls_Percent_0_Bucket_6: 1
Non-critical_ROB_Stalls_Percent_0_Bucket_6: 671
Critical_ROB_Stalls_Percent_1_Bucket_0: 689410
Non-critical_ROB_Stalls_Percent_1_Bucket_0: 677161
Critical_ROB_Stalls_Percent_1_Bucket_1: 710565
Non-critical_ROB_Stalls_Percent_1_Bucket_1: 440721
Critical_ROB_Stalls_Percent_1_Bucket_2: 0
Non-critical_ROB_Stalls_Percent_1_Bucket_2: 1002
Critical_ROB_Stalls_Percent_1_Bucket_3: 1
Non-critical_ROB_Stalls_Percent_1_Bucket_3: 280
Critical_ROB_Stalls_Percent_1_Bucket_4: 1
Non-critical_ROB_Stalls_Percent_1_Bucket_4: 279
Critical_ROB_Stalls_Percent_1_Bucket_5: 1
Non-critical_ROB_Stalls_Percent_1_Bucket_5: 185
Critical_ROB_Stalls_Percent_1_Bucket_6: 1
Non-critical_ROB_Stalls_Percent_1_Bucket_6: 671
Critical_ROB_Stalls_Percent_2_Bucket_0: 689410
Non-critical_ROB_Stalls_Percent_2_Bucket_0: 677161
Critical_ROB_Stalls_Percent_2_Bucket_1: 710565
Non-critical_ROB_Stalls_Percent_2_Bucket_1: 440721
Critical_ROB_Stalls_Percent_2_Bucket_2: 0
Non-critical_ROB_Stalls_Percent_2_Bucket_2: 1002
Critical_ROB_Stalls_Percent_2_Bucket_3: 1
Non-critical_ROB_Stalls_Percent_2_Bucket_3: 280
Critical_ROB_Stalls_Percent_2_Bucket_4: 1
Non-critical_ROB_Stalls_Percent_2_Bucket_4: 279
Critical_ROB_Stalls_Percent_2_Bucket_5: 1
Non-critical_ROB_Stalls_Percent_2_Bucket_5: 185
Critical_ROB_Stalls_Percent_2_Bucket_6: 1
Non-critical_ROB_Stalls_Percent_2_Bucket_6: 671
Critical_ROB_Stalls_Percent_3_Bucket_0: 689410
Non-critical_ROB_Stalls_Percent_3_Bucket_0: 677161
Critical_ROB_Stalls_Percent_3_Bucket_1: 710565
Non-critical_ROB_Stalls_Percent_3_Bucket_1: 440721
Critical_ROB_Stalls_Percent_3_Bucket_2: 0
Non-critical_ROB_Stalls_Percent_3_Bucket_2: 1002
Critical_ROB_Stalls_Percent_3_Bucket_3: 1
Non-critical_ROB_Stalls_Percent_3_Bucket_3: 280
Critical_ROB_Stalls_Percent_3_Bucket_4: 1
Non-critical_ROB_Stalls_Percent_3_Bucket_4: 279
Critical_ROB_Stalls_Percent_3_Bucket_5: 1
Non-critical_ROB_Stalls_Percent_3_Bucket_5: 185
Critical_ROB_Stalls_Percent_3_Bucket_6: 1
Non-critical_ROB_Stalls_Percent_3_Bucket_6: 671
Critical_ROB_Stalls_Percent_4_Bucket_0: 689410
Non-critical_ROB_Stalls_Percent_4_Bucket_0: 677161
Critical_ROB_Stalls_Percent_4_Bucket_1: 710565
Non-critical_ROB_Stalls_Percent_4_Bucket_1: 440721
Critical_ROB_Stalls_Percent_4_Bucket_2: 0
Non-critical_ROB_Stalls_Percent_4_Bucket_2: 1002
Critical_ROB_Stalls_Percent_4_Bucket_3: 1
Non-critical_ROB_Stalls_Percent_4_Bucket_3: 280
Critical_ROB_Stalls_Percent_4_Bucket_4: 1
Non-critical_ROB_Stalls_Percent_4_Bucket_4: 279
Critical_ROB_Stalls_Percent_4_Bucket_5: 1
Non-critical_ROB_Stalls_Percent_4_Bucket_5: 185
Critical_ROB_Stalls_Percent_4_Bucket_6: 1
Non-critical_ROB_Stalls_Percent_4_Bucket_6: 671
Critical_ROB_Stalls_Percent_5_Bucket_0: 689512
Non-critical_ROB_Stalls_Percent_5_Bucket_0: 677059
Critical_ROB_Stalls_Percent_5_Bucket_1: 1100272
Non-critical_ROB_Stalls_Percent_5_Bucket_1: 51014
Critical_ROB_Stalls_Percent_5_Bucket_2: 0
Non-critical_ROB_Stalls_Percent_5_Bucket_2: 1002
Critical_ROB_Stalls_Percent_5_Bucket_3: 1
Non-critical_ROB_Stalls_Percent_5_Bucket_3: 280
Critical_ROB_Stalls_Percent_5_Bucket_4: 2
Non-critical_ROB_Stalls_Percent_5_Bucket_4: 278
Critical_ROB_Stalls_Percent_5_Bucket_5: 1
Non-critical_ROB_Stalls_Percent_5_Bucket_5: 185
Critical_ROB_Stalls_Percent_5_Bucket_6: 2
Non-critical_ROB_Stalls_Percent_5_Bucket_6: 670
Critical_ROB_Stalls_Percent_6_Bucket_0: 689512
Non-critical_ROB_Stalls_Percent_6_Bucket_0: 677059
Critical_ROB_Stalls_Percent_6_Bucket_1: 1100272
Non-critical_ROB_Stalls_Percent_6_Bucket_1: 51014
Critical_ROB_Stalls_Percent_6_Bucket_2: 0
Non-critical_ROB_Stalls_Percent_6_Bucket_2: 1002
Critical_ROB_Stalls_Percent_6_Bucket_3: 1
Non-critical_ROB_Stalls_Percent_6_Bucket_3: 280
Critical_ROB_Stalls_Percent_6_Bucket_4: 2
Non-critical_ROB_Stalls_Percent_6_Bucket_4: 278
Critical_ROB_Stalls_Percent_6_Bucket_5: 1
Non-critical_ROB_Stalls_Percent_6_Bucket_5: 185
Critical_ROB_Stalls_Percent_6_Bucket_6: 2
Non-critical_ROB_Stalls_Percent_6_Bucket_6: 670
Critical_ROB_Stalls_Percent_7_Bucket_0: 689512
Non-critical_ROB_Stalls_Percent_7_Bucket_0: 677059
Critical_ROB_Stalls_Percent_7_Bucket_1: 1100272
Non-critical_ROB_Stalls_Percent_7_Bucket_1: 51014
Critical_ROB_Stalls_Percent_7_Bucket_2: 0
Non-critical_ROB_Stalls_Percent_7_Bucket_2: 1002
Critical_ROB_Stalls_Percent_7_Bucket_3: 1
Non-critical_ROB_Stalls_Percent_7_Bucket_3: 280
Critical_ROB_Stalls_Percent_7_Bucket_4: 2
Non-critical_ROB_Stalls_Percent_7_Bucket_4: 278
Critical_ROB_Stalls_Percent_7_Bucket_5: 1
Non-critical_ROB_Stalls_Percent_7_Bucket_5: 185
Critical_ROB_Stalls_Percent_7_Bucket_6: 2
Non-critical_ROB_Stalls_Percent_7_Bucket_6: 670
Critical_ROB_Stalls_Percent_8_Bucket_0: 689512
Non-critical_ROB_Stalls_Percent_8_Bucket_0: 677059
Critical_ROB_Stalls_Percent_8_Bucket_1: 1100272
Non-critical_ROB_Stalls_Percent_8_Bucket_1: 51014
Critical_ROB_Stalls_Percent_8_Bucket_2: 0
Non-critical_ROB_Stalls_Percent_8_Bucket_2: 1002
Critical_ROB_Stalls_Percent_8_Bucket_3: 1
Non-critical_ROB_Stalls_Percent_8_Bucket_3: 280
Critical_ROB_Stalls_Percent_8_Bucket_4: 2
Non-critical_ROB_Stalls_Percent_8_Bucket_4: 278
Critical_ROB_Stalls_Percent_8_Bucket_5: 1
Non-critical_ROB_Stalls_Percent_8_Bucket_5: 185
Critical_ROB_Stalls_Percent_8_Bucket_6: 2
Non-critical_ROB_Stalls_Percent_8_Bucket_6: 670
Average ROB occupancy Load Stall Begin: 40.5031
Average ROB occupancy Load Stall End: 42.1249
Min ROB occupancy Load Stall Begin: 1
Max ROB occupancy Load Stall Begin: 351
Min ROB occupancy Load Stall End: 1
Max ROB occupancy Load Stall End: 352
Average ROB occupancy Critical Load Stall Begin: 56.6085
Average ROB occupancy Critical Load Stall End: 60.0632
Min ROB occupancy Critical Load Stall Begin: 8
Max ROB occupancy Critical Load Stall Begin: 351
Min ROB occupancy Critical Load Stall End: 8
Max ROB occupancy Critical Load Stall End: 352
 ROB Load Stall Begin Bucket Count 0: 1405722
 ROB Load Stall End Bucket Count 0: 1366571
 ROB Critical Load Stall Begin Bucket Count 0: 35754
 ROB Critical Load Stall End Bucket Count 0: 1596
 ROB Load Stall Begin Bucket Count 1: 1113034
 ROB Load Stall End Bucket Count 1: 1151286
 ROB Critical Load Stall Begin Bucket Count 1: 1065089
 ROB Critical Load Stall End Bucket Count 1: 1098995
 ROB Load Stall Begin Bucket Count 2: 333
 ROB Load Stall End Bucket Count 2: 1002
 ROB Critical Load Stall Begin Bucket Count 2: 219
 ROB Critical Load Stall End Bucket Count 2: 280
 ROB Load Stall Begin Bucket Count 3: 319
 ROB Load Stall End Bucket Count 3: 281
 ROB Critical Load Stall Begin Bucket Count 3: 215
 ROB Critical Load Stall End Bucket Count 3: 166
 ROB Load Stall Begin Bucket Count 4: 195
 ROB Load Stall End Bucket Count 4: 280
 ROB Critical Load Stall Begin Bucket Count 4: 139
 ROB Critical Load Stall End Bucket Count 4: 207
 ROB Load Stall Begin Bucket Count 5: 164
 ROB Load Stall End Bucket Count 5: 186
 ROB Critical Load Stall Begin Bucket Count 5: 116
 ROB Critical Load Stall End Bucket Count 5: 138
 ROB Load Stall Begin Bucket Count 6: 511
 ROB Load Stall End Bucket Count 6: 672
 ROB Critical Load Stall Begin Bucket Count 6: 140
 ROB Critical Load Stall End Bucket Count 6: 290
PIST Tag Read Accesses: 40512
PIST Read Accesses: 20256
PIST Tag Write Accesses: 40512
PIST Write Accesses: 20256
Criticality detector called times: 26365
Max global_stall_cycles_count: 53811
Threshold Modified: 1 times, factor: -1
ITLB TOTAL     ACCESS:   15213916  HIT:   15213908  MISS:          8  HIT %:    99.9999  MISS %: 5.25834e-05   MPKI: 8e-05
ITLB LOAD TRANSLATION ACCESS:   15213916  HIT:   15213908  MISS:          8  HIT %:    99.9999  MISS %: 5.25834e-05   MPKI: 8e-05
ITLB PREFETCH  REQUESTED:          0  ISSUED:          0  USEFUL:          0  USELESS:          0
ITLB USEFUL LOAD PREFETCHES:          0 PREFETCH ISSUED TO LOWER LEVEL:          0  ACCURACY: -nan
ITLB TIMELY PREFETCHES:          0 LATE PREFETCHES: 0 DROPPED PREFETCHES: 0
ITLB PREFETCHES SAME FILL-ORIGIN LEVEL: 0 DIFFERENT FILL-ORIGIN LEVEL: 0
ITLB AVERAGE MISS LATENCY: 283.75 cycles
ITLB RQ	ACCESS:   19844113	FORWARD:          0	MERGED:    4630197	TO_CACHE:   15213916

DTLB TOTAL     ACCESS:   20843889  HIT:   20837773  MISS:       6116  HIT %:    99.9707  MISS %:  0.0293419   MPKI: 0.06116
DTLB LOAD TRANSLATION ACCESS:   20843889  HIT:   20837773  MISS:       6116  HIT %:    99.9707  MISS %:  0.0293419   MPKI: 0.06116
DTLB PREFETCH  REQUESTED:          0  ISSUED:          0  USEFUL:          0  USELESS:          0
DTLB USEFUL LOAD PREFETCHES:          0 PREFETCH ISSUED TO LOWER LEVEL:          0  ACCURACY: -nan
DTLB TIMELY PREFETCHES:          0 LATE PREFETCHES: 0 DROPPED PREFETCHES: 0
DTLB PREFETCHES SAME FILL-ORIGIN LEVEL: 0 DIFFERENT FILL-ORIGIN LEVEL: 0
DTLB AVERAGE MISS LATENCY: 105.058 cycles
DTLB RQ	ACCESS:   24969563	FORWARD:          0	MERGED:    4119784	TO_CACHE:   20849779

STLB TOTAL     ACCESS:     441535  HIT:     435819  MISS:       5716  HIT %:    98.7054  MISS %:    1.29457   MPKI: 0.05716
STLB LOAD TRANSLATION ACCESS:       6124  HIT:        410  MISS:       5714  HIT %:    6.69497  MISS %:     93.305   MPKI: 0.05714
STLB TRANSLATION FROM L1D PREFETCHER ACCESS:     435411  HIT:     435409  MISS:          2  HIT %:    99.9995  MISS %: 0.000459336   MPKI: 2e-05
STLB PREFETCH  REQUESTED:          0  ISSUED:          0  USEFUL:          2  USELESS:          0
STLB USEFUL LOAD PREFETCHES:          2 PREFETCH ISSUED TO LOWER LEVEL:          0  ACCURACY: inf
STLB TIMELY PREFETCHES:          2 LATE PREFETCHES: 0 DROPPED PREFETCHES: 0
STLB PREFETCHES SAME FILL-ORIGIN LEVEL: 0 DIFFERENT FILL-ORIGIN LEVEL: 0
STLB AVERAGE MISS LATENCY: 103.206 cycles
STLB RQ	ACCESS:    2164874	FORWARD:          0	MERGED:    1723339	TO_CACHE:     441535

STLB Hit, L1D data hit: 0
STLB Hit, L2C data hit: 0
STLB Hit, LLC data hit: 0
STLB Hit, LLC data miss: 0
STLB STLB hints to L2: 0
L1D TOTAL     ACCESS:   26650677  HIT:   26359585  MISS:     291092  HIT %:    98.9078  MISS %:    1.09225   MPKI: 2.91092
L1D LOAD      ACCESS:   14812299  HIT:   14802212  MISS:      10087  HIT %:    99.9319  MISS %:  0.0680988   MPKI: 0.10087
L1D RFO       ACCESS:    9684863  HIT:    9573309  MISS:     111554  HIT %:    98.8482  MISS %:    1.15184   MPKI: 1.11554
L1D PREFETCH  ACCESS:    2153515  HIT:    1984064  MISS:     169451  HIT %:    92.1314  MISS %:    7.86858   MPKI: 1.69451
L1D PREFETCH  REQUESTED:    4318626  ISSUED:    4317502  USEFUL:     157793  USELESS:      11683
L1D USEFUL LOAD PREFETCHES:     157793 PREFETCH ISSUED TO LOWER LEVEL:     173129  ACCURACY: 91.1419
L1D TIMELY PREFETCHES:     157793 LATE PREFETCHES: 3676 DROPPED PREFETCHES: 0
L1D PREFETCHES SAME FILL-ORIGIN LEVEL: 173129 DIFFERENT FILL-ORIGIN LEVEL: 0
L1D AVERAGE MISS LATENCY: 1.64328e+06 cycles
L1D RQ	ACCESS:   20047069	FORWARD:          0	MERGED:    5206033	TO_CACHE:   14828315
L1D WQ	ACCESS:   10855420	FORWARD:      12723	MERGED:     714172	TO_CACHE:   10141248
L1D PQ	ACCESS:    2158752	FORWARD:          0	MERGED:          0	TO_CACHE:    2158750

L1D UNIQUE REGIONS ACCESSED: 0
L1D REGIONS CONFLICTS: 0
L1D Cross Page Prefetch Requests: 0
L1D Same Page Prefetch Requests: 3366170
L1D ROI Sum of L1D PQ occupancy: 31074633
L1D PREFETCHES PUSHED FROM L2C: 0
L1I TOTAL     ACCESS:   19844098  HIT:   19843992  MISS:        106  HIT %:    99.9995  MISS %: 0.000534164   MPKI: 0.00106
L1I LOAD      ACCESS:   19844098  HIT:   19843992  MISS:        106  HIT %:    99.9995  MISS %: 0.000534164   MPKI: 0.00106
L1I PREFETCH  REQUESTED:          0  ISSUED:          0  USEFUL:          0  USELESS:          0
L1I USEFUL LOAD PREFETCHES:          0 PREFETCH ISSUED TO LOWER LEVEL:          0  ACCURACY: -nan
L1I TIMELY PREFETCHES:          0 LATE PREFETCHES: 0 DROPPED PREFETCHES: 0
L1I PREFETCHES SAME FILL-ORIGIN LEVEL: 0 DIFFERENT FILL-ORIGIN LEVEL: 0
L1I AVERAGE MISS LATENCY: 160.83 cycles
L1I RQ	ACCESS:   28927047	FORWARD:          0	MERGED:    9082934	TO_CACHE:   19844113

BTB TOTAL     ACCESS:    6673576  HIT:    5961136  MISS:     712440  HIT %:    89.3245  MISS %:    10.6755   MPKI: 7.1244
BTB BRANCH_DIRECT_JUMP	ACCESS:     712598  HIT:     712560  MISS:         38
BTB BRANCH_INDIRECT	ACCESS:         16  HIT:         15  MISS:          1
BTB BRANCH_CONDITIONAL	ACCESS:    3111182  HIT:    3111055  MISS:        127
BTB BRANCH_DIRECT_CALL	ACCESS:    1424889  HIT:    1424844  MISS:         45
BTB BRANCH_INDIRECT_CALL	ACCESS:          0  HIT:          0  MISS:          0
BTB BRANCH_RETURN	ACCESS:    1424891  HIT:     712662  MISS:     712229
BTB BRANCH_OTHER ACCESS:          0  HIT:          0  MISS:          0

L2C TOTAL     ACCESS:     924155  HIT:     620197  MISS:     303958  HIT %:    67.1096  MISS %:    32.8904   MPKI: 3.03958
L2C LOAD      ACCESS:       6517  HIT:        341  MISS:       6176  HIT %:    5.23247  MISS %:    94.7675   MPKI: 0.06176
L2C DATA LOAD MPKI: 0.0607
L2C INSTRUCTION LOAD MPKI: 0.00106
L2C RFO       ACCESS:     111554  HIT:         19  MISS:     111535  HIT %:  0.0170321  MISS %:     99.983   MPKI: 1.11535
L2C PREFETCH  ACCESS:     688784  HIT:     506925  MISS:     181859  HIT %:    73.5971  MISS %:    26.4029   MPKI: 1.81859
L2C DATA PREFETCH MPKI: 1.81859
L2C INSTRUCTION PREFETCH MPKI: 0
L2C WRITEBACK ACCESS:     111581  HIT:     108260  MISS:       3321  HIT %:    97.0237  MISS %:    2.97631   MPKI: 0.03321
L2C LOAD TRANSLATION ACCESS:       5717  HIT:       4651  MISS:       1066  HIT %:    81.3539  MISS %:    18.6461   MPKI: 0.01066
L2C TRANSLATION FROM L1D PREFETCHER ACCESS:          2  HIT:          1  MISS:          1  HIT %:         50  MISS %:         50   MPKI: 1e-05
L2C PREFETCH  REQUESTED:     726423  ISSUED:     726423  USEFUL:        359  USELESS:     181202
L2C USEFUL LOAD PREFETCHES:        359 PREFETCH ISSUED TO LOWER LEVEL:     181933  ACCURACY: 0.197325
L2C TIMELY PREFETCHES:        359 LATE PREFETCHES: 74 DROPPED PREFETCHES: 0
L2C PREFETCHES SAME FILL-ORIGIN LEVEL: 152050 DIFFERENT FILL-ORIGIN LEVEL: 0
L2C AVERAGE MISS LATENCY: 248.548 cycles
L2C RQ	ACCESS:     123790	FORWARD:          0	MERGED:          0	TO_CACHE:     123790
L2C WQ	ACCESS:     111581	FORWARD:          0	MERGED:          0	TO_CACHE:     111581
L2C PQ	ACCESS:     899550	FORWARD:          0	MERGED:      70763	TO_CACHE:     828787

L2C Instructions Evicting Data 106
L2C Translations Evicting Data 1053
L2C Data Evicting Data 298322
L2C Instructions Evicting Instructions 0
L2C Translations Evicting Instructions 1
L2C Data Evicting Instructions 106
L2C Instructions Evicting Translations 0
L2C Translations Evicting Translations 13
L2C Data Evicting Translations 1036
L2C Dense regions hint from L2: 0
PSCL5 TOTAL     ACCESS:       5716  HIT:       5716  MISS:          0  HIT %:        100  MISS %:          0   MPKI: 0
PSCL5 LOAD TRANSLATION ACCESS:       5714  HIT:       5714  MISS:          0  HIT %:        100  MISS %:          0   MPKI: 0
PSCL5 TRANSLATION FROM L1D PREFETCHER ACCESS:          2  HIT:          2  MISS:          0  HIT %:        100  MISS %:          0   MPKI: 0
PSCL5 PREFETCH  REQUESTED:          0  ISSUED:          0  USEFUL:          0  USELESS:          0
PSCL5 USEFUL LOAD PREFETCHES:          0 PREFETCH ISSUED TO LOWER LEVEL:          0  ACCURACY: -nan
PSCL5 TIMELY PREFETCHES:          0 LATE PREFETCHES: 0 DROPPED PREFETCHES: 0
PSCL5 PREFETCHES SAME FILL-ORIGIN LEVEL: 0 DIFFERENT FILL-ORIGIN LEVEL: 0

PSCL4 TOTAL     ACCESS:       5716  HIT:       5716  MISS:          0  HIT %:        100  MISS %:          0   MPKI: 0
PSCL4 LOAD TRANSLATION ACCESS:       5714  HIT:       5714  MISS:          0  HIT %:        100  MISS %:          0   MPKI: 0
PSCL4 TRANSLATION FROM L1D PREFETCHER ACCESS:          2  HIT:          2  MISS:          0  HIT %:        100  MISS %:          0   MPKI: 0
PSCL4 PREFETCH  REQUESTED:          0  ISSUED:          0  USEFUL:          0  USELESS:          0
PSCL4 USEFUL LOAD PREFETCHES:          0 PREFETCH ISSUED TO LOWER LEVEL:          0  ACCURACY: -nan
PSCL4 TIMELY PREFETCHES:          0 LATE PREFETCHES: 0 DROPPED PREFETCHES: 0
PSCL4 PREFETCHES SAME FILL-ORIGIN LEVEL: 0 DIFFERENT FILL-ORIGIN LEVEL: 0

PSCL3 TOTAL     ACCESS:       5716  HIT:       5716  MISS:          0  HIT %:        100  MISS %:          0   MPKI: 0
PSCL3 LOAD TRANSLATION ACCESS:       5714  HIT:       5714  MISS:          0  HIT %:        100  MISS %:          0   MPKI: 0
PSCL3 TRANSLATION FROM L1D PREFETCHER ACCESS:          2  HIT:          2  MISS:          0  HIT %:        100  MISS %:          0   MPKI: 0
PSCL3 PREFETCH  REQUESTED:          0  ISSUED:          0  USEFUL:          0  USELESS:          0
PSCL3 USEFUL LOAD PREFETCHES:          0 PREFETCH ISSUED TO LOWER LEVEL:          0  ACCURACY: -nan
PSCL3 TIMELY PREFETCHES:          0 LATE PREFETCHES: 0 DROPPED PREFETCHES: 0
PSCL3 PREFETCHES SAME FILL-ORIGIN LEVEL: 0 DIFFERENT FILL-ORIGIN LEVEL: 0

PSCL2 TOTAL     ACCESS:       5716  HIT:       5708  MISS:          8  HIT %:      99.86  MISS %:   0.139958   MPKI: 8e-05
PSCL2 LOAD TRANSLATION ACCESS:       5714  HIT:       5706  MISS:          8  HIT %:      99.86  MISS %:   0.140007   MPKI: 8e-05
PSCL2 TRANSLATION FROM L1D PREFETCHER ACCESS:          2  HIT:          2  MISS:          0  HIT %:        100  MISS %:          0   MPKI: 0
PSCL2 PREFETCH  REQUESTED:          0  ISSUED:          0  USEFUL:          0  USELESS:          0
PSCL2 USEFUL LOAD PREFETCHES:          0 PREFETCH ISSUED TO LOWER LEVEL:          0  ACCURACY: -nan
PSCL2 TIMELY PREFETCHES:          0 LATE PREFETCHES: 0 DROPPED PREFETCHES: 0
PSCL2 PREFETCHES SAME FILL-ORIGIN LEVEL: 0 DIFFERENT FILL-ORIGIN LEVEL: 0

LLC TOTAL     ACCESS:     412507  HIT:     110654  MISS:     301853  HIT %:    26.8248  MISS %:    73.1752   MPKI: 3.01853
LLC LOAD      ACCESS:       6102  HIT:          5  MISS:       6097  HIT %:  0.0819403  MISS %:    99.9181   MPKI: 0.06097
LLC RFO       ACCESS:     111535  HIT:        117  MISS:     111418  HIT %:     0.1049  MISS %:    99.8951   MPKI: 1.11418
LLC PREFETCH  ACCESS:     181933  HIT:        431  MISS:     181502  HIT %:     0.2369  MISS %:    99.7631   MPKI: 1.81502
LLC WRITEBACK ACCESS:     111870  HIT:     110092  MISS:       1778  HIT %:    98.4107  MISS %:    1.58934   MPKI: 0.01778
LLC LOAD TRANSLATION ACCESS:       1066  HIT:          9  MISS:       1057  HIT %:   0.844278  MISS %:    99.1557   MPKI: 0.01057
LLC TRANSLATION FROM L1D PREFETCHER ACCESS:          1  HIT:          0  MISS:          1  HIT %:          0  MISS %:        100   MPKI: 1e-05
LLC PREFETCH  REQUESTED:          0  ISSUED:          0  USEFUL:          4  USELESS:     183474
LLC USEFUL LOAD PREFETCHES:          4 PREFETCH ISSUED TO LOWER LEVEL:     181502  ACCURACY: 0.00220383
LLC TIMELY PREFETCHES:          4 LATE PREFETCHES: 0 DROPPED PREFETCHES: 0
LLC PREFETCHES SAME FILL-ORIGIN LEVEL: 0 DIFFERENT FILL-ORIGIN LEVEL: 0
LLC AVERAGE MISS LATENCY: 219.936 cycles
LLC RQ	ACCESS:     118704	FORWARD:          0	MERGED:          0	TO_CACHE:     118704
LLC WQ	ACCESS:     111870	FORWARD:          0	MERGED:          0	TO_CACHE:     111870
LLC PQ	ACCESS:     181933	FORWARD:          0	MERGED:          0	TO_CACHE:     181933

LLC Dense regions hint to LLC: 0

RAW hits: 2836992
Loads Generated: 22884063
Loads sent to L1D: 20047069
Stores Generated: 10855417
Stores sent to L1D: 10855420
Major fault: 0 Minor fault: 6008
Allocated PAGES: 6008

stream: 
stream:times selected: 2756905
stream:pref_filled: 290381
stream:pref_useful: 271295
stream:pref_late: 3774
stream:misses: 16
stream:misses_by_poll: 0

CS: 
CS:times selected: 435674
CS:pref_filled: 15423
CS:pref_useful: 15088
CS:pref_late: 20
CS:misses: 31684
CS:misses_by_poll: 27

CPLX: 
CPLX:times selected: 2321136
CPLX:pref_filled: 419
CPLX:pref_useful: 30
CPLX:pref_late: 1
CPLX:misses: 463
CPLX:misses_by_poll: 0

NL_L1: 
NL:times selected: 9
NL:pref_filled: 3
NL:pref_useful: 3
NL:pref_late: 0
NL:misses: 0
NL:misses_by_poll: 0

total selections: 5513724
total_filled: 169451
total_useful: 157793
total_late: 3836
total_polluted: 27
total_misses_after_warmup: 26104
conflicts: 1941
Degree Incremented Times: 262208
Degree Decremented Times: 0

L1 IP Table Write Accesses: 13368535
L1 IP Table Read Accesses: 13366594
L1 RST Write Accesses: 1628421
L1 RST Read Accesses: 3256842
L1 CSPT Write Accesses: 1628421
L1 CSPT Read Accesses: 5717071
L1 RR Filter Tag Write Accesses: 2159876
L1 RR Filter Tag Read Accesses: 270633305
L1 IP Table Tag Write Accesses: 14828316
L1 IP Table Tag Read Accesses: 14828316
L1 RST Tag Write Accesses: 0
L1 RST Tag Read Accesses: 14168718
L1 RR Filter Write Accesses: 0
L1 RR Filter Read Accesses: 12734343
test: 1201178
L2 IP Table Read Accesses: 269558
L2 IP Table Write Accesses: 263287
L2 IP Table Tag Read Accesses: 134825
L2 IP Table Tag Write Accesses: 134825

DRAM Statistics
 CHANNEL 0
 RQ ROW_BUFFER_HIT:      67632  ROW_BUFFER_MISS:     232442
 DBUS_CONGESTED:         19
 WQ ROW_BUFFER_HIT:      15305  ROW_BUFFER_MISS:      93745  FULL:          0

 AVG_CONGESTED_CYCLE: 3
 All warmup complete: 2
Channel 0 Bank busy for read cycles: 0
Channel 0 Bank busy for write cycles: 0
Channel 0
Rank 0
0banks busy for read cycles: 145792881
0banks busy for write cycles: 31341
1banks busy for read cycles: 11527069
1banks busy for write cycles: 4670933
2banks busy for read cycles: 2016713
2banks busy for write cycles: 177421
3banks busy for read cycles: 989581
3banks busy for write cycles: 101820
4banks busy for read cycles: 848960
4banks busy for write cycles: 78471
5banks busy for read cycles: 378564
5banks busy for write cycles: 61157
6banks busy for read cycles: 378681
6banks busy for write cycles: 50312
7banks busy for read cycles: 698794
7banks busy for write cycles: 135258
8banks busy for read cycles: 1051035
8banks busy for write cycles: 1519125

CPU 0 Branch Prediction Accuracy: 99.978% MPKI: 0.02252 Average ROB Occupancy at Mispredict: 25.8446
Branch types
NOT_BRANCH: 89756089 89.7561%
BRANCH_DIRECT_JUMP: 712598 0.712598%
BRANCH_INDIRECT: 16 1.6e-05%
BRANCH_CONDITIONAL: 6681200 6.6812%
BRANCH_DIRECT_CALL: 1424889 1.42489%
BRANCH_INDIRECT_CALL: 0 0%
BRANCH_RETURN: 1424891 1.42489%
BRANCH_OTHER: 0 0%

DRAM PAGES: 1048576
Allocated PAGES: 6008
