
*** ChampSim Multicore Out-of-Order Simulator ***

Warmup Instructions: 50000000
Simulation Instructions: 100000000
Number of CPUs: 1
LLC sets: 2048
LLC ways: 16
Off-chip DRAM Size: 4096 MB Channels: 1 Width: 64-bit Data Rate: 6400 MT/s
CPU 0 runs ../SPEC2017//654.roms_s-1613B.champsimtrace.xz
.xz
NUM_OF_IPS_IN_CRITICAL_IP_TRAINING: 64
NUM_OF_CRITICAL_IP_TRAINING_TABLE_WAYS: 2
NUM_OF_CRITICAL_IP_TRAINING_TABLE_SETS: 32
WOBBLY_CRITICAL_IP_CACHE_SETS: 32
WOBBLY_CRITICAL_IP_CACHE_WAYS: 4
BTB has LRU replacement policy
ITLB has LRU replacement policy
DTLB has LRU replacement policy
STLB has LRU replacement policy
L1I has LRU replacement policy
IP Table Entries: 64
L1D has LRU replacement policy
Initialize SRRIP state for L2C
Initialize DRRIP state for LLC
Heartbeat CPU 0 instructions: 10000001 cycles: 2914319 heartbeat IPC: 3.43133 cumulative IPC: 3.43133 (Simulation time: 0 hr 3 min 20 sec) 
Heartbeat CPU 0 instructions: 20000000 cycles: 5828632 heartbeat IPC: 3.43134 cumulative IPC: 3.43134 (Simulation time: 0 hr 6 min 4 sec) 
Heartbeat CPU 0 instructions: 30000000 cycles: 8742787 heartbeat IPC: 3.43153 cumulative IPC: 3.4314 (Simulation time: 0 hr 8 min 37 sec) 
Heartbeat CPU 0 instructions: 40000000 cycles: 11656996 heartbeat IPC: 3.43146 cumulative IPC: 3.43142 (Simulation time: 0 hr 11 min 1 sec) 
Heartbeat CPU 0 instructions: 50000001 cycles: 15195669 heartbeat IPC: 2.82592 cumulative IPC: 3.29041 (Simulation time: 0 hr 13 min 11 sec) 

Warmup complete CPU 0 instructions: 50000001 cycles: 15195669 (Simulation time: 0 hr 13 min 11 sec) 

% increase in all ip prefetch 409.46
% increase in all ip prefetch -0.0243272
Heartbeat CPU 0 instructions: 60000001 cycles: 31857677 heartbeat IPC: 0.600168 cumulative IPC: 0.600168 (Simulation time: 0 hr 15 min 37 sec) 
Heartbeat CPU 0 instructions: 70000003 cycles: 48497040 heartbeat IPC: 0.600985 cumulative IPC: 0.600576 (Simulation time: 0 hr 17 min 55 sec) 
Heartbeat CPU 0 instructions: 80000000 cycles: 65124567 heartbeat IPC: 0.601412 cumulative IPC: 0.600854 (Simulation time: 0 hr 20 min 13 sec) 
Heartbeat CPU 0 instructions: 90000001 cycles: 81743783 heartbeat IPC: 0.601713 cumulative IPC: 0.601069 (Simulation time: 0 hr 22 min 27 sec) 
Heartbeat CPU 0 instructions: 100000000 cycles: 98367232 heartbeat IPC: 0.60156 cumulative IPC: 0.601167 (Simulation time: 0 hr 24 min 33 sec) 
Heartbeat CPU 0 instructions: 110000000 cycles: 114988814 heartbeat IPC: 0.601627 cumulative IPC: 0.601244 (Simulation time: 0 hr 26 min 38 sec) 
Heartbeat CPU 0 instructions: 120000001 cycles: 135881444 heartbeat IPC: 0.478638 cumulative IPC: 0.580019 (Simulation time: 0 hr 29 min 18 sec) 
Heartbeat CPU 0 instructions: 130000000 cycles: 152503155 heartbeat IPC: 0.601623 cumulative IPC: 0.582634 (Simulation time: 0 hr 31 min 15 sec) 
Heartbeat CPU 0 instructions: 140000003 cycles: 169132137 heartbeat IPC: 0.60136 cumulative IPC: 0.584657 (Simulation time: 0 hr 33 min 14 sec) 
Heartbeat CPU 0 instructions: 150000001 cycles: 185761454 heartbeat IPC: 0.601348 cumulative IPC: 0.586284 (Simulation time: 0 hr 35 min 9 sec) 
Finished CPU 0 instructions: 100000000 cycles: 170565785 cumulative IPC: 0.586284 (Simulation time: 0 hr 35 min 9 sec) 

ChampSim completed all CPUs

Region of Interest Statistics

CPU 0 cumulative IPC: 0.586284 instructions: 100000000 cycles: 170565785

CPU 0 Average Load ROB stall cycles: 2.91102e+07
CPU 0 Fraction of times ROB stalled by Loads: 29.0095
CPU 0 Percentage of Load stall cycles in Total stall cycles: 5.77904e+08
Issued all: 62591059
Issued LT all: 48708447
rob_not_full_when_issued_lt_all: 43763466
Issued LT one: 40950648
rob_not_full_when_issued_lt_one: 36280038
 Total stall cycles: 144830332
 Total load stall cycles: 836980731002453
Unique Load IPs: 414
CPU 0 NUM of IPS identified critical: 14
CPU 0 Num of Load IPs stalling ROB: 283
Threshold modification factor: -1
Max PIST entries: 55
Min PIST entries: 0
Avg PIST entries: 14.4333
Trouble in retire width: 0.988803
MaC = Marked as critical.
lt_50_percent_before_Mac: 14
gt_90_percent_before_Mac: 0
gt_75_percent_before_Mac: 0
gt_50_percent_before_Mac: 0
stall_proportion_bin_same_before_after: 0
stall_proportion_bin_lower_before_after: 0
stall_proportion_bin_upper_before_after: 0
average_stall_proportion_before: 0.0839519
average_stall_proportion_after: 0.102417
Critical IP stalls, total frequency: 4617604
Non-critical IP stalls, total frequency: 3723255
Total Freq all stalling IPs: 8340859
Critical_IP_Detector_Accuracy_70: 0.357143
Critical_IP_Detector_Accuracy_80: 0.428571
Critical_IP_Detector_Accuracy_90: 0.5
Critical_IP_Detector_Coverage_70: 0.5
Critical_IP_Detector_Coverage_80: 0.5
Critical_IP_Detector_Coverage_90: 0.466667
stat_90_percent_critical_ip_stalls_freq: 7745525
stat_90_percent_non_critical_ip_stalls_freq: 595334
AVERAGE_ROB_Occupancy_90_Percent_Critical_IP_Stalls: 38.9663
AVERAGE_ROB_Occupancy_90_Percent_Non_Critical_IP_Stalls: 180.232
Critical_IP_ROB_Stalls_Bucket_0: 1089471
Non-critical_IP_ROB_Stalls_Bucket_0: 3664411
Critical_IP_ROB_Stalls_Bucket_1: 3246678
Non-critical_IP_ROB_Stalls_Bucket_1: 57571
Critical_IP_ROB_Stalls_Bucket_2: 6307
Non-critical_IP_ROB_Stalls_Bucket_2: 456
Critical_IP_ROB_Stalls_Bucket_3: 3528
Non-critical_IP_ROB_Stalls_Bucket_3: 460
Critical_IP_ROB_Stalls_Bucket_4: 2689
Non-critical_IP_ROB_Stalls_Bucket_4: 103
Critical_IP_ROB_Stalls_Bucket_5: 3206
Non-critical_IP_ROB_Stalls_Bucket_5: 176
Critical_IP_ROB_Stalls_Bucket_6: 265725
Non-critical_IP_ROB_Stalls_Bucket_6: 78
0 => IPs accounting for >50 percent of stalls, 1 => 55, 2 => 60, 3 => 65 and so on till 90.
percent50: 51.0508 num IPs:  6
percent55: 59.3457 num IPs: 7
percent60: 63.8097 num IPs: 8
percent65: 68.0785 num IPs: 9
percent70: 72.3473 num IPs: 10
percent75: 76.6161 num IPs: 11
percent80: 80.8762 num IPs: 12
percent85: 85.1354 num IPs: 13
percent90: 92.8624 num IPs: 15
Critical_ROB_Stalls_Percent_0_Bucket_0: 1425800
Non-critical_ROB_Stalls_Percent_0_Bucket_0: 3328082
Critical_ROB_Stalls_Percent_0_Bucket_1: 2831150
Non-critical_ROB_Stalls_Percent_0_Bucket_1: 473099
Critical_ROB_Stalls_Percent_0_Bucket_2: 1109
Non-critical_ROB_Stalls_Percent_0_Bucket_2: 5654
Critical_ROB_Stalls_Percent_0_Bucket_3: 11
Non-critical_ROB_Stalls_Percent_0_Bucket_3: 3977
Critical_ROB_Stalls_Percent_0_Bucket_4: 3
Non-critical_ROB_Stalls_Percent_0_Bucket_4: 2789
Critical_ROB_Stalls_Percent_0_Bucket_5: 1
Non-critical_ROB_Stalls_Percent_0_Bucket_5: 3381
Critical_ROB_Stalls_Percent_0_Bucket_6: 5
Non-critical_ROB_Stalls_Percent_0_Bucket_6: 265798
Critical_ROB_Stalls_Percent_1_Bucket_0: 2116955
Non-critical_ROB_Stalls_Percent_1_Bucket_0: 2636927
Critical_ROB_Stalls_Percent_1_Bucket_1: 2831857
Non-critical_ROB_Stalls_Percent_1_Bucket_1: 472392
Critical_ROB_Stalls_Percent_1_Bucket_2: 1109
Non-critical_ROB_Stalls_Percent_1_Bucket_2: 5654
Critical_ROB_Stalls_Percent_1_Bucket_3: 12
Non-critical_ROB_Stalls_Percent_1_Bucket_3: 3976
Critical_ROB_Stalls_Percent_1_Bucket_4: 3
Non-critical_ROB_Stalls_Percent_1_Bucket_4: 2789
Critical_ROB_Stalls_Percent_1_Bucket_5: 2
Non-critical_ROB_Stalls_Percent_1_Bucket_5: 3380
Critical_ROB_Stalls_Percent_1_Bucket_6: 5
Non-critical_ROB_Stalls_Percent_1_Bucket_6: 265798
Critical_ROB_Stalls_Percent_2_Bucket_0: 2489292
Non-critical_ROB_Stalls_Percent_2_Bucket_0: 2264590
Critical_ROB_Stalls_Percent_2_Bucket_1: 2831857
Non-critical_ROB_Stalls_Percent_2_Bucket_1: 472392
Critical_ROB_Stalls_Percent_2_Bucket_2: 1109
Non-critical_ROB_Stalls_Percent_2_Bucket_2: 5654
Critical_ROB_Stalls_Percent_2_Bucket_3: 12
Non-critical_ROB_Stalls_Percent_2_Bucket_3: 3976
Critical_ROB_Stalls_Percent_2_Bucket_4: 3
Non-critical_ROB_Stalls_Percent_2_Bucket_4: 2789
Critical_ROB_Stalls_Percent_2_Bucket_5: 2
Non-critical_ROB_Stalls_Percent_2_Bucket_5: 3380
Critical_ROB_Stalls_Percent_2_Bucket_6: 5
Non-critical_ROB_Stalls_Percent_2_Bucket_6: 265798
Critical_ROB_Stalls_Percent_3_Bucket_0: 2845287
Non-critical_ROB_Stalls_Percent_3_Bucket_0: 1908595
Critical_ROB_Stalls_Percent_3_Bucket_1: 2831899
Non-critical_ROB_Stalls_Percent_3_Bucket_1: 472350
Critical_ROB_Stalls_Percent_3_Bucket_2: 1125
Non-critical_ROB_Stalls_Percent_3_Bucket_2: 5638
Critical_ROB_Stalls_Percent_3_Bucket_3: 12
Non-critical_ROB_Stalls_Percent_3_Bucket_3: 3976
Critical_ROB_Stalls_Percent_3_Bucket_4: 4
Non-critical_ROB_Stalls_Percent_3_Bucket_4: 2788
Critical_ROB_Stalls_Percent_3_Bucket_5: 2
Non-critical_ROB_Stalls_Percent_3_Bucket_5: 3380
Critical_ROB_Stalls_Percent_3_Bucket_6: 5
Non-critical_ROB_Stalls_Percent_3_Bucket_6: 265798
Critical_ROB_Stalls_Percent_4_Bucket_0: 3201231
Non-critical_ROB_Stalls_Percent_4_Bucket_0: 1552651
Critical_ROB_Stalls_Percent_4_Bucket_1: 2831992
Non-critical_ROB_Stalls_Percent_4_Bucket_1: 472257
Critical_ROB_Stalls_Percent_4_Bucket_2: 1141
Non-critical_ROB_Stalls_Percent_4_Bucket_2: 5622
Critical_ROB_Stalls_Percent_4_Bucket_3: 12
Non-critical_ROB_Stalls_Percent_4_Bucket_3: 3976
Critical_ROB_Stalls_Percent_4_Bucket_4: 5
Non-critical_ROB_Stalls_Percent_4_Bucket_4: 2787
Critical_ROB_Stalls_Percent_4_Bucket_5: 2
Non-critical_ROB_Stalls_Percent_4_Bucket_5: 3380
Critical_ROB_Stalls_Percent_4_Bucket_6: 5
Non-critical_ROB_Stalls_Percent_4_Bucket_6: 265798
Critical_ROB_Stalls_Percent_5_Bucket_0: 3201965
Non-critical_ROB_Stalls_Percent_5_Bucket_0: 1551917
Critical_ROB_Stalls_Percent_5_Bucket_1: 3187282
Non-critical_ROB_Stalls_Percent_5_Bucket_1: 116967
Critical_ROB_Stalls_Percent_5_Bucket_2: 1170
Non-critical_ROB_Stalls_Percent_5_Bucket_2: 5593
Critical_ROB_Stalls_Percent_5_Bucket_3: 12
Non-critical_ROB_Stalls_Percent_5_Bucket_3: 3976
Critical_ROB_Stalls_Percent_5_Bucket_4: 6
Non-critical_ROB_Stalls_Percent_5_Bucket_4: 2786
Critical_ROB_Stalls_Percent_5_Bucket_5: 2
Non-critical_ROB_Stalls_Percent_5_Bucket_5: 3380
Critical_ROB_Stalls_Percent_5_Bucket_6: 5
Non-critical_ROB_Stalls_Percent_5_Bucket_6: 265798
Critical_ROB_Stalls_Percent_6_Bucket_0: 3557284
Non-critical_ROB_Stalls_Percent_6_Bucket_0: 1196598
Critical_ROB_Stalls_Percent_6_Bucket_1: 3187286
Non-critical_ROB_Stalls_Percent_6_Bucket_1: 116963
Critical_ROB_Stalls_Percent_6_Bucket_2: 1171
Non-critical_ROB_Stalls_Percent_6_Bucket_2: 5592
Critical_ROB_Stalls_Percent_6_Bucket_3: 12
Non-critical_ROB_Stalls_Percent_6_Bucket_3: 3976
Critical_ROB_Stalls_Percent_6_Bucket_4: 6
Non-critical_ROB_Stalls_Percent_6_Bucket_4: 2786
Critical_ROB_Stalls_Percent_6_Bucket_5: 2
Non-critical_ROB_Stalls_Percent_6_Bucket_5: 3380
Critical_ROB_Stalls_Percent_6_Bucket_6: 5
Non-critical_ROB_Stalls_Percent_6_Bucket_6: 265798
Critical_ROB_Stalls_Percent_7_Bucket_0: 3912539
Non-critical_ROB_Stalls_Percent_7_Bucket_0: 841343
Critical_ROB_Stalls_Percent_7_Bucket_1: 3187289
Non-critical_ROB_Stalls_Percent_7_Bucket_1: 116960
Critical_ROB_Stalls_Percent_7_Bucket_2: 1172
Non-critical_ROB_Stalls_Percent_7_Bucket_2: 5591
Critical_ROB_Stalls_Percent_7_Bucket_3: 12
Non-critical_ROB_Stalls_Percent_7_Bucket_3: 3976
Critical_ROB_Stalls_Percent_7_Bucket_4: 6
Non-critical_ROB_Stalls_Percent_7_Bucket_4: 2786
Critical_ROB_Stalls_Percent_7_Bucket_5: 2
Non-critical_ROB_Stalls_Percent_7_Bucket_5: 3380
Critical_ROB_Stalls_Percent_7_Bucket_6: 5
Non-critical_ROB_Stalls_Percent_7_Bucket_6: 265798
Critical_ROB_Stalls_Percent_8_Bucket_0: 4544973
Non-critical_ROB_Stalls_Percent_8_Bucket_0: 208909
Critical_ROB_Stalls_Percent_8_Bucket_1: 3196952
Non-critical_ROB_Stalls_Percent_8_Bucket_1: 107297
Critical_ROB_Stalls_Percent_8_Bucket_2: 1806
Non-critical_ROB_Stalls_Percent_8_Bucket_2: 4957
Critical_ROB_Stalls_Percent_8_Bucket_3: 532
Non-critical_ROB_Stalls_Percent_8_Bucket_3: 3456
Critical_ROB_Stalls_Percent_8_Bucket_4: 405
Non-critical_ROB_Stalls_Percent_8_Bucket_4: 2387
Critical_ROB_Stalls_Percent_8_Bucket_5: 558
Non-critical_ROB_Stalls_Percent_8_Bucket_5: 2824
Critical_ROB_Stalls_Percent_8_Bucket_6: 299
Non-critical_ROB_Stalls_Percent_8_Bucket_6: 265504
Average ROB occupancy Load Stall Begin: 42.8423
Average ROB occupancy Load Stall End: 49.0492
Min ROB occupancy Load Stall Begin: 1
Max ROB occupancy Load Stall Begin: 352
Min ROB occupancy Load Stall End: 1
Max ROB occupancy Load Stall End: 352
Average ROB occupancy Critical Load Stall Begin: 64.2269
Average ROB occupancy Critical Load Stall End: 71.3886
Min ROB occupancy Critical Load Stall Begin: 7
Max ROB occupancy Critical Load Stall Begin: 352
Min ROB occupancy Critical Load Stall End: 7
Max ROB occupancy Critical Load Stall End: 352
 ROB Load Stall Begin Bucket Count 0: 6763840
 ROB Load Stall End Bucket Count 0: 4753882
 ROB Critical Load Stall Begin Bucket Count 0: 3069457
 ROB Critical Load Stall End Bucket Count 0: 1071924
 ROB Load Stall Begin Bucket Count 1: 1299975
 ROB Load Stall End Bucket Count 1: 3304249
 ROB Critical Load Stall Begin Bucket Count 1: 1251784
 ROB Critical Load Stall End Bucket Count 1: 3243939
 ROB Load Stall Begin Bucket Count 2: 4997
 ROB Load Stall End Bucket Count 2: 6763
 ROB Critical Load Stall Begin Bucket Count 2: 4514
 ROB Critical Load Stall End Bucket Count 2: 6051
 ROB Load Stall Begin Bucket Count 3: 3327
 ROB Load Stall End Bucket Count 3: 3988
 ROB Critical Load Stall Begin Bucket Count 3: 2869
 ROB Critical Load Stall End Bucket Count 3: 3500
 ROB Load Stall Begin Bucket Count 4: 2534
 ROB Load Stall End Bucket Count 4: 2792
 ROB Critical Load Stall Begin Bucket Count 4: 2374
 ROB Critical Load Stall End Bucket Count 4: 2652
 ROB Load Stall Begin Bucket Count 5: 2238
 ROB Load Stall End Bucket Count 5: 3382
 ROB Critical Load Stall Begin Bucket Count 5: 2029
 ROB Critical Load Stall End Bucket Count 5: 3166
 ROB Load Stall Begin Bucket Count 6: 263948
 ROB Load Stall End Bucket Count 6: 265803
 ROB Critical Load Stall Begin Bucket Count 6: 263699
 ROB Critical Load Stall End Bucket Count 6: 265494
PIST Tag Read Accesses: 191994
PIST Read Accesses: 95997
PIST Tag Write Accesses: 191994
PIST Write Accesses: 95997
Criticality detector called times: 3744133
Max global_stall_cycles_count: 201029
Threshold Modified: 1 times, factor: -1
Sturdy critical IP cache stats: 
 Unused entries: 0
CIC Tag Read Accesses: 0
CIC Read Accesses: 0
CIC Tag Write Accesses: 0
CIC Write Accesses: 0
Wobbly critical IP cache stats: 
 Unused entries: 114
CIC Tag Read Accesses: 168194664
CIC Read Accesses: 0
CIC Tag Write Accesses: 1403299
CIC Write Accesses: 0
ITLB TOTAL     ACCESS:   15214230  HIT:   15214222  MISS:          8  HIT %:    99.9999  MISS %: 5.25824e-05   MPKI: 8e-05
ITLB LOAD TRANSLATION ACCESS:   15214230  HIT:   15214222  MISS:          8  HIT %:    99.9999  MISS %: 5.25824e-05   MPKI: 8e-05
ITLB PREFETCH  REQUESTED:          0  ISSUED:          0  USEFUL:          0  USELESS:          0
ITLB USEFUL LOAD PREFETCHES:          0 PREFETCH ISSUED TO LOWER LEVEL:          0  ACCURACY: -nan
ITLB TIMELY PREFETCHES:          0 LATE PREFETCHES: 0 DROPPED PREFETCHES: 0
ITLB PREFETCHES SAME FILL-ORIGIN LEVEL: 0 DIFFERENT FILL-ORIGIN LEVEL: 0
ITLB AVERAGE MISS LATENCY: 283.75 cycles
ITLB RQ	ACCESS:   19844426	FORWARD:          0	MERGED:    4630196	TO_CACHE:   15214230

DTLB TOTAL     ACCESS:   20824659  HIT:   20818546  MISS:       6113  HIT %:    99.9706  MISS %:  0.0293546   MPKI: 0.06113
DTLB LOAD TRANSLATION ACCESS:   20824659  HIT:   20818546  MISS:       6113  HIT %:    99.9706  MISS %:  0.0293546   MPKI: 0.06113
DTLB PREFETCH  REQUESTED:          0  ISSUED:          0  USEFUL:          0  USELESS:          0
DTLB USEFUL LOAD PREFETCHES:          0 PREFETCH ISSUED TO LOWER LEVEL:          0  ACCURACY: -nan
DTLB TIMELY PREFETCHES:          0 LATE PREFETCHES: 0 DROPPED PREFETCHES: 0
DTLB PREFETCHES SAME FILL-ORIGIN LEVEL: 0 DIFFERENT FILL-ORIGIN LEVEL: 0
DTLB AVERAGE MISS LATENCY: 105.421 cycles
DTLB RQ	ACCESS:   24948834	FORWARD:          0	MERGED:    4117820	TO_CACHE:   20831014

STLB TOTAL     ACCESS:     165458  HIT:     159748  MISS:       5710  HIT %:     96.549  MISS %:    3.45103   MPKI: 0.0571
STLB LOAD TRANSLATION ACCESS:       6121  HIT:        412  MISS:       5709  HIT %:    6.73093  MISS %:    93.2691   MPKI: 0.05709
STLB TRANSLATION FROM L1D PREFETCHER ACCESS:     159337  HIT:     159336  MISS:          1  HIT %:    99.9994  MISS %: 0.000627601   MPKI: 1e-05
STLB PREFETCH  REQUESTED:          0  ISSUED:          0  USEFUL:          1  USELESS:          0
STLB USEFUL LOAD PREFETCHES:          1 PREFETCH ISSUED TO LOWER LEVEL:          0  ACCURACY: inf
STLB TIMELY PREFETCHES:          1 LATE PREFETCHES: 0 DROPPED PREFETCHES: 0
STLB PREFETCHES SAME FILL-ORIGIN LEVEL: 0 DIFFERENT FILL-ORIGIN LEVEL: 0
STLB AVERAGE MISS LATENCY: 103.58 cycles
STLB RQ	ACCESS:     247918	FORWARD:          0	MERGED:      82460	TO_CACHE:     165458

STLB Hit, L1D data hit: 0
STLB Hit, L2C data hit: 0
STLB Hit, LLC data hit: 0
STLB Hit, LLC data miss: 0
STLB STLB hints to L2: 0
L1D TOTAL     ACCESS:   24702900  HIT:   24412401  MISS:     290499  HIT %:     98.824  MISS %:    1.17597   MPKI: 2.90499
L1D LOAD      ACCESS:   14784867  HIT:   14771344  MISS:      13523  HIT %:    99.9085  MISS %:  0.0914651   MPKI: 0.13523
L1D RFO       ACCESS:    9684534  HIT:    9572968  MISS:     111566  HIT %:     98.848  MISS %:      1.152   MPKI: 1.11566
L1D PREFETCH  ACCESS:     233499  HIT:      68089  MISS:     165410  HIT %:    29.1603  MISS %:    70.8397   MPKI: 1.6541
L1D PREFETCH  REQUESTED:     483621  ISSUED:     483596  USEFUL:     154346  USELESS:      11022
L1D USEFUL LOAD PREFETCHES:     154346 PREFETCH ISSUED TO LOWER LEVEL:     172171  ACCURACY: 89.6469
L1D TIMELY PREFETCHES:     154346 LATE PREFETCHES: 6761 DROPPED PREFETCHES: 0
L1D PREFETCHES SAME FILL-ORIGIN LEVEL: 172171 DIFFERENT FILL-ORIGIN LEVEL: 0
L1D AVERAGE MISS LATENCY: 3.0395e+06 cycles
L1D RQ	ACCESS:   20046835	FORWARD:          0	MERGED:    5226291	TO_CACHE:   14807586
L1D WQ	ACCESS:   10855420	FORWARD:      12960	MERGED:     714172	TO_CACHE:   10141248
L1D PQ	ACCESS:     241799	FORWARD:          0	MERGED:          0	TO_CACHE:     241797

L1D UNIQUE REGIONS ACCESSED: 0
L1D REGIONS CONFLICTS: 0
L1D Cross Page Prefetch Requests: 0
L1D Same Page Prefetch Requests: 260040
L1D ROI Sum of L1D PQ occupancy: 4336415
L1D PREFETCHES PUSHED FROM L2C: 0
L1I TOTAL     ACCESS:   19844411  HIT:   19844305  MISS:        106  HIT %:    99.9995  MISS %: 0.000534155   MPKI: 0.00106
L1I LOAD      ACCESS:   19844411  HIT:   19844305  MISS:        106  HIT %:    99.9995  MISS %: 0.000534155   MPKI: 0.00106
L1I PREFETCH  REQUESTED:          0  ISSUED:          0  USEFUL:          0  USELESS:          0
L1I USEFUL LOAD PREFETCHES:          0 PREFETCH ISSUED TO LOWER LEVEL:          0  ACCURACY: -nan
L1I TIMELY PREFETCHES:          0 LATE PREFETCHES: 0 DROPPED PREFETCHES: 0
L1I PREFETCHES SAME FILL-ORIGIN LEVEL: 0 DIFFERENT FILL-ORIGIN LEVEL: 0
L1I AVERAGE MISS LATENCY: 166.292 cycles
L1I RQ	ACCESS:   28927510	FORWARD:          0	MERGED:    9083084	TO_CACHE:   19844426

BTB TOTAL     ACCESS:    6673576  HIT:    5961136  MISS:     712440  HIT %:    89.3245  MISS %:    10.6755   MPKI: 7.1244
BTB BRANCH_DIRECT_JUMP	ACCESS:     712598  HIT:     712560  MISS:         38
BTB BRANCH_INDIRECT	ACCESS:         16  HIT:         15  MISS:          1
BTB BRANCH_CONDITIONAL	ACCESS:    3111182  HIT:    3111055  MISS:        127
BTB BRANCH_DIRECT_CALL	ACCESS:    1424889  HIT:    1424844  MISS:         45
BTB BRANCH_INDIRECT_CALL	ACCESS:          0  HIT:          0  MISS:          0
BTB BRANCH_RETURN	ACCESS:    1424891  HIT:     712662  MISS:     712229
BTB BRANCH_OTHER ACCESS:          0  HIT:          0  MISS:          0

L2C TOTAL     ACCESS:     407920  HIT:     115789  MISS:     292131  HIT %:    28.3852  MISS %:    71.6148   MPKI: 2.92131
L2C LOAD      ACCESS:       6868  HIT:         20  MISS:       6848  HIT %:   0.291206  MISS %:    99.7088   MPKI: 0.06848
L2C DATA LOAD MPKI: 0.06742
L2C INSTRUCTION LOAD MPKI: 0.00106
L2C RFO       ACCESS:     111566  HIT:          1  MISS:     111565  HIT %: 0.00089633  MISS %:    99.9991   MPKI: 1.11565
L2C PREFETCH  ACCESS:     172171  HIT:        519  MISS:     171652  HIT %:   0.301444  MISS %:    99.6986   MPKI: 1.71652
L2C DATA PREFETCH MPKI: 1.71652
L2C INSTRUCTION PREFETCH MPKI: 0
L2C WRITEBACK ACCESS:     111602  HIT:     110597  MISS:       1005  HIT %:    99.0995  MISS %:   0.900521   MPKI: 0.01005
L2C LOAD TRANSLATION ACCESS:       5712  HIT:       4651  MISS:       1061  HIT %:    81.4251  MISS %:    18.5749   MPKI: 0.01061
L2C TRANSLATION FROM L1D PREFETCHER ACCESS:          1  HIT:          1  MISS:          0  HIT %:        100  MISS %:          0   MPKI: 0
L2C PREFETCH  REQUESTED:          0  ISSUED:          0  USEFUL:         17  USELESS:     168325
L2C USEFUL LOAD PREFETCHES:         17 PREFETCH ISSUED TO LOWER LEVEL:     171652  ACCURACY: 0.00990376
L2C TIMELY PREFETCHES:         17 LATE PREFETCHES: 0 DROPPED PREFETCHES: 0
L2C PREFETCHES SAME FILL-ORIGIN LEVEL: 0 DIFFERENT FILL-ORIGIN LEVEL: 0
L2C AVERAGE MISS LATENCY: 243.756 cycles
L2C RQ	ACCESS:     124147	FORWARD:          0	MERGED:          0	TO_CACHE:     124147
L2C WQ	ACCESS:     111602	FORWARD:          0	MERGED:          0	TO_CACHE:     111602
L2C PQ	ACCESS:     172171	FORWARD:          0	MERGED:          0	TO_CACHE:     172171

L2C Instructions Evicting Data 106
L2C Translations Evicting Data 1045
L2C Data Evicting Data 288770
L2C Instructions Evicting Instructions 0
L2C Translations Evicting Instructions 1
L2C Data Evicting Instructions 116
L2C Instructions Evicting Translations 0
L2C Translations Evicting Translations 15
L2C Data Evicting Translations 1073
L2C Dense regions hint from L2: 0
PSCL5 TOTAL     ACCESS:       5710  HIT:       5710  MISS:          0  HIT %:        100  MISS %:          0   MPKI: 0
PSCL5 LOAD TRANSLATION ACCESS:       5709  HIT:       5709  MISS:          0  HIT %:        100  MISS %:          0   MPKI: 0
PSCL5 TRANSLATION FROM L1D PREFETCHER ACCESS:          1  HIT:          1  MISS:          0  HIT %:        100  MISS %:          0   MPKI: 0
PSCL5 PREFETCH  REQUESTED:          0  ISSUED:          0  USEFUL:          0  USELESS:          0
PSCL5 USEFUL LOAD PREFETCHES:          0 PREFETCH ISSUED TO LOWER LEVEL:          0  ACCURACY: -nan
PSCL5 TIMELY PREFETCHES:          0 LATE PREFETCHES: 0 DROPPED PREFETCHES: 0
PSCL5 PREFETCHES SAME FILL-ORIGIN LEVEL: 0 DIFFERENT FILL-ORIGIN LEVEL: 0

PSCL4 TOTAL     ACCESS:       5710  HIT:       5710  MISS:          0  HIT %:        100  MISS %:          0   MPKI: 0
PSCL4 LOAD TRANSLATION ACCESS:       5709  HIT:       5709  MISS:          0  HIT %:        100  MISS %:          0   MPKI: 0
PSCL4 TRANSLATION FROM L1D PREFETCHER ACCESS:          1  HIT:          1  MISS:          0  HIT %:        100  MISS %:          0   MPKI: 0
PSCL4 PREFETCH  REQUESTED:          0  ISSUED:          0  USEFUL:          0  USELESS:          0
PSCL4 USEFUL LOAD PREFETCHES:          0 PREFETCH ISSUED TO LOWER LEVEL:          0  ACCURACY: -nan
PSCL4 TIMELY PREFETCHES:          0 LATE PREFETCHES: 0 DROPPED PREFETCHES: 0
PSCL4 PREFETCHES SAME FILL-ORIGIN LEVEL: 0 DIFFERENT FILL-ORIGIN LEVEL: 0

PSCL3 TOTAL     ACCESS:       5710  HIT:       5710  MISS:          0  HIT %:        100  MISS %:          0   MPKI: 0
PSCL3 LOAD TRANSLATION ACCESS:       5709  HIT:       5709  MISS:          0  HIT %:        100  MISS %:          0   MPKI: 0
PSCL3 TRANSLATION FROM L1D PREFETCHER ACCESS:          1  HIT:          1  MISS:          0  HIT %:        100  MISS %:          0   MPKI: 0
PSCL3 PREFETCH  REQUESTED:          0  ISSUED:          0  USEFUL:          0  USELESS:          0
PSCL3 USEFUL LOAD PREFETCHES:          0 PREFETCH ISSUED TO LOWER LEVEL:          0  ACCURACY: -nan
PSCL3 TIMELY PREFETCHES:          0 LATE PREFETCHES: 0 DROPPED PREFETCHES: 0
PSCL3 PREFETCHES SAME FILL-ORIGIN LEVEL: 0 DIFFERENT FILL-ORIGIN LEVEL: 0

PSCL2 TOTAL     ACCESS:       5710  HIT:       5702  MISS:          8  HIT %:    99.8599  MISS %:   0.140105   MPKI: 8e-05
PSCL2 LOAD TRANSLATION ACCESS:       5709  HIT:       5701  MISS:          8  HIT %:    99.8599  MISS %:    0.14013   MPKI: 8e-05
PSCL2 TRANSLATION FROM L1D PREFETCHER ACCESS:          1  HIT:          1  MISS:          0  HIT %:        100  MISS %:          0   MPKI: 0
PSCL2 PREFETCH  REQUESTED:          0  ISSUED:          0  USEFUL:          0  USELESS:          0
PSCL2 USEFUL LOAD PREFETCHES:          0 PREFETCH ISSUED TO LOWER LEVEL:          0  ACCURACY: -nan
PSCL2 TIMELY PREFETCHES:          0 LATE PREFETCHES: 0 DROPPED PREFETCHES: 0
PSCL2 PREFETCHES SAME FILL-ORIGIN LEVEL: 0 DIFFERENT FILL-ORIGIN LEVEL: 0

LLC TOTAL     ACCESS:     402897  HIT:     108608  MISS:     294289  HIT %:    26.9568  MISS %:    73.0432   MPKI: 2.94289
LLC LOAD      ACCESS:       6848  HIT:          3  MISS:       6845  HIT %:  0.0438084  MISS %:    99.9562   MPKI: 0.06845
LLC RFO       ACCESS:     111565  HIT:         99  MISS:     111466  HIT %:  0.0887375  MISS %:    99.9113   MPKI: 1.11466
LLC PREFETCH  ACCESS:     171652  HIT:        269  MISS:     171383  HIT %:   0.156712  MISS %:    99.8433   MPKI: 1.71383
LLC WRITEBACK ACCESS:     111771  HIT:     108235  MISS:       3536  HIT %:    96.8364  MISS %:    3.16361   MPKI: 0.03536
LLC LOAD TRANSLATION ACCESS:       1061  HIT:          2  MISS:       1059  HIT %:   0.188501  MISS %:    99.8115   MPKI: 0.01059
LLC PREFETCH  REQUESTED:          0  ISSUED:          0  USEFUL:          0  USELESS:     158789
LLC USEFUL LOAD PREFETCHES:          0 PREFETCH ISSUED TO LOWER LEVEL:     171383  ACCURACY: 0
LLC TIMELY PREFETCHES:          0 LATE PREFETCHES: 0 DROPPED PREFETCHES: 0
LLC PREFETCHES SAME FILL-ORIGIN LEVEL: 0 DIFFERENT FILL-ORIGIN LEVEL: 0
LLC AVERAGE MISS LATENCY: 211.913 cycles
LLC RQ	ACCESS:     119474	FORWARD:          0	MERGED:          0	TO_CACHE:     119474
LLC WQ	ACCESS:     111771	FORWARD:          0	MERGED:          0	TO_CACHE:     111771
LLC PQ	ACCESS:     171652	FORWARD:          0	MERGED:          0	TO_CACHE:     171652

LLC Dense regions hint to LLC: 0

RAW hits: 2837226
Loads Generated: 22884063
Loads sent to L1D: 20046835
Stores Generated: 10855417
Stores sent to L1D: 10855420
Major fault: 0 Minor fault: 6008
Allocated PAGES: 6008

stream: 
stream:times selected: 266324
stream:pref_filled: 174462
stream:pref_useful: 162915
stream:pref_late: 6672
stream:misses: 599
stream:misses_by_poll: 0

CS: 
CS:times selected: 172046
CS:pref_filled: 7263
CS:pref_useful: 7138
CS:pref_late: 85
CS:misses: 34668
CS:misses_by_poll: 33

CPLX: 
CPLX:times selected: 94149
CPLX:pref_filled: 397
CPLX:pref_useful: 149
CPLX:pref_late: 9
CPLX:misses: 1869
CPLX:misses_by_poll: 0

NL_L1: 
NL:times selected: 36
NL:pref_filled: 27
NL:pref_useful: 25
NL:pref_late: 0
NL:misses: 18
NL:misses_by_poll: 0

total selections: 532555
total_filled: 165410
total_useful: 154346
total_late: 6953
total_polluted: 33
total_misses_after_warmup: 35272
conflicts: 656
Degree Incremented Times: 68937
Degree Decremented Times: 0

L1 IP Table Write Accesses: 5704763
L1 IP Table Read Accesses: 5704107
L1 RST Write Accesses: 262789
L1 RST Read Accesses: 525578
L1 CSPT Write Accesses: 262789
L1 CSPT Read Accesses: 528347
L1 RR Filter Tag Write Accesses: 241824
L1 RR Filter Tag Read Accesses: 53309204
L1 IP Table Tag Write Accesses: 5734948
L1 IP Table Tag Read Accesses: 5734948
L1 RST Tag Write Accesses: 0
L1 RST Tag Read Accesses: 2202794
L1 RR Filter Write Accesses: 0
L1 RR Filter Read Accesses: 2124721
test: 32745

DRAM Statistics
 CHANNEL 0
 RQ ROW_BUFFER_HIT:      50941  ROW_BUFFER_MISS:     239812
 DBUS_CONGESTED:         13
 WQ ROW_BUFFER_HIT:      14080  ROW_BUFFER_MISS:      93732  FULL:          0

 AVG_CONGESTED_CYCLE: 4
 All warmup complete: 2
Channel 0 Bank busy for read cycles: 0
Channel 0 Bank busy for write cycles: 0
Channel 0
Rank 0
0banks busy for read cycles: 144460135
0banks busy for write cycles: 33535
1banks busy for read cycles: 12505004
1banks busy for write cycles: 5108403
2banks busy for read cycles: 2281049
2banks busy for write cycles: 170977
3banks busy for read cycles: 1009531
3banks busy for write cycles: 61923
4banks busy for read cycles: 910660
4banks busy for write cycles: 49940
5banks busy for read cycles: 342343
5banks busy for write cycles: 32366
6banks busy for read cycles: 347712
6banks busy for write cycles: 24605
7banks busy for read cycles: 582604
7banks busy for write cycles: 128187
8banks busy for read cycles: 1008378
8banks busy for write cycles: 1508434

CPU 0 Branch Prediction Accuracy: 99.978% MPKI: 0.02252 Average ROB Occupancy at Mispredict: 32.0466
Branch types
NOT_BRANCH: 89756089 89.7561%
BRANCH_DIRECT_JUMP: 712598 0.712598%
BRANCH_INDIRECT: 16 1.6e-05%
BRANCH_CONDITIONAL: 6681200 6.6812%
BRANCH_DIRECT_CALL: 1424889 1.42489%
BRANCH_INDIRECT_CALL: 0 0%
BRANCH_RETURN: 1424891 1.42489%
BRANCH_OTHER: 0 0%

DRAM PAGES: 1048576
Allocated PAGES: 6008
