Initialize SIGNATURE TABLE
ST_SET: 1
ST_WAY: 256
ST_TAG_BIT: 16
ST_TAG_MASK: ffff

Initialize PATTERN TABLE
PT_SET: 512
PT_WAY: 4
SIG_DELTA_BIT: 7
C_SIG_BIT: 4
C_DELTA_BIT: 4

Initialize PREFETCH FILTER
FILTER_SET: 1024

Initialize PERCEPTRON
PERC_ENTRIES: 4096
PERC_FEATURES: 9

*** ChampSim Multicore Out-of-Order Simulator ***

Warmup Instructions: 50000000
Simulation Instructions: 100000000
Number of CPUs: 1
LLC sets: 2048
LLC ways: 16
Off-chip DRAM Size: 4096 MB Channels: 1 Width: 64-bit Data Rate: 6400 MT/s
CPU 0 runs ../SPEC2017//654.roms_s-1390B.champsimtrace.xz
.xz
NUM_OF_IPS_IN_CRITICAL_IP_TRAINING: 64
NUM_OF_CRITICAL_IP_TRAINING_TABLE_WAYS: 2
NUM_OF_CRITICAL_IP_TRAINING_TABLE_SETS: 32
WOBBLY_CRITICAL_IP_CACHE_SETS: 32
WOBBLY_CRITICAL_IP_CACHE_WAYS: 4
BTB has LRU replacement policy
ITLB has LRU replacement policy
DTLB has LRU replacement policy
STLB has LRU replacement policy
L1I has LRU replacement policy
L1D has LRU replacement policy
Initialize SRRIP state for L2C
Initialize DRRIP state for LLC
Heartbeat CPU 0 instructions: 10000001 cycles: 3755831 heartbeat IPC: 2.66253 cumulative IPC: 2.66253 (Simulation time: 0 hr 6 min 3 sec) 
Heartbeat CPU 0 instructions: 20000000 cycles: 7249755 heartbeat IPC: 2.86211 cumulative IPC: 2.75871 (Simulation time: 0 hr 9 min 53 sec) 
Heartbeat CPU 0 instructions: 30000003 cycles: 10666483 heartbeat IPC: 2.92678 cumulative IPC: 2.81255 (Simulation time: 0 hr 12 min 59 sec) 
Heartbeat CPU 0 instructions: 40000002 cycles: 14437982 heartbeat IPC: 2.65147 cumulative IPC: 2.77047 (Simulation time: 0 hr 17 min 27 sec) 
Heartbeat CPU 0 instructions: 50000000 cycles: 18777134 heartbeat IPC: 2.3046 cumulative IPC: 2.66281 (Simulation time: 0 hr 21 min 56 sec) 

Warmup complete CPU 0 instructions: 50000002 cycles: 18777135 (Simulation time: 0 hr 21 min 56 sec) 

% increase in all ip prefetch 235.646
% increase in all ip prefetch -0.517562
Heartbeat CPU 0 instructions: 60000001 cycles: 30785475 heartbeat IPC: 0.832755 cumulative IPC: 0.832754 (Simulation time: 0 hr 25 min 37 sec) 
Heartbeat CPU 0 instructions: 70000003 cycles: 42138618 heartbeat IPC: 0.880814 cumulative IPC: 0.85611 (Simulation time: 0 hr 28 min 52 sec) 
Heartbeat CPU 0 instructions: 80000002 cycles: 53487056 heartbeat IPC: 0.881178 cumulative IPC: 0.864306 (Simulation time: 0 hr 32 min 0 sec) 
Heartbeat CPU 0 instructions: 90000003 cycles: 66321966 heartbeat IPC: 0.779125 cumulative IPC: 0.841311 (Simulation time: 0 hr 35 min 45 sec) 
Heartbeat CPU 0 instructions: 100000000 cycles: 79874041 heartbeat IPC: 0.737894 cumulative IPC: 0.818372 (Simulation time: 0 hr 39 min 6 sec) 
Heartbeat CPU 0 instructions: 110000000 cycles: 92727176 heartbeat IPC: 0.77802 cumulative IPC: 0.811359 (Simulation time: 0 hr 42 min 6 sec) 
Heartbeat CPU 0 instructions: 120000001 cycles: 104948484 heartbeat IPC: 0.818243 cumulative IPC: 0.812335 (Simulation time: 0 hr 44 min 36 sec) 
Heartbeat CPU 0 instructions: 130000000 cycles: 116913020 heartbeat IPC: 0.835803 cumulative IPC: 0.815196 (Simulation time: 0 hr 47 min 5 sec) 
Heartbeat CPU 0 instructions: 140000001 cycles: 130455984 heartbeat IPC: 0.738391 cumulative IPC: 0.805882 (Simulation time: 0 hr 54 min 5 sec) 
Heartbeat CPU 0 instructions: 150000001 cycles: 142380305 heartbeat IPC: 0.838622 cumulative IPC: 0.809041 (Simulation time: 1 hr 1 min 7 sec) 
Finished CPU 0 instructions: 100000003 cycles: 123603171 cumulative IPC: 0.809041 (Simulation time: 1 hr 1 min 7 sec) 

ChampSim completed all CPUs

Region of Interest Statistics

CPU 0 cumulative IPC: 0.809041 instructions: 100000003 cycles: 123603171

CPU 0 Average Load ROB stall cycles: 2.60015e+07
CPU 0 Fraction of times ROB stalled by Loads: 34.5426
CPU 0 Percentage of Load stall cycles in Total stall cycles: 3.80756e+08
Issued all: 69256081
Issued LT all: 55360490
rob_not_full_when_issued_lt_all: 40925563
Issued LT one: 48107121
rob_not_full_when_issued_lt_one: 35638948
 Total stall cycles: 101055589
 Total load stall cycles: 384774848641801
CPU 0 NUM of IPS identified critical: 0
CPU 0 Num of Load IPs stalling ROB: 746
Threshold modification factor: -1
Max PIST entries: 53
Min PIST entries: 0
Avg PIST entries: 15.3067
Trouble in retire width: 0.875118
MaC = Marked as critical.
lt_50_percent_before_Mac: 0
gt_90_percent_before_Mac: 0
gt_75_percent_before_Mac: 0
gt_50_percent_before_Mac: 0
stall_proportion_bin_same_before_after: 0
stall_proportion_bin_lower_before_after: 0
stall_proportion_bin_upper_before_after: 0
average_stall_proportion_before: -nan
average_stall_proportion_after: -nan
Critical IP stalls, total frequency: 0
Non-critical IP stalls, total frequency: 5111674
Total Freq all stalling IPs: 5111674
stat_90_percent_critical_ip_stalls_freq: 4600598
stat_90_percent_non_critical_ip_stalls_freq: 511076
Critical_IP_ROB_Stalls_Bucket_0: 0
Non-critical_IP_ROB_Stalls_Bucket_0: 3634584
Critical_IP_ROB_Stalls_Bucket_1: 0
Non-critical_IP_ROB_Stalls_Bucket_1: 648086
Critical_IP_ROB_Stalls_Bucket_2: 0
Non-critical_IP_ROB_Stalls_Bucket_2: 122187
Critical_IP_ROB_Stalls_Bucket_3: 0
Non-critical_IP_ROB_Stalls_Bucket_3: 84612
Critical_IP_ROB_Stalls_Bucket_4: 0
Non-critical_IP_ROB_Stalls_Bucket_4: 68344
Critical_IP_ROB_Stalls_Bucket_5: 0
Non-critical_IP_ROB_Stalls_Bucket_5: 71281
Critical_IP_ROB_Stalls_Bucket_6: 0
Non-critical_IP_ROB_Stalls_Bucket_6: 482580
0 => IPs accounting for >50 percent of stalls, 1 => 55, 2 => 60, 3 => 65 and so on till 90.
percent50: 51.4408 num IPs:  21
percent55: 56.4971 num IPs: 24
percent60: 61.4597 num IPs: 27
percent65: 65.8832 num IPs: 30
percent70: 70.6942 num IPs: 34
percent75: 75.6347 num IPs: 40
percent80: 80.2144 num IPs: 47
percent85: 85.3677 num IPs: 56
percent90: 90.0018 num IPs: 65
Critical_ROB_Stalls_Percent_0_Bucket_0: 2009731
Non-critical_ROB_Stalls_Percent_0_Bucket_0: 1624853
Critical_ROB_Stalls_Percent_0_Bucket_1: 330660
Non-critical_ROB_Stalls_Percent_0_Bucket_1: 317426
Critical_ROB_Stalls_Percent_0_Bucket_2: 34681
Non-critical_ROB_Stalls_Percent_0_Bucket_2: 87506
Critical_ROB_Stalls_Percent_0_Bucket_3: 34116
Non-critical_ROB_Stalls_Percent_0_Bucket_3: 50496
Critical_ROB_Stalls_Percent_0_Bucket_4: 26712
Non-critical_ROB_Stalls_Percent_0_Bucket_4: 41632
Critical_ROB_Stalls_Percent_0_Bucket_5: 20964
Non-critical_ROB_Stalls_Percent_0_Bucket_5: 50317
Critical_ROB_Stalls_Percent_0_Bucket_6: 172621
Non-critical_ROB_Stalls_Percent_0_Bucket_6: 309959
Critical_ROB_Stalls_Percent_1_Bucket_0: 2150007
Non-critical_ROB_Stalls_Percent_1_Bucket_0: 1484577
Critical_ROB_Stalls_Percent_1_Bucket_1: 400469
Non-critical_ROB_Stalls_Percent_1_Bucket_1: 247617
Critical_ROB_Stalls_Percent_1_Bucket_2: 65905
Non-critical_ROB_Stalls_Percent_1_Bucket_2: 56282
Critical_ROB_Stalls_Percent_1_Bucket_3: 42585
Non-critical_ROB_Stalls_Percent_1_Bucket_3: 42027
Critical_ROB_Stalls_Percent_1_Bucket_4: 29632
Non-critical_ROB_Stalls_Percent_1_Bucket_4: 38712
Critical_ROB_Stalls_Percent_1_Bucket_5: 23901
Non-critical_ROB_Stalls_Percent_1_Bucket_5: 47380
Critical_ROB_Stalls_Percent_1_Bucket_6: 175448
Non-critical_ROB_Stalls_Percent_1_Bucket_6: 307132
Critical_ROB_Stalls_Percent_2_Bucket_0: 2388325
Non-critical_ROB_Stalls_Percent_2_Bucket_0: 1246259
Critical_ROB_Stalls_Percent_2_Bucket_1: 411566
Non-critical_ROB_Stalls_Percent_2_Bucket_1: 236520
Critical_ROB_Stalls_Percent_2_Bucket_2: 67131
Non-critical_ROB_Stalls_Percent_2_Bucket_2: 55056
Critical_ROB_Stalls_Percent_2_Bucket_3: 43345
Non-critical_ROB_Stalls_Percent_2_Bucket_3: 41267
Critical_ROB_Stalls_Percent_2_Bucket_4: 30513
Non-critical_ROB_Stalls_Percent_2_Bucket_4: 37831
Critical_ROB_Stalls_Percent_2_Bucket_5: 24882
Non-critical_ROB_Stalls_Percent_2_Bucket_5: 46399
Critical_ROB_Stalls_Percent_2_Bucket_6: 175859
Non-critical_ROB_Stalls_Percent_2_Bucket_6: 306721
Critical_ROB_Stalls_Percent_3_Bucket_0: 2537758
Non-critical_ROB_Stalls_Percent_3_Bucket_0: 1096826
Critical_ROB_Stalls_Percent_3_Bucket_1: 446634
Non-critical_ROB_Stalls_Percent_3_Bucket_1: 201452
Critical_ROB_Stalls_Percent_3_Bucket_2: 73128
Non-critical_ROB_Stalls_Percent_3_Bucket_2: 49059
Critical_ROB_Stalls_Percent_3_Bucket_3: 46875
Non-critical_ROB_Stalls_Percent_3_Bucket_3: 37737
Critical_ROB_Stalls_Percent_3_Bucket_4: 33816
Non-critical_ROB_Stalls_Percent_3_Bucket_4: 34528
Critical_ROB_Stalls_Percent_3_Bucket_5: 28982
Non-critical_ROB_Stalls_Percent_3_Bucket_5: 42299
Critical_ROB_Stalls_Percent_3_Bucket_6: 200542
Non-critical_ROB_Stalls_Percent_3_Bucket_6: 282038
Critical_ROB_Stalls_Percent_4_Bucket_0: 2727291
Non-critical_ROB_Stalls_Percent_4_Bucket_0: 907293
Critical_ROB_Stalls_Percent_4_Bucket_1: 478654
Non-critical_ROB_Stalls_Percent_4_Bucket_1: 169432
Critical_ROB_Stalls_Percent_4_Bucket_2: 88567
Non-critical_ROB_Stalls_Percent_4_Bucket_2: 33620
Critical_ROB_Stalls_Percent_4_Bucket_3: 50259
Non-critical_ROB_Stalls_Percent_4_Bucket_3: 34353
Critical_ROB_Stalls_Percent_4_Bucket_4: 35622
Non-critical_ROB_Stalls_Percent_4_Bucket_4: 32722
Critical_ROB_Stalls_Percent_4_Bucket_5: 30719
Non-critical_ROB_Stalls_Percent_4_Bucket_5: 40562
Critical_ROB_Stalls_Percent_4_Bucket_6: 202547
Non-critical_ROB_Stalls_Percent_4_Bucket_6: 280033
Critical_ROB_Stalls_Percent_5_Bucket_0: 2895980
Non-critical_ROB_Stalls_Percent_5_Bucket_0: 738604
Critical_ROB_Stalls_Percent_5_Bucket_1: 500350
Non-critical_ROB_Stalls_Percent_5_Bucket_1: 147736
Critical_ROB_Stalls_Percent_5_Bucket_2: 93076
Non-critical_ROB_Stalls_Percent_5_Bucket_2: 29111
Critical_ROB_Stalls_Percent_5_Bucket_3: 54514
Non-critical_ROB_Stalls_Percent_5_Bucket_3: 30098
Critical_ROB_Stalls_Percent_5_Bucket_4: 39646
Non-critical_ROB_Stalls_Percent_5_Bucket_4: 28698
Critical_ROB_Stalls_Percent_5_Bucket_5: 33274
Non-critical_ROB_Stalls_Percent_5_Bucket_5: 38007
Critical_ROB_Stalls_Percent_5_Bucket_6: 249356
Non-critical_ROB_Stalls_Percent_5_Bucket_6: 233224
Critical_ROB_Stalls_Percent_6_Bucket_0: 3044448
Non-critical_ROB_Stalls_Percent_6_Bucket_0: 590136
Critical_ROB_Stalls_Percent_6_Bucket_1: 547786
Non-critical_ROB_Stalls_Percent_6_Bucket_1: 100300
Critical_ROB_Stalls_Percent_6_Bucket_2: 99107
Non-critical_ROB_Stalls_Percent_6_Bucket_2: 23080
Critical_ROB_Stalls_Percent_6_Bucket_3: 60133
Non-critical_ROB_Stalls_Percent_6_Bucket_3: 24479
Critical_ROB_Stalls_Percent_6_Bucket_4: 44117
Non-critical_ROB_Stalls_Percent_6_Bucket_4: 24227
Critical_ROB_Stalls_Percent_6_Bucket_5: 37376
Non-critical_ROB_Stalls_Percent_6_Bucket_5: 33905
Critical_ROB_Stalls_Percent_6_Bucket_6: 267329
Non-critical_ROB_Stalls_Percent_6_Bucket_6: 215251
Critical_ROB_Stalls_Percent_7_Bucket_0: 3255819
Non-critical_ROB_Stalls_Percent_7_Bucket_0: 378765
Critical_ROB_Stalls_Percent_7_Bucket_1: 557364
Non-critical_ROB_Stalls_Percent_7_Bucket_1: 90722
Critical_ROB_Stalls_Percent_7_Bucket_2: 101641
Non-critical_ROB_Stalls_Percent_7_Bucket_2: 20546
Critical_ROB_Stalls_Percent_7_Bucket_3: 62877
Non-critical_ROB_Stalls_Percent_7_Bucket_3: 21735
Critical_ROB_Stalls_Percent_7_Bucket_4: 48107
Non-critical_ROB_Stalls_Percent_7_Bucket_4: 20237
Critical_ROB_Stalls_Percent_7_Bucket_5: 38734
Non-critical_ROB_Stalls_Percent_7_Bucket_5: 32547
Critical_ROB_Stalls_Percent_7_Bucket_6: 299177
Non-critical_ROB_Stalls_Percent_7_Bucket_6: 183403
Critical_ROB_Stalls_Percent_8_Bucket_0: 3466635
Non-critical_ROB_Stalls_Percent_8_Bucket_0: 167949
Critical_ROB_Stalls_Percent_8_Bucket_1: 568224
Non-critical_ROB_Stalls_Percent_8_Bucket_1: 79862
Critical_ROB_Stalls_Percent_8_Bucket_2: 103939
Non-critical_ROB_Stalls_Percent_8_Bucket_2: 18248
Critical_ROB_Stalls_Percent_8_Bucket_3: 65449
Non-critical_ROB_Stalls_Percent_8_Bucket_3: 19163
Critical_ROB_Stalls_Percent_8_Bucket_4: 51642
Non-critical_ROB_Stalls_Percent_8_Bucket_4: 16702
Critical_ROB_Stalls_Percent_8_Bucket_5: 41057
Non-critical_ROB_Stalls_Percent_8_Bucket_5: 30224
Critical_ROB_Stalls_Percent_8_Bucket_6: 303652
Non-critical_ROB_Stalls_Percent_8_Bucket_6: 178928
Average ROB occupancy Load Stall Begin: 64.6824
Average ROB occupancy Load Stall End: 74.6538
Min ROB occupancy Load Stall Begin: 1
Max ROB occupancy Load Stall Begin: 352
Min ROB occupancy Load Stall End: 1
Max ROB occupancy Load Stall End: 352
Average ROB occupancy Critical Load Stall Begin: -nan
Average ROB occupancy Critical Load Stall End: -nan
Min ROB occupancy Critical Load Stall Begin: 400
Max ROB occupancy Critical Load Stall Begin: 0
Min ROB occupancy Critical Load Stall End: 400
Max ROB occupancy Critical Load Stall End: 0
 ROB Load Stall Begin Bucket Count 0: 4017710
 ROB Load Stall End Bucket Count 0: 3634584
 ROB Critical Load Stall Begin Bucket Count 0: 0
 ROB Critical Load Stall End Bucket Count 0: 0
 ROB Load Stall Begin Bucket Count 1: 326233
 ROB Load Stall End Bucket Count 1: 648086
 ROB Critical Load Stall Begin Bucket Count 1: 0
 ROB Critical Load Stall End Bucket Count 1: 0
 ROB Load Stall Begin Bucket Count 2: 112100
 ROB Load Stall End Bucket Count 2: 122187
 ROB Critical Load Stall Begin Bucket Count 2: 0
 ROB Critical Load Stall End Bucket Count 2: 0
 ROB Load Stall Begin Bucket Count 3: 76609
 ROB Load Stall End Bucket Count 3: 84612
 ROB Critical Load Stall Begin Bucket Count 3: 0
 ROB Critical Load Stall End Bucket Count 3: 0
 ROB Load Stall Begin Bucket Count 4: 59644
 ROB Load Stall End Bucket Count 4: 68344
 ROB Critical Load Stall Begin Bucket Count 4: 0
 ROB Critical Load Stall End Bucket Count 4: 0
 ROB Load Stall Begin Bucket Count 5: 90814
 ROB Load Stall End Bucket Count 5: 71281
 ROB Critical Load Stall Begin Bucket Count 5: 0
 ROB Critical Load Stall End Bucket Count 5: 0
 ROB Load Stall Begin Bucket Count 6: 428564
 ROB Load Stall End Bucket Count 6: 482580
 ROB Critical Load Stall Begin Bucket Count 6: 0
 ROB Critical Load Stall End Bucket Count 6: 0
PIST Tag Read Accesses: 119764
PIST Read Accesses: 59882
PIST Tag Write Accesses: 119764
PIST Write Accesses: 59882
Criticality detector called times: 464219
Max global_stall_cycles_count: 672096
Threshold Modified: 1 times, factor: -1
Sturdy critical IP cache stats: 
 Unused entries: 0
CIC Tag Read Accesses: 0
CIC Read Accesses: 0
CIC Tag Write Accesses: 0
CIC Write Accesses: 0
Wobbly critical IP cache stats: 
 Unused entries: 8
CIC Tag Read Accesses: 215822553
CIC Read Accesses: 0
CIC Tag Write Accesses: 2820040
CIC Write Accesses: 0
ITLB TOTAL     ACCESS:   14507936  HIT:   14507931  MISS:          5  HIT %:        100  MISS %: 3.44639e-05   MPKI: 5e-05
ITLB LOAD TRANSLATION ACCESS:   14507936  HIT:   14507931  MISS:          5  HIT %:        100  MISS %: 3.44639e-05   MPKI: 5e-05
ITLB PREFETCH  REQUESTED:          0  ISSUED:          0  USEFUL:          0  USELESS:          0
ITLB USEFUL LOAD PREFETCHES:          0 PREFETCH ISSUED TO LOWER LEVEL:          0  ACCURACY: -nan
ITLB TIMELY PREFETCHES:          0 LATE PREFETCHES: 0 DROPPED PREFETCHES: 0
ITLB PREFETCHES SAME FILL-ORIGIN LEVEL: 0 DIFFERENT FILL-ORIGIN LEVEL: 0
ITLB AVERAGE MISS LATENCY: 362.2 cycles
ITLB RQ	ACCESS:   17896417	FORWARD:          0	MERGED:    3388481	TO_CACHE:   14507936

DTLB TOTAL     ACCESS:   21236903  HIT:   21189972  MISS:      46931  HIT %:     99.779  MISS %:   0.220988   MPKI: 0.46931
DTLB LOAD TRANSLATION ACCESS:   21236903  HIT:   21189972  MISS:      46931  HIT %:     99.779  MISS %:   0.220988   MPKI: 0.46931
DTLB PREFETCH  REQUESTED:          0  ISSUED:          0  USEFUL:          0  USELESS:          0
DTLB USEFUL LOAD PREFETCHES:          0 PREFETCH ISSUED TO LOWER LEVEL:          0  ACCURACY: -nan
DTLB TIMELY PREFETCHES:          0 LATE PREFETCHES: 0 DROPPED PREFETCHES: 0
DTLB PREFETCHES SAME FILL-ORIGIN LEVEL: 0 DIFFERENT FILL-ORIGIN LEVEL: 0
DTLB AVERAGE MISS LATENCY: 117.67 cycles
DTLB RQ	ACCESS:   22575305	FORWARD:          0	MERGED:    1306045	TO_CACHE:   21269260

STLB TOTAL     ACCESS:      46936  HIT:       1839  MISS:      45097  HIT %:     3.9181  MISS %:    96.0819   MPKI: 0.45097
STLB LOAD TRANSLATION ACCESS:      46936  HIT:       1839  MISS:      45097  HIT %:     3.9181  MISS %:    96.0819   MPKI: 0.45097
STLB PREFETCH  REQUESTED:          0  ISSUED:          0  USEFUL:          0  USELESS:          0
STLB USEFUL LOAD PREFETCHES:          0 PREFETCH ISSUED TO LOWER LEVEL:          0  ACCURACY: -nan
STLB TIMELY PREFETCHES:          0 LATE PREFETCHES: 0 DROPPED PREFETCHES: 0
STLB PREFETCHES SAME FILL-ORIGIN LEVEL: 0 DIFFERENT FILL-ORIGIN LEVEL: 0
STLB AVERAGE MISS LATENCY: 112.922 cycles
STLB RQ	ACCESS:      46936	FORWARD:          0	MERGED:          0	TO_CACHE:      46936

STLB Hit, L1D data hit: 0
STLB Hit, L2C data hit: 0
STLB Hit, LLC data hit: 0
STLB Hit, LLC data miss: 0
STLB STLB hints to L2: 0
L1D TOTAL     ACCESS:   19645830  HIT:   17097140  MISS:    2548690  HIT %:    87.0268  MISS %:    12.9732   MPKI: 25.4869
L1D LOAD      ACCESS:   18202146  HIT:   16249413  MISS:    1952733  HIT %:     89.272  MISS %:     10.728   MPKI: 19.5273
L1D RFO       ACCESS:    1443684  HIT:     847727  MISS:     595957  HIT %:    58.7197  MISS %:    41.2803   MPKI: 5.95957
L1D PREFETCH  REQUESTED:          0  ISSUED:          0  USEFUL:          0  USELESS:          0
L1D USEFUL LOAD PREFETCHES:          0 PREFETCH ISSUED TO LOWER LEVEL:          0  ACCURACY: -nan
L1D TIMELY PREFETCHES:          0 LATE PREFETCHES: 0 DROPPED PREFETCHES: 0
L1D PREFETCHES SAME FILL-ORIGIN LEVEL: 0 DIFFERENT FILL-ORIGIN LEVEL: 0
L1D AVERAGE MISS LATENCY: 92.0488 cycles
L1D RQ	ACCESS:   29526097	FORWARD:          0	MERGED:   11047852	TO_CACHE:   18477142
L1D WQ	ACCESS:    4098163	FORWARD:       1103	MERGED:          0	TO_CACHE:    4098163

L1D UNIQUE REGIONS ACCESSED: 0
L1D REGIONS CONFLICTS: 0
L1D Cross Page Prefetch Requests: 0
L1D Same Page Prefetch Requests: 0
L1D ROI Sum of L1D PQ occupancy: 0
L1D PREFETCHES PUSHED FROM L2C: 0
L1I TOTAL     ACCESS:   17896234  HIT:   17895902  MISS:        332  HIT %:    99.9981  MISS %: 0.00185514   MPKI: 0.00332
L1I LOAD      ACCESS:   17896234  HIT:   17895902  MISS:        332  HIT %:    99.9981  MISS %: 0.00185514   MPKI: 0.00332
L1I PREFETCH  REQUESTED:          0  ISSUED:          0  USEFUL:          0  USELESS:          0
L1I USEFUL LOAD PREFETCHES:          0 PREFETCH ISSUED TO LOWER LEVEL:          0  ACCURACY: -nan
L1I TIMELY PREFETCHES:          0 LATE PREFETCHES: 0 DROPPED PREFETCHES: 0
L1I PREFETCHES SAME FILL-ORIGIN LEVEL: 0 DIFFERENT FILL-ORIGIN LEVEL: 0
L1I AVERAGE MISS LATENCY: 247.741 cycles
L1I RQ	ACCESS:   25632087	FORWARD:          0	MERGED:    7735670	TO_CACHE:   17896417

BTB TOTAL     ACCESS:    3186003  HIT:    3185934  MISS:         69  HIT %:    99.9978  MISS %: 0.00216572   MPKI: 0.00069
BTB BRANCH_DIRECT_JUMP	ACCESS:        512  HIT:        511  MISS:          1
BTB BRANCH_INDIRECT	ACCESS:          0  HIT:          0  MISS:          0
BTB BRANCH_CONDITIONAL	ACCESS:    3185485  HIT:    3185423  MISS:         62
BTB BRANCH_DIRECT_CALL	ACCESS:          3  HIT:          0  MISS:          3
BTB BRANCH_INDIRECT_CALL	ACCESS:          0  HIT:          0  MISS:          0
BTB BRANCH_RETURN	ACCESS:          3  HIT:          0  MISS:          3
BTB BRANCH_OTHER ACCESS:          0  HIT:          0  MISS:          0

L2C TOTAL     ACCESS:    5362081  HIT:    2965855  MISS:    2396226  HIT %:    55.3116  MISS %:    44.6884   MPKI: 23.9623
L2C LOAD      ACCESS:    1953063  HIT:    1824703  MISS:     128360  HIT %:    93.4278  MISS %:    6.57224   MPKI: 1.2836
L2C DATA LOAD MPKI: 1.28028
L2C INSTRUCTION LOAD MPKI: 0.00332
L2C RFO       ACCESS:     595957  HIT:          4  MISS:     595953  HIT %: 0.000671189  MISS %:    99.9993   MPKI: 5.95953
L2C PREFETCH  ACCESS:    2037063  HIT:     398520  MISS:    1638543  HIT %:    19.5635  MISS %:    80.4365   MPKI: 16.3854
L2C DATA PREFETCH MPKI: 16.3854
L2C INSTRUCTION PREFETCH MPKI: 0
L2C WRITEBACK ACCESS:     730820  HIT:     706137  MISS:      24683  HIT %:    96.6226  MISS %:    3.37744   MPKI: 0.24683
L2C LOAD TRANSLATION ACCESS:      45178  HIT:      36491  MISS:       8687  HIT %:    80.7716  MISS %:    19.2284   MPKI: 0.08687
L2C PREFETCH  REQUESTED:    2158896  ISSUED:    2158895  USEFUL:    1567183  USELESS:      71012
L2C USEFUL LOAD PREFETCHES:    1567183 PREFETCH ISSUED TO LOWER LEVEL:    1694276  ACCURACY: 92.4987
L2C TIMELY PREFETCHES:    1567183 LATE PREFETCHES: 55722 DROPPED PREFETCHES: 0
L2C PREFETCHES SAME FILL-ORIGIN LEVEL: 1694273 DIFFERENT FILL-ORIGIN LEVEL: 3
L2C AVERAGE MISS LATENCY: 277.997 cycles
L2C RQ	ACCESS:    2594202	FORWARD:          0	MERGED:          0	TO_CACHE:    2594200
L2C WQ	ACCESS:     730820	FORWARD:          2	MERGED:          0	TO_CACHE:     730820
L2C PQ	ACCESS:    2158895	FORWARD:          0	MERGED:      10401	TO_CACHE:    2148494

L2C Instructions Evicting Data 331
L2C Translations Evicting Data 8659
L2C Data Evicting Data 2353651
L2C Instructions Evicting Instructions 0
L2C Translations Evicting Instructions 4
L2C Data Evicting Instructions 327
L2C Instructions Evicting Translations 1
L2C Translations Evicting Translations 24
L2C Data Evicting Translations 8546
L2C Dense regions hint from L2: 0
PSCL5 TOTAL     ACCESS:      45097  HIT:      45097  MISS:          0  HIT %:        100  MISS %:          0   MPKI: 0
PSCL5 LOAD TRANSLATION ACCESS:      45097  HIT:      45097  MISS:          0  HIT %:        100  MISS %:          0   MPKI: 0
PSCL5 PREFETCH  REQUESTED:          0  ISSUED:          0  USEFUL:          0  USELESS:          0
PSCL5 USEFUL LOAD PREFETCHES:          0 PREFETCH ISSUED TO LOWER LEVEL:          0  ACCURACY: -nan
PSCL5 TIMELY PREFETCHES:          0 LATE PREFETCHES: 0 DROPPED PREFETCHES: 0
PSCL5 PREFETCHES SAME FILL-ORIGIN LEVEL: 0 DIFFERENT FILL-ORIGIN LEVEL: 0

PSCL4 TOTAL     ACCESS:      45097  HIT:      45097  MISS:          0  HIT %:        100  MISS %:          0   MPKI: 0
PSCL4 LOAD TRANSLATION ACCESS:      45097  HIT:      45097  MISS:          0  HIT %:        100  MISS %:          0   MPKI: 0
PSCL4 PREFETCH  REQUESTED:          0  ISSUED:          0  USEFUL:          0  USELESS:          0
PSCL4 USEFUL LOAD PREFETCHES:          0 PREFETCH ISSUED TO LOWER LEVEL:          0  ACCURACY: -nan
PSCL4 TIMELY PREFETCHES:          0 LATE PREFETCHES: 0 DROPPED PREFETCHES: 0
PSCL4 PREFETCHES SAME FILL-ORIGIN LEVEL: 0 DIFFERENT FILL-ORIGIN LEVEL: 0

PSCL3 TOTAL     ACCESS:      44836  HIT:      44834  MISS:          2  HIT %:    99.9955  MISS %:  0.0044607   MPKI: 2e-05
PSCL3 LOAD TRANSLATION ACCESS:      44836  HIT:      44834  MISS:          2  HIT %:    99.9955  MISS %:  0.0044607   MPKI: 2e-05
PSCL3 PREFETCH  REQUESTED:          0  ISSUED:          0  USEFUL:          0  USELESS:          0
PSCL3 USEFUL LOAD PREFETCHES:          0 PREFETCH ISSUED TO LOWER LEVEL:          0  ACCURACY: -nan
PSCL3 TIMELY PREFETCHES:          0 LATE PREFETCHES: 0 DROPPED PREFETCHES: 0
PSCL3 PREFETCHES SAME FILL-ORIGIN LEVEL: 0 DIFFERENT FILL-ORIGIN LEVEL: 0

PSCL2 TOTAL     ACCESS:      45097  HIT:      44993  MISS:        104  HIT %:    99.7694  MISS %:   0.230614   MPKI: 0.00104
PSCL2 LOAD TRANSLATION ACCESS:      45097  HIT:      44993  MISS:        104  HIT %:    99.7694  MISS %:   0.230614   MPKI: 0.00104
PSCL2 PREFETCH  REQUESTED:          0  ISSUED:          0  USEFUL:          0  USELESS:          0
PSCL2 USEFUL LOAD PREFETCHES:          0 PREFETCH ISSUED TO LOWER LEVEL:          0  ACCURACY: -nan
PSCL2 TIMELY PREFETCHES:          0 LATE PREFETCHES: 0 DROPPED PREFETCHES: 0
PSCL2 PREFETCHES SAME FILL-ORIGIN LEVEL: 0 DIFFERENT FILL-ORIGIN LEVEL: 0

LLC TOTAL     ACCESS:    3103244  HIT:     246298  MISS:    2856946  HIT %:    7.93679  MISS %:    92.0632   MPKI: 28.5695
LLC LOAD      ACCESS:      72638  HIT:       1917  MISS:      70721  HIT %:    2.63911  MISS %:    97.3609   MPKI: 0.70721
LLC RFO       ACCESS:     595953  HIT:       9240  MISS:     586713  HIT %:    1.55046  MISS %:    98.4495   MPKI: 5.86713
LLC PREFETCH  ACCESS:    1694269  HIT:      19932  MISS:    1674337  HIT %:    1.17644  MISS %:    98.8236   MPKI: 16.7434
LLC WRITEBACK ACCESS:     731697  HIT:     215059  MISS:     516638  HIT %:    29.3918  MISS %:    70.6082   MPKI: 5.16638
LLC LOAD TRANSLATION ACCESS:       8687  HIT:        150  MISS:       8537  HIT %:    1.72672  MISS %:    98.2733   MPKI: 0.08537
LLC PREFETCH  REQUESTED:          0  ISSUED:          0  USEFUL:        867  USELESS:    1683132
LLC USEFUL LOAD PREFETCHES:        867 PREFETCH ISSUED TO LOWER LEVEL:    1674344  ACCURACY: 0.0517815
LLC TIMELY PREFETCHES:        867 LATE PREFETCHES: 0 DROPPED PREFETCHES: 0
LLC PREFETCHES SAME FILL-ORIGIN LEVEL: 3 DIFFERENT FILL-ORIGIN LEVEL: 0
LLC AVERAGE MISS LATENCY: 214.372 cycles
LLC RQ	ACCESS:     677279	FORWARD:          0	MERGED:          0	TO_CACHE:     677279
LLC WQ	ACCESS:     731697	FORWARD:          0	MERGED:          0	TO_CACHE:     731697
LLC PQ	ACCESS:    1694276	FORWARD:          0	MERGED:          0	TO_CACHE:    1694276

LLC Dense regions hint to LLC: 0

RAW hits: 8865
Loads Generated: 29534975
Loads sent to L1D: 29526097
Stores Generated: 4098297
Stores sent to L1D: 4098298
Major fault: 0 Minor fault: 39258
Allocated PAGES: 39258
------------------
Depth Distribution
------------------
depth 0: 15504
depth 1: 1714
depth 2: 4689
depth 3: 23157
depth 4: 181409
depth 5: 327108
depth 6: 250490
depth 7: 495643
depth 8: 541035
depth 9: 871811
depth 10: 90849
depth 11: 235738
depth 12: 116339
depth 13: 21385
depth 14: 128981
depth 15: 13175
depth 16: 8256
depth 17: 3535
depth 18: 1775
depth 19: 114
depth 20: 0
depth 21: 0
depth 22: 0
depth 23: 0
depth 24: 0
depth 25: 0
depth 26: 0
depth 27: 0
depth 28: 0
depth 29: 0
Total: 3332707
------------------
ST read accesses: 1916144
ST write accesses: 36587
PT read accesses: 88104793
PT write accesses: 2860626
FILTER read accesses: 18707592
FILTER write accesses: 8650754
GHR read accesses: 7494476
GHR write accesses: 1265581
PERC read accesses: 636037686
PERC write accesses: 18236208
GHR counter read accesses: 3905462
GHR counter write accesses: 6414545
GHR ip read accesses: 12334899
GHR ip write accesses: 7810924
ST tag read accesses: 770042654
ST tag write accesses: 18516550

DRAM Statistics
 CHANNEL 0
 RQ ROW_BUFFER_HIT:     342534  ROW_BUFFER_MISS:    1997633
 DBUS_CONGESTED:        450
 WQ ROW_BUFFER_HIT:     137456  ROW_BUFFER_MISS:     571557  FULL:       1610

 AVG_CONGESTED_CYCLE: 4
 All warmup complete: 2
Channel 0 Bank busy for read cycles: 0
Channel 0 Bank busy for write cycles: 0
Channel 0
Rank 0
0banks busy for read cycles: 8864559
0banks busy for write cycles: 11989
1banks busy for read cycles: 15069526
1banks busy for write cycles: 1704115
2banks busy for read cycles: 23614683
2banks busy for write cycles: 476533
3banks busy for read cycles: 16950972
3banks busy for write cycles: 237174
4banks busy for read cycles: 11652170
4banks busy for write cycles: 220022
5banks busy for read cycles: 7898239
5banks busy for write cycles: 214863
6banks busy for read cycles: 5754152
6banks busy for write cycles: 264043
7banks busy for read cycles: 4653235
7banks busy for write cycles: 1239310
8banks busy for read cycles: 7560064
8banks busy for write cycles: 17217523

CPU 0 Branch Prediction Accuracy: 99.74% MPKI: 0.08327 Average ROB Occupancy at Mispredict: 94.3502
Branch types
NOT_BRANCH: 96797549 96.7975%
BRANCH_DIRECT_JUMP: 512 0.000512%
BRANCH_INDIRECT: 0 0%
BRANCH_CONDITIONAL: 3202246 3.20225%
BRANCH_DIRECT_CALL: 3 3e-06%
BRANCH_INDIRECT_CALL: 0 0%
BRANCH_RETURN: 3 3e-06%
BRANCH_OTHER: 0 0%

DRAM PAGES: 1048576
Allocated PAGES: 39258
