
*** ChampSim Multicore Out-of-Order Simulator ***

Warmup Instructions: 50000000
Simulation Instructions: 100000000
Number of CPUs: 1
LLC sets: 2048
LLC ways: 16
Off-chip DRAM Size: 4096 MB Channels: 1 Width: 64-bit Data Rate: 6400 MT/s
CPU 0 runs ../SPEC2017//654.roms_s-523B.champsimtrace.xz
.xz
NUM_OF_IPS_IN_CRITICAL_IP_TRAINING: 64
NUM_OF_CRITICAL_IP_TRAINING_TABLE_WAYS: 2
NUM_OF_CRITICAL_IP_TRAINING_TABLE_SETS: 32
WOBBLY_CRITICAL_IP_CACHE_SETS: 32
WOBBLY_CRITICAL_IP_CACHE_WAYS: 4
BTB has LRU replacement policy
ITLB has LRU replacement policy
DTLB has LRU replacement policy
STLB has LRU replacement policy
L1I has LRU replacement policy
IP Table Entries: 64
L1D has LRU replacement policy
Initialize SRRIP state for L2C
Initialize DRRIP state for LLC
Heartbeat CPU 0 instructions: 10000002 cycles: 2873038 heartbeat IPC: 3.48064 cumulative IPC: 3.48064 (Simulation time: 0 hr 7 min 24 sec) 
Heartbeat CPU 0 instructions: 20000002 cycles: 5707414 heartbeat IPC: 3.52811 cumulative IPC: 3.50421 (Simulation time: 0 hr 13 min 43 sec) 
Heartbeat CPU 0 instructions: 30000003 cycles: 9205992 heartbeat IPC: 2.8583 cumulative IPC: 3.25875 (Simulation time: 0 hr 22 min 38 sec) 
Heartbeat CPU 0 instructions: 40000000 cycles: 12473114 heartbeat IPC: 3.0608 cumulative IPC: 3.2069 (Simulation time: 0 hr 29 min 42 sec) 
Heartbeat CPU 0 instructions: 50000001 cycles: 15548100 heartbeat IPC: 3.25205 cumulative IPC: 3.21583 (Simulation time: 0 hr 37 min 36 sec) 

Warmup complete CPU 0 instructions: 50000001 cycles: 15548100 (Simulation time: 0 hr 37 min 36 sec) 

% increase in all ip prefetch 240.094
% increase in all ip prefetch 31.8305
% increase in all ip prefetch -37.6331
Heartbeat CPU 0 instructions: 60000003 cycles: 25904854 heartbeat IPC: 0.965554 cumulative IPC: 0.965554 (Simulation time: 0 hr 44 min 24 sec) 
Heartbeat CPU 0 instructions: 70000000 cycles: 35623919 heartbeat IPC: 1.02891 cumulative IPC: 0.996223 (Simulation time: 0 hr 50 min 9 sec) 
Heartbeat CPU 0 instructions: 80000001 cycles: 44766554 heartbeat IPC: 1.09378 cumulative IPC: 1.02675 (Simulation time: 0 hr 54 min 57 sec) 
Heartbeat CPU 0 instructions: 90000003 cycles: 56183415 heartbeat IPC: 0.875898 cumulative IPC: 0.984366 (Simulation time: 0 hr 58 min 53 sec) 
Heartbeat CPU 0 instructions: 100000001 cycles: 67471164 heartbeat IPC: 0.885916 cumulative IPC: 0.962963 (Simulation time: 1 hr 1 min 56 sec) 
Heartbeat CPU 0 instructions: 110000000 cycles: 80267433 heartbeat IPC: 0.781478 cumulative IPC: 0.92708 (Simulation time: 1 hr 6 min 3 sec) 
Heartbeat CPU 0 instructions: 120000000 cycles: 93733455 heartbeat IPC: 0.74261 cumulative IPC: 0.895308 (Simulation time: 1 hr 9 min 40 sec) 
Heartbeat CPU 0 instructions: 130000002 cycles: 104237504 heartbeat IPC: 0.952014 cumulative IPC: 0.902024 (Simulation time: 1 hr 13 min 9 sec) 
Heartbeat CPU 0 instructions: 140000001 cycles: 114536537 heartbeat IPC: 0.970965 cumulative IPC: 0.909197 (Simulation time: 1 hr 16 min 19 sec) 
Heartbeat CPU 0 instructions: 150000000 cycles: 124060438 heartbeat IPC: 1.04999 cumulative IPC: 0.921554 (Simulation time: 1 hr 18 min 44 sec) 
Finished CPU 0 instructions: 100000003 cycles: 108512339 cumulative IPC: 0.921554 (Simulation time: 1 hr 18 min 44 sec) 

ChampSim completed all CPUs

Region of Interest Statistics

CPU 0 cumulative IPC: 0.921554 instructions: 100000003 cycles: 108512339

CPU 0 Average Load ROB stall cycles: 2.45128e+07
CPU 0 Fraction of times ROB stalled by Loads: 34.5074
CPU 0 Percentage of Load stall cycles in Total stall cycles: 4.09779e+08
Issued all: 59894952
Issued LT all: 47518659
rob_not_full_when_issued_lt_all: 40204540
Issued LT one: 40681729
rob_not_full_when_issued_lt_one: 33967410
 Total stall cycles: 85771601
 Total load stall cycles: 351474080560385
CPU 0 NUM of IPS identified critical: 0
CPU 0 Num of Load IPs stalling ROB: 391
Threshold modification factor: -2
Max PIST entries: 41
Min PIST entries: 0
Avg PIST entries: 8.53333
Trouble in retire width: 0.924524
MaC = Marked as critical.
lt_50_percent_before_Mac: 0
gt_90_percent_before_Mac: 0
gt_75_percent_before_Mac: 0
gt_50_percent_before_Mac: 0
stall_proportion_bin_same_before_after: 0
stall_proportion_bin_lower_before_after: 0
stall_proportion_bin_upper_before_after: 0
average_stall_proportion_before: -nan
average_stall_proportion_after: -nan
Critical IP stalls, total frequency: 0
Non-critical IP stalls, total frequency: 4947802
Total Freq all stalling IPs: 4947802
stat_90_percent_critical_ip_stalls_freq: 4460546
stat_90_percent_non_critical_ip_stalls_freq: 487256
Critical_IP_ROB_Stalls_Bucket_0: 0
Non-critical_IP_ROB_Stalls_Bucket_0: 2511895
Critical_IP_ROB_Stalls_Bucket_1: 0
Non-critical_IP_ROB_Stalls_Bucket_1: 1312484
Critical_IP_ROB_Stalls_Bucket_2: 0
Non-critical_IP_ROB_Stalls_Bucket_2: 182315
Critical_IP_ROB_Stalls_Bucket_3: 0
Non-critical_IP_ROB_Stalls_Bucket_3: 100016
Critical_IP_ROB_Stalls_Bucket_4: 0
Non-critical_IP_ROB_Stalls_Bucket_4: 136167
Critical_IP_ROB_Stalls_Bucket_5: 0
Non-critical_IP_ROB_Stalls_Bucket_5: 307164
Critical_IP_ROB_Stalls_Bucket_6: 0
Non-critical_IP_ROB_Stalls_Bucket_6: 397761
0 => IPs accounting for >50 percent of stalls, 1 => 55, 2 => 60, 3 => 65 and so on till 90.
percent50: 52.0702 num IPs:  11
percent55: 55.5207 num IPs: 12
percent60: 61.8046 num IPs: 14
percent65: 67.587 num IPs: 16
percent70: 70.1832 num IPs: 17
percent75: 75.0878 num IPs: 19
percent80: 81.1035 num IPs: 22
percent85: 85.2168 num IPs: 25
percent90: 90.1521 num IPs: 33
Critical_ROB_Stalls_Percent_0_Bucket_0: 1303158
Non-critical_ROB_Stalls_Percent_0_Bucket_0: 1208737
Critical_ROB_Stalls_Percent_0_Bucket_1: 595116
Non-critical_ROB_Stalls_Percent_0_Bucket_1: 717368
Critical_ROB_Stalls_Percent_0_Bucket_2: 76497
Non-critical_ROB_Stalls_Percent_0_Bucket_2: 105818
Critical_ROB_Stalls_Percent_0_Bucket_3: 46998
Non-critical_ROB_Stalls_Percent_0_Bucket_3: 53018
Critical_ROB_Stalls_Percent_0_Bucket_4: 86641
Non-critical_ROB_Stalls_Percent_0_Bucket_4: 49526
Critical_ROB_Stalls_Percent_0_Bucket_5: 211681
Non-critical_ROB_Stalls_Percent_0_Bucket_5: 95483
Critical_ROB_Stalls_Percent_0_Bucket_6: 256237
Non-critical_ROB_Stalls_Percent_0_Bucket_6: 141524
Critical_ROB_Stalls_Percent_1_Bucket_0: 1448285
Non-critical_ROB_Stalls_Percent_1_Bucket_0: 1063610
Critical_ROB_Stalls_Percent_1_Bucket_1: 608388
Non-critical_ROB_Stalls_Percent_1_Bucket_1: 704096
Critical_ROB_Stalls_Percent_1_Bucket_2: 79154
Non-critical_ROB_Stalls_Percent_1_Bucket_2: 103161
Critical_ROB_Stalls_Percent_1_Bucket_3: 49865
Non-critical_ROB_Stalls_Percent_1_Bucket_3: 50151
Critical_ROB_Stalls_Percent_1_Bucket_4: 88515
Non-critical_ROB_Stalls_Percent_1_Bucket_4: 47652
Critical_ROB_Stalls_Percent_1_Bucket_5: 214050
Non-critical_ROB_Stalls_Percent_1_Bucket_5: 93114
Critical_ROB_Stalls_Percent_1_Bucket_6: 258797
Non-critical_ROB_Stalls_Percent_1_Bucket_6: 138964
Critical_ROB_Stalls_Percent_2_Bucket_0: 1590895
Non-critical_ROB_Stalls_Percent_2_Bucket_0: 921000
Critical_ROB_Stalls_Percent_2_Bucket_1: 741864
Non-critical_ROB_Stalls_Percent_2_Bucket_1: 570620
Critical_ROB_Stalls_Percent_2_Bucket_2: 93697
Non-critical_ROB_Stalls_Percent_2_Bucket_2: 88618
Critical_ROB_Stalls_Percent_2_Bucket_3: 56505
Non-critical_ROB_Stalls_Percent_2_Bucket_3: 43511
Critical_ROB_Stalls_Percent_2_Bucket_4: 93163
Non-critical_ROB_Stalls_Percent_2_Bucket_4: 43004
Critical_ROB_Stalls_Percent_2_Bucket_5: 218766
Non-critical_ROB_Stalls_Percent_2_Bucket_5: 88398
Critical_ROB_Stalls_Percent_2_Bucket_6: 263081
Non-critical_ROB_Stalls_Percent_2_Bucket_6: 134680
Critical_ROB_Stalls_Percent_3_Bucket_0: 1712425
Non-critical_ROB_Stalls_Percent_3_Bucket_0: 799470
Critical_ROB_Stalls_Percent_3_Bucket_1: 889080
Non-critical_ROB_Stalls_Percent_3_Bucket_1: 423404
Critical_ROB_Stalls_Percent_3_Bucket_2: 100678
Non-critical_ROB_Stalls_Percent_3_Bucket_2: 81637
Critical_ROB_Stalls_Percent_3_Bucket_3: 59403
Non-critical_ROB_Stalls_Percent_3_Bucket_3: 40613
Critical_ROB_Stalls_Percent_3_Bucket_4: 95490
Non-critical_ROB_Stalls_Percent_3_Bucket_4: 40677
Critical_ROB_Stalls_Percent_3_Bucket_5: 221450
Non-critical_ROB_Stalls_Percent_3_Bucket_5: 85714
Critical_ROB_Stalls_Percent_3_Bucket_6: 265543
Non-critical_ROB_Stalls_Percent_3_Bucket_6: 132218
Critical_ROB_Stalls_Percent_4_Bucket_0: 1824095
Non-critical_ROB_Stalls_Percent_4_Bucket_0: 687800
Critical_ROB_Stalls_Percent_4_Bucket_1: 895906
Non-critical_ROB_Stalls_Percent_4_Bucket_1: 416578
Critical_ROB_Stalls_Percent_4_Bucket_2: 102291
Non-critical_ROB_Stalls_Percent_4_Bucket_2: 80024
Critical_ROB_Stalls_Percent_4_Bucket_3: 61424
Non-critical_ROB_Stalls_Percent_4_Bucket_3: 38592
Critical_ROB_Stalls_Percent_4_Bucket_4: 97564
Non-critical_ROB_Stalls_Percent_4_Bucket_4: 38603
Critical_ROB_Stalls_Percent_4_Bucket_5: 223271
Non-critical_ROB_Stalls_Percent_4_Bucket_5: 83893
Critical_ROB_Stalls_Percent_4_Bucket_6: 267975
Non-critical_ROB_Stalls_Percent_4_Bucket_6: 129786
Critical_ROB_Stalls_Percent_5_Bucket_0: 2049002
Non-critical_ROB_Stalls_Percent_5_Bucket_0: 462893
Critical_ROB_Stalls_Percent_5_Bucket_1: 905587
Non-critical_ROB_Stalls_Percent_5_Bucket_1: 406897
Critical_ROB_Stalls_Percent_5_Bucket_2: 103650
Non-critical_ROB_Stalls_Percent_5_Bucket_2: 78665
Critical_ROB_Stalls_Percent_5_Bucket_3: 62740
Non-critical_ROB_Stalls_Percent_5_Bucket_3: 37276
Critical_ROB_Stalls_Percent_5_Bucket_4: 99438
Non-critical_ROB_Stalls_Percent_5_Bucket_4: 36729
Critical_ROB_Stalls_Percent_5_Bucket_5: 224101
Non-critical_ROB_Stalls_Percent_5_Bucket_5: 83063
Critical_ROB_Stalls_Percent_5_Bucket_6: 270678
Non-critical_ROB_Stalls_Percent_5_Bucket_6: 127083
Critical_ROB_Stalls_Percent_6_Bucket_0: 2336967
Non-critical_ROB_Stalls_Percent_6_Bucket_0: 174928
Critical_ROB_Stalls_Percent_6_Bucket_1: 909957
Non-critical_ROB_Stalls_Percent_6_Bucket_1: 402527
Critical_ROB_Stalls_Percent_6_Bucket_2: 104634
Non-critical_ROB_Stalls_Percent_6_Bucket_2: 77681
Critical_ROB_Stalls_Percent_6_Bucket_3: 63413
Non-critical_ROB_Stalls_Percent_6_Bucket_3: 36603
Critical_ROB_Stalls_Percent_6_Bucket_4: 100648
Non-critical_ROB_Stalls_Percent_6_Bucket_4: 35519
Critical_ROB_Stalls_Percent_6_Bucket_5: 224909
Non-critical_ROB_Stalls_Percent_6_Bucket_5: 82255
Critical_ROB_Stalls_Percent_6_Bucket_6: 272311
Non-critical_ROB_Stalls_Percent_6_Bucket_6: 125450
Critical_ROB_Stalls_Percent_7_Bucket_0: 2394523
Non-critical_ROB_Stalls_Percent_7_Bucket_0: 117372
Critical_ROB_Stalls_Percent_7_Bucket_1: 981256
Non-critical_ROB_Stalls_Percent_7_Bucket_1: 331228
Critical_ROB_Stalls_Percent_7_Bucket_2: 121279
Non-critical_ROB_Stalls_Percent_7_Bucket_2: 61036
Critical_ROB_Stalls_Percent_7_Bucket_3: 66740
Non-critical_ROB_Stalls_Percent_7_Bucket_3: 33276
Critical_ROB_Stalls_Percent_7_Bucket_4: 104583
Non-critical_ROB_Stalls_Percent_7_Bucket_4: 31584
Critical_ROB_Stalls_Percent_7_Bucket_5: 244698
Non-critical_ROB_Stalls_Percent_7_Bucket_5: 62466
Critical_ROB_Stalls_Percent_7_Bucket_6: 303280
Non-critical_ROB_Stalls_Percent_7_Bucket_6: 94481
Critical_ROB_Stalls_Percent_8_Bucket_0: 2448611
Non-critical_ROB_Stalls_Percent_8_Bucket_0: 63284
Critical_ROB_Stalls_Percent_8_Bucket_1: 1086873
Non-critical_ROB_Stalls_Percent_8_Bucket_1: 225611
Critical_ROB_Stalls_Percent_8_Bucket_2: 146692
Non-critical_ROB_Stalls_Percent_8_Bucket_2: 35623
Critical_ROB_Stalls_Percent_8_Bucket_3: 75825
Non-critical_ROB_Stalls_Percent_8_Bucket_3: 24191
Critical_ROB_Stalls_Percent_8_Bucket_4: 113633
Non-critical_ROB_Stalls_Percent_8_Bucket_4: 22534
Critical_ROB_Stalls_Percent_8_Bucket_5: 259869
Non-critical_ROB_Stalls_Percent_8_Bucket_5: 47295
Critical_ROB_Stalls_Percent_8_Bucket_6: 329043
Non-critical_ROB_Stalls_Percent_8_Bucket_6: 68718
Average ROB occupancy Load Stall Begin: 84.1565
Average ROB occupancy Load Stall End: 92.9814
Min ROB occupancy Load Stall Begin: 1
Max ROB occupancy Load Stall Begin: 352
Min ROB occupancy Load Stall End: 1
Max ROB occupancy Load Stall End: 352
Average ROB occupancy Critical Load Stall Begin: -nan
Average ROB occupancy Critical Load Stall End: -nan
Min ROB occupancy Critical Load Stall Begin: 400
Max ROB occupancy Critical Load Stall Begin: 0
Min ROB occupancy Critical Load Stall End: 400
Max ROB occupancy Critical Load Stall End: 0
 ROB Load Stall Begin Bucket Count 0: 2920897
 ROB Load Stall End Bucket Count 0: 2511895
 ROB Critical Load Stall Begin Bucket Count 0: 0
 ROB Critical Load Stall End Bucket Count 0: 0
 ROB Load Stall Begin Bucket Count 1: 1007681
 ROB Load Stall End Bucket Count 1: 1312484
 ROB Critical Load Stall Begin Bucket Count 1: 0
 ROB Critical Load Stall End Bucket Count 1: 0
 ROB Load Stall Begin Bucket Count 2: 123933
 ROB Load Stall End Bucket Count 2: 182315
 ROB Critical Load Stall Begin Bucket Count 2: 0
 ROB Critical Load Stall End Bucket Count 2: 0
 ROB Load Stall Begin Bucket Count 3: 97506
 ROB Load Stall End Bucket Count 3: 100016
 ROB Critical Load Stall Begin Bucket Count 3: 0
 ROB Critical Load Stall End Bucket Count 3: 0
 ROB Load Stall Begin Bucket Count 4: 156471
 ROB Load Stall End Bucket Count 4: 136167
 ROB Critical Load Stall Begin Bucket Count 4: 0
 ROB Critical Load Stall End Bucket Count 4: 0
 ROB Load Stall Begin Bucket Count 5: 345562
 ROB Load Stall End Bucket Count 5: 307164
 ROB Critical Load Stall Begin Bucket Count 5: 0
 ROB Critical Load Stall End Bucket Count 5: 0
 ROB Load Stall Begin Bucket Count 6: 295752
 ROB Load Stall End Bucket Count 6: 397761
 ROB Critical Load Stall Begin Bucket Count 6: 0
 ROB Critical Load Stall End Bucket Count 6: 0
PIST Tag Read Accesses: 76154
PIST Read Accesses: 38077
PIST Tag Write Accesses: 76154
PIST Write Accesses: 38077
Criticality detector called times: 145830
Max global_stall_cycles_count: 296817
Threshold Modified: 2 times, factor: -2
Sturdy critical IP cache stats: 
 Unused entries: 0
CIC Tag Read Accesses: 0
CIC Read Accesses: 0
CIC Tag Write Accesses: 0
CIC Write Accesses: 0
Wobbly critical IP cache stats: 
 Unused entries: 25
CIC Tag Read Accesses: 274214853
CIC Read Accesses: 0
CIC Tag Write Accesses: 4254781
CIC Write Accesses: 0
ITLB TOTAL     ACCESS:   15307437  HIT:   15307437  MISS:          0  HIT %:        100  MISS %:          0   MPKI: 0
ITLB LOAD TRANSLATION ACCESS:   15307437  HIT:   15307437  MISS:          0  HIT %:        100  MISS %:          0   MPKI: 0
ITLB PREFETCH  REQUESTED:          0  ISSUED:          0  USEFUL:          0  USELESS:          0
ITLB USEFUL LOAD PREFETCHES:          0 PREFETCH ISSUED TO LOWER LEVEL:          0  ACCURACY: -nan
ITLB TIMELY PREFETCHES:          0 LATE PREFETCHES: 0 DROPPED PREFETCHES: 0
ITLB PREFETCHES SAME FILL-ORIGIN LEVEL: 0 DIFFERENT FILL-ORIGIN LEVEL: 0
ITLB AVERAGE MISS LATENCY: -nan cycles
ITLB RQ	ACCESS:   18185792	FORWARD:          0	MERGED:    2878356	TO_CACHE:   15307436

DTLB TOTAL     ACCESS:   26421669  HIT:   26370309  MISS:      51360  HIT %:    99.8056  MISS %:   0.194386   MPKI: 0.5136
DTLB LOAD TRANSLATION ACCESS:   26421669  HIT:   26370309  MISS:      51360  HIT %:    99.8056  MISS %:   0.194386   MPKI: 0.5136
DTLB PREFETCH  REQUESTED:          0  ISSUED:          0  USEFUL:          0  USELESS:          0
DTLB USEFUL LOAD PREFETCHES:          0 PREFETCH ISSUED TO LOWER LEVEL:          0  ACCURACY: -nan
DTLB TIMELY PREFETCHES:          0 LATE PREFETCHES: 0 DROPPED PREFETCHES: 0
DTLB PREFETCHES SAME FILL-ORIGIN LEVEL: 0 DIFFERENT FILL-ORIGIN LEVEL: 0
DTLB AVERAGE MISS LATENCY: 132.935 cycles
DTLB RQ	ACCESS:   29270159	FORWARD:          0	MERGED:    2799644	TO_CACHE:   26470515

STLB TOTAL     ACCESS:    2209533  HIT:    2158539  MISS:      50994  HIT %:    97.6921  MISS %:    2.30791   MPKI: 0.50994
STLB LOAD TRANSLATION ACCESS:      51360  HIT:        366  MISS:      50994  HIT %:   0.712617  MISS %:    99.2874   MPKI: 0.50994
STLB TRANSLATION FROM L1D PREFETCHER ACCESS:    2158173  HIT:    2158173  MISS:          0  HIT %:        100  MISS %:          0   MPKI: 0
STLB PREFETCH  REQUESTED:          0  ISSUED:          0  USEFUL:          0  USELESS:          0
STLB USEFUL LOAD PREFETCHES:          0 PREFETCH ISSUED TO LOWER LEVEL:          0  ACCURACY: -nan
STLB TIMELY PREFETCHES:          0 LATE PREFETCHES: 0 DROPPED PREFETCHES: 0
STLB PREFETCHES SAME FILL-ORIGIN LEVEL: 0 DIFFERENT FILL-ORIGIN LEVEL: 0
STLB AVERAGE MISS LATENCY: 124.682 cycles
STLB RQ	ACCESS:    4235776	FORWARD:          0	MERGED:    2026243	TO_CACHE:    2209533

STLB Hit, L1D data hit: 0
STLB Hit, L2C data hit: 0
STLB Hit, LLC data hit: 0
STLB Hit, LLC data miss: 0
STLB STLB hints to L2: 0
L1D TOTAL     ACCESS:   29227200  HIT:   26874721  MISS:    2352479  HIT %:    91.9511  MISS %:    8.04894   MPKI: 23.5248
L1D LOAD      ACCESS:   23207232  HIT:   23127142  MISS:      80090  HIT %:    99.6549  MISS %:   0.345108   MPKI: 0.8009
L1D RFO       ACCESS:    1869980  HIT:    1236916  MISS:     633064  HIT %:    66.1459  MISS %:    33.8541   MPKI: 6.33064
L1D PREFETCH  ACCESS:    4149988  HIT:    2510663  MISS:    1639325  HIT %:    60.4981  MISS %:    39.5019   MPKI: 16.3932
L1D PREFETCH  REQUESTED:    8388299  ISSUED:    8368857  USEFUL:    1537176  USELESS:     102150
L1D USEFUL LOAD PREFETCHES:    1537176 PREFETCH ISSUED TO LOWER LEVEL:    1661985  ACCURACY: 92.4904
L1D TIMELY PREFETCHES:    1537176 LATE PREFETCHES: 20039 DROPPED PREFETCHES: 0
L1D PREFETCHES SAME FILL-ORIGIN LEVEL: 1661985 DIFFERENT FILL-ORIGIN LEVEL: 0
L1D AVERAGE MISS LATENCY: 621635 cycles
L1D RQ	ACCESS:   37844922	FORWARD:          0	MERGED:   14527079	TO_CACHE:   23317537
L1D WQ	ACCESS:    5952622	FORWARD:        309	MERGED:          0	TO_CACHE:    5952622
L1D PQ	ACCESS:    4184441	FORWARD:          0	MERGED:         22	TO_CACHE:    4184416

L1D UNIQUE REGIONS ACCESSED: 0
L1D REGIONS CONFLICTS: 0
L1D Cross Page Prefetch Requests: 0
L1D Same Page Prefetch Requests: 6956263
L1D ROI Sum of L1D PQ occupancy: 57956467
L1D PREFETCHES PUSHED FROM L2C: 0
L1I TOTAL     ACCESS:   18185776  HIT:   18185744  MISS:         32  HIT %:    99.9998  MISS %: 0.000175962   MPKI: 0.00032
L1I LOAD      ACCESS:   18185776  HIT:   18185744  MISS:         32  HIT %:    99.9998  MISS %: 0.000175962   MPKI: 0.00032
L1I PREFETCH  REQUESTED:          0  ISSUED:          0  USEFUL:          0  USELESS:          0
L1I USEFUL LOAD PREFETCHES:          0 PREFETCH ISSUED TO LOWER LEVEL:          0  ACCURACY: -nan
L1I TIMELY PREFETCHES:          0 LATE PREFETCHES: 0 DROPPED PREFETCHES: 0
L1I PREFETCHES SAME FILL-ORIGIN LEVEL: 0 DIFFERENT FILL-ORIGIN LEVEL: 0
L1I AVERAGE MISS LATENCY: 293.25 cycles
L1I RQ	ACCESS:   27837076	FORWARD:          0	MERGED:    9651284	TO_CACHE:   18185792

BTB TOTAL     ACCESS:    6884680  HIT:    6884634  MISS:         46  HIT %:    99.9993  MISS %: 0.00066815   MPKI: 0.00046
BTB BRANCH_DIRECT_JUMP	ACCESS:     801236  HIT:     801231  MISS:          5
BTB BRANCH_INDIRECT	ACCESS:          0  HIT:          0  MISS:          0
BTB BRANCH_CONDITIONAL	ACCESS:    6083444  HIT:    6083403  MISS:         41
BTB BRANCH_DIRECT_CALL	ACCESS:          0  HIT:          0  MISS:          0
BTB BRANCH_INDIRECT_CALL	ACCESS:          0  HIT:          0  MISS:          0
BTB BRANCH_RETURN	ACCESS:          0  HIT:          0  MISS:          0
BTB BRANCH_OTHER ACCESS:          0  HIT:          0  MISS:          0

L2C TOTAL     ACCESS:    8892468  HIT:    6430348  MISS:    2462120  HIT %:    72.3123  MISS %:    27.6877   MPKI: 24.6212
L2C LOAD      ACCESS:      60077  HIT:       6078  MISS:      53999  HIT %:     10.117  MISS %:     89.883   MPKI: 0.53999
L2C DATA LOAD MPKI: 0.53967
L2C INSTRUCTION LOAD MPKI: 0.00032
L2C RFO       ACCESS:     633063  HIT:          1  MISS:     633062  HIT %: 0.000157962  MISS %:    99.9998   MPKI: 6.33062
L2C PREFETCH  ACCESS:    7381837  HIT:    5637120  MISS:    1744717  HIT %:    76.3647  MISS %:    23.6353   MPKI: 17.4472
L2C DATA PREFETCH MPKI: 17.4472
L2C INSTRUCTION PREFETCH MPKI: 0
L2C WRITEBACK ACCESS:     766411  HIT:     746906  MISS:      19505  HIT %:     97.455  MISS %:    2.54498   MPKI: 0.19505
L2C LOAD TRANSLATION ACCESS:      51080  HIT:      40243  MISS:      10837  HIT %:    78.7843  MISS %:    21.2157   MPKI: 0.10837
L2C PREFETCH  REQUESTED:    7777941  ISSUED:    7663184  USEFUL:       4976  USELESS:    1741159
L2C USEFUL LOAD PREFETCHES:       4976 PREFETCH ISSUED TO LOWER LEVEL:    1745276  ACCURACY: 0.285112
L2C TIMELY PREFETCHES:       4976 LATE PREFETCHES: 555 DROPPED PREFETCHES: 0
L2C PREFETCHES SAME FILL-ORIGIN LEVEL: 1472162 DIFFERENT FILL-ORIGIN LEVEL: 0
L2C AVERAGE MISS LATENCY: 278.79 cycles
L2C RQ	ACCESS:     744227	FORWARD:          0	MERGED:          0	TO_CACHE:     744221
L2C WQ	ACCESS:     766411	FORWARD:          6	MERGED:          0	TO_CACHE:     766411
L2C PQ	ACCESS:    9322548	FORWARD:          0	MERGED:     508739	TO_CACHE:    8813809

L2C Instructions Evicting Data 32
L2C Translations Evicting Data 10801
L2C Data Evicting Data 2421017
L2C Instructions Evicting Instructions 0
L2C Translations Evicting Instructions 0
L2C Data Evicting Instructions 32
L2C Instructions Evicting Translations 0
L2C Translations Evicting Translations 36
L2C Data Evicting Translations 10697
L2C Dense regions hint from L2: 0
PSCL5 TOTAL     ACCESS:      50994  HIT:      50994  MISS:          0  HIT %:        100  MISS %:          0   MPKI: 0
PSCL5 LOAD TRANSLATION ACCESS:      50994  HIT:      50994  MISS:          0  HIT %:        100  MISS %:          0   MPKI: 0
PSCL5 PREFETCH  REQUESTED:          0  ISSUED:          0  USEFUL:          0  USELESS:          0
PSCL5 USEFUL LOAD PREFETCHES:          0 PREFETCH ISSUED TO LOWER LEVEL:          0  ACCURACY: -nan
PSCL5 TIMELY PREFETCHES:          0 LATE PREFETCHES: 0 DROPPED PREFETCHES: 0
PSCL5 PREFETCHES SAME FILL-ORIGIN LEVEL: 0 DIFFERENT FILL-ORIGIN LEVEL: 0

PSCL4 TOTAL     ACCESS:      50994  HIT:      50994  MISS:          0  HIT %:        100  MISS %:          0   MPKI: 0
PSCL4 LOAD TRANSLATION ACCESS:      50994  HIT:      50994  MISS:          0  HIT %:        100  MISS %:          0   MPKI: 0
PSCL4 PREFETCH  REQUESTED:          0  ISSUED:          0  USEFUL:          0  USELESS:          0
PSCL4 USEFUL LOAD PREFETCHES:          0 PREFETCH ISSUED TO LOWER LEVEL:          0  ACCURACY: -nan
PSCL4 TIMELY PREFETCHES:          0 LATE PREFETCHES: 0 DROPPED PREFETCHES: 0
PSCL4 PREFETCHES SAME FILL-ORIGIN LEVEL: 0 DIFFERENT FILL-ORIGIN LEVEL: 0

PSCL3 TOTAL     ACCESS:      50994  HIT:      50994  MISS:          0  HIT %:        100  MISS %:          0   MPKI: 0
PSCL3 LOAD TRANSLATION ACCESS:      50994  HIT:      50994  MISS:          0  HIT %:        100  MISS %:          0   MPKI: 0
PSCL3 PREFETCH  REQUESTED:          0  ISSUED:          0  USEFUL:          0  USELESS:          0
PSCL3 USEFUL LOAD PREFETCHES:          0 PREFETCH ISSUED TO LOWER LEVEL:          0  ACCURACY: -nan
PSCL3 TIMELY PREFETCHES:          0 LATE PREFETCHES: 0 DROPPED PREFETCHES: 0
PSCL3 PREFETCHES SAME FILL-ORIGIN LEVEL: 0 DIFFERENT FILL-ORIGIN LEVEL: 0

PSCL2 TOTAL     ACCESS:      50994  HIT:      50871  MISS:        123  HIT %:    99.7588  MISS %:   0.241205   MPKI: 0.00123
PSCL2 LOAD TRANSLATION ACCESS:      50994  HIT:      50871  MISS:        123  HIT %:    99.7588  MISS %:   0.241205   MPKI: 0.00123
PSCL2 PREFETCH  REQUESTED:          0  ISSUED:          0  USEFUL:          0  USELESS:          0
PSCL2 USEFUL LOAD PREFETCHES:          0 PREFETCH ISSUED TO LOWER LEVEL:          0  ACCURACY: -nan
PSCL2 TIMELY PREFETCHES:          0 LATE PREFETCHES: 0 DROPPED PREFETCHES: 0
PSCL2 PREFETCHES SAME FILL-ORIGIN LEVEL: 0 DIFFERENT FILL-ORIGIN LEVEL: 0

LLC TOTAL     ACCESS:    3207263  HIT:     753667  MISS:    2453596  HIT %:    23.4988  MISS %:    76.5012   MPKI: 24.536
LLC LOAD      ACCESS:      53445  HIT:        127  MISS:      53318  HIT %:   0.237627  MISS %:    99.7624   MPKI: 0.53318
LLC RFO       ACCESS:     633061  HIT:          0  MISS:     633061  HIT %:          0  MISS %:        100   MPKI: 6.33061
LLC PREFETCH  ACCESS:    1745272  HIT:        414  MISS:    1744858  HIT %:  0.0237212  MISS %:    99.9763   MPKI: 17.4486
LLC WRITEBACK ACCESS:     764648  HIT:     752971  MISS:      11677  HIT %:    98.4729  MISS %:    1.52711   MPKI: 0.11677
LLC LOAD TRANSLATION ACCESS:      10837  HIT:        155  MISS:      10682  HIT %:    1.43029  MISS %:    98.5697   MPKI: 0.10682
LLC PREFETCH  REQUESTED:          0  ISSUED:          0  USEFUL:         11  USELESS:    1753831
LLC USEFUL LOAD PREFETCHES:         11 PREFETCH ISSUED TO LOWER LEVEL:    1744862  ACCURACY: 0.000630422
LLC TIMELY PREFETCHES:         11 LATE PREFETCHES: 0 DROPPED PREFETCHES: 0
LLC PREFETCHES SAME FILL-ORIGIN LEVEL: 0 DIFFERENT FILL-ORIGIN LEVEL: 0
LLC AVERAGE MISS LATENCY: 249.454 cycles
LLC RQ	ACCESS:     697344	FORWARD:          0	MERGED:          0	TO_CACHE:     697344
LLC WQ	ACCESS:     764648	FORWARD:          0	MERGED:          0	TO_CACHE:     764648
LLC PQ	ACCESS:    1745276	FORWARD:          0	MERGED:          0	TO_CACHE:    1745276

LLC Dense regions hint to LLC: 0

RAW hits: 9086
Loads Generated: 37854009
Loads sent to L1D: 37844922
Stores Generated: 5952621
Stores sent to L1D: 5952622
Major fault: 0 Minor fault: 27917
Allocated PAGES: 27917

stream: 
stream:times selected: 5358218
stream:pref_filled: 2565513
stream:pref_useful: 2412011
stream:pref_late: 20157
stream:misses: 399
stream:misses_by_poll: 0

CS: 
CS:times selected: 5062154
CS:pref_filled: 2896
CS:pref_useful: 2669
CS:pref_late: 124
CS:misses: 200339
CS:misses_by_poll: 13

CPLX: 
CPLX:times selected: 295986
CPLX:pref_filled: 471
CPLX:pref_useful: 70
CPLX:pref_late: 5
CPLX:misses: 8779
CPLX:misses_by_poll: 1

NL_L1: 
NL:times selected: 136
NL:pref_filled: 1
NL:pref_useful: 1
NL:pref_late: 0
NL:misses: 19
NL:misses_by_poll: 0

total selections: 10716494
total_filled: 1639325
total_useful: 1537176
total_late: 20784
total_polluted: 14
total_misses_after_warmup: 190396
conflicts: 176883
Degree Incremented Times: 248229
Degree Decremented Times: 12002

L1 IP Table Write Accesses: 22251939
L1 IP Table Read Accesses: 22075056
L1 RST Write Accesses: 3671552
L1 RST Read Accesses: 7343104
L1 CSPT Write Accesses: 3671552
L1 CSPT Read Accesses: 3986801
L1 RR Filter Tag Write Accesses: 4203883
L1 RR Filter Tag Read Accesses: 670393090
L1 IP Table Tag Write Accesses: 23317538
L1 IP Table Tag Read Accesses: 23317538
L1 RST Tag Write Accesses: 0
L1 RST Tag Read Accesses: 33028273
L1 RR Filter Write Accesses: 0
L1 RR Filter Read Accesses: 30052906
test: 123969
L2 IP Table Read Accesses: 2777083
L2 IP Table Write Accesses: 2722797
L2 IP Table Tag Read Accesses: 1391827
L2 IP Table Tag Write Accesses: 1391827

DRAM Statistics
 CHANNEL 0
 RQ ROW_BUFFER_HIT:     309407  ROW_BUFFER_MISS:    2132511
 DBUS_CONGESTED:        214
 WQ ROW_BUFFER_HIT:     108926  ROW_BUFFER_MISS:     648177  FULL:          0

 AVG_CONGESTED_CYCLE: 7
 All warmup complete: 2
Channel 0 Bank busy for read cycles: 0
Channel 0 Bank busy for write cycles: 0
Channel 0
Rank 0
0banks busy for read cycles: 111747
0banks busy for write cycles: 296
1banks busy for read cycles: 10775764
1banks busy for write cycles: 172261
2banks busy for read cycles: 17690580
2banks busy for write cycles: 172093
3banks busy for read cycles: 15507793
3banks busy for write cycles: 168996
4banks busy for read cycles: 11241729
4banks busy for write cycles: 164519
5banks busy for read cycles: 7629079
5banks busy for write cycles: 170194
6banks busy for read cycles: 6504855
6banks busy for write cycles: 204637
7banks busy for read cycles: 8458727
7banks busy for write cycles: 1329076
8banks busy for read cycles: 9229812
8banks busy for write cycles: 18980182

CPU 0 Branch Prediction Accuracy: 99.8514% MPKI: 0.10457 Average ROB Occupancy at Mispredict: 87.518
Branch types
NOT_BRANCH: 92963856 92.9639%
BRANCH_DIRECT_JUMP: 801236 0.801236%
BRANCH_INDIRECT: 0 0%
BRANCH_CONDITIONAL: 6234623 6.23462%
BRANCH_DIRECT_CALL: 0 0%
BRANCH_INDIRECT_CALL: 0 0%
BRANCH_RETURN: 0 0%
BRANCH_OTHER: 0 0%

DRAM PAGES: 1048576
Allocated PAGES: 27917
