
*** ChampSim Multicore Out-of-Order Simulator ***

Warmup Instructions: 50000000
Simulation Instructions: 100000000
Number of CPUs: 1
LLC sets: 2048
LLC ways: 16
Off-chip DRAM Size: 4096 MB Channels: 1 Width: 64-bit Data Rate: 6400 MT/s
CPU 0 runs ../SPEC2017//654.roms_s-1007B.champsimtrace.xz
.xz
NUM_OF_IPS_IN_CRITICAL_IP_TRAINING: 64
NUM_OF_CRITICAL_IP_TRAINING_TABLE_WAYS: 2
NUM_OF_CRITICAL_IP_TRAINING_TABLE_SETS: 32
WOBBLY_CRITICAL_IP_CACHE_SETS: 32
WOBBLY_CRITICAL_IP_CACHE_WAYS: 4
BTB has LRU replacement policy
ITLB has LRU replacement policy
DTLB has LRU replacement policy
STLB has LRU replacement policy
L1I has LRU replacement policy
IP Table Entries: 64
L1D has LRU replacement policy
IP_Table L2 entries: 64
Initialize SRRIP state for L2C
Initialize DRRIP state for LLC
Heartbeat CPU 0 instructions: 10000000 cycles: 3015946 heartbeat IPC: 3.31571 cumulative IPC: 3.31571 (Simulation time: 0 hr 6 min 47 sec) 
Heartbeat CPU 0 instructions: 20000002 cycles: 6031708 heartbeat IPC: 3.31591 cumulative IPC: 3.31581 (Simulation time: 0 hr 13 min 14 sec) 
Heartbeat CPU 0 instructions: 30000000 cycles: 9047586 heartbeat IPC: 3.31578 cumulative IPC: 3.3158 (Simulation time: 0 hr 18 min 25 sec) 
Heartbeat CPU 0 instructions: 40000000 cycles: 12063374 heartbeat IPC: 3.31588 cumulative IPC: 3.31582 (Simulation time: 0 hr 23 min 9 sec) 
Heartbeat CPU 0 instructions: 50000003 cycles: 15186320 heartbeat IPC: 3.20211 cumulative IPC: 3.29244 (Simulation time: 0 hr 28 min 15 sec) 

Warmup complete CPU 0 instructions: 50000003 cycles: 15186320 (Simulation time: 0 hr 28 min 15 sec) 

% increase in all ip prefetch 283.866
% increase in all ip prefetch 10.5831
% increase in all ip prefetch 6.30696
% increase in all ip prefetch 0.00774369
Heartbeat CPU 0 instructions: 60000002 cycles: 32427565 heartbeat IPC: 0.580004 cumulative IPC: 0.580004 (Simulation time: 0 hr 32 min 32 sec) 
Heartbeat CPU 0 instructions: 70000000 cycles: 51921325 heartbeat IPC: 0.512985 cumulative IPC: 0.54444 (Simulation time: 0 hr 36 min 33 sec) 
Heartbeat CPU 0 instructions: 80000000 cycles: 71408090 heartbeat IPC: 0.513169 cumulative IPC: 0.533601 (Simulation time: 0 hr 40 min 13 sec) 
Heartbeat CPU 0 instructions: 90000000 cycles: 90890281 heartbeat IPC: 0.513289 cumulative IPC: 0.528374 (Simulation time: 0 hr 43 min 33 sec) 
Heartbeat CPU 0 instructions: 100000000 cycles: 110368168 heartbeat IPC: 0.513403 cumulative IPC: 0.52531 (Simulation time: 0 hr 46 min 43 sec) 
Heartbeat CPU 0 instructions: 110000000 cycles: 129849924 heartbeat IPC: 0.513301 cumulative IPC: 0.52327 (Simulation time: 0 hr 49 min 42 sec) 
Heartbeat CPU 0 instructions: 120000001 cycles: 147454985 heartbeat IPC: 0.568019 cumulative IPC: 0.529226 (Simulation time: 0 hr 52 min 38 sec) 
Heartbeat CPU 0 instructions: 130000002 cycles: 161951080 heartbeat IPC: 0.689841 cumulative IPC: 0.54509 (Simulation time: 0 hr 55 min 26 sec) 
Heartbeat CPU 0 instructions: 140000000 cycles: 181433190 heartbeat IPC: 0.513291 cumulative IPC: 0.541364 (Simulation time: 1 hr 0 min 53 sec) 
Heartbeat CPU 0 instructions: 150000000 cycles: 200919111 heartbeat IPC: 0.513191 cumulative IPC: 0.538408 (Simulation time: 1 hr 6 min 54 sec) 
Finished CPU 0 instructions: 100000001 cycles: 185732793 cumulative IPC: 0.538408 (Simulation time: 1 hr 6 min 54 sec) 

ChampSim completed all CPUs

Region of Interest Statistics

CPU 0 cumulative IPC: 0.538408 instructions: 100000001 cycles: 185732793

CPU 0 Average Load ROB stall cycles: 8.02747e+06
CPU 0 Fraction of times ROB stalled by Loads: 7.30655
CPU 0 Percentage of Load stall cycles in Total stall cycles: 1.63508e+08
 Total stall cycles: 121690610
 Total load stall cycles: 198973401531566
CPU 0 NUM of IPS identified critical: 10
CPU 0 Num of Load IPs stalling ROB: 49
Threshold modification factor: -3
Max PIST entries: 15
Min PIST entries: 0
Avg PIST entries: 4.52667
Trouble in retire width: 0.990674
MaC = Marked as critical.
lt_50_percent_before_Mac: 10
gt_90_percent_before_Mac: 0
gt_75_percent_before_Mac: 0
gt_50_percent_before_Mac: 0
stall_proportion_bin_same_before_after: 0
stall_proportion_bin_lower_before_after: 0
stall_proportion_bin_upper_before_after: 0
average_stall_proportion_before: 0.152872
average_stall_proportion_after: 0.152982
Critical IP stalls, total frequency: 1684097
Non-critical IP stalls, total frequency: 58716
Critical_IP_ROB_Stalls_Bucket_0: 261593
Non-critical_IP_ROB_Stalls_Bucket_0: 114468
Critical_IP_ROB_Stalls_Bucket_1: 1396275
Non-critical_IP_ROB_Stalls_Bucket_1: 11346
Critical_IP_ROB_Stalls_Bucket_2: 5301
Non-critical_IP_ROB_Stalls_Bucket_2: 739
Critical_IP_ROB_Stalls_Bucket_3: 6371
Non-critical_IP_ROB_Stalls_Bucket_3: 172
Critical_IP_ROB_Stalls_Bucket_4: 4729
Non-critical_IP_ROB_Stalls_Bucket_4: 103
Critical_IP_ROB_Stalls_Bucket_5: 5270
Non-critical_IP_ROB_Stalls_Bucket_5: 65
Critical_IP_ROB_Stalls_Bucket_6: 4558
Non-critical_IP_ROB_Stalls_Bucket_6: 53
0 => IPs accounting for >50 percent of stalls, 1 => 55, 2 => 60, 3 => 65 and so on till 90.
percent50: 79.1676 num IPs:2
percent55: 79.1676 num IPs:2
percent60: 79.1676 num IPs:2
percent65: 79.1676 num IPs:2
percent70: 79.1676 num IPs:2
percent75: 79.1676 num IPs:2
percent80: 94.1998 num IPs:3
percent85: 94.1998 num IPs:3
percent90: 94.1998 num IPs:3
Critical_ROB_Stalls_Percent_0_Bucket_0: 0
Non-critical_ROB_Stalls_Percent_0_Bucket_0: 376061
Critical_ROB_Stalls_Percent_0_Bucket_1: 1379742
Non-critical_ROB_Stalls_Percent_0_Bucket_1: 27879
Critical_ROB_Stalls_Percent_0_Bucket_2: 0
Non-critical_ROB_Stalls_Percent_0_Bucket_2: 6040
Critical_ROB_Stalls_Percent_0_Bucket_3: 1
Non-critical_ROB_Stalls_Percent_0_Bucket_3: 6542
Critical_ROB_Stalls_Percent_0_Bucket_4: 0
Non-critical_ROB_Stalls_Percent_0_Bucket_4: 4832
Critical_ROB_Stalls_Percent_0_Bucket_5: 0
Non-critical_ROB_Stalls_Percent_0_Bucket_5: 5335
Critical_ROB_Stalls_Percent_0_Bucket_6: 0
Non-critical_ROB_Stalls_Percent_0_Bucket_6: 4611
Critical_ROB_Stalls_Percent_1_Bucket_0: 0
Non-critical_ROB_Stalls_Percent_1_Bucket_0: 376061
Critical_ROB_Stalls_Percent_1_Bucket_1: 1379742
Non-critical_ROB_Stalls_Percent_1_Bucket_1: 27879
Critical_ROB_Stalls_Percent_1_Bucket_2: 0
Non-critical_ROB_Stalls_Percent_1_Bucket_2: 6040
Critical_ROB_Stalls_Percent_1_Bucket_3: 1
Non-critical_ROB_Stalls_Percent_1_Bucket_3: 6542
Critical_ROB_Stalls_Percent_1_Bucket_4: 0
Non-critical_ROB_Stalls_Percent_1_Bucket_4: 4832
Critical_ROB_Stalls_Percent_1_Bucket_5: 0
Non-critical_ROB_Stalls_Percent_1_Bucket_5: 5335
Critical_ROB_Stalls_Percent_1_Bucket_6: 0
Non-critical_ROB_Stalls_Percent_1_Bucket_6: 4611
Critical_ROB_Stalls_Percent_2_Bucket_0: 0
Non-critical_ROB_Stalls_Percent_2_Bucket_0: 376061
Critical_ROB_Stalls_Percent_2_Bucket_1: 1379742
Non-critical_ROB_Stalls_Percent_2_Bucket_1: 27879
Critical_ROB_Stalls_Percent_2_Bucket_2: 0
Non-critical_ROB_Stalls_Percent_2_Bucket_2: 6040
Critical_ROB_Stalls_Percent_2_Bucket_3: 1
Non-critical_ROB_Stalls_Percent_2_Bucket_3: 6542
Critical_ROB_Stalls_Percent_2_Bucket_4: 0
Non-critical_ROB_Stalls_Percent_2_Bucket_4: 4832
Critical_ROB_Stalls_Percent_2_Bucket_5: 0
Non-critical_ROB_Stalls_Percent_2_Bucket_5: 5335
Critical_ROB_Stalls_Percent_2_Bucket_6: 0
Non-critical_ROB_Stalls_Percent_2_Bucket_6: 4611
Critical_ROB_Stalls_Percent_3_Bucket_0: 0
Non-critical_ROB_Stalls_Percent_3_Bucket_0: 376061
Critical_ROB_Stalls_Percent_3_Bucket_1: 1379742
Non-critical_ROB_Stalls_Percent_3_Bucket_1: 27879
Critical_ROB_Stalls_Percent_3_Bucket_2: 0
Non-critical_ROB_Stalls_Percent_3_Bucket_2: 6040
Critical_ROB_Stalls_Percent_3_Bucket_3: 1
Non-critical_ROB_Stalls_Percent_3_Bucket_3: 6542
Critical_ROB_Stalls_Percent_3_Bucket_4: 0
Non-critical_ROB_Stalls_Percent_3_Bucket_4: 4832
Critical_ROB_Stalls_Percent_3_Bucket_5: 0
Non-critical_ROB_Stalls_Percent_3_Bucket_5: 5335
Critical_ROB_Stalls_Percent_3_Bucket_6: 0
Non-critical_ROB_Stalls_Percent_3_Bucket_6: 4611
Critical_ROB_Stalls_Percent_4_Bucket_0: 0
Non-critical_ROB_Stalls_Percent_4_Bucket_0: 376061
Critical_ROB_Stalls_Percent_4_Bucket_1: 1379742
Non-critical_ROB_Stalls_Percent_4_Bucket_1: 27879
Critical_ROB_Stalls_Percent_4_Bucket_2: 0
Non-critical_ROB_Stalls_Percent_4_Bucket_2: 6040
Critical_ROB_Stalls_Percent_4_Bucket_3: 1
Non-critical_ROB_Stalls_Percent_4_Bucket_3: 6542
Critical_ROB_Stalls_Percent_4_Bucket_4: 0
Non-critical_ROB_Stalls_Percent_4_Bucket_4: 4832
Critical_ROB_Stalls_Percent_4_Bucket_5: 0
Non-critical_ROB_Stalls_Percent_4_Bucket_5: 5335
Critical_ROB_Stalls_Percent_4_Bucket_6: 0
Non-critical_ROB_Stalls_Percent_4_Bucket_6: 4611
Critical_ROB_Stalls_Percent_5_Bucket_0: 0
Non-critical_ROB_Stalls_Percent_5_Bucket_0: 376061
Critical_ROB_Stalls_Percent_5_Bucket_1: 1379742
Non-critical_ROB_Stalls_Percent_5_Bucket_1: 27879
Critical_ROB_Stalls_Percent_5_Bucket_2: 0
Non-critical_ROB_Stalls_Percent_5_Bucket_2: 6040
Critical_ROB_Stalls_Percent_5_Bucket_3: 1
Non-critical_ROB_Stalls_Percent_5_Bucket_3: 6542
Critical_ROB_Stalls_Percent_5_Bucket_4: 0
Non-critical_ROB_Stalls_Percent_5_Bucket_4: 4832
Critical_ROB_Stalls_Percent_5_Bucket_5: 0
Non-critical_ROB_Stalls_Percent_5_Bucket_5: 5335
Critical_ROB_Stalls_Percent_5_Bucket_6: 0
Non-critical_ROB_Stalls_Percent_5_Bucket_6: 4611
Critical_ROB_Stalls_Percent_6_Bucket_0: 228932
Non-critical_ROB_Stalls_Percent_6_Bucket_0: 147129
Critical_ROB_Stalls_Percent_6_Bucket_1: 1395019
Non-critical_ROB_Stalls_Percent_6_Bucket_1: 12602
Critical_ROB_Stalls_Percent_6_Bucket_2: 3729
Non-critical_ROB_Stalls_Percent_6_Bucket_2: 2311
Critical_ROB_Stalls_Percent_6_Bucket_3: 4513
Non-critical_ROB_Stalls_Percent_6_Bucket_3: 2030
Critical_ROB_Stalls_Percent_6_Bucket_4: 3318
Non-critical_ROB_Stalls_Percent_6_Bucket_4: 1514
Critical_ROB_Stalls_Percent_6_Bucket_5: 3893
Non-critical_ROB_Stalls_Percent_6_Bucket_5: 1442
Critical_ROB_Stalls_Percent_6_Bucket_6: 2323
Non-critical_ROB_Stalls_Percent_6_Bucket_6: 2288
Critical_ROB_Stalls_Percent_7_Bucket_0: 228932
Non-critical_ROB_Stalls_Percent_7_Bucket_0: 147129
Critical_ROB_Stalls_Percent_7_Bucket_1: 1395019
Non-critical_ROB_Stalls_Percent_7_Bucket_1: 12602
Critical_ROB_Stalls_Percent_7_Bucket_2: 3729
Non-critical_ROB_Stalls_Percent_7_Bucket_2: 2311
Critical_ROB_Stalls_Percent_7_Bucket_3: 4513
Non-critical_ROB_Stalls_Percent_7_Bucket_3: 2030
Critical_ROB_Stalls_Percent_7_Bucket_4: 3318
Non-critical_ROB_Stalls_Percent_7_Bucket_4: 1514
Critical_ROB_Stalls_Percent_7_Bucket_5: 3893
Non-critical_ROB_Stalls_Percent_7_Bucket_5: 1442
Critical_ROB_Stalls_Percent_7_Bucket_6: 2323
Non-critical_ROB_Stalls_Percent_7_Bucket_6: 2288
Critical_ROB_Stalls_Percent_8_Bucket_0: 228932
Non-critical_ROB_Stalls_Percent_8_Bucket_0: 147129
Critical_ROB_Stalls_Percent_8_Bucket_1: 1395019
Non-critical_ROB_Stalls_Percent_8_Bucket_1: 12602
Critical_ROB_Stalls_Percent_8_Bucket_2: 3729
Non-critical_ROB_Stalls_Percent_8_Bucket_2: 2311
Critical_ROB_Stalls_Percent_8_Bucket_3: 4513
Non-critical_ROB_Stalls_Percent_8_Bucket_3: 2030
Critical_ROB_Stalls_Percent_8_Bucket_4: 3318
Non-critical_ROB_Stalls_Percent_8_Bucket_4: 1514
Critical_ROB_Stalls_Percent_8_Bucket_5: 3893
Non-critical_ROB_Stalls_Percent_8_Bucket_5: 1442
Critical_ROB_Stalls_Percent_8_Bucket_6: 2323
Non-critical_ROB_Stalls_Percent_8_Bucket_6: 2288
Average ROB occupancy Load Stall Begin: 59.4526
Average ROB occupancy Load Stall End: 63.297
Min ROB occupancy Load Stall Begin: 1
Max ROB occupancy Load Stall Begin: 351
Min ROB occupancy Load Stall End: 1
Max ROB occupancy Load Stall End: 352
Average ROB occupancy Critical Load Stall Begin: 61.6021
Average ROB occupancy Critical Load Stall End: 65.614
Min ROB occupancy Critical Load Stall Begin: 6
Max ROB occupancy Critical Load Stall Begin: 351
Min ROB occupancy Critical Load Stall End: 6
Max ROB occupancy Critical Load Stall End: 352
 ROB Load Stall Begin Bucket Count 0: 384172
 ROB Load Stall End Bucket Count 0: 376061
 ROB Critical Load Stall Begin Bucket Count 0: 256597
 ROB Critical Load Stall End Bucket Count 0: 253720
 ROB Load Stall Begin Bucket Count 1: 1401957
 ROB Load Stall End Bucket Count 1: 1407621
 ROB Critical Load Stall Begin Bucket Count 1: 1390914
 ROB Critical Load Stall End Bucket Count 1: 1392136
 ROB Load Stall Begin Bucket Count 2: 5919
 ROB Load Stall End Bucket Count 2: 6040
 ROB Critical Load Stall Begin Bucket Count 2: 5557
 ROB Critical Load Stall End Bucket Count 2: 5066
 ROB Load Stall Begin Bucket Count 3: 6082
 ROB Load Stall End Bucket Count 3: 6543
 ROB Critical Load Stall Begin Bucket Count 3: 5697
 ROB Critical Load Stall End Bucket Count 3: 6151
 ROB Load Stall Begin Bucket Count 4: 4642
 ROB Load Stall End Bucket Count 4: 4832
 ROB Critical Load Stall Begin Bucket Count 4: 4407
 ROB Critical Load Stall End Bucket Count 4: 4535
 ROB Load Stall Begin Bucket Count 5: 4829
 ROB Load Stall End Bucket Count 5: 5335
 ROB Critical Load Stall Begin Bucket Count 5: 4642
 ROB Critical Load Stall End Bucket Count 5: 5112
 ROB Load Stall Begin Bucket Count 6: 3442
 ROB Load Stall End Bucket Count 6: 4611
 ROB Critical Load Stall Begin Bucket Count 6: 3264
 ROB Critical Load Stall End Bucket Count 6: 4358
PIST Tag Read Accesses: 33002
PIST Read Accesses: 16501
PIST Tag Write Accesses: 33002
PIST Write Accesses: 16501
Criticality detector called times: 24210
Max global_stall_cycles_count: 92765
Threshold Modified: 3 times, factor: -3
ITLB TOTAL     ACCESS:   16846391  HIT:   16846389  MISS:          2  HIT %:        100  MISS %: 1.1872e-05   MPKI: 2e-05
ITLB LOAD TRANSLATION ACCESS:   16846391  HIT:   16846389  MISS:          2  HIT %:        100  MISS %: 1.1872e-05   MPKI: 2e-05
ITLB PREFETCH  REQUESTED:          0  ISSUED:          0  USEFUL:          0  USELESS:          0
ITLB USEFUL LOAD PREFETCHES:          0 PREFETCH ISSUED TO LOWER LEVEL:          0  ACCURACY: -nan
ITLB TIMELY PREFETCHES:          0 LATE PREFETCHES: 0 DROPPED PREFETCHES: 0
ITLB PREFETCHES SAME FILL-ORIGIN LEVEL: 0 DIFFERENT FILL-ORIGIN LEVEL: 0
ITLB AVERAGE MISS LATENCY: 325.5 cycles
ITLB RQ	ACCESS:   21394915	FORWARD:          0	MERGED:    4548525	TO_CACHE:   16846390

DTLB TOTAL     ACCESS:   28532494  HIT:   28515122  MISS:      17372  HIT %:    99.9391  MISS %:   0.060885   MPKI: 0.17372
DTLB LOAD TRANSLATION ACCESS:   28532494  HIT:   28515122  MISS:      17372  HIT %:    99.9391  MISS %:   0.060885   MPKI: 0.17372
DTLB PREFETCH  REQUESTED:          0  ISSUED:          0  USEFUL:          0  USELESS:          0
DTLB USEFUL LOAD PREFETCHES:          0 PREFETCH ISSUED TO LOWER LEVEL:          0  ACCURACY: -nan
DTLB TIMELY PREFETCHES:          0 LATE PREFETCHES: 0 DROPPED PREFETCHES: 0
DTLB PREFETCHES SAME FILL-ORIGIN LEVEL: 0 DIFFERENT FILL-ORIGIN LEVEL: 0
DTLB AVERAGE MISS LATENCY: 171.921 cycles
DTLB RQ	ACCESS:   32158725	FORWARD:          0	MERGED:    3604729	TO_CACHE:   28553996

STLB TOTAL     ACCESS:     930291  HIT:     913518  MISS:      16773  HIT %:     98.197  MISS %:    1.80298   MPKI: 0.16773
STLB LOAD TRANSLATION ACCESS:      17374  HIT:        602  MISS:      16772  HIT %:    3.46495  MISS %:    96.5351   MPKI: 0.16772
STLB TRANSLATION FROM L1D PREFETCHER ACCESS:     912917  HIT:     912916  MISS:          1  HIT %:    99.9999  MISS %: 0.000109539   MPKI: 1e-05
STLB PREFETCH  REQUESTED:          0  ISSUED:          0  USEFUL:          1  USELESS:          0
STLB USEFUL LOAD PREFETCHES:          1 PREFETCH ISSUED TO LOWER LEVEL:          0  ACCURACY: inf
STLB TIMELY PREFETCHES:          1 LATE PREFETCHES: 0 DROPPED PREFETCHES: 0
STLB PREFETCHES SAME FILL-ORIGIN LEVEL: 0 DIFFERENT FILL-ORIGIN LEVEL: 0
STLB AVERAGE MISS LATENCY: 168.677 cycles
STLB RQ	ACCESS:    4143035	FORWARD:          0	MERGED:    3212745	TO_CACHE:     930290

STLB Hit, L1D data hit: 0
STLB Hit, L2C data hit: 0
STLB Hit, LLC data hit: 0
STLB Hit, LLC data miss: 0
STLB STLB hints to L2: 0
L1D TOTAL     ACCESS:   35032767  HIT:   34310439  MISS:     722328  HIT %:    97.9381  MISS %:    2.06186   MPKI: 7.22328
L1D LOAD      ACCESS:   20355146  HIT:   20331946  MISS:      23200  HIT %:     99.886  MISS %:   0.113976   MPKI: 0.232
L1D RFO       ACCESS:   10563313  HIT:   10325012  MISS:     238301  HIT %:    97.7441  MISS %:    2.25593   MPKI: 2.38301
L1D PREFETCH  ACCESS:    4114308  HIT:    3653481  MISS:     460827  HIT %:    88.7994  MISS %:    11.2006   MPKI: 4.60827
L1D PREFETCH  REQUESTED:    8253447  ISSUED:    8251322  USEFUL:     431625  USELESS:      29210
L1D USEFUL LOAD PREFETCHES:     431625 PREFETCH ISSUED TO LOWER LEVEL:     468143  ACCURACY: 92.1994
L1D TIMELY PREFETCHES:     431625 LATE PREFETCHES: 6815 DROPPED PREFETCHES: 0
L1D PREFETCHES SAME FILL-ORIGIN LEVEL: 468143 DIFFERENT FILL-ORIGIN LEVEL: 0
L1D AVERAGE MISS LATENCY: 1.02833e+06 cycles
L1D RQ	ACCESS:   24459413	FORWARD:          0	MERGED:    4056354	TO_CACHE:   20388023
L1D WQ	ACCESS:   12476628	FORWARD:      15036	MERGED:     705926	TO_CACHE:   11770702
L1D PQ	ACCESS:    4125661	FORWARD:          0	MERGED:          0	TO_CACHE:    4125661

L1D UNIQUE REGIONS ACCESSED: 0
L1D REGIONS CONFLICTS: 0
L1D Cross Page Prefetch Requests: 0
L1D Same Page Prefetch Requests: 6274285
L1D ROI Sum of L1D PQ occupancy: 61542295
L1D PREFETCHES PUSHED FROM L2C: 0
L1I TOTAL     ACCESS:   21394905  HIT:   21394869  MISS:         36  HIT %:    99.9998  MISS %: 0.000168264   MPKI: 0.00036
L1I LOAD      ACCESS:   21394905  HIT:   21394869  MISS:         36  HIT %:    99.9998  MISS %: 0.000168264   MPKI: 0.00036
L1I PREFETCH  REQUESTED:          0  ISSUED:          0  USEFUL:          0  USELESS:          0
L1I USEFUL LOAD PREFETCHES:          0 PREFETCH ISSUED TO LOWER LEVEL:          0  ACCURACY: -nan
L1I TIMELY PREFETCHES:          0 LATE PREFETCHES: 0 DROPPED PREFETCHES: 0
L1I PREFETCHES SAME FILL-ORIGIN LEVEL: 0 DIFFERENT FILL-ORIGIN LEVEL: 0
L1I AVERAGE MISS LATENCY: 231.722 cycles
L1I RQ	ACCESS:   28122771	FORWARD:          0	MERGED:    6727856	TO_CACHE:   21394915

BTB TOTAL     ACCESS:    6508269  HIT:    5802287  MISS:     705982  HIT %:    89.1525  MISS %:    10.8475   MPKI: 7.05982
BTB BRANCH_DIRECT_JUMP	ACCESS:     705946  HIT:     705938  MISS:          8
BTB BRANCH_INDIRECT	ACCESS:          0  HIT:          0  MISS:          0
BTB BRANCH_CONDITIONAL	ACCESS:    2978604  HIT:    2978573  MISS:         31
BTB BRANCH_DIRECT_CALL	ACCESS:    1411860  HIT:    1411850  MISS:         10
BTB BRANCH_INDIRECT_CALL	ACCESS:          0  HIT:          0  MISS:          0
BTB BRANCH_RETURN	ACCESS:    1411859  HIT:     705926  MISS:     705933
BTB BRANCH_OTHER ACCESS:          0  HIT:          0  MISS:          0

L2C TOTAL     ACCESS:    2648454  HIT:    1890233  MISS:     758221  HIT %:    71.3712  MISS %:    28.6288   MPKI: 7.58221
L2C LOAD      ACCESS:      16420  HIT:        720  MISS:      15700  HIT %:     4.3849  MISS %:    95.6151   MPKI: 0.157
L2C DATA LOAD MPKI: 0.15664
L2C INSTRUCTION LOAD MPKI: 0.00036
L2C RFO       ACCESS:     238301  HIT:         20  MISS:     238281  HIT %: 0.00839275  MISS %:    99.9916   MPKI: 2.38281
L2C PREFETCH  ACCESS:    2138646  HIT:    1648039  MISS:     490607  HIT %:    77.0599  MISS %:    22.9401   MPKI: 4.90607
L2C DATA PREFETCH MPKI: 4.90607
L2C INSTRUCTION PREFETCH MPKI: 0
L2C WRITEBACK ACCESS:     238265  HIT:     228295  MISS:       9970  HIT %:    95.8156  MISS %:    4.18442   MPKI: 0.0997
L2C LOAD TRANSLATION ACCESS:      16821  HIT:      13159  MISS:       3662  HIT %:    78.2296  MISS %:    21.7704   MPKI: 0.03662
L2C TRANSLATION FROM L1D PREFETCHER ACCESS:          1  HIT:          0  MISS:          1  HIT %:          0  MISS %:        100   MPKI: 1e-05
L2C PREFETCH  REQUESTED:    2152002  ISSUED:    2138277  USEFUL:        454  USELESS:     490740
L2C USEFUL LOAD PREFETCHES:        454 PREFETCH ISSUED TO LOWER LEVEL:     490799  ACCURACY: 0.0925022
L2C TIMELY PREFETCHES:        454 LATE PREFETCHES: 192 DROPPED PREFETCHES: 0
L2C PREFETCHES SAME FILL-ORIGIN LEVEL: 414292 DIFFERENT FILL-ORIGIN LEVEL: 0
L2C AVERAGE MISS LATENCY: 310.357 cycles
L2C RQ	ACCESS:     271544	FORWARD:          0	MERGED:          0	TO_CACHE:     271543
L2C WQ	ACCESS:     238265	FORWARD:          1	MERGED:          0	TO_CACHE:     238265
L2C PQ	ACCESS:    2605919	FORWARD:          0	MERGED:     126426	TO_CACHE:    2479493

L2C Instructions Evicting Data 36
L2C Translations Evicting Data 3656
L2C Data Evicting Data 740893
L2C Instructions Evicting Instructions 0
L2C Translations Evicting Instructions 0
L2C Data Evicting Instructions 36
L2C Instructions Evicting Translations 0
L2C Translations Evicting Translations 7
L2C Data Evicting Translations 3623
L2C Dense regions hint from L2: 0
PSCL5 TOTAL     ACCESS:      16773  HIT:      16773  MISS:          0  HIT %:        100  MISS %:          0   MPKI: 0
PSCL5 LOAD TRANSLATION ACCESS:      16772  HIT:      16772  MISS:          0  HIT %:        100  MISS %:          0   MPKI: 0
PSCL5 TRANSLATION FROM L1D PREFETCHER ACCESS:          1  HIT:          1  MISS:          0  HIT %:        100  MISS %:          0   MPKI: 0
PSCL5 PREFETCH  REQUESTED:          0  ISSUED:          0  USEFUL:          0  USELESS:          0
PSCL5 USEFUL LOAD PREFETCHES:          0 PREFETCH ISSUED TO LOWER LEVEL:          0  ACCURACY: -nan
PSCL5 TIMELY PREFETCHES:          0 LATE PREFETCHES: 0 DROPPED PREFETCHES: 0
PSCL5 PREFETCHES SAME FILL-ORIGIN LEVEL: 0 DIFFERENT FILL-ORIGIN LEVEL: 0

PSCL4 TOTAL     ACCESS:      16773  HIT:      16773  MISS:          0  HIT %:        100  MISS %:          0   MPKI: 0
PSCL4 LOAD TRANSLATION ACCESS:      16772  HIT:      16772  MISS:          0  HIT %:        100  MISS %:          0   MPKI: 0
PSCL4 TRANSLATION FROM L1D PREFETCHER ACCESS:          1  HIT:          1  MISS:          0  HIT %:        100  MISS %:          0   MPKI: 0
PSCL4 PREFETCH  REQUESTED:          0  ISSUED:          0  USEFUL:          0  USELESS:          0
PSCL4 USEFUL LOAD PREFETCHES:          0 PREFETCH ISSUED TO LOWER LEVEL:          0  ACCURACY: -nan
PSCL4 TIMELY PREFETCHES:          0 LATE PREFETCHES: 0 DROPPED PREFETCHES: 0
PSCL4 PREFETCHES SAME FILL-ORIGIN LEVEL: 0 DIFFERENT FILL-ORIGIN LEVEL: 0

PSCL3 TOTAL     ACCESS:      16772  HIT:      16769  MISS:          3  HIT %:    99.9821  MISS %:   0.017887   MPKI: 3e-05
PSCL3 LOAD TRANSLATION ACCESS:      16772  HIT:      16769  MISS:          3  HIT %:    99.9821  MISS %:   0.017887   MPKI: 3e-05
PSCL3 PREFETCH  REQUESTED:          0  ISSUED:          0  USEFUL:          0  USELESS:          0
PSCL3 USEFUL LOAD PREFETCHES:          0 PREFETCH ISSUED TO LOWER LEVEL:          0  ACCURACY: -nan
PSCL3 TIMELY PREFETCHES:          0 LATE PREFETCHES: 0 DROPPED PREFETCHES: 0
PSCL3 PREFETCHES SAME FILL-ORIGIN LEVEL: 0 DIFFERENT FILL-ORIGIN LEVEL: 0

PSCL2 TOTAL     ACCESS:      16773  HIT:      16698  MISS:         75  HIT %:    99.5529  MISS %:   0.447147   MPKI: 0.00075
PSCL2 LOAD TRANSLATION ACCESS:      16772  HIT:      16697  MISS:         75  HIT %:    99.5528  MISS %:   0.447174   MPKI: 0.00075
PSCL2 TRANSLATION FROM L1D PREFETCHER ACCESS:          1  HIT:          1  MISS:          0  HIT %:        100  MISS %:          0   MPKI: 0
PSCL2 PREFETCH  REQUESTED:          0  ISSUED:          0  USEFUL:          0  USELESS:          0
PSCL2 USEFUL LOAD PREFETCHES:          0 PREFETCH ISSUED TO LOWER LEVEL:          0  ACCURACY: -nan
PSCL2 TIMELY PREFETCHES:          0 LATE PREFETCHES: 0 DROPPED PREFETCHES: 0
PSCL2 PREFETCHES SAME FILL-ORIGIN LEVEL: 0 DIFFERENT FILL-ORIGIN LEVEL: 0

LLC TOTAL     ACCESS:     985822  HIT:     234257  MISS:     751565  HIT %:    23.7626  MISS %:    76.2374   MPKI: 7.51565
LLC LOAD      ACCESS:      15508  HIT:         21  MISS:      15487  HIT %:   0.135414  MISS %:    99.8646   MPKI: 0.15487
LLC RFO       ACCESS:     238281  HIT:          0  MISS:     238281  HIT %:          0  MISS %:        100   MPKI: 2.38281
LLC PREFETCH  ACCESS:     490799  HIT:        412  MISS:     490387  HIT %:  0.0839448  MISS %:    99.9161   MPKI: 4.90387
LLC WRITEBACK ACCESS:     237571  HIT:     233733  MISS:       3838  HIT %:    98.3845  MISS %:    1.61552   MPKI: 0.03838
LLC LOAD TRANSLATION ACCESS:       3662  HIT:         91  MISS:       3571  HIT %:    2.48498  MISS %:     97.515   MPKI: 0.03571
LLC TRANSLATION FROM L1D PREFETCHER ACCESS:          1  HIT:          0  MISS:          1  HIT %:          0  MISS %:        100   MPKI: 1e-05
LLC PREFETCH  REQUESTED:          0  ISSUED:          0  USEFUL:          2  USELESS:     492170
LLC USEFUL LOAD PREFETCHES:          2 PREFETCH ISSUED TO LOWER LEVEL:     490387  ACCURACY: 0.000407841
LLC TIMELY PREFETCHES:          2 LATE PREFETCHES: 0 DROPPED PREFETCHES: 0
LLC PREFETCHES SAME FILL-ORIGIN LEVEL: 0 DIFFERENT FILL-ORIGIN LEVEL: 0
LLC AVERAGE MISS LATENCY: 281.666 cycles
LLC RQ	ACCESS:     257452	FORWARD:          0	MERGED:          0	TO_CACHE:     257452
LLC WQ	ACCESS:     237571	FORWARD:          0	MERGED:          0	TO_CACHE:     237571
LLC PQ	ACCESS:     490799	FORWARD:          0	MERGED:          0	TO_CACHE:     490799

LLC Dense regions hint to LLC: 0

RAW hits: 2885257
Loads Generated: 27344671
Loads sent to L1D: 24459413
Stores Generated: 12476624
Stores sent to L1D: 12476628
Major fault: 0 Minor fault: 14234
Allocated PAGES: 14234

stream: 
stream:times selected: 4046460
stream:pref_filled: 637200
stream:pref_useful: 598988
stream:pref_late: 6754
stream:misses: 88
stream:misses_by_poll: 0

CS: 
CS:times selected: 885419
CS:pref_filled: 7554
CS:pref_useful: 7371
CS:pref_late: 18
CS:misses: 59451
CS:misses_by_poll: 11

CPLX: 
CPLX:times selected: 3157859
CPLX:pref_filled: 309
CPLX:pref_useful: 67
CPLX:pref_late: 6
CPLX:misses: 1181
CPLX:misses_by_poll: 1

NL_L1: 
NL:times selected: 8
NL:pref_filled: 3
NL:pref_useful: 3
NL:pref_late: 0
NL:misses: 11
NL:misses_by_poll: 0

total selections: 8089746
total_filled: 460827
total_useful: 431625
total_late: 6894
total_polluted: 12
total_misses_after_warmup: 56083
conflicts: 242507
Degree Incremented Times: 194776
Degree Decremented Times: 25044

L1 IP Table Write Accesses: 18040106
L1 IP Table Read Accesses: 17797599
L1 RST Write Accesses: 2765297
L1 RST Read Accesses: 5530594
L1 CSPT Write Accesses: 2765297
L1 CSPT Read Accesses: 8313460
L1 RR Filter Tag Write Accesses: 4127786
L1 RR Filter Tag Read Accesses: 488589639
L1 IP Table Tag Write Accesses: 20388029
L1 IP Table Tag Read Accesses: 20388029
L1 RST Tag Write Accesses: 0
L1 RST Tag Read Accesses: 29109409
L1 RR Filter Write Accesses: 0
L1 RR Filter Read Accesses: 23399222
test: 870389
L2 IP Table Read Accesses: 769750
L2 IP Table Write Accesses: 753612
L2 IP Table Tag Read Accesses: 384958
L2 IP Table Tag Write Accesses: 384958

DRAM Statistics
 CHANNEL 0
 RQ ROW_BUFFER_HIT:     255953  ROW_BUFFER_MISS:     491774
 DBUS_CONGESTED:         20
 WQ ROW_BUFFER_HIT:      28477  ROW_BUFFER_MISS:     207929  FULL:          0

 AVG_CONGESTED_CYCLE: 6
 All warmup complete: 2
Channel 0 Bank busy for read cycles: 0
Channel 0 Bank busy for write cycles: 0
Channel 0
Rank 0
0banks busy for read cycles: 148933924
0banks busy for write cycles: 31796
1banks busy for read cycles: 11440367
1banks busy for write cycles: 4739427
2banks busy for read cycles: 1602251
2banks busy for write cycles: 180249
3banks busy for read cycles: 2113414
3banks busy for write cycles: 110827
4banks busy for read cycles: 2216994
4banks busy for write cycles: 90856
5banks busy for read cycles: 2282712
5banks busy for write cycles: 74266
6banks busy for read cycles: 2464408
6banks busy for write cycles: 71637
7banks busy for read cycles: 2303776
7banks busy for write cycles: 389392
8banks busy for read cycles: 2322580
8banks busy for write cycles: 4363918

CPU 0 Branch Prediction Accuracy: 99.971% MPKI: 0.03111 Average ROB Occupancy at Mispredict: 39.5796
Branch types
NOT_BRANCH: 89254039 89.254%
BRANCH_DIRECT_JUMP: 705946 0.705946%
BRANCH_INDIRECT: 0 0%
BRANCH_CONDITIONAL: 7215955 7.21595%
BRANCH_DIRECT_CALL: 1411860 1.41186%
BRANCH_INDIRECT_CALL: 0 0%
BRANCH_RETURN: 1411859 1.41186%
BRANCH_OTHER: 0 0%

DRAM PAGES: 1048576
Allocated PAGES: 14234
