Initialize SIGNATURE TABLE
ST_SET: 1
ST_WAY: 256
ST_TAG_BIT: 16
ST_TAG_MASK: ffff

Initialize PATTERN TABLE
PT_SET: 512
PT_WAY: 4
SIG_DELTA_BIT: 7
C_SIG_BIT: 4
C_DELTA_BIT: 4

Initialize PREFETCH FILTER
FILTER_SET: 1024

Initialize PERCEPTRON
PERC_ENTRIES: 4096
PERC_FEATURES: 9

*** ChampSim Multicore Out-of-Order Simulator ***

Warmup Instructions: 50000000
Simulation Instructions: 100000000
Number of CPUs: 1
LLC sets: 2048
LLC ways: 16
Off-chip DRAM Size: 4096 MB Channels: 1 Width: 64-bit Data Rate: 6400 MT/s
CPU 0 runs ../SPEC2017//654.roms_s-1070B.champsimtrace.xz
.xz
NUM_OF_IPS_IN_CRITICAL_IP_TRAINING: 64
NUM_OF_CRITICAL_IP_TRAINING_TABLE_WAYS: 2
NUM_OF_CRITICAL_IP_TRAINING_TABLE_SETS: 32
WOBBLY_CRITICAL_IP_CACHE_SETS: 32
WOBBLY_CRITICAL_IP_CACHE_WAYS: 4
BTB has LRU replacement policy
ITLB has LRU replacement policy
DTLB has LRU replacement policy
STLB has LRU replacement policy
L1I has LRU replacement policy
L1D has LRU replacement policy
Initialize SRRIP state for L2C
Initialize DRRIP state for LLC
Heartbeat CPU 0 instructions: 10000002 cycles: 3113146 heartbeat IPC: 3.21219 cumulative IPC: 3.21219 (Simulation time: 0 hr 5 min 14 sec) 
Heartbeat CPU 0 instructions: 20000002 cycles: 6331704 heartbeat IPC: 3.10698 cumulative IPC: 3.15871 (Simulation time: 0 hr 9 min 44 sec) 
Heartbeat CPU 0 instructions: 30000000 cycles: 9361622 heartbeat IPC: 3.30042 cumulative IPC: 3.20457 (Simulation time: 0 hr 13 min 55 sec) 
Heartbeat CPU 0 instructions: 40000001 cycles: 12665560 heartbeat IPC: 3.02669 cumulative IPC: 3.15817 (Simulation time: 0 hr 17 min 55 sec) 
Heartbeat CPU 0 instructions: 50000001 cycles: 15852724 heartbeat IPC: 3.13759 cumulative IPC: 3.15403 (Simulation time: 0 hr 21 min 39 sec) 

Warmup complete CPU 0 instructions: 50000001 cycles: 15852724 (Simulation time: 0 hr 21 min 39 sec) 

% increase in all ip prefetch 184.877
% increase in all ip prefetch 11.1091
% increase in all ip prefetch 30.5009
% increase in all ip prefetch -0.161793
Heartbeat CPU 0 instructions: 60000000 cycles: 30392839 heartbeat IPC: 0.687752 cumulative IPC: 0.687752 (Simulation time: 0 hr 27 min 20 sec) 
Heartbeat CPU 0 instructions: 70000002 cycles: 39673806 heartbeat IPC: 1.07747 cumulative IPC: 0.839592 (Simulation time: 0 hr 31 min 5 sec) 
Heartbeat CPU 0 instructions: 80000003 cycles: 50143412 heartbeat IPC: 0.955146 cumulative IPC: 0.874873 (Simulation time: 0 hr 34 min 41 sec) 
Heartbeat CPU 0 instructions: 90000000 cycles: 63473520 heartbeat IPC: 0.750181 cumulative IPC: 0.839969 (Simulation time: 0 hr 38 min 46 sec) 
Heartbeat CPU 0 instructions: 100000003 cycles: 72078114 heartbeat IPC: 1.16217 cumulative IPC: 0.889278 (Simulation time: 0 hr 41 min 32 sec) 
Heartbeat CPU 0 instructions: 110000000 cycles: 87146693 heartbeat IPC: 0.663632 cumulative IPC: 0.841586 (Simulation time: 0 hr 45 min 46 sec) 
Heartbeat CPU 0 instructions: 120000002 cycles: 95771762 heartbeat IPC: 1.15941 cumulative IPC: 0.875886 (Simulation time: 0 hr 48 min 18 sec) 
Heartbeat CPU 0 instructions: 130000002 cycles: 107184648 heartbeat IPC: 0.876203 cumulative IPC: 0.875926 (Simulation time: 0 hr 55 min 8 sec) 
Heartbeat CPU 0 instructions: 140000001 cycles: 119452765 heartbeat IPC: 0.815121 cumulative IPC: 0.868726 (Simulation time: 1 hr 1 min 38 sec) 
Heartbeat CPU 0 instructions: 150000003 cycles: 128216772 heartbeat IPC: 1.14103 cumulative IPC: 0.889964 (Simulation time: 1 hr 6 min 28 sec) 
Finished CPU 0 instructions: 100000002 cycles: 112364048 cumulative IPC: 0.889964 (Simulation time: 1 hr 6 min 28 sec) 

ChampSim completed all CPUs

Region of Interest Statistics

CPU 0 cumulative IPC: 0.889964 instructions: 100000002 cycles: 112364048

CPU 0 Average Load ROB stall cycles: 3.41322e+07
CPU 0 Fraction of times ROB stalled by Loads: 47.0863
CPU 0 Percentage of Load stall cycles in Total stall cycles: 4.04775e+08
Issued all: 83164794
Issued LT all: 72402345
rob_not_full_when_issued_lt_all: 24201323
Issued LT one: 59385463
rob_not_full_when_issued_lt_one: 19750959
 Total stall cycles: 87943457
 Total load stall cycles: 355972720252757
CPU 0 NUM of IPS identified critical: 0
CPU 0 Num of Load IPs stalling ROB: 84
Threshold modification factor: -3
Max PIST entries: 28
Min PIST entries: 0
Avg PIST entries: 6.68
Trouble in retire width: 0.973962
MaC = Marked as critical.
lt_50_percent_before_Mac: 0
gt_90_percent_before_Mac: 0
gt_75_percent_before_Mac: 0
gt_50_percent_before_Mac: 0
stall_proportion_bin_same_before_after: 0
stall_proportion_bin_lower_before_after: 0
stall_proportion_bin_upper_before_after: 0
average_stall_proportion_before: -nan
average_stall_proportion_after: -nan
Critical IP stalls, total frequency: 0
Non-critical IP stalls, total frequency: 4910739
Total Freq all stalling IPs: 4910739
stat_90_percent_critical_ip_stalls_freq: 4501072
stat_90_percent_non_critical_ip_stalls_freq: 409667
Critical_IP_ROB_Stalls_Bucket_0: 0
Non-critical_IP_ROB_Stalls_Bucket_0: 854396
Critical_IP_ROB_Stalls_Bucket_1: 0
Non-critical_IP_ROB_Stalls_Bucket_1: 1423111
Critical_IP_ROB_Stalls_Bucket_2: 0
Non-critical_IP_ROB_Stalls_Bucket_2: 118485
Critical_IP_ROB_Stalls_Bucket_3: 0
Non-critical_IP_ROB_Stalls_Bucket_3: 78450
Critical_IP_ROB_Stalls_Bucket_4: 0
Non-critical_IP_ROB_Stalls_Bucket_4: 104019
Critical_IP_ROB_Stalls_Bucket_5: 0
Non-critical_IP_ROB_Stalls_Bucket_5: 93506
Critical_IP_ROB_Stalls_Bucket_6: 0
Non-critical_IP_ROB_Stalls_Bucket_6: 2238772
0 => IPs accounting for >50 percent of stalls, 1 => 55, 2 => 60, 3 => 65 and so on till 90.
percent50: 61.0034 num IPs:  3
percent55: 61.0034 num IPs: 3
percent60: 61.0034 num IPs: 3
percent65: 73.5297 num IPs: 4
percent70: 73.5297 num IPs: 4
percent75: 85.605 num IPs: 5
percent80: 85.605 num IPs: 5
percent85: 85.605 num IPs: 5
percent90: 91.6577 num IPs: 7
Critical_ROB_Stalls_Percent_0_Bucket_0: 8192
Non-critical_ROB_Stalls_Percent_0_Bucket_0: 846204
Critical_ROB_Stalls_Percent_0_Bucket_1: 800832
Non-critical_ROB_Stalls_Percent_0_Bucket_1: 622279
Critical_ROB_Stalls_Percent_0_Bucket_2: 46934
Non-critical_ROB_Stalls_Percent_0_Bucket_2: 71551
Critical_ROB_Stalls_Percent_0_Bucket_3: 30886
Non-critical_ROB_Stalls_Percent_0_Bucket_3: 47564
Critical_ROB_Stalls_Percent_0_Bucket_4: 38247
Non-critical_ROB_Stalls_Percent_0_Bucket_4: 65772
Critical_ROB_Stalls_Percent_0_Bucket_5: 30563
Non-critical_ROB_Stalls_Percent_0_Bucket_5: 62943
Critical_ROB_Stalls_Percent_0_Bucket_6: 2040063
Non-critical_ROB_Stalls_Percent_0_Bucket_6: 198709
Critical_ROB_Stalls_Percent_1_Bucket_0: 8192
Non-critical_ROB_Stalls_Percent_1_Bucket_0: 846204
Critical_ROB_Stalls_Percent_1_Bucket_1: 800832
Non-critical_ROB_Stalls_Percent_1_Bucket_1: 622279
Critical_ROB_Stalls_Percent_1_Bucket_2: 46934
Non-critical_ROB_Stalls_Percent_1_Bucket_2: 71551
Critical_ROB_Stalls_Percent_1_Bucket_3: 30886
Non-critical_ROB_Stalls_Percent_1_Bucket_3: 47564
Critical_ROB_Stalls_Percent_1_Bucket_4: 38247
Non-critical_ROB_Stalls_Percent_1_Bucket_4: 65772
Critical_ROB_Stalls_Percent_1_Bucket_5: 30563
Non-critical_ROB_Stalls_Percent_1_Bucket_5: 62943
Critical_ROB_Stalls_Percent_1_Bucket_6: 2040063
Non-critical_ROB_Stalls_Percent_1_Bucket_6: 198709
Critical_ROB_Stalls_Percent_2_Bucket_0: 8192
Non-critical_ROB_Stalls_Percent_2_Bucket_0: 846204
Critical_ROB_Stalls_Percent_2_Bucket_1: 800832
Non-critical_ROB_Stalls_Percent_2_Bucket_1: 622279
Critical_ROB_Stalls_Percent_2_Bucket_2: 46934
Non-critical_ROB_Stalls_Percent_2_Bucket_2: 71551
Critical_ROB_Stalls_Percent_2_Bucket_3: 30886
Non-critical_ROB_Stalls_Percent_2_Bucket_3: 47564
Critical_ROB_Stalls_Percent_2_Bucket_4: 38247
Non-critical_ROB_Stalls_Percent_2_Bucket_4: 65772
Critical_ROB_Stalls_Percent_2_Bucket_5: 30563
Non-critical_ROB_Stalls_Percent_2_Bucket_5: 62943
Critical_ROB_Stalls_Percent_2_Bucket_6: 2040063
Non-critical_ROB_Stalls_Percent_2_Bucket_6: 198709
Critical_ROB_Stalls_Percent_3_Bucket_0: 433359
Non-critical_ROB_Stalls_Percent_3_Bucket_0: 421037
Critical_ROB_Stalls_Percent_3_Bucket_1: 961559
Non-critical_ROB_Stalls_Percent_3_Bucket_1: 461552
Critical_ROB_Stalls_Percent_3_Bucket_2: 50148
Non-critical_ROB_Stalls_Percent_3_Bucket_2: 68337
Critical_ROB_Stalls_Percent_3_Bucket_3: 35827
Non-critical_ROB_Stalls_Percent_3_Bucket_3: 42623
Critical_ROB_Stalls_Percent_3_Bucket_4: 45062
Non-critical_ROB_Stalls_Percent_3_Bucket_4: 58957
Critical_ROB_Stalls_Percent_3_Bucket_5: 34535
Non-critical_ROB_Stalls_Percent_3_Bucket_5: 58971
Critical_ROB_Stalls_Percent_3_Bucket_6: 2050362
Non-critical_ROB_Stalls_Percent_3_Bucket_6: 188410
Critical_ROB_Stalls_Percent_4_Bucket_0: 433359
Non-critical_ROB_Stalls_Percent_4_Bucket_0: 421037
Critical_ROB_Stalls_Percent_4_Bucket_1: 961559
Non-critical_ROB_Stalls_Percent_4_Bucket_1: 461552
Critical_ROB_Stalls_Percent_4_Bucket_2: 50148
Non-critical_ROB_Stalls_Percent_4_Bucket_2: 68337
Critical_ROB_Stalls_Percent_4_Bucket_3: 35827
Non-critical_ROB_Stalls_Percent_4_Bucket_3: 42623
Critical_ROB_Stalls_Percent_4_Bucket_4: 45062
Non-critical_ROB_Stalls_Percent_4_Bucket_4: 58957
Critical_ROB_Stalls_Percent_4_Bucket_5: 34535
Non-critical_ROB_Stalls_Percent_4_Bucket_5: 58971
Critical_ROB_Stalls_Percent_4_Bucket_6: 2050362
Non-critical_ROB_Stalls_Percent_4_Bucket_6: 188410
Critical_ROB_Stalls_Percent_5_Bucket_0: 820091
Non-critical_ROB_Stalls_Percent_5_Bucket_0: 34305
Critical_ROB_Stalls_Percent_5_Bucket_1: 1132615
Non-critical_ROB_Stalls_Percent_5_Bucket_1: 290496
Critical_ROB_Stalls_Percent_5_Bucket_2: 55182
Non-critical_ROB_Stalls_Percent_5_Bucket_2: 63303
Critical_ROB_Stalls_Percent_5_Bucket_3: 41955
Non-critical_ROB_Stalls_Percent_5_Bucket_3: 36495
Critical_ROB_Stalls_Percent_5_Bucket_4: 51828
Non-critical_ROB_Stalls_Percent_5_Bucket_4: 52191
Critical_ROB_Stalls_Percent_5_Bucket_5: 41586
Non-critical_ROB_Stalls_Percent_5_Bucket_5: 51920
Critical_ROB_Stalls_Percent_5_Bucket_6: 2060582
Non-critical_ROB_Stalls_Percent_5_Bucket_6: 178190
Critical_ROB_Stalls_Percent_6_Bucket_0: 820091
Non-critical_ROB_Stalls_Percent_6_Bucket_0: 34305
Critical_ROB_Stalls_Percent_6_Bucket_1: 1132615
Non-critical_ROB_Stalls_Percent_6_Bucket_1: 290496
Critical_ROB_Stalls_Percent_6_Bucket_2: 55182
Non-critical_ROB_Stalls_Percent_6_Bucket_2: 63303
Critical_ROB_Stalls_Percent_6_Bucket_3: 41955
Non-critical_ROB_Stalls_Percent_6_Bucket_3: 36495
Critical_ROB_Stalls_Percent_6_Bucket_4: 51828
Non-critical_ROB_Stalls_Percent_6_Bucket_4: 52191
Critical_ROB_Stalls_Percent_6_Bucket_5: 41586
Non-critical_ROB_Stalls_Percent_6_Bucket_5: 51920
Critical_ROB_Stalls_Percent_6_Bucket_6: 2060582
Non-critical_ROB_Stalls_Percent_6_Bucket_6: 178190
Critical_ROB_Stalls_Percent_7_Bucket_0: 820091
Non-critical_ROB_Stalls_Percent_7_Bucket_0: 34305
Critical_ROB_Stalls_Percent_7_Bucket_1: 1132615
Non-critical_ROB_Stalls_Percent_7_Bucket_1: 290496
Critical_ROB_Stalls_Percent_7_Bucket_2: 55182
Non-critical_ROB_Stalls_Percent_7_Bucket_2: 63303
Critical_ROB_Stalls_Percent_7_Bucket_3: 41955
Non-critical_ROB_Stalls_Percent_7_Bucket_3: 36495
Critical_ROB_Stalls_Percent_7_Bucket_4: 51828
Non-critical_ROB_Stalls_Percent_7_Bucket_4: 52191
Critical_ROB_Stalls_Percent_7_Bucket_5: 41586
Non-critical_ROB_Stalls_Percent_7_Bucket_5: 51920
Critical_ROB_Stalls_Percent_7_Bucket_6: 2060582
Non-critical_ROB_Stalls_Percent_7_Bucket_6: 178190
Critical_ROB_Stalls_Percent_8_Bucket_0: 828760
Non-critical_ROB_Stalls_Percent_8_Bucket_0: 25636
Critical_ROB_Stalls_Percent_8_Bucket_1: 1287743
Non-critical_ROB_Stalls_Percent_8_Bucket_1: 135368
Critical_ROB_Stalls_Percent_8_Bucket_2: 83237
Non-critical_ROB_Stalls_Percent_8_Bucket_2: 35248
Critical_ROB_Stalls_Percent_8_Bucket_3: 61793
Non-critical_ROB_Stalls_Percent_8_Bucket_3: 16657
Critical_ROB_Stalls_Percent_8_Bucket_4: 79566
Non-critical_ROB_Stalls_Percent_8_Bucket_4: 24453
Critical_ROB_Stalls_Percent_8_Bucket_5: 69170
Non-critical_ROB_Stalls_Percent_8_Bucket_5: 24336
Critical_ROB_Stalls_Percent_8_Bucket_6: 2090803
Non-critical_ROB_Stalls_Percent_8_Bucket_6: 147969
Average ROB occupancy Load Stall Begin: 193.219
Average ROB occupancy Load Stall End: 202.836
Min ROB occupancy Load Stall Begin: 3
Max ROB occupancy Load Stall Begin: 352
Min ROB occupancy Load Stall End: 3
Max ROB occupancy Load Stall End: 352
Average ROB occupancy Critical Load Stall Begin: -nan
Average ROB occupancy Critical Load Stall End: -nan
Min ROB occupancy Critical Load Stall Begin: 400
Max ROB occupancy Critical Load Stall Begin: 0
Min ROB occupancy Critical Load Stall End: 400
Max ROB occupancy Critical Load Stall End: 0
 ROB Load Stall Begin Bucket Count 0: 1575692
 ROB Load Stall End Bucket Count 0: 854396
 ROB Critical Load Stall Begin Bucket Count 0: 0
 ROB Critical Load Stall End Bucket Count 0: 0
 ROB Load Stall Begin Bucket Count 1: 778894
 ROB Load Stall End Bucket Count 1: 1423111
 ROB Critical Load Stall Begin Bucket Count 1: 0
 ROB Critical Load Stall End Bucket Count 1: 0
 ROB Load Stall Begin Bucket Count 2: 83671
 ROB Load Stall End Bucket Count 2: 118485
 ROB Critical Load Stall Begin Bucket Count 2: 0
 ROB Critical Load Stall End Bucket Count 2: 0
 ROB Load Stall Begin Bucket Count 3: 88635
 ROB Load Stall End Bucket Count 3: 78450
 ROB Critical Load Stall Begin Bucket Count 3: 0
 ROB Critical Load Stall End Bucket Count 3: 0
 ROB Load Stall Begin Bucket Count 4: 101973
 ROB Load Stall End Bucket Count 4: 104019
 ROB Critical Load Stall Begin Bucket Count 4: 0
 ROB Critical Load Stall End Bucket Count 4: 0
 ROB Load Stall Begin Bucket Count 5: 95023
 ROB Load Stall End Bucket Count 5: 93506
 ROB Critical Load Stall Begin Bucket Count 5: 0
 ROB Critical Load Stall End Bucket Count 5: 0
 ROB Load Stall Begin Bucket Count 6: 2186851
 ROB Load Stall End Bucket Count 6: 2238772
 ROB Critical Load Stall Begin Bucket Count 6: 0
 ROB Critical Load Stall End Bucket Count 6: 0
PIST Tag Read Accesses: 50516
PIST Read Accesses: 25258
PIST Tag Write Accesses: 50516
PIST Write Accesses: 25258
Criticality detector called times: 26702
Max global_stall_cycles_count: 330021
Threshold Modified: 3 times, factor: -3
Sturdy critical IP cache stats: 
 Unused entries: 0
CIC Tag Read Accesses: 0
CIC Read Accesses: 0
CIC Tag Write Accesses: 0
CIC Write Accesses: 0
Wobbly critical IP cache stats: 
 Unused entries: 94
CIC Tag Read Accesses: 235836343
CIC Read Accesses: 0
CIC Tag Write Accesses: 5534842
CIC Write Accesses: 0
ITLB TOTAL     ACCESS:   15069665  HIT:   15069665  MISS:          0  HIT %:        100  MISS %:          0   MPKI: 0
ITLB LOAD TRANSLATION ACCESS:   15069665  HIT:   15069665  MISS:          0  HIT %:        100  MISS %:          0   MPKI: 0
ITLB PREFETCH  REQUESTED:          0  ISSUED:          0  USEFUL:          0  USELESS:          0
ITLB USEFUL LOAD PREFETCHES:          0 PREFETCH ISSUED TO LOWER LEVEL:          0  ACCURACY: -nan
ITLB TIMELY PREFETCHES:          0 LATE PREFETCHES: 0 DROPPED PREFETCHES: 0
ITLB PREFETCHES SAME FILL-ORIGIN LEVEL: 0 DIFFERENT FILL-ORIGIN LEVEL: 0
ITLB AVERAGE MISS LATENCY: -nan cycles
ITLB RQ	ACCESS:   16150893	FORWARD:          0	MERGED:    1081229	TO_CACHE:   15069664

DTLB TOTAL     ACCESS:   25879488  HIT:   25830742  MISS:      48746  HIT %:    99.8116  MISS %:   0.188358   MPKI: 0.48746
DTLB LOAD TRANSLATION ACCESS:   25879488  HIT:   25830742  MISS:      48746  HIT %:    99.8116  MISS %:   0.188358   MPKI: 0.48746
DTLB PREFETCH  REQUESTED:          0  ISSUED:          0  USEFUL:          0  USELESS:          0
DTLB USEFUL LOAD PREFETCHES:          0 PREFETCH ISSUED TO LOWER LEVEL:          0  ACCURACY: -nan
DTLB TIMELY PREFETCHES:          0 LATE PREFETCHES: 0 DROPPED PREFETCHES: 0
DTLB PREFETCHES SAME FILL-ORIGIN LEVEL: 0 DIFFERENT FILL-ORIGIN LEVEL: 0
DTLB AVERAGE MISS LATENCY: 192.559 cycles
DTLB RQ	ACCESS:   28662141	FORWARD:          0	MERGED:    2733215	TO_CACHE:   25928926

STLB TOTAL     ACCESS:      48746  HIT:         39  MISS:      48707  HIT %:  0.0800066  MISS %:      99.92   MPKI: 0.48707
STLB LOAD TRANSLATION ACCESS:      48746  HIT:         39  MISS:      48707  HIT %:  0.0800066  MISS %:      99.92   MPKI: 0.48707
STLB PREFETCH  REQUESTED:          0  ISSUED:          0  USEFUL:          0  USELESS:          0
STLB USEFUL LOAD PREFETCHES:          0 PREFETCH ISSUED TO LOWER LEVEL:          0  ACCURACY: -nan
STLB TIMELY PREFETCHES:          0 LATE PREFETCHES: 0 DROPPED PREFETCHES: 0
STLB PREFETCHES SAME FILL-ORIGIN LEVEL: 0 DIFFERENT FILL-ORIGIN LEVEL: 0
STLB AVERAGE MISS LATENCY: 183.219 cycles
STLB RQ	ACCESS:      48746	FORWARD:          0	MERGED:          0	TO_CACHE:      48746

STLB Hit, L1D data hit: 0
STLB Hit, L2C data hit: 0
STLB Hit, LLC data hit: 0
STLB Hit, LLC data miss: 0
STLB STLB hints to L2: 0
L1D TOTAL     ACCESS:   24486144  HIT:   22303691  MISS:    2182453  HIT %:     91.087  MISS %:    8.91301   MPKI: 21.8245
L1D LOAD      ACCESS:   23001908  HIT:   21501951  MISS:    1499957  HIT %:     93.479  MISS %:    6.52101   MPKI: 14.9996
L1D RFO       ACCESS:    1484236  HIT:     801740  MISS:     682496  HIT %:     54.017  MISS %:     45.983   MPKI: 6.82496
L1D PREFETCH  REQUESTED:          0  ISSUED:          0  USEFUL:          0  USELESS:          0
L1D USEFUL LOAD PREFETCHES:          0 PREFETCH ISSUED TO LOWER LEVEL:          0  ACCURACY: -nan
L1D TIMELY PREFETCHES:          0 LATE PREFETCHES: 0 DROPPED PREFETCHES: 0
L1D PREFETCHES SAME FILL-ORIGIN LEVEL: 0 DIFFERENT FILL-ORIGIN LEVEL: 0
L1D AVERAGE MISS LATENCY: 124.275 cycles
L1D RQ	ACCESS:   37614366	FORWARD:          0	MERGED:   14380759	TO_CACHE:   23233607
L1D WQ	ACCESS:    5428534	FORWARD:          0	MERGED:          0	TO_CACHE:    5428534

L1D UNIQUE REGIONS ACCESSED: 0
L1D REGIONS CONFLICTS: 0
L1D Cross Page Prefetch Requests: 0
L1D Same Page Prefetch Requests: 0
L1D ROI Sum of L1D PQ occupancy: 0
L1D PREFETCHES PUSHED FROM L2C: 0
L1I TOTAL     ACCESS:   16150892  HIT:   16150892  MISS:          0  HIT %:        100  MISS %:          0   MPKI: 0
L1I LOAD      ACCESS:   16150892  HIT:   16150892  MISS:          0  HIT %:        100  MISS %:          0   MPKI: 0
L1I PREFETCH  REQUESTED:          0  ISSUED:          0  USEFUL:          0  USELESS:          0
L1I USEFUL LOAD PREFETCHES:          0 PREFETCH ISSUED TO LOWER LEVEL:          0  ACCURACY: -nan
L1I TIMELY PREFETCHES:          0 LATE PREFETCHES: 0 DROPPED PREFETCHES: 0
L1I PREFETCHES SAME FILL-ORIGIN LEVEL: 0 DIFFERENT FILL-ORIGIN LEVEL: 0
L1I AVERAGE MISS LATENCY: -nan cycles
L1I RQ	ACCESS:   25950897	FORWARD:          0	MERGED:    9800004	TO_CACHE:   16150893

BTB TOTAL     ACCESS:    5346352  HIT:    5346343  MISS:          9  HIT %:    99.9998  MISS %: 0.000168339   MPKI: 9e-05
BTB BRANCH_DIRECT_JUMP	ACCESS:          0  HIT:          0  MISS:          0
BTB BRANCH_INDIRECT	ACCESS:          0  HIT:          0  MISS:          0
BTB BRANCH_CONDITIONAL	ACCESS:    5346352  HIT:    5346343  MISS:          9
BTB BRANCH_DIRECT_CALL	ACCESS:          0  HIT:          0  MISS:          0
BTB BRANCH_INDIRECT_CALL	ACCESS:          0  HIT:          0  MISS:          0
BTB BRANCH_RETURN	ACCESS:          0  HIT:          0  MISS:          0
BTB BRANCH_OTHER ACCESS:          0  HIT:          0  MISS:          0

L2C TOTAL     ACCESS:    4742138  HIT:    2418713  MISS:    2323425  HIT %:    51.0047  MISS %:    48.9953   MPKI: 23.2342
L2C LOAD      ACCESS:    1499958  HIT:    1415076  MISS:      84882  HIT %:     94.341  MISS %:    5.65896   MPKI: 0.84882
L2C DATA LOAD MPKI: 0.84882
L2C INSTRUCTION LOAD MPKI: 0
L2C RFO       ACCESS:     682496  HIT:          0  MISS:     682496  HIT %:          0  MISS %:        100   MPKI: 6.82496
L2C PREFETCH  ACCESS:    1828681  HIT:     313389  MISS:    1515292  HIT %:    17.1374  MISS %:    82.8626   MPKI: 15.1529
L2C DATA PREFETCH MPKI: 15.1529
L2C INSTRUCTION PREFETCH MPKI: 0
L2C WRITEBACK ACCESS:     682231  HIT:     651751  MISS:      30480  HIT %:    95.5323  MISS %:    4.46769   MPKI: 0.3048
L2C LOAD TRANSLATION ACCESS:      48772  HIT:      38497  MISS:      10275  HIT %:    78.9326  MISS %:    21.0674   MPKI: 0.10275
L2C PREFETCH  REQUESTED:    1882672  ISSUED:    1882672  USEFUL:    1415073  USELESS:     100233
L2C USEFUL LOAD PREFETCHES:    1415073 PREFETCH ISSUED TO LOWER LEVEL:    1541027  ACCURACY: 91.8266
L2C TIMELY PREFETCHES:    1415073 LATE PREFETCHES: 25720 DROPPED PREFETCHES: 0
L2C PREFETCHES SAME FILL-ORIGIN LEVEL: 1541025 DIFFERENT FILL-ORIGIN LEVEL: 2
L2C AVERAGE MISS LATENCY: 296.941 cycles
L2C RQ	ACCESS:    2231233	FORWARD:          0	MERGED:          0	TO_CACHE:    2231233
L2C WQ	ACCESS:     682231	FORWARD:          0	MERGED:          0	TO_CACHE:     682231
L2C PQ	ACCESS:    1882672	FORWARD:          0	MERGED:        688	TO_CACHE:    1881984

L2C Instructions Evicting Data 0
L2C Translations Evicting Data 10237
L2C Data Evicting Data 2272603
L2C Instructions Evicting Instructions 0
L2C Translations Evicting Instructions 0
L2C Data Evicting Instructions 0
L2C Instructions Evicting Translations 0
L2C Translations Evicting Translations 38
L2C Data Evicting Translations 10067
L2C Dense regions hint from L2: 0
PSCL5 TOTAL     ACCESS:      48707  HIT:      48707  MISS:          0  HIT %:        100  MISS %:          0   MPKI: 0
PSCL5 LOAD TRANSLATION ACCESS:      48707  HIT:      48707  MISS:          0  HIT %:        100  MISS %:          0   MPKI: 0
PSCL5 PREFETCH  REQUESTED:          0  ISSUED:          0  USEFUL:          0  USELESS:          0
PSCL5 USEFUL LOAD PREFETCHES:          0 PREFETCH ISSUED TO LOWER LEVEL:          0  ACCURACY: -nan
PSCL5 TIMELY PREFETCHES:          0 LATE PREFETCHES: 0 DROPPED PREFETCHES: 0
PSCL5 PREFETCHES SAME FILL-ORIGIN LEVEL: 0 DIFFERENT FILL-ORIGIN LEVEL: 0

PSCL4 TOTAL     ACCESS:      48707  HIT:      48707  MISS:          0  HIT %:        100  MISS %:          0   MPKI: 0
PSCL4 LOAD TRANSLATION ACCESS:      48707  HIT:      48707  MISS:          0  HIT %:        100  MISS %:          0   MPKI: 0
PSCL4 PREFETCH  REQUESTED:          0  ISSUED:          0  USEFUL:          0  USELESS:          0
PSCL4 USEFUL LOAD PREFETCHES:          0 PREFETCH ISSUED TO LOWER LEVEL:          0  ACCURACY: -nan
PSCL4 TIMELY PREFETCHES:          0 LATE PREFETCHES: 0 DROPPED PREFETCHES: 0
PSCL4 PREFETCHES SAME FILL-ORIGIN LEVEL: 0 DIFFERENT FILL-ORIGIN LEVEL: 0

PSCL3 TOTAL     ACCESS:      48707  HIT:      48707  MISS:          0  HIT %:        100  MISS %:          0   MPKI: 0
PSCL3 LOAD TRANSLATION ACCESS:      48707  HIT:      48707  MISS:          0  HIT %:        100  MISS %:          0   MPKI: 0
PSCL3 PREFETCH  REQUESTED:          0  ISSUED:          0  USEFUL:          0  USELESS:          0
PSCL3 USEFUL LOAD PREFETCHES:          0 PREFETCH ISSUED TO LOWER LEVEL:          0  ACCURACY: -nan
PSCL3 TIMELY PREFETCHES:          0 LATE PREFETCHES: 0 DROPPED PREFETCHES: 0
PSCL3 PREFETCHES SAME FILL-ORIGIN LEVEL: 0 DIFFERENT FILL-ORIGIN LEVEL: 0

PSCL2 TOTAL     ACCESS:      48707  HIT:      48570  MISS:        137  HIT %:    99.7187  MISS %:   0.281274   MPKI: 0.00137
PSCL2 LOAD TRANSLATION ACCESS:      48707  HIT:      48570  MISS:        137  HIT %:    99.7187  MISS %:   0.281274   MPKI: 0.00137
PSCL2 PREFETCH  REQUESTED:          0  ISSUED:          0  USEFUL:          0  USELESS:          0
PSCL2 USEFUL LOAD PREFETCHES:          0 PREFETCH ISSUED TO LOWER LEVEL:          0  ACCURACY: -nan
PSCL2 TIMELY PREFETCHES:          0 LATE PREFETCHES: 0 DROPPED PREFETCHES: 0
PSCL2 PREFETCHES SAME FILL-ORIGIN LEVEL: 0 DIFFERENT FILL-ORIGIN LEVEL: 0

LLC TOTAL     ACCESS:    2972409  HIT:     532831  MISS:    2439578  HIT %:    17.9259  MISS %:    82.0741   MPKI: 24.3958
LLC LOAD      ACCESS:      59162  HIT:        803  MISS:      58359  HIT %:    1.35729  MISS %:    98.6427   MPKI: 0.58359
LLC RFO       ACCESS:     682496  HIT:          0  MISS:     682496  HIT %:          0  MISS %:        100   MPKI: 6.82496
LLC PREFETCH  ACCESS:    1541014  HIT:       5914  MISS:    1535100  HIT %:   0.383773  MISS %:    99.6162   MPKI: 15.351
LLC WRITEBACK ACCESS:     679462  HIT:     525868  MISS:     153594  HIT %:    77.3948  MISS %:    22.6052   MPKI: 1.53594
LLC LOAD TRANSLATION ACCESS:      10275  HIT:        246  MISS:      10029  HIT %:    2.39416  MISS %:    97.6058   MPKI: 0.10029
LLC PREFETCH  REQUESTED:          0  ISSUED:          0  USEFUL:        783  USELESS:    1545365
LLC USEFUL LOAD PREFETCHES:        783 PREFETCH ISSUED TO LOWER LEVEL:    1535113  ACCURACY: 0.051006
LLC TIMELY PREFETCHES:        783 LATE PREFETCHES: 0 DROPPED PREFETCHES: 0
LLC PREFETCHES SAME FILL-ORIGIN LEVEL: 2 DIFFERENT FILL-ORIGIN LEVEL: 0
LLC AVERAGE MISS LATENCY: 259.327 cycles
LLC RQ	ACCESS:     751939	FORWARD:          0	MERGED:          0	TO_CACHE:     751939
LLC WQ	ACCESS:     679462	FORWARD:          0	MERGED:          0	TO_CACHE:     679462
LLC PQ	ACCESS:    1541027	FORWARD:          0	MERGED:          0	TO_CACHE:    1541027

LLC Dense regions hint to LLC: 0

RAW hits: 10
Loads Generated: 37614382
Loads sent to L1D: 37614366
Stores Generated: 5428535
Stores sent to L1D: 5428534
Major fault: 0 Minor fault: 32209
Allocated PAGES: 32209
------------------
Depth Distribution
------------------
depth 0: 17331
depth 1: 293
depth 2: 17
depth 3: 23
depth 4: 169
depth 5: 747
depth 6: 2416
depth 7: 445613
depth 8: 1126235
depth 9: 282809
depth 10: 33604
depth 11: 216274
depth 12: 89040
depth 13: 17556
depth 14: 16038
depth 15: 62
depth 16: 10
depth 17: 1
depth 18: 0
depth 19: 0
depth 20: 0
depth 21: 0
depth 22: 0
depth 23: 0
depth 24: 0
depth 25: 0
depth 26: 0
depth 27: 0
depth 28: 0
depth 29: 0
Total: 2248238
------------------
ST read accesses: 1463977
ST write accesses: 35981
PT read accesses: 70473556
PT write accesses: 2179431
FILTER read accesses: 14925817
FILTER write accesses: 7917681
GHR read accesses: 5431422
GHR write accesses: 979307
PERC read accesses: 510227037
PERC write accesses: 16081109
GHR counter read accesses: 2999916
GHR counter write accesses: 4907599
GHR ip read accesses: 10147926
GHR ip write accesses: 5999832
ST tag read accesses: 595065914
ST tag write accesses: 16460802

DRAM Statistics
 CHANNEL 0
 RQ ROW_BUFFER_HIT:     482721  ROW_BUFFER_MISS:    1803266
 DBUS_CONGESTED:        238
 WQ ROW_BUFFER_HIT:     164213  ROW_BUFFER_MISS:     504432  FULL:       1536

 AVG_CONGESTED_CYCLE: 5
 All warmup complete: 2
Channel 0 Bank busy for read cycles: 0
Channel 0 Bank busy for write cycles: 0
Channel 0
Rank 0
0banks busy for read cycles: 164915
0banks busy for write cycles: 113
1banks busy for read cycles: 14205991
1banks busy for write cycles: 166719
2banks busy for read cycles: 23244299
2banks busy for write cycles: 168226
3banks busy for read cycles: 21758733
3banks busy for write cycles: 171708
4banks busy for read cycles: 13278983
4banks busy for write cycles: 170807
5banks busy for read cycles: 6787179
5banks busy for write cycles: 183159
6banks busy for read cycles: 4235225
6banks busy for write cycles: 227548
7banks busy for read cycles: 2987079
7banks busy for write cycles: 1354426
8banks busy for read cycles: 5390773
8banks busy for write cycles: 17868166

CPU 0 Branch Prediction Accuracy: 99.8815% MPKI: 0.0634 Average ROB Occupancy at Mispredict: 199.033
Branch types
NOT_BRANCH: 94651484 94.6515%
BRANCH_DIRECT_JUMP: 0 0%
BRANCH_INDIRECT: 0 0%
BRANCH_CONDITIONAL: 5348414 5.34841%
BRANCH_DIRECT_CALL: 0 0%
BRANCH_INDIRECT_CALL: 0 0%
BRANCH_RETURN: 0 0%
BRANCH_OTHER: 0 0%

DRAM PAGES: 1048576
Allocated PAGES: 32209
