
*** ChampSim Multicore Out-of-Order Simulator ***

Warmup Instructions: 50000000
Simulation Instructions: 100000000
Number of CPUs: 1
LLC sets: 2048
LLC ways: 16
Off-chip DRAM Size: 4096 MB Channels: 1 Width: 64-bit Data Rate: 6400 MT/s
CPU 0 runs ../SPEC2017//654.roms_s-294B.champsimtrace.xz
.xz
NUM_OF_IPS_IN_CRITICAL_IP_TRAINING: 64
NUM_OF_CRITICAL_IP_TRAINING_TABLE_WAYS: 2
NUM_OF_CRITICAL_IP_TRAINING_TABLE_SETS: 32
WOBBLY_CRITICAL_IP_CACHE_SETS: 32
WOBBLY_CRITICAL_IP_CACHE_WAYS: 4
BTB has LRU replacement policy
ITLB has LRU replacement policy
DTLB has LRU replacement policy
STLB has LRU replacement policy
L1I has LRU replacement policy
IP Table Entries: 64
L1D has LRU replacement policy
Initialize SRRIP state for L2C
Initialize DRRIP state for LLC
Heartbeat CPU 0 instructions: 10000001 cycles: 3208068 heartbeat IPC: 3.11714 cumulative IPC: 3.11714 (Simulation time: 0 hr 6 min 19 sec) 
Heartbeat CPU 0 instructions: 20000000 cycles: 6416061 heartbeat IPC: 3.11721 cumulative IPC: 3.11718 (Simulation time: 0 hr 11 min 45 sec) 
Heartbeat CPU 0 instructions: 30000003 cycles: 9623958 heartbeat IPC: 3.11731 cumulative IPC: 3.11722 (Simulation time: 0 hr 16 min 47 sec) 
Heartbeat CPU 0 instructions: 40000001 cycles: 12831706 heartbeat IPC: 3.11745 cumulative IPC: 3.11728 (Simulation time: 0 hr 21 min 40 sec) 
Heartbeat CPU 0 instructions: 50000001 cycles: 16039257 heartbeat IPC: 3.11764 cumulative IPC: 3.11735 (Simulation time: 0 hr 26 min 16 sec) 

Warmup complete CPU 0 instructions: 50000001 cycles: 16039257 (Simulation time: 0 hr 26 min 16 sec) 

% increase in all ip prefetch 189.831
% increase in all ip prefetch -0.0506484
Heartbeat CPU 0 instructions: 60000002 cycles: 25698575 heartbeat IPC: 1.03527 cumulative IPC: 1.03527 (Simulation time: 0 hr 29 min 51 sec) 
Heartbeat CPU 0 instructions: 70000000 cycles: 35344426 heartbeat IPC: 1.03671 cumulative IPC: 1.03599 (Simulation time: 0 hr 32 min 53 sec) 
Heartbeat CPU 0 instructions: 80000001 cycles: 44997549 heartbeat IPC: 1.03593 cumulative IPC: 1.03597 (Simulation time: 0 hr 36 min 7 sec) 
Heartbeat CPU 0 instructions: 90000001 cycles: 54656607 heartbeat IPC: 1.0353 cumulative IPC: 1.0358 (Simulation time: 0 hr 39 min 25 sec) 
Heartbeat CPU 0 instructions: 100000000 cycles: 64313368 heartbeat IPC: 1.03554 cumulative IPC: 1.03575 (Simulation time: 0 hr 42 min 24 sec) 
Heartbeat CPU 0 instructions: 110000000 cycles: 73966953 heartbeat IPC: 1.03588 cumulative IPC: 1.03577 (Simulation time: 0 hr 45 min 20 sec) 
Heartbeat CPU 0 instructions: 120000002 cycles: 83619046 heartbeat IPC: 1.03604 cumulative IPC: 1.03581 (Simulation time: 0 hr 48 min 18 sec) 
Heartbeat CPU 0 instructions: 130000001 cycles: 93286157 heartbeat IPC: 1.03444 cumulative IPC: 1.03564 (Simulation time: 0 hr 51 min 11 sec) 
Heartbeat CPU 0 instructions: 140000000 cycles: 102941408 heartbeat IPC: 1.03571 cumulative IPC: 1.03565 (Simulation time: 0 hr 54 min 2 sec) 
Heartbeat CPU 0 instructions: 150000001 cycles: 112606032 heartbeat IPC: 1.0347 cumulative IPC: 1.03555 (Simulation time: 0 hr 56 min 19 sec) 
Finished CPU 0 instructions: 100000000 cycles: 96566775 cumulative IPC: 1.03555 (Simulation time: 0 hr 56 min 19 sec) 

ChampSim completed all CPUs

Region of Interest Statistics

CPU 0 cumulative IPC: 1.03555 instructions: 100000000 cycles: 96566775

CPU 0 Average Load ROB stall cycles: 2.6217e+07
CPU 0 Fraction of times ROB stalled by Loads: 40.7629
CPU 0 Percentage of Load stall cycles in Total stall cycles: 3.06414e+08
Issued all: 51835498
Issued LT all: 38676729
rob_not_full_when_issued_lt_all: 34804452
Issued LT one: 33298724
rob_not_full_when_issued_lt_one: 29766925
 Total stall cycles: 72254962
 Total load stall cycles: 221399409537373
CPU 0 NUM of IPS identified critical: 0
CPU 0 Num of Load IPs stalling ROB: 74
Threshold modification factor: -1
Max PIST entries: 36
Min PIST entries: 0
Avg PIST entries: 14.34
Trouble in retire width: 0.901635
MaC = Marked as critical.
lt_50_percent_before_Mac: 0
gt_90_percent_before_Mac: 0
gt_75_percent_before_Mac: 0
gt_50_percent_before_Mac: 0
stall_proportion_bin_same_before_after: 0
stall_proportion_bin_lower_before_after: 0
stall_proportion_bin_upper_before_after: 0
average_stall_proportion_before: -nan
average_stall_proportion_after: -nan
Critical IP stalls, total frequency: 0
Non-critical IP stalls, total frequency: 3442374
Total Freq all stalling IPs: 3442374
stat_90_percent_critical_ip_stalls_freq: 3166738
stat_90_percent_non_critical_ip_stalls_freq: 275636
Critical_IP_ROB_Stalls_Bucket_0: 0
Non-critical_IP_ROB_Stalls_Bucket_0: 35376
Critical_IP_ROB_Stalls_Bucket_1: 0
Non-critical_IP_ROB_Stalls_Bucket_1: 1905706
Critical_IP_ROB_Stalls_Bucket_2: 0
Non-critical_IP_ROB_Stalls_Bucket_2: 569432
Critical_IP_ROB_Stalls_Bucket_3: 0
Non-critical_IP_ROB_Stalls_Bucket_3: 381312
Critical_IP_ROB_Stalls_Bucket_4: 0
Non-critical_IP_ROB_Stalls_Bucket_4: 211954
Critical_IP_ROB_Stalls_Bucket_5: 0
Non-critical_IP_ROB_Stalls_Bucket_5: 196170
Critical_IP_ROB_Stalls_Bucket_6: 0
Non-critical_IP_ROB_Stalls_Bucket_6: 142424
0 => IPs accounting for >50 percent of stalls, 1 => 55, 2 => 60, 3 => 65 and so on till 90.
percent50: 62.8898 num IPs:  2
percent55: 62.8898 num IPs: 2
percent60: 62.8898 num IPs: 2
percent65: 74.2356 num IPs: 3
percent70: 74.2356 num IPs: 3
percent75: 80.4025 num IPs: 4
percent80: 80.4025 num IPs: 4
percent85: 85.3415 num IPs: 5
percent90: 91.9929 num IPs: 7
Critical_ROB_Stalls_Percent_0_Bucket_0: 9109
Non-critical_ROB_Stalls_Percent_0_Bucket_0: 26267
Critical_ROB_Stalls_Percent_0_Bucket_1: 1442708
Non-critical_ROB_Stalls_Percent_0_Bucket_1: 462998
Critical_ROB_Stalls_Percent_0_Bucket_2: 334961
Non-critical_ROB_Stalls_Percent_0_Bucket_2: 234471
Critical_ROB_Stalls_Percent_0_Bucket_3: 137564
Non-critical_ROB_Stalls_Percent_0_Bucket_3: 243748
Critical_ROB_Stalls_Percent_0_Bucket_4: 97727
Non-critical_ROB_Stalls_Percent_0_Bucket_4: 114227
Critical_ROB_Stalls_Percent_0_Bucket_5: 101712
Non-critical_ROB_Stalls_Percent_0_Bucket_5: 94458
Critical_ROB_Stalls_Percent_0_Bucket_6: 41120
Non-critical_ROB_Stalls_Percent_0_Bucket_6: 101304
Critical_ROB_Stalls_Percent_1_Bucket_0: 9109
Non-critical_ROB_Stalls_Percent_1_Bucket_0: 26267
Critical_ROB_Stalls_Percent_1_Bucket_1: 1442708
Non-critical_ROB_Stalls_Percent_1_Bucket_1: 462998
Critical_ROB_Stalls_Percent_1_Bucket_2: 334961
Non-critical_ROB_Stalls_Percent_1_Bucket_2: 234471
Critical_ROB_Stalls_Percent_1_Bucket_3: 137564
Non-critical_ROB_Stalls_Percent_1_Bucket_3: 243748
Critical_ROB_Stalls_Percent_1_Bucket_4: 97727
Non-critical_ROB_Stalls_Percent_1_Bucket_4: 114227
Critical_ROB_Stalls_Percent_1_Bucket_5: 101712
Non-critical_ROB_Stalls_Percent_1_Bucket_5: 94458
Critical_ROB_Stalls_Percent_1_Bucket_6: 41120
Non-critical_ROB_Stalls_Percent_1_Bucket_6: 101304
Critical_ROB_Stalls_Percent_2_Bucket_0: 9109
Non-critical_ROB_Stalls_Percent_2_Bucket_0: 26267
Critical_ROB_Stalls_Percent_2_Bucket_1: 1442708
Non-critical_ROB_Stalls_Percent_2_Bucket_1: 462998
Critical_ROB_Stalls_Percent_2_Bucket_2: 334961
Non-critical_ROB_Stalls_Percent_2_Bucket_2: 234471
Critical_ROB_Stalls_Percent_2_Bucket_3: 137564
Non-critical_ROB_Stalls_Percent_2_Bucket_3: 243748
Critical_ROB_Stalls_Percent_2_Bucket_4: 97727
Non-critical_ROB_Stalls_Percent_2_Bucket_4: 114227
Critical_ROB_Stalls_Percent_2_Bucket_5: 101712
Non-critical_ROB_Stalls_Percent_2_Bucket_5: 94458
Critical_ROB_Stalls_Percent_2_Bucket_6: 41120
Non-critical_ROB_Stalls_Percent_2_Bucket_6: 101304
Critical_ROB_Stalls_Percent_3_Bucket_0: 9805
Non-critical_ROB_Stalls_Percent_3_Bucket_0: 25571
Critical_ROB_Stalls_Percent_3_Bucket_1: 1627083
Non-critical_ROB_Stalls_Percent_3_Bucket_1: 278623
Critical_ROB_Stalls_Percent_3_Bucket_2: 410675
Non-critical_ROB_Stalls_Percent_3_Bucket_2: 158757
Critical_ROB_Stalls_Percent_3_Bucket_3: 196267
Non-critical_ROB_Stalls_Percent_3_Bucket_3: 185045
Critical_ROB_Stalls_Percent_3_Bucket_4: 127119
Non-critical_ROB_Stalls_Percent_3_Bucket_4: 84835
Critical_ROB_Stalls_Percent_3_Bucket_5: 130038
Non-critical_ROB_Stalls_Percent_3_Bucket_5: 66132
Critical_ROB_Stalls_Percent_3_Bucket_6: 54481
Non-critical_ROB_Stalls_Percent_3_Bucket_6: 87943
Critical_ROB_Stalls_Percent_4_Bucket_0: 9805
Non-critical_ROB_Stalls_Percent_4_Bucket_0: 25571
Critical_ROB_Stalls_Percent_4_Bucket_1: 1627083
Non-critical_ROB_Stalls_Percent_4_Bucket_1: 278623
Critical_ROB_Stalls_Percent_4_Bucket_2: 410675
Non-critical_ROB_Stalls_Percent_4_Bucket_2: 158757
Critical_ROB_Stalls_Percent_4_Bucket_3: 196267
Non-critical_ROB_Stalls_Percent_4_Bucket_3: 185045
Critical_ROB_Stalls_Percent_4_Bucket_4: 127119
Non-critical_ROB_Stalls_Percent_4_Bucket_4: 84835
Critical_ROB_Stalls_Percent_4_Bucket_5: 130038
Non-critical_ROB_Stalls_Percent_4_Bucket_5: 66132
Critical_ROB_Stalls_Percent_4_Bucket_6: 54481
Non-critical_ROB_Stalls_Percent_4_Bucket_6: 87943
Critical_ROB_Stalls_Percent_5_Bucket_0: 9865
Non-critical_ROB_Stalls_Percent_5_Bucket_0: 25511
Critical_ROB_Stalls_Percent_5_Bucket_1: 1729040
Non-critical_ROB_Stalls_Percent_5_Bucket_1: 176666
Critical_ROB_Stalls_Percent_5_Bucket_2: 452468
Non-critical_ROB_Stalls_Percent_5_Bucket_2: 116964
Critical_ROB_Stalls_Percent_5_Bucket_3: 215244
Non-critical_ROB_Stalls_Percent_5_Bucket_3: 166068
Critical_ROB_Stalls_Percent_5_Bucket_4: 147515
Non-critical_ROB_Stalls_Percent_5_Bucket_4: 64439
Critical_ROB_Stalls_Percent_5_Bucket_5: 148911
Non-critical_ROB_Stalls_Percent_5_Bucket_5: 47259
Critical_ROB_Stalls_Percent_5_Bucket_6: 64711
Non-critical_ROB_Stalls_Percent_5_Bucket_6: 77713
Critical_ROB_Stalls_Percent_6_Bucket_0: 9865
Non-critical_ROB_Stalls_Percent_6_Bucket_0: 25511
Critical_ROB_Stalls_Percent_6_Bucket_1: 1729040
Non-critical_ROB_Stalls_Percent_6_Bucket_1: 176666
Critical_ROB_Stalls_Percent_6_Bucket_2: 452468
Non-critical_ROB_Stalls_Percent_6_Bucket_2: 116964
Critical_ROB_Stalls_Percent_6_Bucket_3: 215244
Non-critical_ROB_Stalls_Percent_6_Bucket_3: 166068
Critical_ROB_Stalls_Percent_6_Bucket_4: 147515
Non-critical_ROB_Stalls_Percent_6_Bucket_4: 64439
Critical_ROB_Stalls_Percent_6_Bucket_5: 148911
Non-critical_ROB_Stalls_Percent_6_Bucket_5: 47259
Critical_ROB_Stalls_Percent_6_Bucket_6: 64711
Non-critical_ROB_Stalls_Percent_6_Bucket_6: 77713
Critical_ROB_Stalls_Percent_7_Bucket_0: 9984
Non-critical_ROB_Stalls_Percent_7_Bucket_0: 25392
Critical_ROB_Stalls_Percent_7_Bucket_1: 1756633
Non-critical_ROB_Stalls_Percent_7_Bucket_1: 149073
Critical_ROB_Stalls_Percent_7_Bucket_2: 480741
Non-critical_ROB_Stalls_Percent_7_Bucket_2: 88691
Critical_ROB_Stalls_Percent_7_Bucket_3: 271688
Non-critical_ROB_Stalls_Percent_7_Bucket_3: 109624
Critical_ROB_Stalls_Percent_7_Bucket_4: 167936
Non-critical_ROB_Stalls_Percent_7_Bucket_4: 44018
Critical_ROB_Stalls_Percent_7_Bucket_5: 159633
Non-critical_ROB_Stalls_Percent_7_Bucket_5: 36537
Critical_ROB_Stalls_Percent_7_Bucket_6: 91160
Non-critical_ROB_Stalls_Percent_7_Bucket_6: 51264
Critical_ROB_Stalls_Percent_8_Bucket_0: 10154
Non-critical_ROB_Stalls_Percent_8_Bucket_0: 25222
Critical_ROB_Stalls_Percent_8_Bucket_1: 1773996
Non-critical_ROB_Stalls_Percent_8_Bucket_1: 131710
Critical_ROB_Stalls_Percent_8_Bucket_2: 532524
Non-critical_ROB_Stalls_Percent_8_Bucket_2: 36908
Critical_ROB_Stalls_Percent_8_Bucket_3: 348457
Non-critical_ROB_Stalls_Percent_8_Bucket_3: 32855
Critical_ROB_Stalls_Percent_8_Bucket_4: 192855
Non-critical_ROB_Stalls_Percent_8_Bucket_4: 19099
Critical_ROB_Stalls_Percent_8_Bucket_5: 180170
Non-critical_ROB_Stalls_Percent_8_Bucket_5: 16000
Critical_ROB_Stalls_Percent_8_Bucket_6: 128582
Non-critical_ROB_Stalls_Percent_8_Bucket_6: 13842
Average ROB occupancy Load Stall Begin: 105.299
Average ROB occupancy Load Stall End: 120.525
Min ROB occupancy Load Stall Begin: 3
Max ROB occupancy Load Stall Begin: 352
Min ROB occupancy Load Stall End: 5
Max ROB occupancy Load Stall End: 352
Average ROB occupancy Critical Load Stall Begin: -nan
Average ROB occupancy Critical Load Stall End: -nan
Min ROB occupancy Critical Load Stall Begin: 400
Max ROB occupancy Critical Load Stall Begin: 0
Min ROB occupancy Critical Load Stall End: 400
Max ROB occupancy Critical Load Stall End: 0
 ROB Load Stall Begin Bucket Count 0: 659350
 ROB Load Stall End Bucket Count 0: 35376
 ROB Critical Load Stall Begin Bucket Count 0: 0
 ROB Critical Load Stall End Bucket Count 0: 0
 ROB Load Stall Begin Bucket Count 1: 1530867
 ROB Load Stall End Bucket Count 1: 1905706
 ROB Critical Load Stall Begin Bucket Count 1: 0
 ROB Critical Load Stall End Bucket Count 1: 0
 ROB Load Stall Begin Bucket Count 2: 426994
 ROB Load Stall End Bucket Count 2: 569432
 ROB Critical Load Stall Begin Bucket Count 2: 0
 ROB Critical Load Stall End Bucket Count 2: 0
 ROB Load Stall Begin Bucket Count 3: 362212
 ROB Load Stall End Bucket Count 3: 381312
 ROB Critical Load Stall Begin Bucket Count 3: 0
 ROB Critical Load Stall End Bucket Count 3: 0
 ROB Load Stall Begin Bucket Count 4: 197675
 ROB Load Stall End Bucket Count 4: 211954
 ROB Critical Load Stall Begin Bucket Count 4: 0
 ROB Critical Load Stall End Bucket Count 4: 0
 ROB Load Stall Begin Bucket Count 5: 165908
 ROB Load Stall End Bucket Count 5: 196170
 ROB Critical Load Stall Begin Bucket Count 5: 0
 ROB Critical Load Stall End Bucket Count 5: 0
 ROB Load Stall Begin Bucket Count 6: 99368
 ROB Load Stall End Bucket Count 6: 142424
 ROB Critical Load Stall Begin Bucket Count 6: 0
 ROB Critical Load Stall End Bucket Count 6: 0
PIST Tag Read Accesses: 116264
PIST Read Accesses: 58132
PIST Tag Write Accesses: 116264
PIST Write Accesses: 58132
Criticality detector called times: 63504
Max global_stall_cycles_count: 343343
Threshold Modified: 1 times, factor: -1
Sturdy critical IP cache stats: 
 Unused entries: 0
CIC Tag Read Accesses: 0
CIC Read Accesses: 0
CIC Tag Write Accesses: 0
CIC Write Accesses: 0
Wobbly critical IP cache stats: 
 Unused entries: 112
CIC Tag Read Accesses: 204702709
CIC Read Accesses: 0
CIC Tag Write Accesses: 174
CIC Write Accesses: 0
ITLB TOTAL     ACCESS:   13417679  HIT:   13417679  MISS:          0  HIT %:        100  MISS %:          0   MPKI: 0
ITLB LOAD TRANSLATION ACCESS:   13417679  HIT:   13417679  MISS:          0  HIT %:        100  MISS %:          0   MPKI: 0
ITLB PREFETCH  REQUESTED:          0  ISSUED:          0  USEFUL:          0  USELESS:          0
ITLB USEFUL LOAD PREFETCHES:          0 PREFETCH ISSUED TO LOWER LEVEL:          0  ACCURACY: -nan
ITLB TIMELY PREFETCHES:          0 LATE PREFETCHES: 0 DROPPED PREFETCHES: 0
ITLB PREFETCHES SAME FILL-ORIGIN LEVEL: 0 DIFFERENT FILL-ORIGIN LEVEL: 0
ITLB AVERAGE MISS LATENCY: -nan cycles
ITLB RQ	ACCESS:   16729770	FORWARD:          0	MERGED:    3312091	TO_CACHE:   13417679

DTLB TOTAL     ACCESS:   26061602  HIT:   26020424  MISS:      41178  HIT %:     99.842  MISS %:   0.158003   MPKI: 0.41178
DTLB LOAD TRANSLATION ACCESS:   26061602  HIT:   26020424  MISS:      41178  HIT %:     99.842  MISS %:   0.158003   MPKI: 0.41178
DTLB PREFETCH  REQUESTED:          0  ISSUED:          0  USEFUL:          0  USELESS:          0
DTLB USEFUL LOAD PREFETCHES:          0 PREFETCH ISSUED TO LOWER LEVEL:          0  ACCURACY: -nan
DTLB TIMELY PREFETCHES:          0 LATE PREFETCHES: 0 DROPPED PREFETCHES: 0
DTLB PREFETCHES SAME FILL-ORIGIN LEVEL: 0 DIFFERENT FILL-ORIGIN LEVEL: 0
DTLB AVERAGE MISS LATENCY: 348.922 cycles
DTLB RQ	ACCESS:   28290540	FORWARD:          0	MERGED:    2224110	TO_CACHE:   26066430

STLB TOTAL     ACCESS:    1549217  HIT:    1516341  MISS:      32876  HIT %:    97.8779  MISS %:     2.1221   MPKI: 0.32876
STLB LOAD TRANSLATION ACCESS:      41178  HIT:       8302  MISS:      32876  HIT %:    20.1613  MISS %:    79.8387   MPKI: 0.32876
STLB TRANSLATION FROM L1D PREFETCHER ACCESS:    1508039  HIT:    1508039  MISS:          0  HIT %:        100  MISS %:          0   MPKI: 0
STLB PREFETCH  REQUESTED:          0  ISSUED:          0  USEFUL:          0  USELESS:          0
STLB USEFUL LOAD PREFETCHES:          0 PREFETCH ISSUED TO LOWER LEVEL:          0  ACCURACY: -nan
STLB TIMELY PREFETCHES:          0 LATE PREFETCHES: 0 DROPPED PREFETCHES: 0
STLB PREFETCHES SAME FILL-ORIGIN LEVEL: 0 DIFFERENT FILL-ORIGIN LEVEL: 0
STLB AVERAGE MISS LATENCY: 424.154 cycles
STLB RQ	ACCESS:    8068311	FORWARD:          0	MERGED:    6519095	TO_CACHE:    1549216

STLB Hit, L1D data hit: 0
STLB Hit, L2C data hit: 0
STLB Hit, LLC data hit: 0
STLB Hit, LLC data miss: 0
STLB STLB hints to L2: 0
L1D TOTAL     ACCESS:   36101620  HIT:   34673060  MISS:    1428560  HIT %:    96.0429  MISS %:    3.95705   MPKI: 14.2856
L1D LOAD      ACCESS:   24728192  HIT:   24577666  MISS:     150526  HIT %:    99.3913  MISS %:   0.608722   MPKI: 1.50526
L1D RFO       ACCESS:    3353354  HIT:    3343719  MISS:       9635  HIT %:    99.7127  MISS %:   0.287324   MPKI: 0.09635
L1D PREFETCH  ACCESS:    8020074  HIT:    6751675  MISS:    1268399  HIT %:    84.1847  MISS %:    15.8153   MPKI: 12.684
L1D PREFETCH  REQUESTED:   18172284  ISSUED:   16054266  USEFUL:    1165171  USELESS:     103243
L1D USEFUL LOAD PREFETCHES:    1165171 PREFETCH ISSUED TO LOWER LEVEL:    1269518  ACCURACY: 91.7806
L1D TIMELY PREFETCHES:    1165171 LATE PREFETCHES: 1115 DROPPED PREFETCHES: 0
L1D PREFETCHES SAME FILL-ORIGIN LEVEL: 1269518 DIFFERENT FILL-ORIGIN LEVEL: 0
L1D AVERAGE MISS LATENCY: 51808.1 cycles
L1D RQ	ACCESS:   38223730	FORWARD:          0	MERGED:   13333534	TO_CACHE:   24890191
L1D WQ	ACCESS:    3400349	FORWARD:          5	MERGED:          0	TO_CACHE:    3400349
L1D PQ	ACCESS:    8027133	FORWARD:          0	MERGED:          0	TO_CACHE:    8027133

L1D UNIQUE REGIONS ACCESSED: 0
L1D REGIONS CONFLICTS: 0
L1D Cross Page Prefetch Requests: 0
L1D Same Page Prefetch Requests: 12609331
L1D ROI Sum of L1D PQ occupancy: 120981178
L1D PREFETCHES PUSHED FROM L2C: 0
L1I TOTAL     ACCESS:   16729770  HIT:   16729770  MISS:          0  HIT %:        100  MISS %:          0   MPKI: 0
L1I LOAD      ACCESS:   16729770  HIT:   16729770  MISS:          0  HIT %:        100  MISS %:          0   MPKI: 0
L1I PREFETCH  REQUESTED:          0  ISSUED:          0  USEFUL:          0  USELESS:          0
L1I USEFUL LOAD PREFETCHES:          0 PREFETCH ISSUED TO LOWER LEVEL:          0  ACCURACY: -nan
L1I TIMELY PREFETCHES:          0 LATE PREFETCHES: 0 DROPPED PREFETCHES: 0
L1I PREFETCHES SAME FILL-ORIGIN LEVEL: 0 DIFFERENT FILL-ORIGIN LEVEL: 0
L1I AVERAGE MISS LATENCY: -nan cycles
L1I RQ	ACCESS:   26783554	FORWARD:          0	MERGED:   10053784	TO_CACHE:   16729770

BTB TOTAL     ACCESS:    5002845  HIT:    5002834  MISS:         11  HIT %:    99.9998  MISS %: 0.000219875   MPKI: 0.00011
BTB BRANCH_DIRECT_JUMP	ACCESS:         81  HIT:         80  MISS:          1
BTB BRANCH_INDIRECT	ACCESS:          0  HIT:          0  MISS:          0
BTB BRANCH_CONDITIONAL	ACCESS:    5002602  HIT:    5002594  MISS:          8
BTB BRANCH_DIRECT_CALL	ACCESS:         81  HIT:         80  MISS:          1
BTB BRANCH_INDIRECT_CALL	ACCESS:          0  HIT:          0  MISS:          0
BTB BRANCH_RETURN	ACCESS:         81  HIT:         80  MISS:          1
BTB BRANCH_OTHER ACCESS:          0  HIT:          0  MISS:          0

L2C TOTAL     ACCESS:    1515351  HIT:     116116  MISS:    1399235  HIT %:    7.66265  MISS %:    92.3374   MPKI: 13.9924
L2C LOAD      ACCESS:     149401  HIT:       7479  MISS:     141922  HIT %:    5.00599  MISS %:     94.994   MPKI: 1.41922
L2C DATA LOAD MPKI: 1.41922
L2C INSTRUCTION LOAD MPKI: 0
L2C RFO       ACCESS:       9635  HIT:         76  MISS:       9559  HIT %:   0.788791  MISS %:    99.2112   MPKI: 0.09559
L2C PREFETCH  ACCESS:    1269472  HIT:      41615  MISS:    1227857  HIT %:    3.27813  MISS %:    96.7219   MPKI: 12.2786
L2C DATA PREFETCH MPKI: 12.2786
L2C INSTRUCTION PREFETCH MPKI: 0
L2C WRITEBACK ACCESS:      37509  HIT:      30473  MISS:       7036  HIT %:    81.2418  MISS %:    18.7582   MPKI: 0.07036
L2C LOAD TRANSLATION ACCESS:      49334  HIT:      36473  MISS:      12861  HIT %:    73.9308  MISS %:    26.0692   MPKI: 0.12861
L2C PREFETCH  REQUESTED:          0  ISSUED:          0  USEFUL:        547  USELESS:    1227922
L2C USEFUL LOAD PREFETCHES:        547 PREFETCH ISSUED TO LOWER LEVEL:    1227861  ACCURACY: 0.044549
L2C TIMELY PREFETCHES:        547 LATE PREFETCHES: 0 DROPPED PREFETCHES: 0
L2C PREFETCHES SAME FILL-ORIGIN LEVEL: 0 DIFFERENT FILL-ORIGIN LEVEL: 0
L2C AVERAGE MISS LATENCY: 118.995 cycles
L2C RQ	ACCESS:     208380	FORWARD:          0	MERGED:          0	TO_CACHE:     208370
L2C WQ	ACCESS:      37509	FORWARD:         52	MERGED:          0	TO_CACHE:      37509
L2C PQ	ACCESS:    1269518	FORWARD:          0	MERGED:          0	TO_CACHE:    1269476

L2C Instructions Evicting Data 0
L2C Translations Evicting Data 12704
L2C Data Evicting Data 1366689
L2C Instructions Evicting Instructions 0
L2C Translations Evicting Instructions 0
L2C Data Evicting Instructions 0
L2C Instructions Evicting Translations 0
L2C Translations Evicting Translations 157
L2C Data Evicting Translations 12649
L2C Dense regions hint from L2: 0
PSCL5 TOTAL     ACCESS:      32876  HIT:      32876  MISS:          0  HIT %:        100  MISS %:          0   MPKI: 0
PSCL5 LOAD TRANSLATION ACCESS:      32876  HIT:      32876  MISS:          0  HIT %:        100  MISS %:          0   MPKI: 0
PSCL5 PREFETCH  REQUESTED:          0  ISSUED:          0  USEFUL:          0  USELESS:          0
PSCL5 USEFUL LOAD PREFETCHES:          0 PREFETCH ISSUED TO LOWER LEVEL:          0  ACCURACY: -nan
PSCL5 TIMELY PREFETCHES:          0 LATE PREFETCHES: 0 DROPPED PREFETCHES: 0
PSCL5 PREFETCHES SAME FILL-ORIGIN LEVEL: 0 DIFFERENT FILL-ORIGIN LEVEL: 0

PSCL4 TOTAL     ACCESS:      32876  HIT:      32876  MISS:          0  HIT %:        100  MISS %:          0   MPKI: 0
PSCL4 LOAD TRANSLATION ACCESS:      32876  HIT:      32876  MISS:          0  HIT %:        100  MISS %:          0   MPKI: 0
PSCL4 PREFETCH  REQUESTED:          0  ISSUED:          0  USEFUL:          0  USELESS:          0
PSCL4 USEFUL LOAD PREFETCHES:          0 PREFETCH ISSUED TO LOWER LEVEL:          0  ACCURACY: -nan
PSCL4 TIMELY PREFETCHES:          0 LATE PREFETCHES: 0 DROPPED PREFETCHES: 0
PSCL4 PREFETCHES SAME FILL-ORIGIN LEVEL: 0 DIFFERENT FILL-ORIGIN LEVEL: 0

PSCL3 TOTAL     ACCESS:      32876  HIT:      32849  MISS:         27  HIT %:    99.9179  MISS %:  0.0821268   MPKI: 0.00027
PSCL3 LOAD TRANSLATION ACCESS:      32876  HIT:      32849  MISS:         27  HIT %:    99.9179  MISS %:  0.0821268   MPKI: 0.00027
PSCL3 PREFETCH  REQUESTED:          0  ISSUED:          0  USEFUL:          0  USELESS:          0
PSCL3 USEFUL LOAD PREFETCHES:          0 PREFETCH ISSUED TO LOWER LEVEL:          0  ACCURACY: -nan
PSCL3 TIMELY PREFETCHES:          0 LATE PREFETCHES: 0 DROPPED PREFETCHES: 0
PSCL3 PREFETCHES SAME FILL-ORIGIN LEVEL: 0 DIFFERENT FILL-ORIGIN LEVEL: 0

PSCL2 TOTAL     ACCESS:      32876  HIT:      16315  MISS:      16561  HIT %:    49.6259  MISS %:    50.3741   MPKI: 0.16561
PSCL2 LOAD TRANSLATION ACCESS:      32876  HIT:      16315  MISS:      16561  HIT %:    49.6259  MISS %:    50.3741   MPKI: 0.16561
PSCL2 PREFETCH  REQUESTED:          0  ISSUED:          0  USEFUL:          0  USELESS:          0
PSCL2 USEFUL LOAD PREFETCHES:          0 PREFETCH ISSUED TO LOWER LEVEL:          0  ACCURACY: -nan
PSCL2 TIMELY PREFETCHES:          0 LATE PREFETCHES: 0 DROPPED PREFETCHES: 0
PSCL2 PREFETCHES SAME FILL-ORIGIN LEVEL: 0 DIFFERENT FILL-ORIGIN LEVEL: 0

LLC TOTAL     ACCESS:    1402631  HIT:     219663  MISS:    1182968  HIT %:    15.6608  MISS %:    84.3392   MPKI: 11.8297
LLC LOAD      ACCESS:     141922  HIT:       9185  MISS:     132737  HIT %:    6.47186  MISS %:    93.5281   MPKI: 1.32737
LLC RFO       ACCESS:       9559  HIT:          8  MISS:       9551  HIT %:  0.0836908  MISS %:    99.9163   MPKI: 0.09551
LLC PREFETCH  ACCESS:    1227857  HIT:     203031  MISS:    1024826  HIT %:    16.5354  MISS %:    83.4646   MPKI: 10.2483
LLC WRITEBACK ACCESS:      10432  HIT:       3769  MISS:       6663  HIT %:    36.1292  MISS %:    63.8708   MPKI: 0.06663
LLC LOAD TRANSLATION ACCESS:      12861  HIT:       3670  MISS:       9191  HIT %:    28.5359  MISS %:    71.4641   MPKI: 0.09191
LLC PREFETCH  REQUESTED:          0  ISSUED:          0  USEFUL:       2526  USELESS:    1024074
LLC USEFUL LOAD PREFETCHES:       2526 PREFETCH ISSUED TO LOWER LEVEL:    1024830  ACCURACY: 0.24648
LLC TIMELY PREFETCHES:       2526 LATE PREFETCHES: 0 DROPPED PREFETCHES: 0
LLC PREFETCHES SAME FILL-ORIGIN LEVEL: 0 DIFFERENT FILL-ORIGIN LEVEL: 0
LLC AVERAGE MISS LATENCY: 103.017 cycles
LLC RQ	ACCESS:     164342	FORWARD:          0	MERGED:          0	TO_CACHE:     164342
LLC WQ	ACCESS:      10432	FORWARD:          0	MERGED:          0	TO_CACHE:      10432
LLC PQ	ACCESS:    1227861	FORWARD:          0	MERGED:          0	TO_CACHE:    1227861

LLC Dense regions hint to LLC: 0

RAW hits: 152
Loads Generated: 38223883
Loads sent to L1D: 38223730
Stores Generated: 3400351
Stores sent to L1D: 3400349
Major fault: 0 Minor fault: 49795
Allocated PAGES: 49795

stream: 
stream:times selected: 2848489
stream:pref_filled: 1951204
stream:pref_useful: 1788725
stream:pref_late: 1618
stream:misses: 42
stream:misses_by_poll: 0

CS: 
CS:times selected: 2646338
CS:pref_filled: 13066
CS:pref_useful: 12837
CS:pref_late: 101
CS:misses: 317248
CS:misses_by_poll: 58

CPLX: 
CPLX:times selected: 202099
CPLX:pref_filled: 422
CPLX:pref_useful: 271
CPLX:pref_late: 0
CPLX:misses: 2420
CPLX:misses_by_poll: 0

NL_L1: 
NL:times selected: 4
NL:pref_filled: 3
NL:pref_useful: 3
NL:pref_late: 0
NL:misses: 0
NL:misses_by_poll: 0

total selections: 5696930
total_filled: 1268399
total_useful: 1165171
total_late: 1760
total_polluted: 58
total_misses_after_warmup: 312529
conflicts: 510610
Degree Incremented Times: 323215
Degree Decremented Times: 0

L1 IP Table Write Accesses: 21954478
L1 IP Table Read Accesses: 21443868
L1 RST Write Accesses: 1915845
L1 RST Read Accesses: 3831690
L1 CSPT Write Accesses: 1915845
L1 CSPT Read Accesses: 2322647
L1 RR Filter Tag Write Accesses: 10145151
L1 RR Filter Tag Read Accesses: 490923248
L1 IP Table Tag Write Accesses: 24890195
L1 IP Table Tag Read Accesses: 24890195
L1 RST Tag Write Accesses: 0
L1 RST Tag Read Accesses: 17241665
L1 RR Filter Write Accesses: 0
L1 RR Filter Read Accesses: 16420368
test: 76308

DRAM Statistics
 CHANNEL 0
 RQ ROW_BUFFER_HIT:     936185  ROW_BUFFER_MISS:     240120
 DBUS_CONGESTED:        431
 WQ ROW_BUFFER_HIT:       1200  ROW_BUFFER_MISS:       9310  FULL:          0

 AVG_CONGESTED_CYCLE: 6
 All warmup complete: 2
Channel 0 Bank busy for read cycles: 0
Channel 0 Bank busy for write cycles: 0
Channel 0
Rank 0
0banks busy for read cycles: 54503794
0banks busy for write cycles: 8635
1banks busy for read cycles: 22732784
1banks busy for write cycles: 1318650
2banks busy for read cycles: 8269669
2banks busy for write cycles: 161177
3banks busy for read cycles: 3435760
3banks busy for write cycles: 44777
4banks busy for read cycles: 1950073
4banks busy for write cycles: 10091
5banks busy for read cycles: 1270456
5banks busy for write cycles: 4152
6banks busy for read cycles: 1141361
6banks busy for write cycles: 1488
7banks busy for read cycles: 1453664
7banks busy for write cycles: 705
8banks busy for read cycles: 259540
8banks busy for write cycles: 0

CPU 0 Branch Prediction Accuracy: 99.9308% MPKI: 0.03474 Average ROB Occupancy at Mispredict: 107.889
Branch types
NOT_BRANCH: 94977514 94.9775%
BRANCH_DIRECT_JUMP: 81 8.1e-05%
BRANCH_INDIRECT: 0 0%
BRANCH_CONDITIONAL: 5022054 5.02205%
BRANCH_DIRECT_CALL: 81 8.1e-05%
BRANCH_INDIRECT_CALL: 0 0%
BRANCH_RETURN: 81 8.1e-05%
BRANCH_OTHER: 0 0%

DRAM PAGES: 1048576
Allocated PAGES: 49795
