Initialize SIGNATURE TABLE
ST_SET: 1
ST_WAY: 256
ST_TAG_BIT: 16
ST_TAG_MASK: ffff

Initialize PATTERN TABLE
PT_SET: 512
PT_WAY: 4
SIG_DELTA_BIT: 7
C_SIG_BIT: 4
C_DELTA_BIT: 4

Initialize PREFETCH FILTER
FILTER_SET: 1024

Initialize PERCEPTRON
PERC_ENTRIES: 4096
PERC_FEATURES: 9

*** ChampSim Multicore Out-of-Order Simulator ***

Warmup Instructions: 50000000
Simulation Instructions: 100000000
Number of CPUs: 1
LLC sets: 2048
LLC ways: 16
Off-chip DRAM Size: 4096 MB Channels: 1 Width: 64-bit Data Rate: 6400 MT/s
CPU 0 runs ../SPEC2017//654.roms_s-294B.champsimtrace.xz
.xz
NUM_OF_IPS_IN_CRITICAL_IP_TRAINING: 64
NUM_OF_CRITICAL_IP_TRAINING_TABLE_WAYS: 2
NUM_OF_CRITICAL_IP_TRAINING_TABLE_SETS: 32
WOBBLY_CRITICAL_IP_CACHE_SETS: 32
WOBBLY_CRITICAL_IP_CACHE_WAYS: 4
BTB has LRU replacement policy
ITLB has LRU replacement policy
DTLB has LRU replacement policy
STLB has LRU replacement policy
L1I has LRU replacement policy
L1D has LRU replacement policy
Initialize SRRIP state for L2C
Initialize DRRIP state for LLC
Heartbeat CPU 0 instructions: 10000001 cycles: 3210552 heartbeat IPC: 3.11473 cumulative IPC: 3.11473 (Simulation time: 0 hr 4 min 59 sec) 
Heartbeat CPU 0 instructions: 20000000 cycles: 6420950 heartbeat IPC: 3.11488 cumulative IPC: 3.1148 (Simulation time: 0 hr 9 min 36 sec) 
Heartbeat CPU 0 instructions: 30000003 cycles: 9631416 heartbeat IPC: 3.11481 cumulative IPC: 3.11481 (Simulation time: 0 hr 13 min 50 sec) 
Heartbeat CPU 0 instructions: 40000001 cycles: 12841630 heartbeat IPC: 3.11506 cumulative IPC: 3.11487 (Simulation time: 0 hr 17 min 46 sec) 
Heartbeat CPU 0 instructions: 50000001 cycles: 16051719 heartbeat IPC: 3.11518 cumulative IPC: 3.11493 (Simulation time: 0 hr 21 min 31 sec) 

Warmup complete CPU 0 instructions: 50000001 cycles: 16051719 (Simulation time: 0 hr 21 min 31 sec) 

% increase in all ip prefetch 189.402
% increase in all ip prefetch -0.0202988
Heartbeat CPU 0 instructions: 60000002 cycles: 25655425 heartbeat IPC: 1.04126 cumulative IPC: 1.04126 (Simulation time: 0 hr 25 min 27 sec) 
Heartbeat CPU 0 instructions: 70000000 cycles: 35247911 heartbeat IPC: 1.04248 cumulative IPC: 1.04187 (Simulation time: 0 hr 29 min 11 sec) 
Heartbeat CPU 0 instructions: 80000001 cycles: 44832927 heartbeat IPC: 1.0433 cumulative IPC: 1.04235 (Simulation time: 0 hr 32 min 34 sec) 
Heartbeat CPU 0 instructions: 90000001 cycles: 54424222 heartbeat IPC: 1.04261 cumulative IPC: 1.04241 (Simulation time: 0 hr 35 min 40 sec) 
Heartbeat CPU 0 instructions: 100000002 cycles: 64019527 heartbeat IPC: 1.04218 cumulative IPC: 1.04237 (Simulation time: 0 hr 38 min 39 sec) 
Heartbeat CPU 0 instructions: 110000000 cycles: 73619136 heartbeat IPC: 1.04171 cumulative IPC: 1.04226 (Simulation time: 0 hr 41 min 28 sec) 
Heartbeat CPU 0 instructions: 120000002 cycles: 83209072 heartbeat IPC: 1.04276 cumulative IPC: 1.04233 (Simulation time: 0 hr 44 min 13 sec) 
Heartbeat CPU 0 instructions: 130000001 cycles: 92803300 heartbeat IPC: 1.04229 cumulative IPC: 1.04232 (Simulation time: 0 hr 46 min 59 sec) 
Heartbeat CPU 0 instructions: 140000000 cycles: 102393786 heartbeat IPC: 1.0427 cumulative IPC: 1.04237 (Simulation time: 0 hr 51 min 11 sec) 
Heartbeat CPU 0 instructions: 150000000 cycles: 111989626 heartbeat IPC: 1.04212 cumulative IPC: 1.04234 (Simulation time: 0 hr 56 min 52 sec) 
Finished CPU 0 instructions: 100000003 cycles: 95937908 cumulative IPC: 1.04234 (Simulation time: 0 hr 56 min 52 sec) 

ChampSim completed all CPUs

Region of Interest Statistics

CPU 0 cumulative IPC: 1.04234 instructions: 100000003 cycles: 95937908

CPU 0 Average Load ROB stall cycles: 2.46414e+07
CPU 0 Fraction of times ROB stalled by Loads: 38.4875
CPU 0 Percentage of Load stall cycles in Total stall cycles: 3.16062e+08
Issued all: 51066109
Issued LT all: 37823233
rob_not_full_when_issued_lt_all: 34979097
Issued LT one: 32628541
rob_not_full_when_issued_lt_one: 29939393
 Total stall cycles: 71757636
 Total load stall cycles: 226798679655511
CPU 0 NUM of IPS identified critical: 0
CPU 0 Num of Load IPs stalling ROB: 74
Threshold modification factor: -1
Max PIST entries: 33
Min PIST entries: 0
Avg PIST entries: 15.1867
Trouble in retire width: 0.866975
MaC = Marked as critical.
lt_50_percent_before_Mac: 0
gt_90_percent_before_Mac: 0
gt_75_percent_before_Mac: 0
gt_50_percent_before_Mac: 0
stall_proportion_bin_same_before_after: 0
stall_proportion_bin_lower_before_after: 0
stall_proportion_bin_upper_before_after: 0
average_stall_proportion_before: -nan
average_stall_proportion_after: -nan
Critical IP stalls, total frequency: 0
Non-critical IP stalls, total frequency: 3542376
Total Freq all stalling IPs: 3542376
stat_90_percent_critical_ip_stalls_freq: 3259372
stat_90_percent_non_critical_ip_stalls_freq: 283004
Critical_IP_ROB_Stalls_Bucket_0: 0
Non-critical_IP_ROB_Stalls_Bucket_0: 30393
Critical_IP_ROB_Stalls_Bucket_1: 0
Non-critical_IP_ROB_Stalls_Bucket_1: 2796846
Critical_IP_ROB_Stalls_Bucket_2: 0
Non-critical_IP_ROB_Stalls_Bucket_2: 393833
Critical_IP_ROB_Stalls_Bucket_3: 0
Non-critical_IP_ROB_Stalls_Bucket_3: 113601
Critical_IP_ROB_Stalls_Bucket_4: 0
Non-critical_IP_ROB_Stalls_Bucket_4: 69310
Critical_IP_ROB_Stalls_Bucket_5: 0
Non-critical_IP_ROB_Stalls_Bucket_5: 73892
Critical_IP_ROB_Stalls_Bucket_6: 0
Non-critical_IP_ROB_Stalls_Bucket_6: 64501
0 => IPs accounting for >50 percent of stalls, 1 => 55, 2 => 60, 3 => 65 and so on till 90.
percent50: 67.8665 num IPs:  2
percent55: 67.8665 num IPs: 2
percent60: 67.8665 num IPs: 2
percent65: 67.8665 num IPs: 2
percent70: 79.4027 num IPs: 3
percent75: 79.4027 num IPs: 3
percent80: 85.0087 num IPs: 4
percent85: 85.0087 num IPs: 4
percent90: 92.0109 num IPs: 6
Critical_ROB_Stalls_Percent_0_Bucket_0: 5102
Non-critical_ROB_Stalls_Percent_0_Bucket_0: 25291
Critical_ROB_Stalls_Percent_0_Bucket_1: 1962696
Non-critical_ROB_Stalls_Percent_0_Bucket_1: 834150
Critical_ROB_Stalls_Percent_0_Bucket_2: 268421
Non-critical_ROB_Stalls_Percent_0_Bucket_2: 125412
Critical_ROB_Stalls_Percent_0_Bucket_3: 60117
Non-critical_ROB_Stalls_Percent_0_Bucket_3: 53484
Critical_ROB_Stalls_Percent_0_Bucket_4: 39639
Non-critical_ROB_Stalls_Percent_0_Bucket_4: 29671
Critical_ROB_Stalls_Percent_0_Bucket_5: 42831
Non-critical_ROB_Stalls_Percent_0_Bucket_5: 31061
Critical_ROB_Stalls_Percent_0_Bucket_6: 25281
Non-critical_ROB_Stalls_Percent_0_Bucket_6: 39220
Critical_ROB_Stalls_Percent_1_Bucket_0: 5102
Non-critical_ROB_Stalls_Percent_1_Bucket_0: 25291
Critical_ROB_Stalls_Percent_1_Bucket_1: 1962696
Non-critical_ROB_Stalls_Percent_1_Bucket_1: 834150
Critical_ROB_Stalls_Percent_1_Bucket_2: 268421
Non-critical_ROB_Stalls_Percent_1_Bucket_2: 125412
Critical_ROB_Stalls_Percent_1_Bucket_3: 60117
Non-critical_ROB_Stalls_Percent_1_Bucket_3: 53484
Critical_ROB_Stalls_Percent_1_Bucket_4: 39639
Non-critical_ROB_Stalls_Percent_1_Bucket_4: 29671
Critical_ROB_Stalls_Percent_1_Bucket_5: 42831
Non-critical_ROB_Stalls_Percent_1_Bucket_5: 31061
Critical_ROB_Stalls_Percent_1_Bucket_6: 25281
Non-critical_ROB_Stalls_Percent_1_Bucket_6: 39220
Critical_ROB_Stalls_Percent_2_Bucket_0: 5102
Non-critical_ROB_Stalls_Percent_2_Bucket_0: 25291
Critical_ROB_Stalls_Percent_2_Bucket_1: 1962696
Non-critical_ROB_Stalls_Percent_2_Bucket_1: 834150
Critical_ROB_Stalls_Percent_2_Bucket_2: 268421
Non-critical_ROB_Stalls_Percent_2_Bucket_2: 125412
Critical_ROB_Stalls_Percent_2_Bucket_3: 60117
Non-critical_ROB_Stalls_Percent_2_Bucket_3: 53484
Critical_ROB_Stalls_Percent_2_Bucket_4: 39639
Non-critical_ROB_Stalls_Percent_2_Bucket_4: 29671
Critical_ROB_Stalls_Percent_2_Bucket_5: 42831
Non-critical_ROB_Stalls_Percent_2_Bucket_5: 31061
Critical_ROB_Stalls_Percent_2_Bucket_6: 25281
Non-critical_ROB_Stalls_Percent_2_Bucket_6: 39220
Critical_ROB_Stalls_Percent_3_Bucket_0: 5102
Non-critical_ROB_Stalls_Percent_3_Bucket_0: 25291
Critical_ROB_Stalls_Percent_3_Bucket_1: 1962696
Non-critical_ROB_Stalls_Percent_3_Bucket_1: 834150
Critical_ROB_Stalls_Percent_3_Bucket_2: 268421
Non-critical_ROB_Stalls_Percent_3_Bucket_2: 125412
Critical_ROB_Stalls_Percent_3_Bucket_3: 60117
Non-critical_ROB_Stalls_Percent_3_Bucket_3: 53484
Critical_ROB_Stalls_Percent_3_Bucket_4: 39639
Non-critical_ROB_Stalls_Percent_3_Bucket_4: 29671
Critical_ROB_Stalls_Percent_3_Bucket_5: 42831
Non-critical_ROB_Stalls_Percent_3_Bucket_5: 31061
Critical_ROB_Stalls_Percent_3_Bucket_6: 25281
Non-critical_ROB_Stalls_Percent_3_Bucket_6: 39220
Critical_ROB_Stalls_Percent_4_Bucket_0: 6163
Non-critical_ROB_Stalls_Percent_4_Bucket_0: 24230
Critical_ROB_Stalls_Percent_4_Bucket_1: 2284955
Non-critical_ROB_Stalls_Percent_4_Bucket_1: 511891
Critical_ROB_Stalls_Percent_4_Bucket_2: 303882
Non-critical_ROB_Stalls_Percent_4_Bucket_2: 89951
Critical_ROB_Stalls_Percent_4_Bucket_3: 82369
Non-critical_ROB_Stalls_Percent_4_Bucket_3: 31232
Critical_ROB_Stalls_Percent_4_Bucket_4: 50339
Non-critical_ROB_Stalls_Percent_4_Bucket_4: 18971
Critical_ROB_Stalls_Percent_4_Bucket_5: 53143
Non-critical_ROB_Stalls_Percent_4_Bucket_5: 20749
Critical_ROB_Stalls_Percent_4_Bucket_6: 31891
Non-critical_ROB_Stalls_Percent_4_Bucket_6: 32610
Critical_ROB_Stalls_Percent_5_Bucket_0: 6163
Non-critical_ROB_Stalls_Percent_5_Bucket_0: 24230
Critical_ROB_Stalls_Percent_5_Bucket_1: 2284955
Non-critical_ROB_Stalls_Percent_5_Bucket_1: 511891
Critical_ROB_Stalls_Percent_5_Bucket_2: 303882
Non-critical_ROB_Stalls_Percent_5_Bucket_2: 89951
Critical_ROB_Stalls_Percent_5_Bucket_3: 82369
Non-critical_ROB_Stalls_Percent_5_Bucket_3: 31232
Critical_ROB_Stalls_Percent_5_Bucket_4: 50339
Non-critical_ROB_Stalls_Percent_5_Bucket_4: 18971
Critical_ROB_Stalls_Percent_5_Bucket_5: 53143
Non-critical_ROB_Stalls_Percent_5_Bucket_5: 20749
Critical_ROB_Stalls_Percent_5_Bucket_6: 31891
Non-critical_ROB_Stalls_Percent_5_Bucket_6: 32610
Critical_ROB_Stalls_Percent_6_Bucket_0: 6681
Non-critical_ROB_Stalls_Percent_6_Bucket_0: 23712
Critical_ROB_Stalls_Percent_6_Bucket_1: 2425031
Non-critical_ROB_Stalls_Percent_6_Bucket_1: 371815
Critical_ROB_Stalls_Percent_6_Bucket_2: 342698
Non-critical_ROB_Stalls_Percent_6_Bucket_2: 51135
Critical_ROB_Stalls_Percent_6_Bucket_3: 88493
Non-critical_ROB_Stalls_Percent_6_Bucket_3: 25108
Critical_ROB_Stalls_Percent_6_Bucket_4: 53156
Non-critical_ROB_Stalls_Percent_6_Bucket_4: 16154
Critical_ROB_Stalls_Percent_6_Bucket_5: 56289
Non-critical_ROB_Stalls_Percent_6_Bucket_5: 17603
Critical_ROB_Stalls_Percent_6_Bucket_6: 38979
Non-critical_ROB_Stalls_Percent_6_Bucket_6: 25522
Critical_ROB_Stalls_Percent_7_Bucket_0: 6681
Non-critical_ROB_Stalls_Percent_7_Bucket_0: 23712
Critical_ROB_Stalls_Percent_7_Bucket_1: 2425031
Non-critical_ROB_Stalls_Percent_7_Bucket_1: 371815
Critical_ROB_Stalls_Percent_7_Bucket_2: 342698
Non-critical_ROB_Stalls_Percent_7_Bucket_2: 51135
Critical_ROB_Stalls_Percent_7_Bucket_3: 88493
Non-critical_ROB_Stalls_Percent_7_Bucket_3: 25108
Critical_ROB_Stalls_Percent_7_Bucket_4: 53156
Non-critical_ROB_Stalls_Percent_7_Bucket_4: 16154
Critical_ROB_Stalls_Percent_7_Bucket_5: 56289
Non-critical_ROB_Stalls_Percent_7_Bucket_5: 17603
Critical_ROB_Stalls_Percent_7_Bucket_6: 38979
Non-critical_ROB_Stalls_Percent_7_Bucket_6: 25522
Critical_ROB_Stalls_Percent_8_Bucket_0: 7863
Non-critical_ROB_Stalls_Percent_8_Bucket_0: 22530
Critical_ROB_Stalls_Percent_8_Bucket_1: 2630591
Non-critical_ROB_Stalls_Percent_8_Bucket_1: 166255
Critical_ROB_Stalls_Percent_8_Bucket_2: 352668
Non-critical_ROB_Stalls_Percent_8_Bucket_2: 41165
Critical_ROB_Stalls_Percent_8_Bucket_3: 98338
Non-critical_ROB_Stalls_Percent_8_Bucket_3: 15263
Critical_ROB_Stalls_Percent_8_Bucket_4: 60258
Non-critical_ROB_Stalls_Percent_8_Bucket_4: 9052
Critical_ROB_Stalls_Percent_8_Bucket_5: 63808
Non-critical_ROB_Stalls_Percent_8_Bucket_5: 10084
Critical_ROB_Stalls_Percent_8_Bucket_6: 45846
Non-critical_ROB_Stalls_Percent_8_Bucket_6: 18655
Average ROB occupancy Load Stall Begin: 74.9714
Average ROB occupancy Load Stall End: 88.9031
Min ROB occupancy Load Stall Begin: 3
Max ROB occupancy Load Stall Begin: 352
Min ROB occupancy Load Stall End: 5
Max ROB occupancy Load Stall End: 352
Average ROB occupancy Critical Load Stall Begin: -nan
Average ROB occupancy Critical Load Stall End: -nan
Min ROB occupancy Critical Load Stall Begin: 400
Max ROB occupancy Critical Load Stall Begin: 0
Min ROB occupancy Critical Load Stall End: 400
Max ROB occupancy Critical Load Stall End: 0
 ROB Load Stall Begin Bucket Count 0: 804732
 ROB Load Stall End Bucket Count 0: 30393
 ROB Critical Load Stall Begin Bucket Count 0: 0
 ROB Critical Load Stall End Bucket Count 0: 0
 ROB Load Stall Begin Bucket Count 1: 2261646
 ROB Load Stall End Bucket Count 1: 2796846
 ROB Critical Load Stall Begin Bucket Count 1: 0
 ROB Critical Load Stall End Bucket Count 1: 0
 ROB Load Stall Begin Bucket Count 2: 194766
 ROB Load Stall End Bucket Count 2: 393833
 ROB Critical Load Stall Begin Bucket Count 2: 0
 ROB Critical Load Stall End Bucket Count 2: 0
 ROB Load Stall Begin Bucket Count 3: 104462
 ROB Load Stall End Bucket Count 3: 113601
 ROB Critical Load Stall Begin Bucket Count 3: 0
 ROB Critical Load Stall End Bucket Count 3: 0
 ROB Load Stall Begin Bucket Count 4: 66936
 ROB Load Stall End Bucket Count 4: 69310
 ROB Critical Load Stall Begin Bucket Count 4: 0
 ROB Critical Load Stall End Bucket Count 4: 0
 ROB Load Stall Begin Bucket Count 5: 61628
 ROB Load Stall End Bucket Count 5: 73892
 ROB Critical Load Stall Begin Bucket Count 5: 0
 ROB Critical Load Stall End Bucket Count 5: 0
 ROB Load Stall Begin Bucket Count 6: 48206
 ROB Load Stall End Bucket Count 6: 64501
 ROB Critical Load Stall Begin Bucket Count 6: 0
 ROB Critical Load Stall End Bucket Count 6: 0
PIST Tag Read Accesses: 158918
PIST Read Accesses: 79459
PIST Tag Write Accesses: 158918
PIST Write Accesses: 79459
Criticality detector called times: 85897
Max global_stall_cycles_count: 327638
Threshold Modified: 1 times, factor: -1
Sturdy critical IP cache stats: 
 Unused entries: 0
CIC Tag Read Accesses: 0
CIC Read Accesses: 0
CIC Tag Write Accesses: 0
CIC Write Accesses: 0
Wobbly critical IP cache stats: 
 Unused entries: 114
CIC Tag Read Accesses: 201980026
CIC Read Accesses: 0
CIC Tag Write Accesses: 172
CIC Write Accesses: 0
ITLB TOTAL     ACCESS:   13380731  HIT:   13380731  MISS:          0  HIT %:        100  MISS %:          0   MPKI: 0
ITLB LOAD TRANSLATION ACCESS:   13380731  HIT:   13380731  MISS:          0  HIT %:        100  MISS %:          0   MPKI: 0
ITLB PREFETCH  REQUESTED:          0  ISSUED:          0  USEFUL:          0  USELESS:          0
ITLB USEFUL LOAD PREFETCHES:          0 PREFETCH ISSUED TO LOWER LEVEL:          0  ACCURACY: -nan
ITLB TIMELY PREFETCHES:          0 LATE PREFETCHES: 0 DROPPED PREFETCHES: 0
ITLB PREFETCHES SAME FILL-ORIGIN LEVEL: 0 DIFFERENT FILL-ORIGIN LEVEL: 0
ITLB AVERAGE MISS LATENCY: -nan cycles
ITLB RQ	ACCESS:   16713153	FORWARD:          0	MERGED:    3332423	TO_CACHE:   13380730

DTLB TOTAL     ACCESS:   26776749  HIT:   26735430  MISS:      41319  HIT %:    99.8457  MISS %:   0.154309   MPKI: 0.41319
DTLB LOAD TRANSLATION ACCESS:   26776749  HIT:   26735430  MISS:      41319  HIT %:    99.8457  MISS %:   0.154309   MPKI: 0.41319
DTLB PREFETCH  REQUESTED:          0  ISSUED:          0  USEFUL:          0  USELESS:          0
DTLB USEFUL LOAD PREFETCHES:          0 PREFETCH ISSUED TO LOWER LEVEL:          0  ACCURACY: -nan
DTLB TIMELY PREFETCHES:          0 LATE PREFETCHES: 0 DROPPED PREFETCHES: 0
DTLB PREFETCHES SAME FILL-ORIGIN LEVEL: 0 DIFFERENT FILL-ORIGIN LEVEL: 0
DTLB AVERAGE MISS LATENCY: 381.481 cycles
DTLB RQ	ACCESS:   28923716	FORWARD:          0	MERGED:    2141493	TO_CACHE:   26782223

STLB TOTAL     ACCESS:      41319  HIT:       8443  MISS:      32876  HIT %:    20.4337  MISS %:    79.5663   MPKI: 0.32876
STLB LOAD TRANSLATION ACCESS:      41319  HIT:       8443  MISS:      32876  HIT %:    20.4337  MISS %:    79.5663   MPKI: 0.32876
STLB PREFETCH  REQUESTED:          0  ISSUED:          0  USEFUL:          0  USELESS:          0
STLB USEFUL LOAD PREFETCHES:          0 PREFETCH ISSUED TO LOWER LEVEL:          0  ACCURACY: -nan
STLB TIMELY PREFETCHES:          0 LATE PREFETCHES: 0 DROPPED PREFETCHES: 0
STLB PREFETCHES SAME FILL-ORIGIN LEVEL: 0 DIFFERENT FILL-ORIGIN LEVEL: 0
STLB AVERAGE MISS LATENCY: 467.035 cycles
STLB RQ	ACCESS:      41319	FORWARD:          0	MERGED:          0	TO_CACHE:      41319

STLB Hit, L1D data hit: 0
STLB Hit, L2C data hit: 0
STLB Hit, LLC data hit: 0
STLB Hit, LLC data miss: 0
STLB STLB hints to L2: 0
L1D TOTAL     ACCESS:   28814373  HIT:   27521025  MISS:    1293348  HIT %:    95.5114  MISS %:    4.48855   MPKI: 12.9335
L1D LOAD      ACCESS:   25465201  HIT:   24182403  MISS:    1282798  HIT %:    94.9625  MISS %:    5.03745   MPKI: 12.828
L1D RFO       ACCESS:    3349172  HIT:    3338622  MISS:      10550  HIT %:     99.685  MISS %:   0.315003   MPKI: 0.1055
L1D PREFETCH  REQUESTED:          0  ISSUED:          0  USEFUL:          0  USELESS:          0
L1D USEFUL LOAD PREFETCHES:          0 PREFETCH ISSUED TO LOWER LEVEL:          0  ACCURACY: -nan
L1D TIMELY PREFETCHES:          0 LATE PREFETCHES: 0 DROPPED PREFETCHES: 0
L1D PREFETCHES SAME FILL-ORIGIN LEVEL: 0 DIFFERENT FILL-ORIGIN LEVEL: 0
L1D AVERAGE MISS LATENCY: 22.5433 cycles
L1D RQ	ACCESS:   38223719	FORWARD:          0	MERGED:   12700339	TO_CACHE:   25523367
L1D WQ	ACCESS:    3400349	FORWARD:         13	MERGED:          0	TO_CACHE:    3400349

L1D UNIQUE REGIONS ACCESSED: 0
L1D REGIONS CONFLICTS: 0
L1D Cross Page Prefetch Requests: 0
L1D Same Page Prefetch Requests: 0
L1D ROI Sum of L1D PQ occupancy: 0
L1D PREFETCHES PUSHED FROM L2C: 0
L1I TOTAL     ACCESS:   16713153  HIT:   16713153  MISS:          0  HIT %:        100  MISS %:          0   MPKI: 0
L1I LOAD      ACCESS:   16713153  HIT:   16713153  MISS:          0  HIT %:        100  MISS %:          0   MPKI: 0
L1I PREFETCH  REQUESTED:          0  ISSUED:          0  USEFUL:          0  USELESS:          0
L1I USEFUL LOAD PREFETCHES:          0 PREFETCH ISSUED TO LOWER LEVEL:          0  ACCURACY: -nan
L1I TIMELY PREFETCHES:          0 LATE PREFETCHES: 0 DROPPED PREFETCHES: 0
L1I PREFETCHES SAME FILL-ORIGIN LEVEL: 0 DIFFERENT FILL-ORIGIN LEVEL: 0
L1I AVERAGE MISS LATENCY: -nan cycles
L1I RQ	ACCESS:   26743906	FORWARD:          0	MERGED:   10030753	TO_CACHE:   16713153

BTB TOTAL     ACCESS:    5002840  HIT:    5002829  MISS:         11  HIT %:    99.9998  MISS %: 0.000219875   MPKI: 0.00011
BTB BRANCH_DIRECT_JUMP	ACCESS:         81  HIT:         80  MISS:          1
BTB BRANCH_INDIRECT	ACCESS:          0  HIT:          0  MISS:          0
BTB BRANCH_CONDITIONAL	ACCESS:    5002597  HIT:    5002589  MISS:          8
BTB BRANCH_DIRECT_CALL	ACCESS:         81  HIT:         80  MISS:          1
BTB BRANCH_INDIRECT_CALL	ACCESS:          0  HIT:          0  MISS:          0
BTB BRANCH_RETURN	ACCESS:         81  HIT:         80  MISS:          1
BTB BRANCH_OTHER ACCESS:          0  HIT:          0  MISS:          0

L2C TOTAL     ACCESS:    3024275  HIT:    1550409  MISS:    1473866  HIT %:    51.2655  MISS %:    48.7345   MPKI: 14.7387
L2C LOAD      ACCESS:    1282795  HIT:    1227630  MISS:      55165  HIT %:    95.6996  MISS %:    4.30038   MPKI: 0.55165
L2C DATA LOAD MPKI: 0.55165
L2C INSTRUCTION LOAD MPKI: 0
L2C RFO       ACCESS:      10550  HIT:         59  MISS:      10491  HIT %:   0.559242  MISS %:    99.4408   MPKI: 0.10491
L2C PREFETCH  ACCESS:    1665055  HIT:     293123  MISS:    1371932  HIT %:    17.6044  MISS %:    82.3956   MPKI: 13.7193
L2C DATA PREFETCH MPKI: 13.7193
L2C INSTRUCTION PREFETCH MPKI: 0
L2C WRITEBACK ACCESS:      16541  HIT:       7483  MISS:       9058  HIT %:    45.2391  MISS %:    54.7609   MPKI: 0.09058
L2C LOAD TRANSLATION ACCESS:      49334  HIT:      22114  MISS:      27220  HIT %:    44.8251  MISS %:    55.1749   MPKI: 0.2722
L2C PREFETCH  REQUESTED:    1670926  ISSUED:    1670923  USEFUL:    1219193  USELESS:     152708
L2C USEFUL LOAD PREFETCHES:    1219193 PREFETCH ISSUED TO LOWER LEVEL:    1374338  ACCURACY: 88.7113
L2C TIMELY PREFETCHES:    1219193 LATE PREFETCHES: 1048 DROPPED PREFETCHES: 0
L2C PREFETCHES SAME FILL-ORIGIN LEVEL: 1372983 DIFFERENT FILL-ORIGIN LEVEL: 1355
L2C AVERAGE MISS LATENCY: 128.232 cycles
L2C RQ	ACCESS:    1342681	FORWARD:          0	MERGED:          0	TO_CACHE:    1342679
L2C WQ	ACCESS:      16541	FORWARD:          2	MERGED:          0	TO_CACHE:      16541
L2C PQ	ACCESS:    1670923	FORWARD:          0	MERGED:          6	TO_CACHE:    1670917

L2C Instructions Evicting Data 0
L2C Translations Evicting Data 26759
L2C Data Evicting Data 1410991
L2C Instructions Evicting Instructions 0
L2C Translations Evicting Instructions 0
L2C Data Evicting Instructions 0
L2C Instructions Evicting Translations 0
L2C Translations Evicting Translations 461
L2C Data Evicting Translations 26597
L2C Dense regions hint from L2: 0
PSCL5 TOTAL     ACCESS:      32876  HIT:      32876  MISS:          0  HIT %:        100  MISS %:          0   MPKI: 0
PSCL5 LOAD TRANSLATION ACCESS:      32876  HIT:      32876  MISS:          0  HIT %:        100  MISS %:          0   MPKI: 0
PSCL5 PREFETCH  REQUESTED:          0  ISSUED:          0  USEFUL:          0  USELESS:          0
PSCL5 USEFUL LOAD PREFETCHES:          0 PREFETCH ISSUED TO LOWER LEVEL:          0  ACCURACY: -nan
PSCL5 TIMELY PREFETCHES:          0 LATE PREFETCHES: 0 DROPPED PREFETCHES: 0
PSCL5 PREFETCHES SAME FILL-ORIGIN LEVEL: 0 DIFFERENT FILL-ORIGIN LEVEL: 0

PSCL4 TOTAL     ACCESS:      32876  HIT:      32876  MISS:          0  HIT %:        100  MISS %:          0   MPKI: 0
PSCL4 LOAD TRANSLATION ACCESS:      32876  HIT:      32876  MISS:          0  HIT %:        100  MISS %:          0   MPKI: 0
PSCL4 PREFETCH  REQUESTED:          0  ISSUED:          0  USEFUL:          0  USELESS:          0
PSCL4 USEFUL LOAD PREFETCHES:          0 PREFETCH ISSUED TO LOWER LEVEL:          0  ACCURACY: -nan
PSCL4 TIMELY PREFETCHES:          0 LATE PREFETCHES: 0 DROPPED PREFETCHES: 0
PSCL4 PREFETCHES SAME FILL-ORIGIN LEVEL: 0 DIFFERENT FILL-ORIGIN LEVEL: 0

PSCL3 TOTAL     ACCESS:      32876  HIT:      32849  MISS:         27  HIT %:    99.9179  MISS %:  0.0821268   MPKI: 0.00027
PSCL3 LOAD TRANSLATION ACCESS:      32876  HIT:      32849  MISS:         27  HIT %:    99.9179  MISS %:  0.0821268   MPKI: 0.00027
PSCL3 PREFETCH  REQUESTED:          0  ISSUED:          0  USEFUL:          0  USELESS:          0
PSCL3 USEFUL LOAD PREFETCHES:          0 PREFETCH ISSUED TO LOWER LEVEL:          0  ACCURACY: -nan
PSCL3 TIMELY PREFETCHES:          0 LATE PREFETCHES: 0 DROPPED PREFETCHES: 0
PSCL3 PREFETCHES SAME FILL-ORIGIN LEVEL: 0 DIFFERENT FILL-ORIGIN LEVEL: 0

PSCL2 TOTAL     ACCESS:      32876  HIT:      16315  MISS:      16561  HIT %:    49.6259  MISS %:    50.3741   MPKI: 0.16561
PSCL2 LOAD TRANSLATION ACCESS:      32876  HIT:      16315  MISS:      16561  HIT %:    49.6259  MISS %:    50.3741   MPKI: 0.16561
PSCL2 PREFETCH  REQUESTED:          0  ISSUED:          0  USEFUL:          0  USELESS:          0
PSCL2 USEFUL LOAD PREFETCHES:          0 PREFETCH ISSUED TO LOWER LEVEL:          0  ACCURACY: -nan
PSCL2 TIMELY PREFETCHES:          0 LATE PREFETCHES: 0 DROPPED PREFETCHES: 0
PSCL2 PREFETCHES SAME FILL-ORIGIN LEVEL: 0 DIFFERENT FILL-ORIGIN LEVEL: 0

LLC TOTAL     ACCESS:    1477554  HIT:     244962  MISS:    1232592  HIT %:    16.5789  MISS %:    83.4211   MPKI: 12.3259
LLC LOAD      ACCESS:      54117  HIT:       8670  MISS:      45447  HIT %:    16.0208  MISS %:    83.9792   MPKI: 0.45447
LLC RFO       ACCESS:      10491  HIT:        251  MISS:      10240  HIT %:    2.39253  MISS %:    97.6075   MPKI: 0.1024
LLC PREFETCH  ACCESS:    1374335  HIT:     209350  MISS:    1164985  HIT %:    15.2328  MISS %:    84.7672   MPKI: 11.6498
LLC WRITEBACK ACCESS:      11391  HIT:       8871  MISS:       2520  HIT %:    77.8773  MISS %:    22.1227   MPKI: 0.0252
LLC LOAD TRANSLATION ACCESS:      27220  HIT:      17820  MISS:       9400  HIT %:    65.4666  MISS %:    34.5334   MPKI: 0.094
LLC PREFETCH  REQUESTED:          0  ISSUED:          0  USEFUL:       1707  USELESS:    1162835
LLC USEFUL LOAD PREFETCHES:       1707 PREFETCH ISSUED TO LOWER LEVEL:    1164988  ACCURACY: 0.146525
LLC TIMELY PREFETCHES:       1707 LATE PREFETCHES: 0 DROPPED PREFETCHES: 0
LLC PREFETCHES SAME FILL-ORIGIN LEVEL: 995 DIFFERENT FILL-ORIGIN LEVEL: 0
LLC AVERAGE MISS LATENCY: 115.887 cycles
LLC RQ	ACCESS:      91828	FORWARD:          0	MERGED:          0	TO_CACHE:      91828
LLC WQ	ACCESS:      11391	FORWARD:          0	MERGED:          0	TO_CACHE:      11391
LLC PQ	ACCESS:    1374338	FORWARD:          0	MERGED:          0	TO_CACHE:    1374338

LLC Dense regions hint to LLC: 0

RAW hits: 153
Loads Generated: 38223880
Loads sent to L1D: 38223719
Stores Generated: 3400349
Stores sent to L1D: 3400349
Major fault: 0 Minor fault: 49795
Allocated PAGES: 49795
------------------
Depth Distribution
------------------
depth 0: 12023
depth 1: 1381
depth 2: 3277
depth 3: 3291
depth 4: 2453
depth 5: 2412
depth 6: 27920
depth 7: 835803
depth 8: 978024
depth 9: 57733
depth 10: 146
depth 11: 82
depth 12: 0
depth 13: 0
depth 14: 0
depth 15: 0
depth 16: 0
depth 17: 0
depth 18: 0
depth 19: 0
depth 20: 0
depth 21: 0
depth 22: 0
depth 23: 0
depth 24: 0
depth 25: 0
depth 26: 0
depth 27: 0
depth 28: 0
depth 29: 0
Total: 1924545
------------------
ST read accesses: 1243278
ST write accesses: 39517
PT read accesses: 54229953
PT write accesses: 1837515
FILTER read accesses: 11011700
FILTER write accesses: 5795457
GHR read accesses: 4225251
GHR write accesses: 648973
PERC read accesses: 393289722
PERC write accesses: 14192503
GHR counter read accesses: 2565590
GHR counter write accesses: 4270673
GHR ip read accesses: 8864304
GHR ip write accesses: 5131180
ST tag read accesses: 513197369
ST tag write accesses: 17787679

DRAM Statistics
 CHANNEL 0
 RQ ROW_BUFFER_HIT:     989335  ROW_BUFFER_MISS:     240737
 DBUS_CONGESTED:        426
 WQ ROW_BUFFER_HIT:       2073  ROW_BUFFER_MISS:       8604  FULL:          0

 AVG_CONGESTED_CYCLE: 5
 All warmup complete: 2
Channel 0 Bank busy for read cycles: 0
Channel 0 Bank busy for write cycles: 0
Channel 0
Rank 0
0banks busy for read cycles: 46763146
0banks busy for write cycles: 8862
1banks busy for read cycles: 23408216
1banks busy for write cycles: 1544911
2banks busy for read cycles: 14670153
2banks busy for write cycles: 205938
3banks busy for read cycles: 6144991
3banks busy for write cycles: 41208
4banks busy for read cycles: 2060754
4banks busy for write cycles: 11191
5banks busy for read cycles: 627359
5banks busy for write cycles: 3686
6banks busy for read cycles: 204802
6banks busy for write cycles: 2606
7banks busy for read cycles: 123776
7banks busy for write cycles: 729
8banks busy for read cycles: 115383
8banks busy for write cycles: 198

CPU 0 Branch Prediction Accuracy: 99.9308% MPKI: 0.03474 Average ROB Occupancy at Mispredict: 75.1123
Branch types
NOT_BRANCH: 94977433 94.9774%
BRANCH_DIRECT_JUMP: 81 8.1e-05%
BRANCH_INDIRECT: 0 0%
BRANCH_CONDITIONAL: 5022049 5.02205%
BRANCH_DIRECT_CALL: 81 8.1e-05%
BRANCH_INDIRECT_CALL: 0 0%
BRANCH_RETURN: 81 8.1e-05%
BRANCH_OTHER: 0 0%

DRAM PAGES: 1048576
Allocated PAGES: 49795
