
*** ChampSim Multicore Out-of-Order Simulator ***

Warmup Instructions: 50000000
Simulation Instructions: 100000000
Number of CPUs: 1
LLC sets: 2048
LLC ways: 16
Off-chip DRAM Size: 4096 MB Channels: 1 Width: 64-bit Data Rate: 6400 MT/s
CPU 0 runs ../SPEC2017//654.roms_s-1007B.champsimtrace.xz
.xz
BTB has LRU replacement policy
ITLB has LRU replacement policy
DTLB has LRU replacement policy
STLB has LRU replacement policy
L1I has LRU replacement policy
IP Table Entries: 64
L1D has LRU replacement policy
Initialize SRRIP state for L2C
Initialize DRRIP state for LLC
Heartbeat CPU 0 instructions: 10000000 cycles: 3020257 heartbeat IPC: 3.31098 cumulative IPC: 3.31098 (Simulation time: 0 hr 2 min 54 sec) 
Heartbeat CPU 0 instructions: 20000002 cycles: 6040381 heartbeat IPC: 3.31112 cumulative IPC: 3.31105 (Simulation time: 0 hr 5 min 41 sec) 
Heartbeat CPU 0 instructions: 30000000 cycles: 9060358 heartbeat IPC: 3.31128 cumulative IPC: 3.31113 (Simulation time: 0 hr 8 min 57 sec) 
Heartbeat CPU 0 instructions: 40000000 cycles: 12080161 heartbeat IPC: 3.31147 cumulative IPC: 3.31121 (Simulation time: 0 hr 12 min 16 sec) 
Heartbeat CPU 0 instructions: 50000003 cycles: 15208406 heartbeat IPC: 3.19668 cumulative IPC: 3.28766 (Simulation time: 0 hr 15 min 21 sec) 

Warmup complete CPU 0 instructions: 50000003 cycles: 15208406 (Simulation time: 0 hr 15 min 21 sec) 

Heartbeat CPU 0 instructions: 60000002 cycles: 32450001 heartbeat IPC: 0.579993 cumulative IPC: 0.579993 (Simulation time: 0 hr 18 min 44 sec) 
Heartbeat CPU 0 instructions: 70000000 cycles: 51947132 heartbeat IPC: 0.512896 cumulative IPC: 0.544385 (Simulation time: 0 hr 22 min 0 sec) 
Heartbeat CPU 0 instructions: 80000000 cycles: 71435933 heartbeat IPC: 0.513115 cumulative IPC: 0.533546 (Simulation time: 0 hr 25 min 15 sec) 
Heartbeat CPU 0 instructions: 90000000 cycles: 90920838 heartbeat IPC: 0.513218 cumulative IPC: 0.528315 (Simulation time: 0 hr 28 min 30 sec) 
Heartbeat CPU 0 instructions: 100000000 cycles: 110399028 heartbeat IPC: 0.513395 cumulative IPC: 0.525262 (Simulation time: 0 hr 31 min 44 sec) 
Heartbeat CPU 0 instructions: 110000000 cycles: 129882052 heartbeat IPC: 0.513267 cumulative IPC: 0.523224 (Simulation time: 0 hr 35 min 0 sec) 
Heartbeat CPU 0 instructions: 120000001 cycles: 147456940 heartbeat IPC: 0.568994 cumulative IPC: 0.529306 (Simulation time: 0 hr 38 min 14 sec) 
Heartbeat CPU 0 instructions: 130000002 cycles: 161887780 heartbeat IPC: 0.69296 cumulative IPC: 0.545407 (Simulation time: 0 hr 41 min 25 sec) 
Heartbeat CPU 0 instructions: 140000000 cycles: 181373285 heartbeat IPC: 0.513202 cumulative IPC: 0.541631 (Simulation time: 0 hr 44 min 15 sec) 
Heartbeat CPU 0 instructions: 150000000 cycles: 200861902 heartbeat IPC: 0.51312 cumulative IPC: 0.538638 (Simulation time: 0 hr 46 min 49 sec) 
Finished CPU 0 instructions: 100000001 cycles: 185653498 cumulative IPC: 0.538638 (Simulation time: 0 hr 46 min 49 sec) 

ChampSim completed all CPUs

Region of Interest Statistics

CPU 0 cumulative IPC: 0.538638 instructions: 100000001 cycles: 185653498

CPU 0 Average Load ROB stall cycles: 3.29881e+07
CPU 0 Fraction of times ROB stalled by Loads: 30.5413
CPU 0 Percentage of Load stall cycles in Total stall cycles: 5.93923e+08
Issued all: 59730688
Issued LT all: 46791257
rob_not_full_when_issued_lt_all: 45528908
Issued LT one: 37947643
rob_not_full_when_issued_lt_one: 36738418
FVP critical_dynamic_instances_0: 18682780
FVP unique_critical_ips_0: 95
 Total stall cycles: 164309864
 Total load stall cycles: 975873586029606
Unique Load IPs: 241
CPU 0 NUM of IPS identified critical: 0
CPU 0 Num of Load IPs stalling ROB: 0
Threshold modification factor: 0
Trouble in retire width: -nan
MaC = Marked as critical.
lt_50_percent_before_Mac: 0
gt_90_percent_before_Mac: 0
gt_75_percent_before_Mac: 0
gt_50_percent_before_Mac: 0
stall_proportion_bin_same_before_after: 0
stall_proportion_bin_lower_before_after: 0
stall_proportion_bin_upper_before_after: 0
average_stall_proportion_before: -nan
average_stall_proportion_after: -nan
Critical IP stalls, total frequency: 0
Non-critical IP stalls, total frequency: 0
Total Freq all stalling IPs: 0
Critical_IP_Detector_Accuracy_70: 0.0105263
Critical_IP_Detector_Accuracy_80: 0.0105263
Critical_IP_Detector_Accuracy_90: 0.0105263
Critical_IP_Detector_Coverage_70: 1
Critical_IP_Detector_Coverage_80: 1
Critical_IP_Detector_Coverage_90: 1
stat_90_percent_critical_ip_stalls_freq: 705922
stat_90_percent_non_critical_ip_stalls_freq: 18446744073708845694
AVERAGE_ROB_Occupancy_90_Percent_Critical_IP_Stalls: 64.3306
AVERAGE_ROB_Occupancy_90_Percent_Non_Critical_IP_Stalls: 2.24659e-11
Critical_IP_ROB_Stalls_Bucket_0: 0
Non-critical_IP_ROB_Stalls_Bucket_0: 4626902
Critical_IP_ROB_Stalls_Bucket_1: 0
Non-critical_IP_ROB_Stalls_Bucket_1: 4330700
Critical_IP_ROB_Stalls_Bucket_2: 0
Non-critical_IP_ROB_Stalls_Bucket_2: 22806
Critical_IP_ROB_Stalls_Bucket_3: 0
Non-critical_IP_ROB_Stalls_Bucket_3: 15453
Critical_IP_ROB_Stalls_Bucket_4: 0
Non-critical_IP_ROB_Stalls_Bucket_4: 10963
Critical_IP_ROB_Stalls_Bucket_5: 0
Non-critical_IP_ROB_Stalls_Bucket_5: 13396
Critical_IP_ROB_Stalls_Bucket_6: 0
Non-critical_IP_ROB_Stalls_Bucket_6: 14693
0 => IPs accounting for >50 percent of stalls, 1 => 55, 2 => 60, 3 => 65 and so on till 90.
percent50: inf num IPs:  1
percent55: inf num IPs: 1
percent60: inf num IPs: 1
percent65: inf num IPs: 1
percent70: inf num IPs: 1
percent75: inf num IPs: 1
percent80: inf num IPs: 1
percent85: inf num IPs: 1
percent90: inf num IPs: 1
Critical_ROB_Stalls_Percent_0_Bucket_0: 271035
Non-critical_ROB_Stalls_Percent_0_Bucket_0: 4355867
Critical_ROB_Stalls_Percent_0_Bucket_1: 434886
Non-critical_ROB_Stalls_Percent_0_Bucket_1: 3895814
Critical_ROB_Stalls_Percent_0_Bucket_2: 0
Non-critical_ROB_Stalls_Percent_0_Bucket_2: 22806
Critical_ROB_Stalls_Percent_0_Bucket_3: 1
Non-critical_ROB_Stalls_Percent_0_Bucket_3: 15452
Critical_ROB_Stalls_Percent_0_Bucket_4: 0
Non-critical_ROB_Stalls_Percent_0_Bucket_4: 10963
Critical_ROB_Stalls_Percent_0_Bucket_5: 0
Non-critical_ROB_Stalls_Percent_0_Bucket_5: 13396
Critical_ROB_Stalls_Percent_0_Bucket_6: 0
Non-critical_ROB_Stalls_Percent_0_Bucket_6: 14693
Critical_ROB_Stalls_Percent_1_Bucket_0: 271035
Non-critical_ROB_Stalls_Percent_1_Bucket_0: 4355867
Critical_ROB_Stalls_Percent_1_Bucket_1: 434886
Non-critical_ROB_Stalls_Percent_1_Bucket_1: 3895814
Critical_ROB_Stalls_Percent_1_Bucket_2: 0
Non-critical_ROB_Stalls_Percent_1_Bucket_2: 22806
Critical_ROB_Stalls_Percent_1_Bucket_3: 1
Non-critical_ROB_Stalls_Percent_1_Bucket_3: 15452
Critical_ROB_Stalls_Percent_1_Bucket_4: 0
Non-critical_ROB_Stalls_Percent_1_Bucket_4: 10963
Critical_ROB_Stalls_Percent_1_Bucket_5: 0
Non-critical_ROB_Stalls_Percent_1_Bucket_5: 13396
Critical_ROB_Stalls_Percent_1_Bucket_6: 0
Non-critical_ROB_Stalls_Percent_1_Bucket_6: 14693
Critical_ROB_Stalls_Percent_2_Bucket_0: 271035
Non-critical_ROB_Stalls_Percent_2_Bucket_0: 4355867
Critical_ROB_Stalls_Percent_2_Bucket_1: 434886
Non-critical_ROB_Stalls_Percent_2_Bucket_1: 3895814
Critical_ROB_Stalls_Percent_2_Bucket_2: 0
Non-critical_ROB_Stalls_Percent_2_Bucket_2: 22806
Critical_ROB_Stalls_Percent_2_Bucket_3: 1
Non-critical_ROB_Stalls_Percent_2_Bucket_3: 15452
Critical_ROB_Stalls_Percent_2_Bucket_4: 0
Non-critical_ROB_Stalls_Percent_2_Bucket_4: 10963
Critical_ROB_Stalls_Percent_2_Bucket_5: 0
Non-critical_ROB_Stalls_Percent_2_Bucket_5: 13396
Critical_ROB_Stalls_Percent_2_Bucket_6: 0
Non-critical_ROB_Stalls_Percent_2_Bucket_6: 14693
Critical_ROB_Stalls_Percent_3_Bucket_0: 271035
Non-critical_ROB_Stalls_Percent_3_Bucket_0: 4355867
Critical_ROB_Stalls_Percent_3_Bucket_1: 434886
Non-critical_ROB_Stalls_Percent_3_Bucket_1: 3895814
Critical_ROB_Stalls_Percent_3_Bucket_2: 0
Non-critical_ROB_Stalls_Percent_3_Bucket_2: 22806
Critical_ROB_Stalls_Percent_3_Bucket_3: 1
Non-critical_ROB_Stalls_Percent_3_Bucket_3: 15452
Critical_ROB_Stalls_Percent_3_Bucket_4: 0
Non-critical_ROB_Stalls_Percent_3_Bucket_4: 10963
Critical_ROB_Stalls_Percent_3_Bucket_5: 0
Non-critical_ROB_Stalls_Percent_3_Bucket_5: 13396
Critical_ROB_Stalls_Percent_3_Bucket_6: 0
Non-critical_ROB_Stalls_Percent_3_Bucket_6: 14693
Critical_ROB_Stalls_Percent_4_Bucket_0: 271035
Non-critical_ROB_Stalls_Percent_4_Bucket_0: 4355867
Critical_ROB_Stalls_Percent_4_Bucket_1: 434886
Non-critical_ROB_Stalls_Percent_4_Bucket_1: 3895814
Critical_ROB_Stalls_Percent_4_Bucket_2: 0
Non-critical_ROB_Stalls_Percent_4_Bucket_2: 22806
Critical_ROB_Stalls_Percent_4_Bucket_3: 1
Non-critical_ROB_Stalls_Percent_4_Bucket_3: 15452
Critical_ROB_Stalls_Percent_4_Bucket_4: 0
Non-critical_ROB_Stalls_Percent_4_Bucket_4: 10963
Critical_ROB_Stalls_Percent_4_Bucket_5: 0
Non-critical_ROB_Stalls_Percent_4_Bucket_5: 13396
Critical_ROB_Stalls_Percent_4_Bucket_6: 0
Non-critical_ROB_Stalls_Percent_4_Bucket_6: 14693
Critical_ROB_Stalls_Percent_5_Bucket_0: 271035
Non-critical_ROB_Stalls_Percent_5_Bucket_0: 4355867
Critical_ROB_Stalls_Percent_5_Bucket_1: 434886
Non-critical_ROB_Stalls_Percent_5_Bucket_1: 3895814
Critical_ROB_Stalls_Percent_5_Bucket_2: 0
Non-critical_ROB_Stalls_Percent_5_Bucket_2: 22806
Critical_ROB_Stalls_Percent_5_Bucket_3: 1
Non-critical_ROB_Stalls_Percent_5_Bucket_3: 15452
Critical_ROB_Stalls_Percent_5_Bucket_4: 0
Non-critical_ROB_Stalls_Percent_5_Bucket_4: 10963
Critical_ROB_Stalls_Percent_5_Bucket_5: 0
Non-critical_ROB_Stalls_Percent_5_Bucket_5: 13396
Critical_ROB_Stalls_Percent_5_Bucket_6: 0
Non-critical_ROB_Stalls_Percent_5_Bucket_6: 14693
Critical_ROB_Stalls_Percent_6_Bucket_0: 271035
Non-critical_ROB_Stalls_Percent_6_Bucket_0: 4355867
Critical_ROB_Stalls_Percent_6_Bucket_1: 434886
Non-critical_ROB_Stalls_Percent_6_Bucket_1: 3895814
Critical_ROB_Stalls_Percent_6_Bucket_2: 0
Non-critical_ROB_Stalls_Percent_6_Bucket_2: 22806
Critical_ROB_Stalls_Percent_6_Bucket_3: 1
Non-critical_ROB_Stalls_Percent_6_Bucket_3: 15452
Critical_ROB_Stalls_Percent_6_Bucket_4: 0
Non-critical_ROB_Stalls_Percent_6_Bucket_4: 10963
Critical_ROB_Stalls_Percent_6_Bucket_5: 0
Non-critical_ROB_Stalls_Percent_6_Bucket_5: 13396
Critical_ROB_Stalls_Percent_6_Bucket_6: 0
Non-critical_ROB_Stalls_Percent_6_Bucket_6: 14693
Critical_ROB_Stalls_Percent_7_Bucket_0: 271035
Non-critical_ROB_Stalls_Percent_7_Bucket_0: 4355867
Critical_ROB_Stalls_Percent_7_Bucket_1: 434886
Non-critical_ROB_Stalls_Percent_7_Bucket_1: 3895814
Critical_ROB_Stalls_Percent_7_Bucket_2: 0
Non-critical_ROB_Stalls_Percent_7_Bucket_2: 22806
Critical_ROB_Stalls_Percent_7_Bucket_3: 1
Non-critical_ROB_Stalls_Percent_7_Bucket_3: 15452
Critical_ROB_Stalls_Percent_7_Bucket_4: 0
Non-critical_ROB_Stalls_Percent_7_Bucket_4: 10963
Critical_ROB_Stalls_Percent_7_Bucket_5: 0
Non-critical_ROB_Stalls_Percent_7_Bucket_5: 13396
Critical_ROB_Stalls_Percent_7_Bucket_6: 0
Non-critical_ROB_Stalls_Percent_7_Bucket_6: 14693
Critical_ROB_Stalls_Percent_8_Bucket_0: 271035
Non-critical_ROB_Stalls_Percent_8_Bucket_0: 4355867
Critical_ROB_Stalls_Percent_8_Bucket_1: 434886
Non-critical_ROB_Stalls_Percent_8_Bucket_1: 3895814
Critical_ROB_Stalls_Percent_8_Bucket_2: 0
Non-critical_ROB_Stalls_Percent_8_Bucket_2: 22806
Critical_ROB_Stalls_Percent_8_Bucket_3: 1
Non-critical_ROB_Stalls_Percent_8_Bucket_3: 15452
Critical_ROB_Stalls_Percent_8_Bucket_4: 0
Non-critical_ROB_Stalls_Percent_8_Bucket_4: 10963
Critical_ROB_Stalls_Percent_8_Bucket_5: 0
Non-critical_ROB_Stalls_Percent_8_Bucket_5: 13396
Critical_ROB_Stalls_Percent_8_Bucket_6: 0
Non-critical_ROB_Stalls_Percent_8_Bucket_6: 14693
Average ROB occupancy Load Stall Begin: 45.2808
Average ROB occupancy Load Stall End: 50.8953
Min ROB occupancy Load Stall Begin: 1
Max ROB occupancy Load Stall Begin: 352
Min ROB occupancy Load Stall End: 1
Max ROB occupancy Load Stall End: 352
Average ROB occupancy Critical Load Stall Begin: -nan
Average ROB occupancy Critical Load Stall End: -nan
Min ROB occupancy Critical Load Stall Begin: 400
Max ROB occupancy Critical Load Stall Begin: 0
Min ROB occupancy Critical Load Stall End: 400
Max ROB occupancy Critical Load Stall End: 0
 ROB Load Stall Begin Bucket Count 0: 5351765
 ROB Load Stall End Bucket Count 0: 4626902
 ROB Critical Load Stall Begin Bucket Count 0: 0
 ROB Critical Load Stall End Bucket Count 0: 0
 ROB Load Stall Begin Bucket Count 1: 3625954
 ROB Load Stall End Bucket Count 1: 4330700
 ROB Critical Load Stall Begin Bucket Count 1: 0
 ROB Critical Load Stall End Bucket Count 1: 0
 ROB Load Stall Begin Bucket Count 2: 13807
 ROB Load Stall End Bucket Count 2: 22806
 ROB Critical Load Stall Begin Bucket Count 2: 0
 ROB Critical Load Stall End Bucket Count 2: 0
 ROB Load Stall Begin Bucket Count 3: 13995
 ROB Load Stall End Bucket Count 3: 15453
 ROB Critical Load Stall Begin Bucket Count 3: 0
 ROB Critical Load Stall End Bucket Count 3: 0
 ROB Load Stall Begin Bucket Count 4: 9217
 ROB Load Stall End Bucket Count 4: 10963
 ROB Critical Load Stall Begin Bucket Count 4: 0
 ROB Critical Load Stall End Bucket Count 4: 0
 ROB Load Stall Begin Bucket Count 5: 11225
 ROB Load Stall End Bucket Count 5: 13396
 ROB Critical Load Stall Begin Bucket Count 5: 0
 ROB Critical Load Stall End Bucket Count 5: 0
 ROB Load Stall Begin Bucket Count 6: 8950
 ROB Load Stall End Bucket Count 6: 14693
 ROB Critical Load Stall Begin Bucket Count 6: 0
 ROB Critical Load Stall End Bucket Count 6: 0
PIST Tag Read Accesses: 0
PIST Read Accesses: 0
PIST Tag Write Accesses: 0
PIST Write Accesses: 0
Criticality detector called times: 0
Max global_stall_cycles_count: 0
Threshold Modified: 0 times, factor: 0
ITLB TOTAL     ACCESS:   16846801  HIT:   16846799  MISS:          2  HIT %:        100  MISS %: 1.18717e-05   MPKI: 2e-05
ITLB LOAD TRANSLATION ACCESS:   16846801  HIT:   16846799  MISS:          2  HIT %:        100  MISS %: 1.18717e-05   MPKI: 2e-05
ITLB PREFETCH  REQUESTED:          0  ISSUED:          0  USEFUL:          0  USELESS:          0
ITLB USEFUL LOAD PREFETCHES:          0 PREFETCH ISSUED TO LOWER LEVEL:          0  ACCURACY: -nan
ITLB TIMELY PREFETCHES:          0 LATE PREFETCHES: 0 DROPPED PREFETCHES: 0
ITLB PREFETCHES SAME FILL-ORIGIN LEVEL: 0 DIFFERENT FILL-ORIGIN LEVEL: 0
ITLB AVERAGE MISS LATENCY: 325.5 cycles
ITLB RQ	ACCESS:   21395357	FORWARD:          0	MERGED:    4548557	TO_CACHE:   16846800

DTLB TOTAL     ACCESS:   28493230  HIT:   28475853  MISS:      17377  HIT %:     99.939  MISS %:  0.0609864   MPKI: 0.17377
DTLB LOAD TRANSLATION ACCESS:   28493230  HIT:   28475853  MISS:      17377  HIT %:     99.939  MISS %:  0.0609864   MPKI: 0.17377
DTLB PREFETCH  REQUESTED:          0  ISSUED:          0  USEFUL:          0  USELESS:          0
DTLB USEFUL LOAD PREFETCHES:          0 PREFETCH ISSUED TO LOWER LEVEL:          0  ACCURACY: -nan
DTLB TIMELY PREFETCHES:          0 LATE PREFETCHES: 0 DROPPED PREFETCHES: 0
DTLB PREFETCHES SAME FILL-ORIGIN LEVEL: 0 DIFFERENT FILL-ORIGIN LEVEL: 0
DTLB AVERAGE MISS LATENCY: 167.123 cycles
DTLB RQ	ACCESS:   32118994	FORWARD:          0	MERGED:    3603037	TO_CACHE:   28515957

STLB TOTAL     ACCESS:     633033  HIT:     616260  MISS:      16773  HIT %:    97.3504  MISS %:    2.64962   MPKI: 0.16773
STLB LOAD TRANSLATION ACCESS:      17379  HIT:        606  MISS:      16773  HIT %:    3.48697  MISS %:     96.513   MPKI: 0.16773
STLB TRANSLATION FROM L1D PREFETCHER ACCESS:     615654  HIT:     615654  MISS:          0  HIT %:        100  MISS %:          0   MPKI: 0
STLB PREFETCH  REQUESTED:          0  ISSUED:          0  USEFUL:          0  USELESS:          0
STLB USEFUL LOAD PREFETCHES:          0 PREFETCH ISSUED TO LOWER LEVEL:          0  ACCURACY: -nan
STLB TIMELY PREFETCHES:          0 LATE PREFETCHES: 0 DROPPED PREFETCHES: 0
STLB PREFETCHES SAME FILL-ORIGIN LEVEL: 0 DIFFERENT FILL-ORIGIN LEVEL: 0
STLB AVERAGE MISS LATENCY: 163.623 cycles
STLB RQ	ACCESS:    2089582	FORWARD:          0	MERGED:    1456549	TO_CACHE:     633033

STLB Hit, L1D data hit: 0
STLB Hit, L2C data hit: 0
STLB Hit, LLC data hit: 0
STLB Hit, LLC data miss: 0
STLB STLB hints to L2: 0
L1D TOTAL     ACCESS:   32939615  HIT:   32217865  MISS:     721750  HIT %:    97.8089  MISS %:    2.19113   MPKI: 7.2175
L1D LOAD      ACCESS:   20300246  HIT:   20270103  MISS:      30143  HIT %:    99.8515  MISS %:   0.148486   MPKI: 0.30143
L1D RFO       ACCESS:   10597516  HIT:   10359209  MISS:     238307  HIT %:    97.7513  MISS %:    2.24871   MPKI: 2.38307
L1D PREFETCH  ACCESS:    2041853  HIT:    1588553  MISS:     453300  HIT %:    77.7996  MISS %:    22.2004   MPKI: 4.533
L1D PREFETCH  REQUESTED:    4149364  ISSUED:    4144410  USEFUL:     424635  USELESS:      28660
L1D USEFUL LOAD PREFETCHES:     424635 PREFETCH ISSUED TO LOWER LEVEL:     466934  ACCURACY: 90.9411
L1D TIMELY PREFETCHES:     424635 LATE PREFETCHES: 13634 DROPPED PREFETCHES: 0
L1D PREFETCHES SAME FILL-ORIGIN LEVEL: 466934 DIFFERENT FILL-ORIGIN LEVEL: 0
L1D AVERAGE MISS LATENCY: 2.11127e+06 cycles
L1D RQ	ACCESS:   24459276	FORWARD:          0	MERGED:    4095953	TO_CACHE:   20348292
L1D WQ	ACCESS:   12476628	FORWARD:      15031	MERGED:     705926	TO_CACHE:   11770702
L1D PQ	ACCESS:    2072207	FORWARD:          0	MERGED:          4	TO_CACHE:    2072203

L1D UNIQUE REGIONS ACCESSED: 0
L1D REGIONS CONFLICTS: 0
L1D Cross Page Prefetch Requests: 0
L1D Same Page Prefetch Requests: 2204019
L1D ROI Sum of L1D PQ occupancy: 37215474
L1D PREFETCHES PUSHED FROM L2C: 0
L1I TOTAL     ACCESS:   21395347  HIT:   21395311  MISS:         36  HIT %:    99.9998  MISS %: 0.000168261   MPKI: 0.00036
L1I LOAD      ACCESS:   21395347  HIT:   21395311  MISS:         36  HIT %:    99.9998  MISS %: 0.000168261   MPKI: 0.00036
L1I PREFETCH  REQUESTED:          0  ISSUED:          0  USEFUL:          0  USELESS:          0
L1I USEFUL LOAD PREFETCHES:          0 PREFETCH ISSUED TO LOWER LEVEL:          0  ACCURACY: -nan
L1I TIMELY PREFETCHES:          0 LATE PREFETCHES: 0 DROPPED PREFETCHES: 0
L1I PREFETCHES SAME FILL-ORIGIN LEVEL: 0 DIFFERENT FILL-ORIGIN LEVEL: 0
L1I AVERAGE MISS LATENCY: 235.528 cycles
L1I RQ	ACCESS:   28119626	FORWARD:          0	MERGED:    6724269	TO_CACHE:   21395357

BTB TOTAL     ACCESS:    6508269  HIT:    5802287  MISS:     705982  HIT %:    89.1525  MISS %:    10.8475   MPKI: 7.05982
BTB BRANCH_DIRECT_JUMP	ACCESS:     705946  HIT:     705938  MISS:          8
BTB BRANCH_INDIRECT	ACCESS:          0  HIT:          0  MISS:          0
BTB BRANCH_CONDITIONAL	ACCESS:    2978604  HIT:    2978573  MISS:         31
BTB BRANCH_DIRECT_CALL	ACCESS:    1411860  HIT:    1411850  MISS:         10
BTB BRANCH_INDIRECT_CALL	ACCESS:          0  HIT:          0  MISS:          0
BTB BRANCH_RETURN	ACCESS:    1411859  HIT:     705926  MISS:     705933
BTB BRANCH_OTHER ACCESS:          0  HIT:          0  MISS:          0

L2C TOTAL     ACCESS:     976860  HIT:     251925  MISS:     724935  HIT %:    25.7893  MISS %:    74.2107   MPKI: 7.24935
L2C LOAD      ACCESS:      16541  HIT:        267  MISS:      16274  HIT %:    1.61417  MISS %:    98.3858   MPKI: 0.16274
L2C DATA LOAD MPKI: 0.16238
L2C INSTRUCTION LOAD MPKI: 0.00036
L2C RFO       ACCESS:     238307  HIT:          0  MISS:     238307  HIT %:          0  MISS %:        100   MPKI: 2.38307
L2C PREFETCH  ACCESS:     466934  HIT:       1194  MISS:     465740  HIT %:   0.255711  MISS %:    99.7443   MPKI: 4.6574
L2C DATA PREFETCH MPKI: 4.6574
L2C INSTRUCTION PREFETCH MPKI: 0
L2C WRITEBACK ACCESS:     238252  HIT:     237235  MISS:       1017  HIT %:    99.5731  MISS %:   0.426859   MPKI: 0.01017
L2C LOAD TRANSLATION ACCESS:      16826  HIT:      13229  MISS:       3597  HIT %:    78.6224  MISS %:    21.3776   MPKI: 0.03597
L2C PREFETCH  REQUESTED:          0  ISSUED:          0  USEFUL:         18  USELESS:     465241
L2C USEFUL LOAD PREFETCHES:         18 PREFETCH ISSUED TO LOWER LEVEL:     465740  ACCURACY: 0.00386482
L2C TIMELY PREFETCHES:         18 LATE PREFETCHES: 0 DROPPED PREFETCHES: 0
L2C PREFETCHES SAME FILL-ORIGIN LEVEL: 0 DIFFERENT FILL-ORIGIN LEVEL: 0
L2C AVERAGE MISS LATENCY: 282.666 cycles
L2C RQ	ACCESS:     271678	FORWARD:          0	MERGED:          0	TO_CACHE:     271674
L2C WQ	ACCESS:     238252	FORWARD:          4	MERGED:          0	TO_CACHE:     238252
L2C PQ	ACCESS:     466934	FORWARD:          0	MERGED:          0	TO_CACHE:     466934

L2C Instructions Evicting Data 36
L2C Translations Evicting Data 3575
L2C Data Evicting Data 716655
L2C Instructions Evicting Instructions 0
L2C Translations Evicting Instructions 0
L2C Data Evicting Instructions 36
L2C Instructions Evicting Translations 0
L2C Translations Evicting Translations 22
L2C Data Evicting Translations 3594
L2C Dense regions hint from L2: 0
PSCL5 TOTAL     ACCESS:      16773  HIT:      16773  MISS:          0  HIT %:        100  MISS %:          0   MPKI: 0
PSCL5 LOAD TRANSLATION ACCESS:      16773  HIT:      16773  MISS:          0  HIT %:        100  MISS %:          0   MPKI: 0
PSCL5 PREFETCH  REQUESTED:          0  ISSUED:          0  USEFUL:          0  USELESS:          0
PSCL5 USEFUL LOAD PREFETCHES:          0 PREFETCH ISSUED TO LOWER LEVEL:          0  ACCURACY: -nan
PSCL5 TIMELY PREFETCHES:          0 LATE PREFETCHES: 0 DROPPED PREFETCHES: 0
PSCL5 PREFETCHES SAME FILL-ORIGIN LEVEL: 0 DIFFERENT FILL-ORIGIN LEVEL: 0

PSCL4 TOTAL     ACCESS:      16773  HIT:      16773  MISS:          0  HIT %:        100  MISS %:          0   MPKI: 0
PSCL4 LOAD TRANSLATION ACCESS:      16773  HIT:      16773  MISS:          0  HIT %:        100  MISS %:          0   MPKI: 0
PSCL4 PREFETCH  REQUESTED:          0  ISSUED:          0  USEFUL:          0  USELESS:          0
PSCL4 USEFUL LOAD PREFETCHES:          0 PREFETCH ISSUED TO LOWER LEVEL:          0  ACCURACY: -nan
PSCL4 TIMELY PREFETCHES:          0 LATE PREFETCHES: 0 DROPPED PREFETCHES: 0
PSCL4 PREFETCHES SAME FILL-ORIGIN LEVEL: 0 DIFFERENT FILL-ORIGIN LEVEL: 0

PSCL3 TOTAL     ACCESS:      16423  HIT:      16417  MISS:          6  HIT %:    99.9635  MISS %:  0.0365341   MPKI: 6e-05
PSCL3 LOAD TRANSLATION ACCESS:      16423  HIT:      16417  MISS:          6  HIT %:    99.9635  MISS %:  0.0365341   MPKI: 6e-05
PSCL3 PREFETCH  REQUESTED:          0  ISSUED:          0  USEFUL:          0  USELESS:          0
PSCL3 USEFUL LOAD PREFETCHES:          0 PREFETCH ISSUED TO LOWER LEVEL:          0  ACCURACY: -nan
PSCL3 TIMELY PREFETCHES:          0 LATE PREFETCHES: 0 DROPPED PREFETCHES: 0
PSCL3 PREFETCHES SAME FILL-ORIGIN LEVEL: 0 DIFFERENT FILL-ORIGIN LEVEL: 0

PSCL2 TOTAL     ACCESS:      16773  HIT:      16697  MISS:         76  HIT %:    99.5469  MISS %:   0.453109   MPKI: 0.00076
PSCL2 LOAD TRANSLATION ACCESS:      16773  HIT:      16697  MISS:         76  HIT %:    99.5469  MISS %:   0.453109   MPKI: 0.00076
PSCL2 PREFETCH  REQUESTED:          0  ISSUED:          0  USEFUL:          0  USELESS:          0
PSCL2 USEFUL LOAD PREFETCHES:          0 PREFETCH ISSUED TO LOWER LEVEL:          0  ACCURACY: -nan
PSCL2 TIMELY PREFETCHES:          0 LATE PREFETCHES: 0 DROPPED PREFETCHES: 0
PSCL2 PREFETCHES SAME FILL-ORIGIN LEVEL: 0 DIFFERENT FILL-ORIGIN LEVEL: 0

LLC TOTAL     ACCESS:     961726  HIT:     233908  MISS:     727818  HIT %:    24.3217  MISS %:    75.6783   MPKI: 7.27818
LLC LOAD      ACCESS:      16274  HIT:         15  MISS:      16259  HIT %:  0.0921716  MISS %:    99.9078   MPKI: 0.16259
LLC RFO       ACCESS:     238307  HIT:          0  MISS:     238307  HIT %:          0  MISS %:        100   MPKI: 2.38307
LLC PREFETCH  ACCESS:     465740  HIT:        353  MISS:     465387  HIT %:  0.0757934  MISS %:    99.9242   MPKI: 4.65387
LLC WRITEBACK ACCESS:     237808  HIT:     233519  MISS:       4289  HIT %:    98.1964  MISS %:    1.80356   MPKI: 0.04289
LLC LOAD TRANSLATION ACCESS:       3597  HIT:         21  MISS:       3576  HIT %:    0.58382  MISS %:    99.4162   MPKI: 0.03576
LLC PREFETCH  REQUESTED:          0  ISSUED:          0  USEFUL:          4  USELESS:     462943
LLC USEFUL LOAD PREFETCHES:          4 PREFETCH ISSUED TO LOWER LEVEL:     465387  ACCURACY: 0.0008595
LLC TIMELY PREFETCHES:          4 LATE PREFETCHES: 0 DROPPED PREFETCHES: 0
LLC PREFETCHES SAME FILL-ORIGIN LEVEL: 0 DIFFERENT FILL-ORIGIN LEVEL: 0
LLC AVERAGE MISS LATENCY: 250.276 cycles
LLC RQ	ACCESS:     258178	FORWARD:          0	MERGED:          0	TO_CACHE:     258178
LLC WQ	ACCESS:     237808	FORWARD:          0	MERGED:          0	TO_CACHE:     237808
LLC PQ	ACCESS:     465740	FORWARD:          0	MERGED:          0	TO_CACHE:     465740

LLC Dense regions hint to LLC: 0

RAW hits: 2885394
Loads Generated: 27344671
Loads sent to L1D: 24459276
Stores Generated: 12476623
Stores sent to L1D: 12476628
Major fault: 0 Minor fault: 14234
Allocated PAGES: 14234

stream: 
stream:times selected: 1113058
stream:pref_filled: 560426
stream:pref_useful: 528384
stream:pref_late: 13283
stream:misses: 245
stream:misses_by_poll: 0

CS: 
CS:times selected: 623096
CS:pref_filled: 4506
CS:pref_useful: 4324
CS:pref_late: 153
CS:misses: 76111
CS:misses_by_poll: 12

CPLX: 
CPLX:times selected: 489179
CPLX:pref_filled: 4536
CPLX:pref_useful: 3847
CPLX:pref_late: 14
CPLX:misses: 2717
CPLX:misses_by_poll: 1

NL_L1: 
NL:times selected: 36
NL:pref_filled: 33
NL:pref_useful: 33
NL:pref_late: 1
NL:misses: 9
NL:misses_by_poll: 0

total selections: 2225369
total_filled: 453300
total_useful: 424635
total_late: 13787
total_polluted: 13
total_misses_after_warmup: 77706
conflicts: 2749
Degree Incremented Times: 292288
Degree Decremented Times: 0

L1 IP Table Write Accesses: 15174740
L1 IP Table Read Accesses: 15171991
L1 RST Write Accesses: 1078443
L1 RST Read Accesses: 2156886
L1 CSPT Write Accesses: 1078443
L1 CSPT Read Accesses: 2364785
L1 RR Filter Tag Write Accesses: 2077161
L1 RR Filter Tag Read Accesses: 210982011
L1 IP Table Tag Write Accesses: 15882368
L1 IP Table Tag Read Accesses: 15882368
L1 RST Tag Write Accesses: 0
L1 RST Tag Read Accesses: 8608067
L1 RR Filter Write Accesses: 0
L1 RR Filter Read Accesses: 9285976
test: 136792

DRAM Statistics
 CHANNEL 0
 RQ ROW_BUFFER_HIT:     236311  ROW_BUFFER_MISS:     487218
 DBUS_CONGESTED:         30
 WQ ROW_BUFFER_HIT:      25214  ROW_BUFFER_MISS:     211744  FULL:          0

 AVG_CONGESTED_CYCLE: 4
 All warmup complete: 2
Channel 0 Bank busy for read cycles: 0
Channel 0 Bank busy for write cycles: 0
Channel 0
Rank 0
0banks busy for read cycles: 147561755
0banks busy for write cycles: 34758
1banks busy for read cycles: 12412965
1banks busy for write cycles: 5289459
2banks busy for read cycles: 1276245
2banks busy for write cycles: 164168
3banks busy for read cycles: 2107737
3banks busy for write cycles: 80941
4banks busy for read cycles: 2893951
4banks busy for write cycles: 60848
5banks busy for read cycles: 2636936
5banks busy for write cycles: 52595
6banks busy for read cycles: 2153109
6banks busy for write cycles: 51186
7banks busy for read cycles: 2090136
7banks busy for write cycles: 387204
8banks busy for read cycles: 1901539
8banks busy for write cycles: 4497967

CPU 0 Branch Prediction Accuracy: 99.971% MPKI: 0.03111 Average ROB Occupancy at Mispredict: 45.8666
Branch types
NOT_BRANCH: 89254039 89.254%
BRANCH_DIRECT_JUMP: 705946 0.705946%
BRANCH_INDIRECT: 0 0%
BRANCH_CONDITIONAL: 7215955 7.21595%
BRANCH_DIRECT_CALL: 1411860 1.41186%
BRANCH_INDIRECT_CALL: 0 0%
BRANCH_RETURN: 1411859 1.41186%
BRANCH_OTHER: 0 0%

DRAM PAGES: 1048576
Allocated PAGES: 14234
