
*** ChampSim Multicore Out-of-Order Simulator ***

Warmup Instructions: 50000000
Simulation Instructions: 100000000
Number of CPUs: 1
LLC sets: 2048
LLC ways: 16
Off-chip DRAM Size: 4096 MB Channels: 1 Width: 64-bit Data Rate: 6400 MT/s
CPU 0 runs ../SPEC_2006_2017//654.roms_s-1007B.champsimtrace.xz
.xz
NUM_OF_IPS_IN_CRITICAL_IP_TRAINING: 64
NUM_OF_CRITICAL_IP_TRAINING_TABLE_WAYS: 2
NUM_OF_CRITICAL_IP_TRAINING_TABLE_SETS: 32
WOBBLY_CRITICAL_IP_CACHE_SETS: 32
WOBBLY_CRITICAL_IP_CACHE_WAYS: 4
BTB has LRU replacement policy
ITLB has LRU replacement policy
DTLB has LRU replacement policy
STLB has LRU replacement policy
L1I has LRU replacement policy
IP Table Entries: 64
L1D has LRU replacement policy
Initialize SRRIP state for L2C
Initialize DRRIP state for LLC
Heartbeat CPU 0 instructions: 10000000 cycles: 3015946 heartbeat IPC: 3.31571 cumulative IPC: 3.31571 (Simulation time: 0 hr 4 min 7 sec) 
Heartbeat CPU 0 instructions: 20000002 cycles: 6031708 heartbeat IPC: 3.31591 cumulative IPC: 3.31581 (Simulation time: 0 hr 8 min 4 sec) 
Heartbeat CPU 0 instructions: 30000000 cycles: 9047586 heartbeat IPC: 3.31578 cumulative IPC: 3.3158 (Simulation time: 0 hr 11 min 55 sec) 
Heartbeat CPU 0 instructions: 40000000 cycles: 12063374 heartbeat IPC: 3.31588 cumulative IPC: 3.31582 (Simulation time: 0 hr 15 min 42 sec) 
Heartbeat CPU 0 instructions: 50000003 cycles: 15186316 heartbeat IPC: 3.20211 cumulative IPC: 3.29244 (Simulation time: 0 hr 19 min 52 sec) 

Warmup complete CPU 0 instructions: 50000003 cycles: 15186316 (Simulation time: 0 hr 19 min 52 sec) 

% increase in all ip prefetch 283.489
% increase in all ip prefetch 10.6374
% increase in all ip prefetch 7.2275
% increase in all ip prefetch 0.00774369
Heartbeat CPU 0 instructions: 60000002 cycles: 32452201 heartbeat IPC: 0.579177 cumulative IPC: 0.579177 (Simulation time: 0 hr 23 min 25 sec) 
Heartbeat CPU 0 instructions: 70000000 cycles: 51947448 heartbeat IPC: 0.512945 cumulative IPC: 0.544053 (Simulation time: 0 hr 26 min 48 sec) 
Heartbeat CPU 0 instructions: 80000000 cycles: 71434088 heartbeat IPC: 0.513172 cumulative IPC: 0.533354 (Simulation time: 0 hr 30 min 5 sec) 
Heartbeat CPU 0 instructions: 90000000 cycles: 90916113 heartbeat IPC: 0.513294 cumulative IPC: 0.528194 (Simulation time: 0 hr 33 min 24 sec) 
Heartbeat CPU 0 instructions: 100000000 cycles: 110394319 heartbeat IPC: 0.513394 cumulative IPC: 0.525166 (Simulation time: 0 hr 36 min 45 sec) 
Heartbeat CPU 0 instructions: 110000000 cycles: 129876608 heartbeat IPC: 0.513287 cumulative IPC: 0.523148 (Simulation time: 0 hr 39 min 56 sec) 
Heartbeat CPU 0 instructions: 120000001 cycles: 147488262 heartbeat IPC: 0.567806 cumulative IPC: 0.529093 (Simulation time: 0 hr 43 min 3 sec) 
Heartbeat CPU 0 instructions: 130000002 cycles: 161982973 heartbeat IPC: 0.689907 cumulative IPC: 0.544972 (Simulation time: 0 hr 46 min 15 sec) 
Heartbeat CPU 0 instructions: 140000000 cycles: 181466440 heartbeat IPC: 0.513256 cumulative IPC: 0.541255 (Simulation time: 0 hr 48 min 54 sec) 
Heartbeat CPU 0 instructions: 150000000 cycles: 200952222 heartbeat IPC: 0.513195 cumulative IPC: 0.538312 (Simulation time: 0 hr 51 min 14 sec) 
Finished CPU 0 instructions: 100000001 cycles: 185765908 cumulative IPC: 0.538312 (Simulation time: 0 hr 51 min 14 sec) 

ChampSim completed all CPUs

Region of Interest Statistics

CPU 0 cumulative IPC: 0.538312 instructions: 100000001 cycles: 185765908

CPU 0 Average Load ROB stall cycles: 3.3055e+07
CPU 0 Fraction of times ROB stalled by Loads: 30.5846
CPU 0 Percentage of Load stall cycles in Total stall cycles: 5.96073e+08
Issued all: 59850549
Issued LT all: 46910047
rob_not_full_when_issued_lt_all: 45531886
Issued LT one: 38069028
rob_not_full_when_issued_lt_one: 36741464
 Total stall cycles: 164436976
 Total load stall cycles: 980163726433347
CPU 0 NUM of IPS identified critical: 0
CPU 0 Num of Load IPs stalling ROB: 163
Threshold modification factor: -3
Max PIST entries: 39
Min PIST entries: 0
Avg PIST entries: 11.66
Trouble in retire width: 0.997306
MaC = Marked as critical.
lt_50_percent_before_Mac: 0
gt_90_percent_before_Mac: 0
gt_75_percent_before_Mac: 0
gt_50_percent_before_Mac: 0
stall_proportion_bin_same_before_after: 0
stall_proportion_bin_lower_before_after: 0
stall_proportion_bin_upper_before_after: 0
average_stall_proportion_before: -nan
average_stall_proportion_after: -nan
Critical IP stalls, total frequency: 0
Non-critical IP stalls, total frequency: 9069115
Total Freq all stalling IPs: 9069115
stat_90_percent_critical_ip_stalls_freq: 8352867
stat_90_percent_non_critical_ip_stalls_freq: 716248
Critical_IP_ROB_Stalls_Bucket_0: 0
Non-critical_IP_ROB_Stalls_Bucket_0: 4671288
Critical_IP_ROB_Stalls_Bucket_1: 0
Non-critical_IP_ROB_Stalls_Bucket_1: 4326741
Critical_IP_ROB_Stalls_Bucket_2: 0
Non-critical_IP_ROB_Stalls_Bucket_2: 19828
Critical_IP_ROB_Stalls_Bucket_3: 0
Non-critical_IP_ROB_Stalls_Bucket_3: 14729
Critical_IP_ROB_Stalls_Bucket_4: 0
Non-critical_IP_ROB_Stalls_Bucket_4: 11139
Critical_IP_ROB_Stalls_Bucket_5: 0
Non-critical_IP_ROB_Stalls_Bucket_5: 11776
Critical_IP_ROB_Stalls_Bucket_6: 0
Non-critical_IP_ROB_Stalls_Bucket_6: 13614
0 => IPs accounting for >50 percent of stalls, 1 => 55, 2 => 60, 3 => 65 and so on till 90.
percent50: 54.42 num IPs:  7
percent55: 62.1375 num IPs: 8
percent60: 62.1375 num IPs: 8
percent65: 68.7503 num IPs: 9
percent70: 72.6422 num IPs: 10
percent75: 76.5341 num IPs: 11
percent80: 80.426 num IPs: 12
percent85: 86.7519 num IPs: 14
percent90: 92.1023 num IPs: 16
Critical_ROB_Stalls_Percent_0_Bucket_0: 2105791
Non-critical_ROB_Stalls_Percent_0_Bucket_0: 2565497
Critical_ROB_Stalls_Percent_0_Bucket_1: 2829583
Non-critical_ROB_Stalls_Percent_0_Bucket_1: 1497158
Critical_ROB_Stalls_Percent_0_Bucket_2: 35
Non-critical_ROB_Stalls_Percent_0_Bucket_2: 19793
Critical_ROB_Stalls_Percent_0_Bucket_3: 4
Non-critical_ROB_Stalls_Percent_0_Bucket_3: 14725
Critical_ROB_Stalls_Percent_0_Bucket_4: 0
Non-critical_ROB_Stalls_Percent_0_Bucket_4: 11139
Critical_ROB_Stalls_Percent_0_Bucket_5: 0
Non-critical_ROB_Stalls_Percent_0_Bucket_5: 11776
Critical_ROB_Stalls_Percent_0_Bucket_6: 0
Non-critical_ROB_Stalls_Percent_0_Bucket_6: 13614
Critical_ROB_Stalls_Percent_1_Bucket_0: 2105791
Non-critical_ROB_Stalls_Percent_1_Bucket_0: 2565497
Critical_ROB_Stalls_Percent_1_Bucket_1: 3529489
Non-critical_ROB_Stalls_Percent_1_Bucket_1: 797252
Critical_ROB_Stalls_Percent_1_Bucket_2: 35
Non-critical_ROB_Stalls_Percent_1_Bucket_2: 19793
Critical_ROB_Stalls_Percent_1_Bucket_3: 5
Non-critical_ROB_Stalls_Percent_1_Bucket_3: 14724
Critical_ROB_Stalls_Percent_1_Bucket_4: 0
Non-critical_ROB_Stalls_Percent_1_Bucket_4: 11139
Critical_ROB_Stalls_Percent_1_Bucket_5: 0
Non-critical_ROB_Stalls_Percent_1_Bucket_5: 11776
Critical_ROB_Stalls_Percent_1_Bucket_6: 0
Non-critical_ROB_Stalls_Percent_1_Bucket_6: 13614
Critical_ROB_Stalls_Percent_2_Bucket_0: 2105791
Non-critical_ROB_Stalls_Percent_2_Bucket_0: 2565497
Critical_ROB_Stalls_Percent_2_Bucket_1: 3529489
Non-critical_ROB_Stalls_Percent_2_Bucket_1: 797252
Critical_ROB_Stalls_Percent_2_Bucket_2: 35
Non-critical_ROB_Stalls_Percent_2_Bucket_2: 19793
Critical_ROB_Stalls_Percent_2_Bucket_3: 5
Non-critical_ROB_Stalls_Percent_2_Bucket_3: 14724
Critical_ROB_Stalls_Percent_2_Bucket_4: 0
Non-critical_ROB_Stalls_Percent_2_Bucket_4: 11139
Critical_ROB_Stalls_Percent_2_Bucket_5: 0
Non-critical_ROB_Stalls_Percent_2_Bucket_5: 11776
Critical_ROB_Stalls_Percent_2_Bucket_6: 0
Non-critical_ROB_Stalls_Percent_2_Bucket_6: 13614
Critical_ROB_Stalls_Percent_3_Bucket_0: 2626912
Non-critical_ROB_Stalls_Percent_3_Bucket_0: 2044376
Critical_ROB_Stalls_Percent_3_Bucket_1: 3608059
Non-critical_ROB_Stalls_Percent_3_Bucket_1: 718682
Critical_ROB_Stalls_Percent_3_Bucket_2: 69
Non-critical_ROB_Stalls_Percent_3_Bucket_2: 19759
Critical_ROB_Stalls_Percent_3_Bucket_3: 5
Non-critical_ROB_Stalls_Percent_3_Bucket_3: 14724
Critical_ROB_Stalls_Percent_3_Bucket_4: 0
Non-critical_ROB_Stalls_Percent_3_Bucket_4: 11139
Critical_ROB_Stalls_Percent_3_Bucket_5: 0
Non-critical_ROB_Stalls_Percent_3_Bucket_5: 11776
Critical_ROB_Stalls_Percent_3_Bucket_6: 0
Non-critical_ROB_Stalls_Percent_3_Bucket_6: 13614
Critical_ROB_Stalls_Percent_4_Bucket_0: 2904627
Non-critical_ROB_Stalls_Percent_4_Bucket_0: 1766661
Critical_ROB_Stalls_Percent_4_Bucket_1: 3683290
Non-critical_ROB_Stalls_Percent_4_Bucket_1: 643451
Critical_ROB_Stalls_Percent_4_Bucket_2: 83
Non-critical_ROB_Stalls_Percent_4_Bucket_2: 19745
Critical_ROB_Stalls_Percent_4_Bucket_3: 5
Non-critical_ROB_Stalls_Percent_4_Bucket_3: 14724
Critical_ROB_Stalls_Percent_4_Bucket_4: 0
Non-critical_ROB_Stalls_Percent_4_Bucket_4: 11139
Critical_ROB_Stalls_Percent_4_Bucket_5: 0
Non-critical_ROB_Stalls_Percent_4_Bucket_5: 11776
Critical_ROB_Stalls_Percent_4_Bucket_6: 0
Non-critical_ROB_Stalls_Percent_4_Bucket_6: 13614
Critical_ROB_Stalls_Percent_5_Bucket_0: 2974375
Non-critical_ROB_Stalls_Percent_5_Bucket_0: 1696913
Critical_ROB_Stalls_Percent_5_Bucket_1: 3966488
Non-critical_ROB_Stalls_Percent_5_Bucket_1: 360253
Critical_ROB_Stalls_Percent_5_Bucket_2: 97
Non-critical_ROB_Stalls_Percent_5_Bucket_2: 19731
Critical_ROB_Stalls_Percent_5_Bucket_3: 5
Non-critical_ROB_Stalls_Percent_5_Bucket_3: 14724
Critical_ROB_Stalls_Percent_5_Bucket_4: 0
Non-critical_ROB_Stalls_Percent_5_Bucket_4: 11139
Critical_ROB_Stalls_Percent_5_Bucket_5: 0
Non-critical_ROB_Stalls_Percent_5_Bucket_5: 11776
Critical_ROB_Stalls_Percent_5_Bucket_6: 0
Non-critical_ROB_Stalls_Percent_5_Bucket_6: 13614
Critical_ROB_Stalls_Percent_6_Bucket_0: 3041591
Non-critical_ROB_Stalls_Percent_6_Bucket_0: 1629697
Critical_ROB_Stalls_Percent_6_Bucket_1: 4245192
Non-critical_ROB_Stalls_Percent_6_Bucket_1: 81549
Critical_ROB_Stalls_Percent_6_Bucket_2: 7137
Non-critical_ROB_Stalls_Percent_6_Bucket_2: 12691
Critical_ROB_Stalls_Percent_6_Bucket_3: 5
Non-critical_ROB_Stalls_Percent_6_Bucket_3: 14724
Critical_ROB_Stalls_Percent_6_Bucket_4: 0
Non-critical_ROB_Stalls_Percent_6_Bucket_4: 11139
Critical_ROB_Stalls_Percent_6_Bucket_5: 0
Non-critical_ROB_Stalls_Percent_6_Bucket_5: 11776
Critical_ROB_Stalls_Percent_6_Bucket_6: 0
Non-critical_ROB_Stalls_Percent_6_Bucket_6: 13614
Critical_ROB_Stalls_Percent_7_Bucket_0: 3567090
Non-critical_ROB_Stalls_Percent_7_Bucket_0: 1104198
Critical_ROB_Stalls_Percent_7_Bucket_1: 4269997
Non-critical_ROB_Stalls_Percent_7_Bucket_1: 56744
Critical_ROB_Stalls_Percent_7_Bucket_2: 12033
Non-critical_ROB_Stalls_Percent_7_Bucket_2: 7795
Critical_ROB_Stalls_Percent_7_Bucket_3: 5809
Non-critical_ROB_Stalls_Percent_7_Bucket_3: 8920
Critical_ROB_Stalls_Percent_7_Bucket_4: 4108
Non-critical_ROB_Stalls_Percent_7_Bucket_4: 7031
Critical_ROB_Stalls_Percent_7_Bucket_5: 4907
Non-critical_ROB_Stalls_Percent_7_Bucket_5: 6869
Critical_ROB_Stalls_Percent_7_Bucket_6: 3687
Non-critical_ROB_Stalls_Percent_7_Bucket_6: 9927
Critical_ROB_Stalls_Percent_8_Bucket_0: 4016247
Non-critical_ROB_Stalls_Percent_8_Bucket_0: 655041
Critical_ROB_Stalls_Percent_8_Bucket_1: 4285865
Non-critical_ROB_Stalls_Percent_8_Bucket_1: 40876
Critical_ROB_Stalls_Percent_8_Bucket_2: 15619
Non-critical_ROB_Stalls_Percent_8_Bucket_2: 4209
Critical_ROB_Stalls_Percent_8_Bucket_3: 10437
Non-critical_ROB_Stalls_Percent_8_Bucket_3: 4292
Critical_ROB_Stalls_Percent_8_Bucket_4: 7503
Non-critical_ROB_Stalls_Percent_8_Bucket_4: 3636
Critical_ROB_Stalls_Percent_8_Bucket_5: 8958
Non-critical_ROB_Stalls_Percent_8_Bucket_5: 2818
Critical_ROB_Stalls_Percent_8_Bucket_6: 8238
Non-critical_ROB_Stalls_Percent_8_Bucket_6: 5376
Average ROB occupancy Load Stall Begin: 45.0892
Average ROB occupancy Load Stall End: 50.6527
Min ROB occupancy Load Stall Begin: 1
Max ROB occupancy Load Stall Begin: 352
Min ROB occupancy Load Stall End: 1
Max ROB occupancy Load Stall End: 352
Average ROB occupancy Critical Load Stall Begin: -nan
Average ROB occupancy Critical Load Stall End: -nan
Min ROB occupancy Critical Load Stall Begin: 400
Max ROB occupancy Critical Load Stall Begin: 0
Min ROB occupancy Critical Load Stall End: 400
Max ROB occupancy Critical Load Stall End: 0
 ROB Load Stall Begin Bucket Count 0: 5393306
 ROB Load Stall End Bucket Count 0: 4671288
 ROB Critical Load Stall Begin Bucket Count 0: 0
 ROB Critical Load Stall End Bucket Count 0: 0
 ROB Load Stall Begin Bucket Count 1: 3622499
 ROB Load Stall End Bucket Count 1: 4326741
 ROB Critical Load Stall Begin Bucket Count 1: 0
 ROB Critical Load Stall End Bucket Count 1: 0
 ROB Load Stall Begin Bucket Count 2: 12277
 ROB Load Stall End Bucket Count 2: 19828
 ROB Critical Load Stall Begin Bucket Count 2: 0
 ROB Critical Load Stall End Bucket Count 2: 0
 ROB Load Stall Begin Bucket Count 3: 13304
 ROB Load Stall End Bucket Count 3: 14729
 ROB Critical Load Stall Begin Bucket Count 3: 0
 ROB Critical Load Stall End Bucket Count 3: 0
 ROB Load Stall Begin Bucket Count 4: 9401
 ROB Load Stall End Bucket Count 4: 11139
 ROB Critical Load Stall Begin Bucket Count 4: 0
 ROB Critical Load Stall End Bucket Count 4: 0
 ROB Load Stall Begin Bucket Count 5: 10018
 ROB Load Stall End Bucket Count 5: 11776
 ROB Critical Load Stall Begin Bucket Count 5: 0
 ROB Critical Load Stall End Bucket Count 5: 0
 ROB Load Stall Begin Bucket Count 6: 8310
 ROB Load Stall End Bucket Count 6: 13614
 ROB Critical Load Stall Begin Bucket Count 6: 0
 ROB Critical Load Stall End Bucket Count 6: 0
PIST Tag Read Accesses: 139600
PIST Read Accesses: 69800
PIST Tag Write Accesses: 139600
PIST Write Accesses: 69800
Criticality detector called times: 488153
Max global_stall_cycles_count: 212246
Threshold Modified: 3 times, factor: -3
Sturdy critical IP cache stats: 
 Unused entries: 0
CIC Tag Read Accesses: 0
CIC Read Accesses: 0
CIC Tag Write Accesses: 0
CIC Write Accesses: 0
Wobbly critical IP cache stats: 
 Unused entries: 97
CIC Tag Read Accesses: 208567933
CIC Read Accesses: 0
CIC Tag Write Accesses: 3805569
CIC Write Accesses: 0
ITLB TOTAL     ACCESS:   16846535  HIT:   16846533  MISS:          2  HIT %:        100  MISS %: 1.18719e-05   MPKI: 2e-05
ITLB LOAD TRANSLATION ACCESS:   16846535  HIT:   16846533  MISS:          2  HIT %:        100  MISS %: 1.18719e-05   MPKI: 2e-05
ITLB PREFETCH  REQUESTED:          0  ISSUED:          0  USEFUL:          0  USELESS:          0
ITLB USEFUL LOAD PREFETCHES:          0 PREFETCH ISSUED TO LOWER LEVEL:          0  ACCURACY: -nan
ITLB TIMELY PREFETCHES:          0 LATE PREFETCHES: 0 DROPPED PREFETCHES: 0
ITLB PREFETCHES SAME FILL-ORIGIN LEVEL: 0 DIFFERENT FILL-ORIGIN LEVEL: 0
ITLB AVERAGE MISS LATENCY: 325.5 cycles
ITLB RQ	ACCESS:   21395045	FORWARD:          0	MERGED:    4548511	TO_CACHE:   16846534

DTLB TOTAL     ACCESS:   28533127  HIT:   28515749  MISS:      17378  HIT %:    99.9391  MISS %:  0.0609046   MPKI: 0.17378
DTLB LOAD TRANSLATION ACCESS:   28533127  HIT:   28515749  MISS:      17378  HIT %:    99.9391  MISS %:  0.0609046   MPKI: 0.17378
DTLB PREFETCH  REQUESTED:          0  ISSUED:          0  USEFUL:          0  USELESS:          0
DTLB USEFUL LOAD PREFETCHES:          0 PREFETCH ISSUED TO LOWER LEVEL:          0  ACCURACY: -nan
DTLB TIMELY PREFETCHES:          0 LATE PREFETCHES: 0 DROPPED PREFETCHES: 0
DTLB PREFETCHES SAME FILL-ORIGIN LEVEL: 0 DIFFERENT FILL-ORIGIN LEVEL: 0
DTLB AVERAGE MISS LATENCY: 171.034 cycles
DTLB RQ	ACCESS:   32158510	FORWARD:          0	MERGED:    3604535	TO_CACHE:   28553975

STLB TOTAL     ACCESS:     547213  HIT:     530440  MISS:      16773  HIT %:    96.9348  MISS %:    3.06517   MPKI: 0.16773
STLB LOAD TRANSLATION ACCESS:      17380  HIT:        607  MISS:      16773  HIT %:    3.49252  MISS %:    96.5075   MPKI: 0.16773
STLB TRANSLATION FROM L1D PREFETCHER ACCESS:     529833  HIT:     529833  MISS:          0  HIT %:        100  MISS %:          0   MPKI: 0
STLB PREFETCH  REQUESTED:          0  ISSUED:          0  USEFUL:          0  USELESS:          0
STLB USEFUL LOAD PREFETCHES:          0 PREFETCH ISSUED TO LOWER LEVEL:          0  ACCURACY: -nan
STLB TIMELY PREFETCHES:          0 LATE PREFETCHES: 0 DROPPED PREFETCHES: 0
STLB PREFETCHES SAME FILL-ORIGIN LEVEL: 0 DIFFERENT FILL-ORIGIN LEVEL: 0
STLB AVERAGE MISS LATENCY: 167.776 cycles
STLB RQ	ACCESS:    1474674	FORWARD:          0	MERGED:     927462	TO_CACHE:     547212

STLB Hit, L1D data hit: 0
STLB Hit, L2C data hit: 0
STLB Hit, LLC data hit: 0
STLB Hit, LLC data miss: 0
STLB STLB hints to L2: 0
L1D TOTAL     ACCESS:   32364438  HIT:   31643572  MISS:     720866  HIT %:    97.7727  MISS %:    2.22734   MPKI: 7.20866
L1D LOAD      ACCESS:   20354804  HIT:   20331554  MISS:      23250  HIT %:    99.8858  MISS %:   0.114224   MPKI: 0.2325
L1D RFO       ACCESS:   10563663  HIT:   10325356  MISS:     238307  HIT %:    97.7441  MISS %:    2.25591   MPKI: 2.38307
L1D PREFETCH  ACCESS:    1445971  HIT:     986662  MISS:     459309  HIT %:    68.2353  MISS %:    31.7647   MPKI: 4.59309
L1D PREFETCH  REQUESTED:    2915559  ISSUED:    2914588  USEFUL:     431569  USELESS:      27751
L1D USEFUL LOAD PREFETCHES:     431569 PREFETCH ISSUED TO LOWER LEVEL:     467244  ACCURACY: 92.3648
L1D TIMELY PREFETCHES:     431569 LATE PREFETCHES: 6788 DROPPED PREFETCHES: 0
L1D PREFETCHES SAME FILL-ORIGIN LEVEL: 467244 DIFFERENT FILL-ORIGIN LEVEL: 0
L1D AVERAGE MISS LATENCY: 1.02553e+06 cycles
L1D RQ	ACCESS:   24459309	FORWARD:          0	MERGED:    4056473	TO_CACHE:   20387808
L1D WQ	ACCESS:   12476628	FORWARD:      15028	MERGED:     705926	TO_CACHE:   11770702
L1D PQ	ACCESS:    1457294	FORWARD:          0	MERGED:          0	TO_CACHE:    1457294

L1D UNIQUE REGIONS ACCESSED: 0
L1D REGIONS CONFLICTS: 0
L1D Cross Page Prefetch Requests: 0
L1D Same Page Prefetch Requests: 3605893
L1D ROI Sum of L1D PQ occupancy: 21728588
L1D PREFETCHES PUSHED FROM L2C: 0
L1I TOTAL     ACCESS:   21395036  HIT:   21395000  MISS:         36  HIT %:    99.9998  MISS %: 0.000168263   MPKI: 0.00036
L1I LOAD      ACCESS:   21395036  HIT:   21395000  MISS:         36  HIT %:    99.9998  MISS %: 0.000168263   MPKI: 0.00036
L1I PREFETCH  REQUESTED:          0  ISSUED:          0  USEFUL:          0  USELESS:          0
L1I USEFUL LOAD PREFETCHES:          0 PREFETCH ISSUED TO LOWER LEVEL:          0  ACCURACY: -nan
L1I TIMELY PREFETCHES:          0 LATE PREFETCHES: 0 DROPPED PREFETCHES: 0
L1I PREFETCHES SAME FILL-ORIGIN LEVEL: 0 DIFFERENT FILL-ORIGIN LEVEL: 0
L1I AVERAGE MISS LATENCY: 240.028 cycles
L1I RQ	ACCESS:   28121424	FORWARD:          0	MERGED:    6726379	TO_CACHE:   21395045

BTB TOTAL     ACCESS:    6508269  HIT:    5802287  MISS:     705982  HIT %:    89.1525  MISS %:    10.8475   MPKI: 7.05982
BTB BRANCH_DIRECT_JUMP	ACCESS:     705946  HIT:     705938  MISS:          8
BTB BRANCH_INDIRECT	ACCESS:          0  HIT:          0  MISS:          0
BTB BRANCH_CONDITIONAL	ACCESS:    2978604  HIT:    2978573  MISS:         31
BTB BRANCH_DIRECT_CALL	ACCESS:    1411860  HIT:    1411850  MISS:         10
BTB BRANCH_INDIRECT_CALL	ACCESS:          0  HIT:          0  MISS:          0
BTB BRANCH_RETURN	ACCESS:    1411859  HIT:     705926  MISS:     705933
BTB BRANCH_OTHER ACCESS:          0  HIT:          0  MISS:          0

L2C TOTAL     ACCESS:    2636786  HIT:    1878804  MISS:     757982  HIT %:    71.2536  MISS %:    28.7464   MPKI: 7.57982
L2C LOAD      ACCESS:      16497  HIT:        637  MISS:      15860  HIT %:    3.86131  MISS %:    96.1387   MPKI: 0.1586
L2C DATA LOAD MPKI: 0.15824
L2C INSTRUCTION LOAD MPKI: 0.00036
L2C RFO       ACCESS:     238307  HIT:          7  MISS:     238300  HIT %: 0.00293739  MISS %:    99.9971   MPKI: 2.383
L2C PREFETCH  ACCESS:    2126891  HIT:    1636884  MISS:     490007  HIT %:    76.9613  MISS %:    23.0387   MPKI: 4.90007
L2C DATA PREFETCH MPKI: 4.90007
L2C INSTRUCTION PREFETCH MPKI: 0
L2C WRITEBACK ACCESS:     238265  HIT:     228094  MISS:      10171  HIT %:    95.7312  MISS %:    4.26878   MPKI: 0.10171
L2C LOAD TRANSLATION ACCESS:      16826  HIT:      13182  MISS:       3644  HIT %:     78.343  MISS %:     21.657   MPKI: 0.03644
L2C PREFETCH  REQUESTED:    2132721  ISSUED:    2119088  USEFUL:        352  USELESS:     490243
L2C USEFUL LOAD PREFETCHES:        352 PREFETCH ISSUED TO LOWER LEVEL:     490196  ACCURACY: 0.071808
L2C TIMELY PREFETCHES:        352 LATE PREFETCHES: 189 DROPPED PREFETCHES: 0
L2C PREFETCHES SAME FILL-ORIGIN LEVEL: 411475 DIFFERENT FILL-ORIGIN LEVEL: 0
L2C AVERAGE MISS LATENCY: 310.076 cycles
L2C RQ	ACCESS:     271631	FORWARD:          0	MERGED:          0	TO_CACHE:     271630
L2C WQ	ACCESS:     238265	FORWARD:          1	MERGED:          0	TO_CACHE:     238265
L2C PQ	ACCESS:    2585185	FORWARD:          0	MERGED:     118366	TO_CACHE:    2466819

L2C Instructions Evicting Data 36
L2C Translations Evicting Data 3637
L2C Data Evicting Data 740489
L2C Instructions Evicting Instructions 0
L2C Translations Evicting Instructions 0
L2C Data Evicting Instructions 36
L2C Instructions Evicting Translations 0
L2C Translations Evicting Translations 7
L2C Data Evicting Translations 3606
L2C Dense regions hint from L2: 0
PSCL5 TOTAL     ACCESS:      16773  HIT:      16773  MISS:          0  HIT %:        100  MISS %:          0   MPKI: 0
PSCL5 LOAD TRANSLATION ACCESS:      16773  HIT:      16773  MISS:          0  HIT %:        100  MISS %:          0   MPKI: 0
PSCL5 PREFETCH  REQUESTED:          0  ISSUED:          0  USEFUL:          0  USELESS:          0
PSCL5 USEFUL LOAD PREFETCHES:          0 PREFETCH ISSUED TO LOWER LEVEL:          0  ACCURACY: -nan
PSCL5 TIMELY PREFETCHES:          0 LATE PREFETCHES: 0 DROPPED PREFETCHES: 0
PSCL5 PREFETCHES SAME FILL-ORIGIN LEVEL: 0 DIFFERENT FILL-ORIGIN LEVEL: 0

PSCL4 TOTAL     ACCESS:      16773  HIT:      16773  MISS:          0  HIT %:        100  MISS %:          0   MPKI: 0
PSCL4 LOAD TRANSLATION ACCESS:      16773  HIT:      16773  MISS:          0  HIT %:        100  MISS %:          0   MPKI: 0
PSCL4 PREFETCH  REQUESTED:          0  ISSUED:          0  USEFUL:          0  USELESS:          0
PSCL4 USEFUL LOAD PREFETCHES:          0 PREFETCH ISSUED TO LOWER LEVEL:          0  ACCURACY: -nan
PSCL4 TIMELY PREFETCHES:          0 LATE PREFETCHES: 0 DROPPED PREFETCHES: 0
PSCL4 PREFETCHES SAME FILL-ORIGIN LEVEL: 0 DIFFERENT FILL-ORIGIN LEVEL: 0

PSCL3 TOTAL     ACCESS:      16423  HIT:      16417  MISS:          6  HIT %:    99.9635  MISS %:  0.0365341   MPKI: 6e-05
PSCL3 LOAD TRANSLATION ACCESS:      16423  HIT:      16417  MISS:          6  HIT %:    99.9635  MISS %:  0.0365341   MPKI: 6e-05
PSCL3 PREFETCH  REQUESTED:          0  ISSUED:          0  USEFUL:          0  USELESS:          0
PSCL3 USEFUL LOAD PREFETCHES:          0 PREFETCH ISSUED TO LOWER LEVEL:          0  ACCURACY: -nan
PSCL3 TIMELY PREFETCHES:          0 LATE PREFETCHES: 0 DROPPED PREFETCHES: 0
PSCL3 PREFETCHES SAME FILL-ORIGIN LEVEL: 0 DIFFERENT FILL-ORIGIN LEVEL: 0

PSCL2 TOTAL     ACCESS:      16773  HIT:      16697  MISS:         76  HIT %:    99.5469  MISS %:   0.453109   MPKI: 0.00076
PSCL2 LOAD TRANSLATION ACCESS:      16773  HIT:      16697  MISS:         76  HIT %:    99.5469  MISS %:   0.453109   MPKI: 0.00076
PSCL2 PREFETCH  REQUESTED:          0  ISSUED:          0  USEFUL:          0  USELESS:          0
PSCL2 USEFUL LOAD PREFETCHES:          0 PREFETCH ISSUED TO LOWER LEVEL:          0  ACCURACY: -nan
PSCL2 TIMELY PREFETCHES:          0 LATE PREFETCHES: 0 DROPPED PREFETCHES: 0
PSCL2 PREFETCHES SAME FILL-ORIGIN LEVEL: 0 DIFFERENT FILL-ORIGIN LEVEL: 0

LLC TOTAL     ACCESS:     985373  HIT:     234130  MISS:     751243  HIT %:    23.7605  MISS %:    76.2395   MPKI: 7.51243
LLC LOAD      ACCESS:      15671  HIT:         22  MISS:      15649  HIT %:   0.140387  MISS %:    99.8596   MPKI: 0.15649
LLC RFO       ACCESS:     238300  HIT:          0  MISS:     238300  HIT %:          0  MISS %:        100   MPKI: 2.383
LLC PREFETCH  ACCESS:     490196  HIT:        310  MISS:     489886  HIT %:    0.06324  MISS %:    99.9368   MPKI: 4.89886
LLC WRITEBACK ACCESS:     237562  HIT:     233730  MISS:       3832  HIT %:    98.3869  MISS %:    1.61305   MPKI: 0.03832
LLC LOAD TRANSLATION ACCESS:       3644  HIT:         68  MISS:       3576  HIT %:    1.86608  MISS %:    98.1339   MPKI: 0.03576
LLC PREFETCH  REQUESTED:          0  ISSUED:          0  USEFUL:          4  USELESS:     491701
LLC USEFUL LOAD PREFETCHES:          4 PREFETCH ISSUED TO LOWER LEVEL:     489886  ACCURACY: 0.000816516
LLC TIMELY PREFETCHES:          4 LATE PREFETCHES: 0 DROPPED PREFETCHES: 0
LLC PREFETCHES SAME FILL-ORIGIN LEVEL: 0 DIFFERENT FILL-ORIGIN LEVEL: 0
LLC AVERAGE MISS LATENCY: 281.408 cycles
LLC RQ	ACCESS:     257615	FORWARD:          0	MERGED:          0	TO_CACHE:     257615
LLC WQ	ACCESS:     237562	FORWARD:          0	MERGED:          0	TO_CACHE:     237562
LLC PQ	ACCESS:     490196	FORWARD:          0	MERGED:          0	TO_CACHE:     490196

LLC Dense regions hint to LLC: 0

RAW hits: 2885361
Loads Generated: 27344671
Loads sent to L1D: 24459309
Stores Generated: 12476624
Stores sent to L1D: 12476628
Major fault: 0 Minor fault: 14234
Allocated PAGES: 14234

stream: 
stream:times selected: 2640217
stream:pref_filled: 636552
stream:pref_useful: 599626
stream:pref_late: 6720
stream:misses: 67
stream:misses_by_poll: 0

CS: 
CS:times selected: 798618
CS:pref_filled: 6819
CS:pref_useful: 6693
CS:pref_late: 16
CS:misses: 59329
CS:misses_by_poll: 6

CPLX: 
CPLX:times selected: 1840554
CPLX:pref_filled: 173
CPLX:pref_useful: 50
CPLX:pref_late: 4
CPLX:misses: 1116
CPLX:misses_by_poll: 0

NL_L1: 
NL:times selected: 4
NL:pref_filled: 3
NL:pref_useful: 3
NL:pref_late: 0
NL:misses: 1
NL:misses_by_poll: 0

total selections: 5279393
total_filled: 459309
total_useful: 431569
total_late: 6868
total_polluted: 6
total_misses_after_warmup: 55503
conflicts: 4428
Degree Incremented Times: 129217
Degree Decremented Times: 0

L1 IP Table Write Accesses: 11304918
L1 IP Table Read Accesses: 11300490
L1 RST Write Accesses: 1359056
L1 RST Read Accesses: 2718112
L1 CSPT Write Accesses: 1359056
L1 CSPT Read Accesses: 3697595
L1 RR Filter Tag Write Accesses: 1458265
L1 RR Filter Tag Read Accesses: 235912319
L1 IP Table Tag Write Accesses: 12733860
L1 IP Table Tag Read Accesses: 12733860
L1 RST Tag Write Accesses: 0
L1 RST Tag Read Accesses: 11566989
L1 RR Filter Write Accesses: 0
L1 RR Filter Read Accesses: 11734503
test: 706359
L2 IP Table Read Accesses: 761410
L2 IP Table Write Accesses: 745594
L2 IP Table Tag Read Accesses: 380740
L2 IP Table Tag Write Accesses: 380740

DRAM Statistics
 CHANNEL 0
 RQ ROW_BUFFER_HIT:     255536  ROW_BUFFER_MISS:     491875
 DBUS_CONGESTED:         21
 WQ ROW_BUFFER_HIT:      28679  ROW_BUFFER_MISS:     207709  FULL:          0

 AVG_CONGESTED_CYCLE: 5
 All warmup complete: 2
Channel 0 Bank busy for read cycles: 0
Channel 0 Bank busy for write cycles: 0
Channel 0
Rank 0
0banks busy for read cycles: 148946698
0banks busy for write cycles: 31704
1banks busy for read cycles: 11486523
1banks busy for write cycles: 4726356
2banks busy for read cycles: 1582658
2banks busy for write cycles: 180428
3banks busy for read cycles: 2115543
3banks busy for write cycles: 108070
4banks busy for read cycles: 2223609
4banks busy for write cycles: 86812
5banks busy for read cycles: 2289988
5banks busy for write cycles: 75148
6banks busy for read cycles: 2466322
6banks busy for write cycles: 73919
7banks busy for read cycles: 2306707
7banks busy for write cycles: 394726
8banks busy for read cycles: 2308516
8banks busy for write cycles: 4362182

CPU 0 Branch Prediction Accuracy: 99.971% MPKI: 0.03111 Average ROB Occupancy at Mispredict: 39.1373
Branch types
NOT_BRANCH: 89254039 89.254%
BRANCH_DIRECT_JUMP: 705946 0.705946%
BRANCH_INDIRECT: 0 0%
BRANCH_CONDITIONAL: 7215955 7.21595%
BRANCH_DIRECT_CALL: 1411860 1.41186%
BRANCH_INDIRECT_CALL: 0 0%
BRANCH_RETURN: 1411859 1.41186%
BRANCH_OTHER: 0 0%

DRAM PAGES: 1048576
Allocated PAGES: 14234
