
*** ChampSim Multicore Out-of-Order Simulator ***

Warmup Instructions: 50000000
Simulation Instructions: 100000000
Number of CPUs: 1
LLC sets: 2048
LLC ways: 16
Off-chip DRAM Size: 4096 MB Channels: 1 Width: 64-bit Data Rate: 6400 MT/s
CPU 0 runs ../SPEC2017//654.roms_s-1613B.champsimtrace.xz
.xz
NUM_OF_IPS_IN_CRITICAL_IP_TRAINING: 64
NUM_OF_CRITICAL_IP_TRAINING_TABLE_WAYS: 2
NUM_OF_CRITICAL_IP_TRAINING_TABLE_SETS: 32
WOBBLY_CRITICAL_IP_CACHE_SETS: 32
WOBBLY_CRITICAL_IP_CACHE_WAYS: 4
BTB has LRU replacement policy
ITLB has LRU replacement policy
DTLB has LRU replacement policy
STLB has LRU replacement policy
L1I has LRU replacement policy
IP Table Entries: 256
L1D has LRU replacement policy
Initialize SRRIP state for L2C
Initialize DRRIP state for LLC
Heartbeat CPU 0 instructions: 10000001 cycles: 2914341 heartbeat IPC: 3.43131 cumulative IPC: 3.43131 (Simulation time: 0 hr 3 min 24 sec) 
Heartbeat CPU 0 instructions: 20000000 cycles: 5828653 heartbeat IPC: 3.43134 cumulative IPC: 3.43132 (Simulation time: 0 hr 6 min 3 sec) 
Heartbeat CPU 0 instructions: 30000000 cycles: 8742816 heartbeat IPC: 3.43152 cumulative IPC: 3.43139 (Simulation time: 0 hr 8 min 41 sec) 
Heartbeat CPU 0 instructions: 40000000 cycles: 11657064 heartbeat IPC: 3.43142 cumulative IPC: 3.4314 (Simulation time: 0 hr 10 min 58 sec) 
Heartbeat CPU 0 instructions: 50000001 cycles: 15202186 heartbeat IPC: 2.82078 cumulative IPC: 3.289 (Simulation time: 0 hr 13 min 0 sec) 

Warmup complete CPU 0 instructions: 50000001 cycles: 15202186 (Simulation time: 0 hr 13 min 0 sec) 

Heartbeat CPU 0 instructions: 60000001 cycles: 31864905 heartbeat IPC: 0.600142 cumulative IPC: 0.600142 (Simulation time: 0 hr 15 min 15 sec) 
Heartbeat CPU 0 instructions: 70000003 cycles: 48504267 heartbeat IPC: 0.600985 cumulative IPC: 0.600563 (Simulation time: 0 hr 17 min 21 sec) 
Heartbeat CPU 0 instructions: 80000000 cycles: 65131463 heartbeat IPC: 0.601424 cumulative IPC: 0.60085 (Simulation time: 0 hr 19 min 32 sec) 
Heartbeat CPU 0 instructions: 90000001 cycles: 81750761 heartbeat IPC: 0.60171 cumulative IPC: 0.601065 (Simulation time: 0 hr 21 min 45 sec) 
Heartbeat CPU 0 instructions: 100000000 cycles: 98374526 heartbeat IPC: 0.601548 cumulative IPC: 0.601161 (Simulation time: 0 hr 23 min 55 sec) 
Heartbeat CPU 0 instructions: 110000000 cycles: 114996472 heartbeat IPC: 0.601614 cumulative IPC: 0.601237 (Simulation time: 0 hr 26 min 1 sec) 
Heartbeat CPU 0 instructions: 120000001 cycles: 135887043 heartbeat IPC: 0.478685 cumulative IPC: 0.580023 (Simulation time: 0 hr 28 min 38 sec) 
Heartbeat CPU 0 instructions: 130000000 cycles: 152508894 heartbeat IPC: 0.601618 cumulative IPC: 0.582637 (Simulation time: 0 hr 30 min 39 sec) 
Heartbeat CPU 0 instructions: 140000003 cycles: 169137907 heartbeat IPC: 0.601359 cumulative IPC: 0.58466 (Simulation time: 0 hr 32 min 37 sec) 
Heartbeat CPU 0 instructions: 150000001 cycles: 185767324 heartbeat IPC: 0.601344 cumulative IPC: 0.586286 (Simulation time: 0 hr 35 min 39 sec) 
Finished CPU 0 instructions: 100000000 cycles: 170565138 cumulative IPC: 0.586286 (Simulation time: 0 hr 35 min 39 sec) 

ChampSim completed all CPUs

Region of Interest Statistics

CPU 0 cumulative IPC: 0.586286 instructions: 100000000 cycles: 170565138

CPU 0 Average Load ROB stall cycles: 2.91098e+07
CPU 0 Fraction of times ROB stalled by Loads: 29.0082
CPU 0 Percentage of Load stall cycles in Total stall cycles: 5.7786e+08
Issued all: 62591346
Issued LT all: 48708740
rob_not_full_when_issued_lt_all: 43763128
Issued LT one: 40950935
rob_not_full_when_issued_lt_one: 36279699
 Total stall cycles: 144830210
 Total load stall cycles: 836915160629747
CPU 0 NUM of IPS identified critical: 0
CPU 0 Num of Load IPs stalling ROB: 283
Threshold modification factor: 0
Max PIST entries: 54
Min PIST entries: 0
Avg PIST entries: 12.7133
Trouble in retire width: 0.988802
MaC = Marked as critical.
lt_50_percent_before_Mac: 0
gt_90_percent_before_Mac: 0
gt_75_percent_before_Mac: 0
gt_50_percent_before_Mac: 0
stall_proportion_bin_same_before_after: 0
stall_proportion_bin_lower_before_after: 0
stall_proportion_bin_upper_before_after: 0
average_stall_proportion_before: -nan
average_stall_proportion_after: -nan
Critical IP stalls, total frequency: 0
Non-critical IP stalls, total frequency: 8339926
Total Freq all stalling IPs: 8339926
stat_90_percent_critical_ip_stalls_freq: 7745424
stat_90_percent_non_critical_ip_stalls_freq: 594502
Critical_IP_ROB_Stalls_Bucket_0: 0
Non-critical_IP_ROB_Stalls_Bucket_0: 4752587
Critical_IP_ROB_Stalls_Bucket_1: 0
Non-critical_IP_ROB_Stalls_Bucket_1: 3304446
Critical_IP_ROB_Stalls_Bucket_2: 0
Non-critical_IP_ROB_Stalls_Bucket_2: 6789
Critical_IP_ROB_Stalls_Bucket_3: 0
Non-critical_IP_ROB_Stalls_Bucket_3: 4120
Critical_IP_ROB_Stalls_Bucket_4: 0
Non-critical_IP_ROB_Stalls_Bucket_4: 2880
Critical_IP_ROB_Stalls_Bucket_5: 0
Non-critical_IP_ROB_Stalls_Bucket_5: 3388
Critical_IP_ROB_Stalls_Bucket_6: 0
Non-critical_IP_ROB_Stalls_Bucket_6: 265716
0 => IPs accounting for >50 percent of stalls, 1 => 55, 2 => 60, 3 => 65 and so on till 90.
percent50: 51.0565 num IPs:  6
percent55: 59.3522 num IPs: 7
percent60: 63.8163 num IPs: 8
percent65: 68.0855 num IPs: 9
percent70: 72.3548 num IPs: 10
percent75: 76.6241 num IPs: 11
percent80: 80.8844 num IPs: 12
percent85: 85.1438 num IPs: 13
percent90: 92.8716 num IPs: 15
Critical_ROB_Stalls_Percent_0_Bucket_0: 1425775
Non-critical_ROB_Stalls_Percent_0_Bucket_0: 3326812
Critical_ROB_Stalls_Percent_0_Bucket_1: 2831138
Non-critical_ROB_Stalls_Percent_0_Bucket_1: 473308
Critical_ROB_Stalls_Percent_0_Bucket_2: 1138
Non-critical_ROB_Stalls_Percent_0_Bucket_2: 5651
Critical_ROB_Stalls_Percent_0_Bucket_3: 13
Non-critical_ROB_Stalls_Percent_0_Bucket_3: 4107
Critical_ROB_Stalls_Percent_0_Bucket_4: 3
Non-critical_ROB_Stalls_Percent_0_Bucket_4: 2877
Critical_ROB_Stalls_Percent_0_Bucket_5: 1
Non-critical_ROB_Stalls_Percent_0_Bucket_5: 3387
Critical_ROB_Stalls_Percent_0_Bucket_6: 5
Non-critical_ROB_Stalls_Percent_0_Bucket_6: 265711
Critical_ROB_Stalls_Percent_1_Bucket_0: 2116913
Non-critical_ROB_Stalls_Percent_1_Bucket_0: 2635674
Critical_ROB_Stalls_Percent_1_Bucket_1: 2831853
Non-critical_ROB_Stalls_Percent_1_Bucket_1: 472593
Critical_ROB_Stalls_Percent_1_Bucket_2: 1138
Non-critical_ROB_Stalls_Percent_1_Bucket_2: 5651
Critical_ROB_Stalls_Percent_1_Bucket_3: 14
Non-critical_ROB_Stalls_Percent_1_Bucket_3: 4106
Critical_ROB_Stalls_Percent_1_Bucket_4: 3
Non-critical_ROB_Stalls_Percent_1_Bucket_4: 2877
Critical_ROB_Stalls_Percent_1_Bucket_5: 2
Non-critical_ROB_Stalls_Percent_1_Bucket_5: 3386
Critical_ROB_Stalls_Percent_1_Bucket_6: 5
Non-critical_ROB_Stalls_Percent_1_Bucket_6: 265711
Critical_ROB_Stalls_Percent_2_Bucket_0: 2489215
Non-critical_ROB_Stalls_Percent_2_Bucket_0: 2263372
Critical_ROB_Stalls_Percent_2_Bucket_1: 2831853
Non-critical_ROB_Stalls_Percent_2_Bucket_1: 472593
Critical_ROB_Stalls_Percent_2_Bucket_2: 1138
Non-critical_ROB_Stalls_Percent_2_Bucket_2: 5651
Critical_ROB_Stalls_Percent_2_Bucket_3: 14
Non-critical_ROB_Stalls_Percent_2_Bucket_3: 4106
Critical_ROB_Stalls_Percent_2_Bucket_4: 3
Non-critical_ROB_Stalls_Percent_2_Bucket_4: 2877
Critical_ROB_Stalls_Percent_2_Bucket_5: 2
Non-critical_ROB_Stalls_Percent_2_Bucket_5: 3386
Critical_ROB_Stalls_Percent_2_Bucket_6: 5
Non-critical_ROB_Stalls_Percent_2_Bucket_6: 265711
Critical_ROB_Stalls_Percent_3_Bucket_0: 2845197
Non-critical_ROB_Stalls_Percent_3_Bucket_0: 1907390
Critical_ROB_Stalls_Percent_3_Bucket_1: 2831905
Non-critical_ROB_Stalls_Percent_3_Bucket_1: 472541
Critical_ROB_Stalls_Percent_3_Bucket_2: 1157
Non-critical_ROB_Stalls_Percent_3_Bucket_2: 5632
Critical_ROB_Stalls_Percent_3_Bucket_3: 14
Non-critical_ROB_Stalls_Percent_3_Bucket_3: 4106
Critical_ROB_Stalls_Percent_3_Bucket_4: 4
Non-critical_ROB_Stalls_Percent_3_Bucket_4: 2876
Critical_ROB_Stalls_Percent_3_Bucket_5: 2
Non-critical_ROB_Stalls_Percent_3_Bucket_5: 3386
Critical_ROB_Stalls_Percent_3_Bucket_6: 5
Non-critical_ROB_Stalls_Percent_3_Bucket_6: 265711
Critical_ROB_Stalls_Percent_4_Bucket_0: 3201133
Non-critical_ROB_Stalls_Percent_4_Bucket_0: 1551454
Critical_ROB_Stalls_Percent_4_Bucket_1: 2832003
Non-critical_ROB_Stalls_Percent_4_Bucket_1: 472443
Critical_ROB_Stalls_Percent_4_Bucket_2: 1176
Non-critical_ROB_Stalls_Percent_4_Bucket_2: 5613
Critical_ROB_Stalls_Percent_4_Bucket_3: 14
Non-critical_ROB_Stalls_Percent_4_Bucket_3: 4106
Critical_ROB_Stalls_Percent_4_Bucket_4: 5
Non-critical_ROB_Stalls_Percent_4_Bucket_4: 2875
Critical_ROB_Stalls_Percent_4_Bucket_5: 2
Non-critical_ROB_Stalls_Percent_4_Bucket_5: 3386
Critical_ROB_Stalls_Percent_4_Bucket_6: 5
Non-critical_ROB_Stalls_Percent_4_Bucket_6: 265711
Critical_ROB_Stalls_Percent_5_Bucket_0: 3201867
Non-critical_ROB_Stalls_Percent_5_Bucket_0: 1550720
Critical_ROB_Stalls_Percent_5_Bucket_1: 3187289
Non-critical_ROB_Stalls_Percent_5_Bucket_1: 117157
Critical_ROB_Stalls_Percent_5_Bucket_2: 1209
Non-critical_ROB_Stalls_Percent_5_Bucket_2: 5580
Critical_ROB_Stalls_Percent_5_Bucket_3: 14
Non-critical_ROB_Stalls_Percent_5_Bucket_3: 4106
Critical_ROB_Stalls_Percent_5_Bucket_4: 6
Non-critical_ROB_Stalls_Percent_5_Bucket_4: 2874
Critical_ROB_Stalls_Percent_5_Bucket_5: 2
Non-critical_ROB_Stalls_Percent_5_Bucket_5: 3386
Critical_ROB_Stalls_Percent_5_Bucket_6: 5
Non-critical_ROB_Stalls_Percent_5_Bucket_6: 265711
Critical_ROB_Stalls_Percent_6_Bucket_0: 3557166
Non-critical_ROB_Stalls_Percent_6_Bucket_0: 1195421
Critical_ROB_Stalls_Percent_6_Bucket_1: 3187293
Non-critical_ROB_Stalls_Percent_6_Bucket_1: 117153
Critical_ROB_Stalls_Percent_6_Bucket_2: 1210
Non-critical_ROB_Stalls_Percent_6_Bucket_2: 5579
Critical_ROB_Stalls_Percent_6_Bucket_3: 14
Non-critical_ROB_Stalls_Percent_6_Bucket_3: 4106
Critical_ROB_Stalls_Percent_6_Bucket_4: 6
Non-critical_ROB_Stalls_Percent_6_Bucket_4: 2874
Critical_ROB_Stalls_Percent_6_Bucket_5: 2
Non-critical_ROB_Stalls_Percent_6_Bucket_5: 3386
Critical_ROB_Stalls_Percent_6_Bucket_6: 5
Non-critical_ROB_Stalls_Percent_6_Bucket_6: 265711
Critical_ROB_Stalls_Percent_7_Bucket_0: 3912397
Non-critical_ROB_Stalls_Percent_7_Bucket_0: 840190
Critical_ROB_Stalls_Percent_7_Bucket_1: 3187296
Non-critical_ROB_Stalls_Percent_7_Bucket_1: 117150
Critical_ROB_Stalls_Percent_7_Bucket_2: 1211
Non-critical_ROB_Stalls_Percent_7_Bucket_2: 5578
Critical_ROB_Stalls_Percent_7_Bucket_3: 14
Non-critical_ROB_Stalls_Percent_7_Bucket_3: 4106
Critical_ROB_Stalls_Percent_7_Bucket_4: 6
Non-critical_ROB_Stalls_Percent_7_Bucket_4: 2874
Critical_ROB_Stalls_Percent_7_Bucket_5: 2
Non-critical_ROB_Stalls_Percent_7_Bucket_5: 3386
Critical_ROB_Stalls_Percent_7_Bucket_6: 5
Non-critical_ROB_Stalls_Percent_7_Bucket_6: 265711
Critical_ROB_Stalls_Percent_8_Bucket_0: 4544759
Non-critical_ROB_Stalls_Percent_8_Bucket_0: 207828
Critical_ROB_Stalls_Percent_8_Bucket_1: 3197036
Non-critical_ROB_Stalls_Percent_8_Bucket_1: 107410
Critical_ROB_Stalls_Percent_8_Bucket_2: 1825
Non-critical_ROB_Stalls_Percent_8_Bucket_2: 4964
Critical_ROB_Stalls_Percent_8_Bucket_3: 551
Non-critical_ROB_Stalls_Percent_8_Bucket_3: 3569
Critical_ROB_Stalls_Percent_8_Bucket_4: 404
Non-critical_ROB_Stalls_Percent_8_Bucket_4: 2476
Critical_ROB_Stalls_Percent_8_Bucket_5: 567
Non-critical_ROB_Stalls_Percent_8_Bucket_5: 2821
Critical_ROB_Stalls_Percent_8_Bucket_6: 282
Non-critical_ROB_Stalls_Percent_8_Bucket_6: 265434
Average ROB occupancy Load Stall Begin: 42.8465
Average ROB occupancy Load Stall End: 49.0548
Min ROB occupancy Load Stall Begin: 1
Max ROB occupancy Load Stall Begin: 352
Min ROB occupancy Load Stall End: 1
Max ROB occupancy Load Stall End: 352
Average ROB occupancy Critical Load Stall Begin: -nan
Average ROB occupancy Critical Load Stall End: -nan
Min ROB occupancy Critical Load Stall Begin: 400
Max ROB occupancy Critical Load Stall Begin: 0
Min ROB occupancy Critical Load Stall End: 400
Max ROB occupancy Critical Load Stall End: 0
 ROB Load Stall Begin Bucket Count 0: 6762513
 ROB Load Stall End Bucket Count 0: 4752587
 ROB Critical Load Stall Begin Bucket Count 0: 0
 ROB Critical Load Stall End Bucket Count 0: 0
 ROB Load Stall Begin Bucket Count 1: 1300240
 ROB Load Stall End Bucket Count 1: 3304446
 ROB Critical Load Stall Begin Bucket Count 1: 0
 ROB Critical Load Stall End Bucket Count 1: 0
 ROB Load Stall Begin Bucket Count 2: 5086
 ROB Load Stall End Bucket Count 2: 6789
 ROB Critical Load Stall Begin Bucket Count 2: 0
 ROB Critical Load Stall End Bucket Count 2: 0
 ROB Load Stall Begin Bucket Count 3: 3400
 ROB Load Stall End Bucket Count 3: 4120
 ROB Critical Load Stall Begin Bucket Count 3: 0
 ROB Critical Load Stall End Bucket Count 3: 0
 ROB Load Stall Begin Bucket Count 4: 2552
 ROB Load Stall End Bucket Count 4: 2880
 ROB Critical Load Stall Begin Bucket Count 4: 0
 ROB Critical Load Stall End Bucket Count 4: 0
 ROB Load Stall Begin Bucket Count 5: 2243
 ROB Load Stall End Bucket Count 5: 3388
 ROB Critical Load Stall Begin Bucket Count 5: 0
 ROB Critical Load Stall End Bucket Count 5: 0
 ROB Load Stall Begin Bucket Count 6: 263892
 ROB Load Stall End Bucket Count 6: 265716
 ROB Critical Load Stall Begin Bucket Count 6: 0
 ROB Critical Load Stall End Bucket Count 6: 0
PIST Tag Read Accesses: 125168
PIST Read Accesses: 62584
PIST Tag Write Accesses: 125168
PIST Write Accesses: 62584
Criticality detector called times: 4418142
Max global_stall_cycles_count: 277170
Threshold Modified: 0 times, factor: 0
Sturdy critical IP cache stats: 
 Unused entries: 0
CIC Tag Read Accesses: 0
CIC Read Accesses: 0
CIC Tag Write Accesses: 0
CIC Write Accesses: 0
Wobbly critical IP cache stats: 
 Unused entries: 115
CIC Tag Read Accesses: 227375651
CIC Read Accesses: 0
CIC Tag Write Accesses: 712743
CIC Write Accesses: 0
ITLB TOTAL     ACCESS:   15214092  HIT:   15214084  MISS:          8  HIT %:    99.9999  MISS %: 5.25828e-05   MPKI: 8e-05
ITLB LOAD TRANSLATION ACCESS:   15214092  HIT:   15214084  MISS:          8  HIT %:    99.9999  MISS %: 5.25828e-05   MPKI: 8e-05
ITLB PREFETCH  REQUESTED:          0  ISSUED:          0  USEFUL:          0  USELESS:          0
ITLB USEFUL LOAD PREFETCHES:          0 PREFETCH ISSUED TO LOWER LEVEL:          0  ACCURACY: -nan
ITLB TIMELY PREFETCHES:          0 LATE PREFETCHES: 0 DROPPED PREFETCHES: 0
ITLB PREFETCHES SAME FILL-ORIGIN LEVEL: 0 DIFFERENT FILL-ORIGIN LEVEL: 0
ITLB AVERAGE MISS LATENCY: 283.75 cycles
ITLB RQ	ACCESS:   19844290	FORWARD:          0	MERGED:    4630198	TO_CACHE:   15214092

DTLB TOTAL     ACCESS:   20823273  HIT:   20817161  MISS:       6112  HIT %:    99.9706  MISS %:  0.0293518   MPKI: 0.06112
DTLB LOAD TRANSLATION ACCESS:   20823273  HIT:   20817161  MISS:       6112  HIT %:    99.9706  MISS %:  0.0293518   MPKI: 0.06112
DTLB PREFETCH  REQUESTED:          0  ISSUED:          0  USEFUL:          0  USELESS:          0
DTLB USEFUL LOAD PREFETCHES:          0 PREFETCH ISSUED TO LOWER LEVEL:          0  ACCURACY: -nan
DTLB TIMELY PREFETCHES:          0 LATE PREFETCHES: 0 DROPPED PREFETCHES: 0
DTLB PREFETCHES SAME FILL-ORIGIN LEVEL: 0 DIFFERENT FILL-ORIGIN LEVEL: 0
DTLB AVERAGE MISS LATENCY: 105.394 cycles
DTLB RQ	ACCESS:   24947534	FORWARD:          0	MERGED:    4117808	TO_CACHE:   20829726

STLB TOTAL     ACCESS:     159503  HIT:     153794  MISS:       5709  HIT %:    96.4208  MISS %:    3.57924   MPKI: 0.05709
STLB LOAD TRANSLATION ACCESS:       6120  HIT:        411  MISS:       5709  HIT %:    6.71569  MISS %:    93.2843   MPKI: 0.05709
STLB TRANSLATION FROM L1D PREFETCHER ACCESS:     153383  HIT:     153383  MISS:          0  HIT %:        100  MISS %:          0   MPKI: 0
STLB PREFETCH  REQUESTED:          0  ISSUED:          0  USEFUL:          0  USELESS:          0
STLB USEFUL LOAD PREFETCHES:          0 PREFETCH ISSUED TO LOWER LEVEL:          0  ACCURACY: -nan
STLB TIMELY PREFETCHES:          0 LATE PREFETCHES: 0 DROPPED PREFETCHES: 0
STLB PREFETCHES SAME FILL-ORIGIN LEVEL: 0 DIFFERENT FILL-ORIGIN LEVEL: 0
STLB AVERAGE MISS LATENCY: 103.566 cycles
STLB RQ	ACCESS:     207623	FORWARD:          0	MERGED:      48120	TO_CACHE:     159503

STLB Hit, L1D data hit: 0
STLB Hit, L2C data hit: 0
STLB Hit, LLC data hit: 0
STLB Hit, LLC data miss: 0
STLB STLB hints to L2: 0
L1D TOTAL     ACCESS:   24661208  HIT:   24371009  MISS:     290199  HIT %:    98.8233  MISS %:    1.17674   MPKI: 2.90199
L1D LOAD      ACCESS:   14783469  HIT:   14769888  MISS:      13581  HIT %:    99.9081  MISS %:  0.0918661   MPKI: 0.13581
L1D RFO       ACCESS:    9684555  HIT:    9572978  MISS:     111577  HIT %:    98.8479  MISS %:    1.15211   MPKI: 1.11577
L1D PREFETCH  ACCESS:     193184  HIT:      28143  MISS:     165041  HIT %:     14.568  MISS %:     85.432   MPKI: 1.65041
L1D PREFETCH  REQUESTED:     403006  ISSUED:     403006  USEFUL:     154277  USELESS:      10722
L1D USEFUL LOAD PREFETCHES:     154277 PREFETCH ISSUED TO LOWER LEVEL:     171783  ACCURACY: 89.8092
L1D TIMELY PREFETCHES:     154277 LATE PREFETCHES: 6742 DROPPED PREFETCHES: 0
L1D PREFETCHES SAME FILL-ORIGIN LEVEL: 171783 DIFFERENT FILL-ORIGIN LEVEL: 0
L1D AVERAGE MISS LATENCY: 3.03498e+06 cycles
L1D RQ	ACCESS:   20046825	FORWARD:          0	MERGED:    5227571	TO_CACHE:   14806286
L1D WQ	ACCESS:   10855420	FORWARD:      12968	MERGED:     714172	TO_CACHE:   10141248
L1D PQ	ACCESS:     201503	FORWARD:          0	MERGED:          0	TO_CACHE:     201503

L1D UNIQUE REGIONS ACCESSED: 0
L1D REGIONS CONFLICTS: 0
L1D Cross Page Prefetch Requests: 0
L1D Same Page Prefetch Requests: 201503
L1D ROI Sum of L1D PQ occupancy: 3794985
L1D PREFETCHES PUSHED FROM L2C: 0
L1I TOTAL     ACCESS:   19844275  HIT:   19844169  MISS:        106  HIT %:    99.9995  MISS %: 0.000534159   MPKI: 0.00106
L1I LOAD      ACCESS:   19844275  HIT:   19844169  MISS:        106  HIT %:    99.9995  MISS %: 0.000534159   MPKI: 0.00106
L1I PREFETCH  REQUESTED:          0  ISSUED:          0  USEFUL:          0  USELESS:          0
L1I USEFUL LOAD PREFETCHES:          0 PREFETCH ISSUED TO LOWER LEVEL:          0  ACCURACY: -nan
L1I TIMELY PREFETCHES:          0 LATE PREFETCHES: 0 DROPPED PREFETCHES: 0
L1I PREFETCHES SAME FILL-ORIGIN LEVEL: 0 DIFFERENT FILL-ORIGIN LEVEL: 0
L1I AVERAGE MISS LATENCY: 172.849 cycles
L1I RQ	ACCESS:   28927234	FORWARD:          0	MERGED:    9082944	TO_CACHE:   19844290

BTB TOTAL     ACCESS:    6673576  HIT:    5961136  MISS:     712440  HIT %:    89.3245  MISS %:    10.6755   MPKI: 7.1244
BTB BRANCH_DIRECT_JUMP	ACCESS:     712598  HIT:     712560  MISS:         38
BTB BRANCH_INDIRECT	ACCESS:         16  HIT:         15  MISS:          1
BTB BRANCH_CONDITIONAL	ACCESS:    3111182  HIT:    3111055  MISS:        127
BTB BRANCH_DIRECT_CALL	ACCESS:    1424889  HIT:    1424844  MISS:         45
BTB BRANCH_INDIRECT_CALL	ACCESS:          0  HIT:          0  MISS:          0
BTB BRANCH_RETURN	ACCESS:    1424891  HIT:     712662  MISS:     712229
BTB BRANCH_OTHER ACCESS:          0  HIT:          0  MISS:          0

L2C TOTAL     ACCESS:     407621  HIT:     115644  MISS:     291977  HIT %:    28.3705  MISS %:    71.6295   MPKI: 2.91977
L2C LOAD      ACCESS:       6945  HIT:          7  MISS:       6938  HIT %:   0.100792  MISS %:    99.8992   MPKI: 0.06938
L2C DATA LOAD MPKI: 0.06832
L2C INSTRUCTION LOAD MPKI: 0.00106
L2C RFO       ACCESS:     111577  HIT:          1  MISS:     111576  HIT %: 0.000896242  MISS %:    99.9991   MPKI: 1.11576
L2C PREFETCH  ACCESS:     171783  HIT:        375  MISS:     171408  HIT %:   0.218299  MISS %:    99.7817   MPKI: 1.71408
L2C DATA PREFETCH MPKI: 1.71408
L2C INSTRUCTION PREFETCH MPKI: 0
L2C WRITEBACK ACCESS:     111604  HIT:     110610  MISS:        994  HIT %:    99.1094  MISS %:   0.890649   MPKI: 0.00994
L2C LOAD TRANSLATION ACCESS:       5712  HIT:       4651  MISS:       1061  HIT %:    81.4251  MISS %:    18.5749   MPKI: 0.01061
L2C PREFETCH  REQUESTED:          0  ISSUED:          0  USEFUL:          5  USELESS:     168002
L2C USEFUL LOAD PREFETCHES:          5 PREFETCH ISSUED TO LOWER LEVEL:     171408  ACCURACY: 0.00291702
L2C TIMELY PREFETCHES:          5 LATE PREFETCHES: 0 DROPPED PREFETCHES: 0
L2C PREFETCHES SAME FILL-ORIGIN LEVEL: 0 DIFFERENT FILL-ORIGIN LEVEL: 0
L2C AVERAGE MISS LATENCY: 244.183 cycles
L2C RQ	ACCESS:     124234	FORWARD:          0	MERGED:          0	TO_CACHE:     124234
L2C WQ	ACCESS:     111604	FORWARD:          0	MERGED:          0	TO_CACHE:     111604
L2C PQ	ACCESS:     171783	FORWARD:          0	MERGED:          0	TO_CACHE:     171783

L2C Instructions Evicting Data 105
L2C Translations Evicting Data 1046
L2C Data Evicting Data 288627
L2C Instructions Evicting Instructions 0
L2C Translations Evicting Instructions 1
L2C Data Evicting Instructions 114
L2C Instructions Evicting Translations 1
L2C Translations Evicting Translations 14
L2C Data Evicting Translations 1075
L2C Dense regions hint from L2: 0
PSCL5 TOTAL     ACCESS:       5709  HIT:       5709  MISS:          0  HIT %:        100  MISS %:          0   MPKI: 0
PSCL5 LOAD TRANSLATION ACCESS:       5709  HIT:       5709  MISS:          0  HIT %:        100  MISS %:          0   MPKI: 0
PSCL5 PREFETCH  REQUESTED:          0  ISSUED:          0  USEFUL:          0  USELESS:          0
PSCL5 USEFUL LOAD PREFETCHES:          0 PREFETCH ISSUED TO LOWER LEVEL:          0  ACCURACY: -nan
PSCL5 TIMELY PREFETCHES:          0 LATE PREFETCHES: 0 DROPPED PREFETCHES: 0
PSCL5 PREFETCHES SAME FILL-ORIGIN LEVEL: 0 DIFFERENT FILL-ORIGIN LEVEL: 0

PSCL4 TOTAL     ACCESS:       5709  HIT:       5709  MISS:          0  HIT %:        100  MISS %:          0   MPKI: 0
PSCL4 LOAD TRANSLATION ACCESS:       5709  HIT:       5709  MISS:          0  HIT %:        100  MISS %:          0   MPKI: 0
PSCL4 PREFETCH  REQUESTED:          0  ISSUED:          0  USEFUL:          0  USELESS:          0
PSCL4 USEFUL LOAD PREFETCHES:          0 PREFETCH ISSUED TO LOWER LEVEL:          0  ACCURACY: -nan
PSCL4 TIMELY PREFETCHES:          0 LATE PREFETCHES: 0 DROPPED PREFETCHES: 0
PSCL4 PREFETCHES SAME FILL-ORIGIN LEVEL: 0 DIFFERENT FILL-ORIGIN LEVEL: 0

PSCL3 TOTAL     ACCESS:       5709  HIT:       5709  MISS:          0  HIT %:        100  MISS %:          0   MPKI: 0
PSCL3 LOAD TRANSLATION ACCESS:       5709  HIT:       5709  MISS:          0  HIT %:        100  MISS %:          0   MPKI: 0
PSCL3 PREFETCH  REQUESTED:          0  ISSUED:          0  USEFUL:          0  USELESS:          0
PSCL3 USEFUL LOAD PREFETCHES:          0 PREFETCH ISSUED TO LOWER LEVEL:          0  ACCURACY: -nan
PSCL3 TIMELY PREFETCHES:          0 LATE PREFETCHES: 0 DROPPED PREFETCHES: 0
PSCL3 PREFETCHES SAME FILL-ORIGIN LEVEL: 0 DIFFERENT FILL-ORIGIN LEVEL: 0

PSCL2 TOTAL     ACCESS:       5709  HIT:       5701  MISS:          8  HIT %:    99.8599  MISS %:    0.14013   MPKI: 8e-05
PSCL2 LOAD TRANSLATION ACCESS:       5709  HIT:       5701  MISS:          8  HIT %:    99.8599  MISS %:    0.14013   MPKI: 8e-05
PSCL2 PREFETCH  REQUESTED:          0  ISSUED:          0  USEFUL:          0  USELESS:          0
PSCL2 USEFUL LOAD PREFETCHES:          0 PREFETCH ISSUED TO LOWER LEVEL:          0  ACCURACY: -nan
PSCL2 TIMELY PREFETCHES:          0 LATE PREFETCHES: 0 DROPPED PREFETCHES: 0
PSCL2 PREFETCHES SAME FILL-ORIGIN LEVEL: 0 DIFFERENT FILL-ORIGIN LEVEL: 0

LLC TOTAL     ACCESS:     402753  HIT:     110208  MISS:     292545  HIT %:    27.3637  MISS %:    72.6363   MPKI: 2.92545
LLC LOAD      ACCESS:       6938  HIT:          5  MISS:       6933  HIT %:  0.0720669  MISS %:    99.9279   MPKI: 0.06933
LLC RFO       ACCESS:     111576  HIT:        110  MISS:     111466  HIT %:  0.0985875  MISS %:    99.9014   MPKI: 1.11466
LLC PREFETCH  ACCESS:     171408  HIT:        261  MISS:     171147  HIT %:   0.152268  MISS %:    99.8477   MPKI: 1.71147
LLC WRITEBACK ACCESS:     111770  HIT:     109829  MISS:       1941  HIT %:    98.2634  MISS %:     1.7366   MPKI: 0.01941
LLC LOAD TRANSLATION ACCESS:       1061  HIT:          3  MISS:       1058  HIT %:   0.282752  MISS %:    99.7172   MPKI: 0.01058
LLC PREFETCH  REQUESTED:          0  ISSUED:          0  USEFUL:          0  USELESS:     154575
LLC USEFUL LOAD PREFETCHES:          0 PREFETCH ISSUED TO LOWER LEVEL:     171147  ACCURACY: 0
LLC TIMELY PREFETCHES:          0 LATE PREFETCHES: 0 DROPPED PREFETCHES: 0
LLC PREFETCHES SAME FILL-ORIGIN LEVEL: 0 DIFFERENT FILL-ORIGIN LEVEL: 0
LLC AVERAGE MISS LATENCY: 213.489 cycles
LLC RQ	ACCESS:     119575	FORWARD:          0	MERGED:          0	TO_CACHE:     119575
LLC WQ	ACCESS:     111770	FORWARD:          0	MERGED:          0	TO_CACHE:     111770
LLC PQ	ACCESS:     171408	FORWARD:          0	MERGED:          0	TO_CACHE:     171408

LLC Dense regions hint to LLC: 0

RAW hits: 2837236
Loads Generated: 22884063
Loads sent to L1D: 20046825
Stores Generated: 10855417
Stores sent to L1D: 10855420
Major fault: 0 Minor fault: 6008
Allocated PAGES: 6008

stream: 
stream:times selected: 233620
stream:pref_filled: 157932
stream:pref_useful: 147357
stream:pref_late: 6499
stream:misses: 28
stream:misses_by_poll: 0

CS: 
CS:times selected: 170189
CS:pref_filled: 7050
CS:pref_useful: 6902
CS:pref_late: 76
CS:misses: 34717
CS:misses_by_poll: 39

CPLX: 
CPLX:times selected: 63366
CPLX:pref_filled: 59
CPLX:pref_useful: 18
CPLX:pref_late: 5
CPLX:misses: 590
CPLX:misses_by_poll: 0

NL_L1: 
NL:times selected: 2
NL:pref_filled: 0
NL:pref_useful: 0
NL:pref_late: 1
NL:misses: 5
NL:misses_by_poll: 0

total selections: 467177
total_filled: 165041
total_useful: 154277
total_late: 6742
total_polluted: 39
total_misses_after_warmup: 35354
conflicts: 13
Degree Incremented Times: 30368
Degree Decremented Times: 0

L1 IP Table Write Accesses: 4836552
L1 IP Table Read Accesses: 4836539
L1 RST Write Accesses: 233621
L1 RST Read Accesses: 467234
L1 CSPT Write Accesses: 233621
L1 CSPT Read Accesses: 423502
L1 RR Filter Tag Write Accesses: 201503
L1 RR Filter Tag Read Accesses: 48808868
L1 IP Table Tag Write Accesses: 4836552
L1 IP Table Tag Read Accesses: 4836552
L1 RST Tag Write Accesses: 56
L1 RST Tag Read Accesses: 2026321
L1 RR Filter Write Accesses: 0
L1 RR Filter Read Accesses: 1904627
test: 19941

DRAM Statistics
 CHANNEL 0
 RQ ROW_BUFFER_HIT:      50371  ROW_BUFFER_MISS:     240231
 DBUS_CONGESTED:         16
 WQ ROW_BUFFER_HIT:      14378  ROW_BUFFER_MISS:      94833  FULL:          0

 AVG_CONGESTED_CYCLE: 5
 All warmup complete: 2
Channel 0 Bank busy for read cycles: 0
Channel 0 Bank busy for write cycles: 0
Channel 0
Rank 0
0banks busy for read cycles: 144224004
0banks busy for write cycles: 34704
1banks busy for read cycles: 12550500
1banks busy for write cycles: 5295566
2banks busy for read cycles: 2275186
2banks busy for write cycles: 173577
3banks busy for read cycles: 1005158
3banks busy for write cycles: 67680
4banks busy for read cycles: 910566
4banks busy for write cycles: 50186
5banks busy for read cycles: 343184
5banks busy for write cycles: 31028
6banks busy for read cycles: 344129
6banks busy for write cycles: 27722
7banks busy for read cycles: 582695
7banks busy for write cycles: 121464
8banks busy for read cycles: 1010917
8banks busy for write cycles: 1516873

CPU 0 Branch Prediction Accuracy: 99.978% MPKI: 0.02252 Average ROB Occupancy at Mispredict: 31.8131
Branch types
NOT_BRANCH: 89756089 89.7561%
BRANCH_DIRECT_JUMP: 712598 0.712598%
BRANCH_INDIRECT: 16 1.6e-05%
BRANCH_CONDITIONAL: 6681200 6.6812%
BRANCH_DIRECT_CALL: 1424889 1.42489%
BRANCH_INDIRECT_CALL: 0 0%
BRANCH_RETURN: 1424891 1.42489%
BRANCH_OTHER: 0 0%

DRAM PAGES: 1048576
Allocated PAGES: 6008
