Initialize SIGNATURE TABLE
ST_SET: 1
ST_WAY: 256
ST_TAG_BIT: 16
ST_TAG_MASK: ffff

Initialize PATTERN TABLE
PT_SET: 512
PT_WAY: 4
SIG_DELTA_BIT: 7
C_SIG_BIT: 4
C_DELTA_BIT: 4

Initialize PREFETCH FILTER
FILTER_SET: 1024

*** ChampSim Multicore Out-of-Order Simulator ***

Warmup Instructions: 50000000
Simulation Instructions: 100000000
Number of CPUs: 1
LLC sets: 2048
LLC ways: 16
Off-chip DRAM Size: 4096 MB Channels: 1 Width: 64-bit Data Rate: 6400 MT/s
CPU 0 runs ../SPEC2017//654.roms_s-294B.champsimtrace.xz
.xz
NUM_OF_IPS_IN_CRITICAL_IP_TRAINING: 64
NUM_OF_CRITICAL_IP_TRAINING_TABLE_WAYS: 2
NUM_OF_CRITICAL_IP_TRAINING_TABLE_SETS: 32
WOBBLY_CRITICAL_IP_CACHE_SETS: 32
WOBBLY_CRITICAL_IP_CACHE_WAYS: 4
BTB has LRU replacement policy
ITLB has LRU replacement policy
DTLB has LRU replacement policy
STLB has LRU replacement policy
L1I has LRU replacement policy
L1D has LRU replacement policy
Initialize SRRIP state for L2C
Initialize DRRIP state for LLC
Heartbeat CPU 0 instructions: 10000001 cycles: 3211765 heartbeat IPC: 3.11355 cumulative IPC: 3.11355 (Simulation time: 0 hr 5 min 57 sec) 
Heartbeat CPU 0 instructions: 20000000 cycles: 6423275 heartbeat IPC: 3.1138 cumulative IPC: 3.11368 (Simulation time: 0 hr 11 min 6 sec) 
Heartbeat CPU 0 instructions: 30000003 cycles: 9634799 heartbeat IPC: 3.11379 cumulative IPC: 3.11371 (Simulation time: 0 hr 15 min 28 sec) 
Heartbeat CPU 0 instructions: 40000001 cycles: 12846165 heartbeat IPC: 3.11394 cumulative IPC: 3.11377 (Simulation time: 0 hr 19 min 10 sec) 
Heartbeat CPU 0 instructions: 50000001 cycles: 16057346 heartbeat IPC: 3.11412 cumulative IPC: 3.11384 (Simulation time: 0 hr 22 min 44 sec) 

Warmup complete CPU 0 instructions: 50000001 cycles: 16057346 (Simulation time: 0 hr 22 min 44 sec) 

Heartbeat CPU 0 instructions: 60000002 cycles: 25868683 heartbeat IPC: 1.01923 cumulative IPC: 1.01923 (Simulation time: 0 hr 27 min 1 sec) 
Heartbeat CPU 0 instructions: 70000000 cycles: 35648186 heartbeat IPC: 1.02255 cumulative IPC: 1.02089 (Simulation time: 0 hr 31 min 3 sec) 
Heartbeat CPU 0 instructions: 80000001 cycles: 45401300 heartbeat IPC: 1.02531 cumulative IPC: 1.02236 (Simulation time: 0 hr 34 min 38 sec) 
Heartbeat CPU 0 instructions: 90000001 cycles: 55161407 heartbeat IPC: 1.02458 cumulative IPC: 1.02291 (Simulation time: 0 hr 38 min 21 sec) 
Heartbeat CPU 0 instructions: 100000002 cycles: 64903298 heartbeat IPC: 1.02649 cumulative IPC: 1.02363 (Simulation time: 0 hr 41 min 39 sec) 
Heartbeat CPU 0 instructions: 110000000 cycles: 74654907 heartbeat IPC: 1.02547 cumulative IPC: 1.02393 (Simulation time: 0 hr 44 min 35 sec) 
Heartbeat CPU 0 instructions: 120000002 cycles: 84405299 heartbeat IPC: 1.0256 cumulative IPC: 1.02417 (Simulation time: 0 hr 47 min 26 sec) 
Heartbeat CPU 0 instructions: 130000001 cycles: 94162939 heartbeat IPC: 1.02484 cumulative IPC: 1.02425 (Simulation time: 0 hr 50 min 12 sec) 
Heartbeat CPU 0 instructions: 140000000 cycles: 103899572 heartbeat IPC: 1.02705 cumulative IPC: 1.02456 (Simulation time: 0 hr 54 min 23 sec) 
Heartbeat CPU 0 instructions: 150000000 cycles: 113660257 heartbeat IPC: 1.02452 cumulative IPC: 1.02456 (Simulation time: 1 hr 0 min 56 sec) 
Finished CPU 0 instructions: 100000003 cycles: 97602912 cumulative IPC: 1.02456 (Simulation time: 1 hr 0 min 56 sec) 

ChampSim completed all CPUs

Region of Interest Statistics

CPU 0 cumulative IPC: 1.02456 instructions: 100000003 cycles: 97602912

CPU 0 Average Load ROB stall cycles: 2.67662e+07
CPU 0 Fraction of times ROB stalled by Loads: 41.2357
CPU 0 Percentage of Load stall cycles in Total stall cycles: 3.06431e+08
Issued all: 52748749
Issued LT all: 39560216
rob_not_full_when_issued_lt_all: 34865238
Issued LT one: 34246751
rob_not_full_when_issued_lt_one: 29825438
 Total stall cycles: 73226852
 Total load stall cycles: 224389939156968
CPU 0 NUM of IPS identified critical: 0
CPU 0 Num of Load IPs stalling ROB: 74
Threshold modification factor: 0
Max PIST entries: 35
Min PIST entries: 0
Avg PIST entries: 14.5667
Trouble in retire width: 0.870147
MaC = Marked as critical.
lt_50_percent_before_Mac: 0
gt_90_percent_before_Mac: 0
gt_75_percent_before_Mac: 0
gt_50_percent_before_Mac: 0
stall_proportion_bin_same_before_after: 0
stall_proportion_bin_lower_before_after: 0
stall_proportion_bin_upper_before_after: 0
average_stall_proportion_before: -nan
average_stall_proportion_after: -nan
Critical IP stalls, total frequency: 0
Non-critical IP stalls, total frequency: 3456924
Total Freq all stalling IPs: 3456924
stat_90_percent_critical_ip_stalls_freq: 3178453
stat_90_percent_non_critical_ip_stalls_freq: 278471
Critical_IP_ROB_Stalls_Bucket_0: 0
Non-critical_IP_ROB_Stalls_Bucket_0: 27566
Critical_IP_ROB_Stalls_Bucket_1: 0
Non-critical_IP_ROB_Stalls_Bucket_1: 1701832
Critical_IP_ROB_Stalls_Bucket_2: 0
Non-critical_IP_ROB_Stalls_Bucket_2: 854415
Critical_IP_ROB_Stalls_Bucket_3: 0
Non-critical_IP_ROB_Stalls_Bucket_3: 385530
Critical_IP_ROB_Stalls_Bucket_4: 0
Non-critical_IP_ROB_Stalls_Bucket_4: 197294
Critical_IP_ROB_Stalls_Bucket_5: 0
Non-critical_IP_ROB_Stalls_Bucket_5: 160122
Critical_IP_ROB_Stalls_Bucket_6: 0
Non-critical_IP_ROB_Stalls_Bucket_6: 130165
0 => IPs accounting for >50 percent of stalls, 1 => 55, 2 => 60, 3 => 65 and so on till 90.
percent50: 57.4105 num IPs:  2
percent55: 57.4105 num IPs: 2
percent60: 71.4076 num IPs: 3
percent65: 71.4076 num IPs: 3
percent70: 71.4076 num IPs: 3
percent75: 77.5319 num IPs: 4
percent80: 83.5594 num IPs: 5
percent85: 87.5772 num IPs: 6
percent90: 91.9445 num IPs: 8
Critical_ROB_Stalls_Percent_0_Bucket_0: 7541
Non-critical_ROB_Stalls_Percent_0_Bucket_0: 20025
Critical_ROB_Stalls_Percent_0_Bucket_1: 1092768
Non-critical_ROB_Stalls_Percent_0_Bucket_1: 609064
Critical_ROB_Stalls_Percent_0_Bucket_2: 505481
Non-critical_ROB_Stalls_Percent_0_Bucket_2: 348934
Critical_ROB_Stalls_Percent_0_Bucket_3: 152439
Non-critical_ROB_Stalls_Percent_0_Bucket_3: 233091
Critical_ROB_Stalls_Percent_0_Bucket_4: 92970
Non-critical_ROB_Stalls_Percent_0_Bucket_4: 104324
Critical_ROB_Stalls_Percent_0_Bucket_5: 89193
Non-critical_ROB_Stalls_Percent_0_Bucket_5: 70929
Critical_ROB_Stalls_Percent_0_Bucket_6: 44244
Non-critical_ROB_Stalls_Percent_0_Bucket_6: 85921
Critical_ROB_Stalls_Percent_1_Bucket_0: 7541
Non-critical_ROB_Stalls_Percent_1_Bucket_0: 20025
Critical_ROB_Stalls_Percent_1_Bucket_1: 1092768
Non-critical_ROB_Stalls_Percent_1_Bucket_1: 609064
Critical_ROB_Stalls_Percent_1_Bucket_2: 505481
Non-critical_ROB_Stalls_Percent_1_Bucket_2: 348934
Critical_ROB_Stalls_Percent_1_Bucket_3: 152439
Non-critical_ROB_Stalls_Percent_1_Bucket_3: 233091
Critical_ROB_Stalls_Percent_1_Bucket_4: 92970
Non-critical_ROB_Stalls_Percent_1_Bucket_4: 104324
Critical_ROB_Stalls_Percent_1_Bucket_5: 89193
Non-critical_ROB_Stalls_Percent_1_Bucket_5: 70929
Critical_ROB_Stalls_Percent_1_Bucket_6: 44244
Non-critical_ROB_Stalls_Percent_1_Bucket_6: 85921
Critical_ROB_Stalls_Percent_2_Bucket_0: 8748
Non-critical_ROB_Stalls_Percent_2_Bucket_0: 18818
Critical_ROB_Stalls_Percent_2_Bucket_1: 1354012
Non-critical_ROB_Stalls_Percent_2_Bucket_1: 347820
Critical_ROB_Stalls_Percent_2_Bucket_2: 613682
Non-critical_ROB_Stalls_Percent_2_Bucket_2: 240733
Critical_ROB_Stalls_Percent_2_Bucket_3: 206103
Non-critical_ROB_Stalls_Percent_2_Bucket_3: 179427
Critical_ROB_Stalls_Percent_2_Bucket_4: 117626
Non-critical_ROB_Stalls_Percent_2_Bucket_4: 79668
Critical_ROB_Stalls_Percent_2_Bucket_5: 110977
Non-critical_ROB_Stalls_Percent_2_Bucket_5: 49145
Critical_ROB_Stalls_Percent_2_Bucket_6: 57359
Non-critical_ROB_Stalls_Percent_2_Bucket_6: 72806
Critical_ROB_Stalls_Percent_3_Bucket_0: 8748
Non-critical_ROB_Stalls_Percent_3_Bucket_0: 18818
Critical_ROB_Stalls_Percent_3_Bucket_1: 1354012
Non-critical_ROB_Stalls_Percent_3_Bucket_1: 347820
Critical_ROB_Stalls_Percent_3_Bucket_2: 613682
Non-critical_ROB_Stalls_Percent_3_Bucket_2: 240733
Critical_ROB_Stalls_Percent_3_Bucket_3: 206103
Non-critical_ROB_Stalls_Percent_3_Bucket_3: 179427
Critical_ROB_Stalls_Percent_3_Bucket_4: 117626
Non-critical_ROB_Stalls_Percent_3_Bucket_4: 79668
Critical_ROB_Stalls_Percent_3_Bucket_5: 110977
Non-critical_ROB_Stalls_Percent_3_Bucket_5: 49145
Critical_ROB_Stalls_Percent_3_Bucket_6: 57359
Non-critical_ROB_Stalls_Percent_3_Bucket_6: 72806
Critical_ROB_Stalls_Percent_4_Bucket_0: 8748
Non-critical_ROB_Stalls_Percent_4_Bucket_0: 18818
Critical_ROB_Stalls_Percent_4_Bucket_1: 1354012
Non-critical_ROB_Stalls_Percent_4_Bucket_1: 347820
Critical_ROB_Stalls_Percent_4_Bucket_2: 613682
Non-critical_ROB_Stalls_Percent_4_Bucket_2: 240733
Critical_ROB_Stalls_Percent_4_Bucket_3: 206103
Non-critical_ROB_Stalls_Percent_4_Bucket_3: 179427
Critical_ROB_Stalls_Percent_4_Bucket_4: 117626
Non-critical_ROB_Stalls_Percent_4_Bucket_4: 79668
Critical_ROB_Stalls_Percent_4_Bucket_5: 110977
Non-critical_ROB_Stalls_Percent_4_Bucket_5: 49145
Critical_ROB_Stalls_Percent_4_Bucket_6: 57359
Non-critical_ROB_Stalls_Percent_4_Bucket_6: 72806
Critical_ROB_Stalls_Percent_5_Bucket_0: 8939
Non-critical_ROB_Stalls_Percent_5_Bucket_0: 18627
Critical_ROB_Stalls_Percent_5_Bucket_1: 1387553
Non-critical_ROB_Stalls_Percent_5_Bucket_1: 314279
Critical_ROB_Stalls_Percent_5_Bucket_2: 693388
Non-critical_ROB_Stalls_Percent_5_Bucket_2: 161027
Critical_ROB_Stalls_Percent_5_Bucket_3: 254543
Non-critical_ROB_Stalls_Percent_5_Bucket_3: 130987
Critical_ROB_Stalls_Percent_5_Bucket_4: 139581
Non-critical_ROB_Stalls_Percent_5_Bucket_4: 57713
Critical_ROB_Stalls_Percent_5_Bucket_5: 118803
Non-critical_ROB_Stalls_Percent_5_Bucket_5: 41319
Critical_ROB_Stalls_Percent_5_Bucket_6: 77412
Non-critical_ROB_Stalls_Percent_5_Bucket_6: 52753
Critical_ROB_Stalls_Percent_6_Bucket_0: 10842
Non-critical_ROB_Stalls_Percent_6_Bucket_0: 16724
Critical_ROB_Stalls_Percent_6_Bucket_1: 1486848
Non-critical_ROB_Stalls_Percent_6_Bucket_1: 214984
Critical_ROB_Stalls_Percent_6_Bucket_2: 744851
Non-critical_ROB_Stalls_Percent_6_Bucket_2: 109564
Critical_ROB_Stalls_Percent_6_Bucket_3: 272228
Non-critical_ROB_Stalls_Percent_6_Bucket_3: 113302
Critical_ROB_Stalls_Percent_6_Bucket_4: 155669
Non-critical_ROB_Stalls_Percent_6_Bucket_4: 41625
Critical_ROB_Stalls_Percent_6_Bucket_5: 131244
Non-critical_ROB_Stalls_Percent_6_Bucket_5: 28878
Critical_ROB_Stalls_Percent_6_Bucket_6: 86903
Non-critical_ROB_Stalls_Percent_6_Bucket_6: 43262
Critical_ROB_Stalls_Percent_7_Bucket_0: 11007
Non-critical_ROB_Stalls_Percent_7_Bucket_0: 16559
Critical_ROB_Stalls_Percent_7_Bucket_1: 1519037
Non-critical_ROB_Stalls_Percent_7_Bucket_1: 182795
Critical_ROB_Stalls_Percent_7_Bucket_2: 776299
Non-critical_ROB_Stalls_Percent_7_Bucket_2: 78116
Critical_ROB_Stalls_Percent_7_Bucket_3: 310861
Non-critical_ROB_Stalls_Percent_7_Bucket_3: 74669
Critical_ROB_Stalls_Percent_7_Bucket_4: 169348
Non-critical_ROB_Stalls_Percent_7_Bucket_4: 27946
Critical_ROB_Stalls_Percent_7_Bucket_5: 139684
Non-critical_ROB_Stalls_Percent_7_Bucket_5: 20438
Critical_ROB_Stalls_Percent_7_Bucket_6: 101243
Non-critical_ROB_Stalls_Percent_7_Bucket_6: 28922
Critical_ROB_Stalls_Percent_8_Bucket_0: 11230
Non-critical_ROB_Stalls_Percent_8_Bucket_0: 16336
Critical_ROB_Stalls_Percent_8_Bucket_1: 1564148
Non-critical_ROB_Stalls_Percent_8_Bucket_1: 137684
Critical_ROB_Stalls_Percent_8_Bucket_2: 799140
Non-critical_ROB_Stalls_Percent_8_Bucket_2: 55275
Critical_ROB_Stalls_Percent_8_Bucket_3: 357906
Non-critical_ROB_Stalls_Percent_8_Bucket_3: 27624
Critical_ROB_Stalls_Percent_8_Bucket_4: 181910
Non-critical_ROB_Stalls_Percent_8_Bucket_4: 15384
Critical_ROB_Stalls_Percent_8_Bucket_5: 149219
Non-critical_ROB_Stalls_Percent_8_Bucket_5: 10903
Critical_ROB_Stalls_Percent_8_Bucket_6: 114900
Non-critical_ROB_Stalls_Percent_8_Bucket_6: 15265
Average ROB occupancy Load Stall Begin: 107.443
Average ROB occupancy Load Stall End: 122.886
Min ROB occupancy Load Stall Begin: 3
Max ROB occupancy Load Stall Begin: 352
Min ROB occupancy Load Stall End: 5
Max ROB occupancy Load Stall End: 352
Average ROB occupancy Critical Load Stall Begin: -nan
Average ROB occupancy Critical Load Stall End: -nan
Min ROB occupancy Critical Load Stall Begin: 400
Max ROB occupancy Critical Load Stall Begin: 0
Min ROB occupancy Critical Load Stall End: 400
Max ROB occupancy Critical Load Stall End: 0
 ROB Load Stall Begin Bucket Count 0: 415503
 ROB Load Stall End Bucket Count 0: 27566
 ROB Critical Load Stall Begin Bucket Count 0: 0
 ROB Critical Load Stall End Bucket Count 0: 0
 ROB Load Stall Begin Bucket Count 1: 1692818
 ROB Load Stall End Bucket Count 1: 1701832
 ROB Critical Load Stall Begin Bucket Count 1: 0
 ROB Critical Load Stall End Bucket Count 1: 0
 ROB Load Stall Begin Bucket Count 2: 621863
 ROB Load Stall End Bucket Count 2: 854415
 ROB Critical Load Stall Begin Bucket Count 2: 0
 ROB Critical Load Stall End Bucket Count 2: 0
 ROB Load Stall Begin Bucket Count 3: 328457
 ROB Load Stall End Bucket Count 3: 385530
 ROB Critical Load Stall Begin Bucket Count 3: 0
 ROB Critical Load Stall End Bucket Count 3: 0
 ROB Load Stall Begin Bucket Count 4: 168606
 ROB Load Stall End Bucket Count 4: 197294
 ROB Critical Load Stall Begin Bucket Count 4: 0
 ROB Critical Load Stall End Bucket Count 4: 0
 ROB Load Stall Begin Bucket Count 5: 137957
 ROB Load Stall End Bucket Count 5: 160122
 ROB Critical Load Stall Begin Bucket Count 5: 0
 ROB Critical Load Stall End Bucket Count 5: 0
 ROB Load Stall Begin Bucket Count 6: 91720
 ROB Load Stall End Bucket Count 6: 130165
 ROB Critical Load Stall Begin Bucket Count 6: 0
 ROB Critical Load Stall End Bucket Count 6: 0
PIST Tag Read Accesses: 146740
PIST Read Accesses: 73370
PIST Tag Write Accesses: 146740
PIST Write Accesses: 73370
Criticality detector called times: 84002
Max global_stall_cycles_count: 364965
Threshold Modified: 0 times, factor: 0
Sturdy critical IP cache stats: 
 Unused entries: 0
CIC Tag Read Accesses: 0
CIC Read Accesses: 0
CIC Tag Write Accesses: 0
CIC Write Accesses: 0
Wobbly critical IP cache stats: 
 Unused entries: 114
CIC Tag Read Accesses: 288539352
CIC Read Accesses: 0
CIC Tag Write Accesses: 136
CIC Write Accesses: 0
ITLB TOTAL     ACCESS:   13405357  HIT:   13405357  MISS:          0  HIT %:        100  MISS %:          0   MPKI: 0
ITLB LOAD TRANSLATION ACCESS:   13405357  HIT:   13405357  MISS:          0  HIT %:        100  MISS %:          0   MPKI: 0
ITLB PREFETCH  REQUESTED:          0  ISSUED:          0  USEFUL:          0  USELESS:          0
ITLB USEFUL LOAD PREFETCHES:          0 PREFETCH ISSUED TO LOWER LEVEL:          0  ACCURACY: -nan
ITLB TIMELY PREFETCHES:          0 LATE PREFETCHES: 0 DROPPED PREFETCHES: 0
ITLB PREFETCHES SAME FILL-ORIGIN LEVEL: 0 DIFFERENT FILL-ORIGIN LEVEL: 0
ITLB AVERAGE MISS LATENCY: -nan cycles
ITLB RQ	ACCESS:   16724225	FORWARD:          0	MERGED:    3318869	TO_CACHE:   13405356

DTLB TOTAL     ACCESS:   25811566  HIT:   25770480  MISS:      41086  HIT %:    99.8408  MISS %:   0.159177   MPKI: 0.41086
DTLB LOAD TRANSLATION ACCESS:   25811566  HIT:   25770480  MISS:      41086  HIT %:    99.8408  MISS %:   0.159177   MPKI: 0.41086
DTLB PREFETCH  REQUESTED:          0  ISSUED:          0  USEFUL:          0  USELESS:          0
DTLB USEFUL LOAD PREFETCHES:          0 PREFETCH ISSUED TO LOWER LEVEL:          0  ACCURACY: -nan
DTLB TIMELY PREFETCHES:          0 LATE PREFETCHES: 0 DROPPED PREFETCHES: 0
DTLB PREFETCHES SAME FILL-ORIGIN LEVEL: 0 DIFFERENT FILL-ORIGIN LEVEL: 0
DTLB AVERAGE MISS LATENCY: 458.512 cycles
DTLB RQ	ACCESS:   28157885	FORWARD:          0	MERGED:    2340081	TO_CACHE:   25817804

STLB TOTAL     ACCESS:      41086  HIT:       8210  MISS:      32876  HIT %:    19.9825  MISS %:    80.0175   MPKI: 0.32876
STLB LOAD TRANSLATION ACCESS:      41086  HIT:       8210  MISS:      32876  HIT %:    19.9825  MISS %:    80.0175   MPKI: 0.32876
STLB PREFETCH  REQUESTED:          0  ISSUED:          0  USEFUL:          0  USELESS:          0
STLB USEFUL LOAD PREFETCHES:          0 PREFETCH ISSUED TO LOWER LEVEL:          0  ACCURACY: -nan
STLB TIMELY PREFETCHES:          0 LATE PREFETCHES: 0 DROPPED PREFETCHES: 0
STLB PREFETCHES SAME FILL-ORIGIN LEVEL: 0 DIFFERENT FILL-ORIGIN LEVEL: 0
STLB AVERAGE MISS LATENCY: 560.589 cycles
STLB RQ	ACCESS:      41086	FORWARD:          0	MERGED:          0	TO_CACHE:      41086

STLB Hit, L1D data hit: 0
STLB Hit, L2C data hit: 0
STLB Hit, LLC data hit: 0
STLB Hit, LLC data miss: 0
STLB STLB hints to L2: 0
L1D TOTAL     ACCESS:   27807550  HIT:   26514234  MISS:    1293316  HIT %:     95.349  MISS %:    4.65095   MPKI: 12.9332
L1D LOAD      ACCESS:   24457448  HIT:   23174682  MISS:    1282766  HIT %:    94.7551  MISS %:    5.24489   MPKI: 12.8277
L1D RFO       ACCESS:    3350102  HIT:    3339552  MISS:      10550  HIT %:    99.6851  MISS %:   0.314916   MPKI: 0.1055
L1D PREFETCH  REQUESTED:          0  ISSUED:          0  USEFUL:          0  USELESS:          0
L1D USEFUL LOAD PREFETCHES:          0 PREFETCH ISSUED TO LOWER LEVEL:          0  ACCURACY: -nan
L1D TIMELY PREFETCHES:          0 LATE PREFETCHES: 0 DROPPED PREFETCHES: 0
L1D PREFETCHES SAME FILL-ORIGIN LEVEL: 0 DIFFERENT FILL-ORIGIN LEVEL: 0
L1D AVERAGE MISS LATENCY: 35.8258 cycles
L1D RQ	ACCESS:   38223715	FORWARD:          0	MERGED:   13466162	TO_CACHE:   24757536
L1D WQ	ACCESS:    3400349	FORWARD:         17	MERGED:          0	TO_CACHE:    3400349

L1D UNIQUE REGIONS ACCESSED: 0
L1D REGIONS CONFLICTS: 0
L1D Cross Page Prefetch Requests: 0
L1D Same Page Prefetch Requests: 0
L1D ROI Sum of L1D PQ occupancy: 0
L1D PREFETCHES PUSHED FROM L2C: 0
L1I TOTAL     ACCESS:   16724226  HIT:   16724226  MISS:          0  HIT %:        100  MISS %:          0   MPKI: 0
L1I LOAD      ACCESS:   16724226  HIT:   16724226  MISS:          0  HIT %:        100  MISS %:          0   MPKI: 0
L1I PREFETCH  REQUESTED:          0  ISSUED:          0  USEFUL:          0  USELESS:          0
L1I USEFUL LOAD PREFETCHES:          0 PREFETCH ISSUED TO LOWER LEVEL:          0  ACCURACY: -nan
L1I TIMELY PREFETCHES:          0 LATE PREFETCHES: 0 DROPPED PREFETCHES: 0
L1I PREFETCHES SAME FILL-ORIGIN LEVEL: 0 DIFFERENT FILL-ORIGIN LEVEL: 0
L1I AVERAGE MISS LATENCY: -nan cycles
L1I RQ	ACCESS:   26773633	FORWARD:          0	MERGED:   10049408	TO_CACHE:   16724225

BTB TOTAL     ACCESS:    5002843  HIT:    5002832  MISS:         11  HIT %:    99.9998  MISS %: 0.000219875   MPKI: 0.00011
BTB BRANCH_DIRECT_JUMP	ACCESS:         81  HIT:         80  MISS:          1
BTB BRANCH_INDIRECT	ACCESS:          0  HIT:          0  MISS:          0
BTB BRANCH_CONDITIONAL	ACCESS:    5002600  HIT:    5002592  MISS:          8
BTB BRANCH_DIRECT_CALL	ACCESS:         81  HIT:         80  MISS:          1
BTB BRANCH_INDIRECT_CALL	ACCESS:          0  HIT:          0  MISS:          0
BTB BRANCH_RETURN	ACCESS:         81  HIT:         80  MISS:          1
BTB BRANCH_OTHER ACCESS:          0  HIT:          0  MISS:          0

L2C TOTAL     ACCESS:    2213125  HIT:     883149  MISS:    1329976  HIT %:    39.9051  MISS %:    60.0949   MPKI: 13.2998
L2C LOAD      ACCESS:    1282765  HIT:     826363  MISS:     456402  HIT %:    64.4205  MISS %:    35.5795   MPKI: 4.56402
L2C DATA LOAD MPKI: 4.56402
L2C INSTRUCTION LOAD MPKI: 0
L2C RFO       ACCESS:      10550  HIT:          2  MISS:      10548  HIT %:  0.0189573  MISS %:     99.981   MPKI: 0.10548
L2C PREFETCH  ACCESS:     853939  HIT:      27336  MISS:     826603  HIT %:    3.20117  MISS %:    96.7988   MPKI: 8.26603
L2C DATA PREFETCH MPKI: 8.26603
L2C INSTRUCTION PREFETCH MPKI: 0
L2C WRITEBACK ACCESS:      16537  HIT:       6713  MISS:       9824  HIT %:    40.5938  MISS %:    59.4062   MPKI: 0.09824
L2C LOAD TRANSLATION ACCESS:      49334  HIT:      22735  MISS:      26599  HIT %:    46.0838  MISS %:    53.9162   MPKI: 0.26599
L2C PREFETCH  REQUESTED:    6508416  ISSUED:    5432567  USEFUL:     813349  USELESS:      13210
L2C USEFUL LOAD PREFETCHES:     813349 PREFETCH ISSUED TO LOWER LEVEL:    5392356  ACCURACY: 15.0834
L2C TIMELY PREFETCHES:     813349 LATE PREFETCHES: 433 DROPPED PREFETCHES: 0
L2C PREFETCHES SAME FILL-ORIGIN LEVEL: 827036 DIFFERENT FILL-ORIGIN LEVEL: 4565320
L2C AVERAGE MISS LATENCY: 44.0072 cycles
L2C RQ	ACCESS:    1342649	FORWARD:          0	MERGED:          0	TO_CACHE:    1342648
L2C WQ	ACCESS:      16537	FORWARD:          1	MERGED:          0	TO_CACHE:      16537
L2C PQ	ACCESS:    5432567	FORWARD:          0	MERGED:       9962	TO_CACHE:    5422605

L2C Instructions Evicting Data 0
L2C Translations Evicting Data 26042
L2C Data Evicting Data 1267565
L2C Instructions Evicting Instructions 0
L2C Translations Evicting Instructions 0
L2C Data Evicting Instructions 0
L2C Instructions Evicting Translations 0
L2C Translations Evicting Translations 557
L2C Data Evicting Translations 25988
L2C Dense regions hint from L2: 0
PSCL5 TOTAL     ACCESS:      32876  HIT:      32876  MISS:          0  HIT %:        100  MISS %:          0   MPKI: 0
PSCL5 LOAD TRANSLATION ACCESS:      32876  HIT:      32876  MISS:          0  HIT %:        100  MISS %:          0   MPKI: 0
PSCL5 PREFETCH  REQUESTED:          0  ISSUED:          0  USEFUL:          0  USELESS:          0
PSCL5 USEFUL LOAD PREFETCHES:          0 PREFETCH ISSUED TO LOWER LEVEL:          0  ACCURACY: -nan
PSCL5 TIMELY PREFETCHES:          0 LATE PREFETCHES: 0 DROPPED PREFETCHES: 0
PSCL5 PREFETCHES SAME FILL-ORIGIN LEVEL: 0 DIFFERENT FILL-ORIGIN LEVEL: 0

PSCL4 TOTAL     ACCESS:      32876  HIT:      32876  MISS:          0  HIT %:        100  MISS %:          0   MPKI: 0
PSCL4 LOAD TRANSLATION ACCESS:      32876  HIT:      32876  MISS:          0  HIT %:        100  MISS %:          0   MPKI: 0
PSCL4 PREFETCH  REQUESTED:          0  ISSUED:          0  USEFUL:          0  USELESS:          0
PSCL4 USEFUL LOAD PREFETCHES:          0 PREFETCH ISSUED TO LOWER LEVEL:          0  ACCURACY: -nan
PSCL4 TIMELY PREFETCHES:          0 LATE PREFETCHES: 0 DROPPED PREFETCHES: 0
PSCL4 PREFETCHES SAME FILL-ORIGIN LEVEL: 0 DIFFERENT FILL-ORIGIN LEVEL: 0

PSCL3 TOTAL     ACCESS:      32876  HIT:      32849  MISS:         27  HIT %:    99.9179  MISS %:  0.0821268   MPKI: 0.00027
PSCL3 LOAD TRANSLATION ACCESS:      32876  HIT:      32849  MISS:         27  HIT %:    99.9179  MISS %:  0.0821268   MPKI: 0.00027
PSCL3 PREFETCH  REQUESTED:          0  ISSUED:          0  USEFUL:          0  USELESS:          0
PSCL3 USEFUL LOAD PREFETCHES:          0 PREFETCH ISSUED TO LOWER LEVEL:          0  ACCURACY: -nan
PSCL3 TIMELY PREFETCHES:          0 LATE PREFETCHES: 0 DROPPED PREFETCHES: 0
PSCL3 PREFETCHES SAME FILL-ORIGIN LEVEL: 0 DIFFERENT FILL-ORIGIN LEVEL: 0

PSCL2 TOTAL     ACCESS:      32876  HIT:      16315  MISS:      16561  HIT %:    49.6259  MISS %:    50.3741   MPKI: 0.16561
PSCL2 LOAD TRANSLATION ACCESS:      32876  HIT:      16315  MISS:      16561  HIT %:    49.6259  MISS %:    50.3741   MPKI: 0.16561
PSCL2 PREFETCH  REQUESTED:          0  ISSUED:          0  USEFUL:          0  USELESS:          0
PSCL2 USEFUL LOAD PREFETCHES:          0 PREFETCH ISSUED TO LOWER LEVEL:          0  ACCURACY: -nan
PSCL2 TIMELY PREFETCHES:          0 LATE PREFETCHES: 0 DROPPED PREFETCHES: 0
PSCL2 PREFETCHES SAME FILL-ORIGIN LEVEL: 0 DIFFERENT FILL-ORIGIN LEVEL: 0

LLC TOTAL     ACCESS:    5889535  HIT:    4713875  MISS:    1175660  HIT %:    80.0382  MISS %:    19.9618   MPKI: 11.7566
LLC LOAD      ACCESS:     455969  HIT:     353828  MISS:     102141  HIT %:    77.5991  MISS %:    22.4009   MPKI: 1.02141
LLC RFO       ACCESS:      10548  HIT:        213  MISS:      10335  HIT %:    2.01934  MISS %:    97.9807   MPKI: 0.10335
LLC PREFETCH  ACCESS:    5385353  HIT:    4345321  MISS:    1040032  HIT %:    80.6878  MISS %:    19.3122   MPKI: 10.4003
LLC WRITEBACK ACCESS:      11066  HIT:       3081  MISS:       7985  HIT %:     27.842  MISS %:     72.158   MPKI: 0.07985
LLC LOAD TRANSLATION ACCESS:      26599  HIT:      11432  MISS:      15167  HIT %:    42.9791  MISS %:    57.0209   MPKI: 0.15167
LLC PREFETCH  REQUESTED:          0  ISSUED:          0  USEFUL:     331848  USELESS:     687507
LLC USEFUL LOAD PREFETCHES:     331848 PREFETCH ISSUED TO LOWER LEVEL:    1040340  ACCURACY: 31.898
LLC TIMELY PREFETCHES:     331848 LATE PREFETCHES: 304 DROPPED PREFETCHES: 0
LLC PREFETCHES SAME FILL-ORIGIN LEVEL: 993613 DIFFERENT FILL-ORIGIN LEVEL: 0
LLC AVERAGE MISS LATENCY: 97.5071 cycles
LLC RQ	ACCESS:     493115	FORWARD:          0	MERGED:          0	TO_CACHE:     493115
LLC WQ	ACCESS:      11066	FORWARD:          0	MERGED:          0	TO_CACHE:      11066
LLC PQ	ACCESS:    5392356	FORWARD:          0	MERGED:        585	TO_CACHE:    5391771

LLC Dense regions hint to LLC: 0

RAW hits: 166
Loads Generated: 38223889
Loads sent to L1D: 38223715
Stores Generated: 3400349
Stores sent to L1D: 3400349
Major fault: 0 Minor fault: 49795
Allocated PAGES: 49795
 All Calls: 1924522
 Critical Calls: 1279917
------------------
Depth Distribution
------------------
depth 0: 0
depth 1: 1118945
depth 2: 1047248
depth 3: 1014406
depth 4: 977842
depth 5: 903543
depth 6: 370033
depth 7: 396
depth 8: 140
depth 9: 7
depth 10: 3
depth 11: 3
depth 12: 1
depth 13: 0
depth 14: 0
depth 15: 0
depth 16: 0
depth 17: 0
depth 18: 0
depth 19: 0
depth 20: 0
depth 21: 0
depth 22: 0
depth 23: 0
depth 24: 0
depth 25: 0
depth 26: 0
depth 27: 0
depth 28: 0
depth 29: 0
Total: 5432567
-----------------------------
-----------------------------
	Captured at Filter
-----------------------------
depth 0: 0
depth 1: 7637
depth 2: 7470
depth 3: 7336
depth 4: 7144
depth 5: 7006
depth 6: 3217
depth 7: 2
depth 8: 0
depth 9: 0
depth 10: 0
depth 11: 0
depth 12: 0
depth 13: 0
depth 14: 0
depth 15: 0
depth 16: 0
depth 17: 0
depth 18: 0
depth 19: 0
depth 20: 0
depth 21: 0
depth 22: 0
depth 23: 0
depth 24: 0
depth 25: 0
depth 26: 0
depth 27: 0
depth 28: 0
depth 29: 0
-----------------------------
-----------------------------
		Lost at Page
-----------------------------
depth 0: 0
depth 1: 19983
depth 2: 39620
depth 3: 59350
depth 4: 78386
depth 5: 97637
depth 6: 52784
depth 7: 60
depth 8: 35
depth 9: 4
depth 10: 1
depth 11: 1
depth 12: 1
depth 13: 0
depth 14: 0
depth 15: 0
depth 16: 0
depth 17: 0
depth 18: 0
depth 19: 0
depth 20: 0
depth 21: 0
depth 22: 0
depth 23: 0
depth 24: 0
depth 25: 0
depth 26: 0
depth 27: 0
depth 28: 0
depth 29: 0
-----------------------------
-----------------------------
	Lost due to PQ Size
-----------------------------
1075849
-----------------------------
ST read accesses: 1240648
ST write accesses: 39269
PT read accesses: 40852042
PT write accesses: 1832507
FILTER read accesses: 9157988
FILTER write accesses: 2974723
GHR read accesses: 1557920
GHR write accesses: 347862
GHR counter read accesses: 35257794
GHR counter write accesses: 3021876
ST tag read accesses: 511788885
ST tag write accesses: 17619777

DRAM Statistics
 CHANNEL 0
 RQ ROW_BUFFER_HIT:     951407  ROW_BUFFER_MISS:     216269
 DBUS_CONGESTED:        170
 WQ ROW_BUFFER_HIT:       1415  ROW_BUFFER_MISS:       9593  FULL:          0

 AVG_CONGESTED_CYCLE: 4
 All warmup complete: 2
Channel 0 Bank busy for read cycles: 0
Channel 0 Bank busy for write cycles: 0
Channel 0
Rank 0
0banks busy for read cycles: 56248528
0banks busy for write cycles: 9306
1banks busy for read cycles: 18937710
1banks busy for write cycles: 1528640
2banks busy for read cycles: 11005768
2banks busy for write cycles: 186303
3banks busy for read cycles: 4893501
3banks busy for write cycles: 34550
4banks busy for read cycles: 2071604
4banks busy for write cycles: 5662
5banks busy for read cycles: 939240
5banks busy for write cycles: 2959
6banks busy for read cycles: 888911
6banks busy for write cycles: 1457
7banks busy for read cycles: 712129
7banks busy for write cycles: 931
8banks busy for read cycles: 135714
8banks busy for write cycles: 0

CPU 0 Branch Prediction Accuracy: 99.9308% MPKI: 0.03474 Average ROB Occupancy at Mispredict: 112.402
Branch types
NOT_BRANCH: 94977484 94.9775%
BRANCH_DIRECT_JUMP: 81 8.1e-05%
BRANCH_INDIRECT: 0 0%
BRANCH_CONDITIONAL: 5022052 5.02205%
BRANCH_DIRECT_CALL: 81 8.1e-05%
BRANCH_INDIRECT_CALL: 0 0%
BRANCH_RETURN: 81 8.1e-05%
BRANCH_OTHER: 0 0%

DRAM PAGES: 1048576
Allocated PAGES: 49795
