
*** ChampSim Multicore Out-of-Order Simulator ***

Warmup Instructions: 50000000
Simulation Instructions: 100000000
Number of CPUs: 1
LLC sets: 2048
LLC ways: 16
Off-chip DRAM Size: 4096 MB Channels: 1 Width: 64-bit Data Rate: 6400 MT/s
CPU 0 runs ../SPEC2017//654.roms_s-1390B.champsimtrace.xz
.xz
NUM_OF_IPS_IN_CRITICAL_IP_TRAINING: 64
NUM_OF_CRITICAL_IP_TRAINING_TABLE_WAYS: 2
NUM_OF_CRITICAL_IP_TRAINING_TABLE_SETS: 32
WOBBLY_CRITICAL_IP_CACHE_SETS: 32
WOBBLY_CRITICAL_IP_CACHE_WAYS: 4
BTB has LRU replacement policy
ITLB has LRU replacement policy
DTLB has LRU replacement policy
STLB has LRU replacement policy
L1I has LRU replacement policy
IP Table Entries: 64
L1D has LRU replacement policy
Initialize SRRIP state for L2C
Initialize DRRIP state for LLC
Heartbeat CPU 0 instructions: 10000001 cycles: 3779236 heartbeat IPC: 2.64604 cumulative IPC: 2.64604 (Simulation time: 0 hr 4 min 9 sec) 
Heartbeat CPU 0 instructions: 20000000 cycles: 7281173 heartbeat IPC: 2.85556 cumulative IPC: 2.74681 (Simulation time: 0 hr 6 min 14 sec) 
Heartbeat CPU 0 instructions: 30000003 cycles: 10697899 heartbeat IPC: 2.92678 cumulative IPC: 2.80429 (Simulation time: 0 hr 7 min 56 sec) 
Heartbeat CPU 0 instructions: 40000002 cycles: 14490854 heartbeat IPC: 2.63647 cumulative IPC: 2.76036 (Simulation time: 0 hr 10 min 53 sec) 
Heartbeat CPU 0 instructions: 50000000 cycles: 18834717 heartbeat IPC: 2.3021 cumulative IPC: 2.65467 (Simulation time: 0 hr 13 min 38 sec) 

Warmup complete CPU 0 instructions: 50000004 cycles: 18834718 (Simulation time: 0 hr 13 min 38 sec) 

% increase in all ip prefetch 246.36
% increase in all ip prefetch -0.255508
Heartbeat CPU 0 instructions: 60000001 cycles: 30931172 heartbeat IPC: 0.826689 cumulative IPC: 0.826688 (Simulation time: 0 hr 16 min 8 sec) 
Heartbeat CPU 0 instructions: 70000003 cycles: 42315552 heartbeat IPC: 0.878397 cumulative IPC: 0.851758 (Simulation time: 0 hr 18 min 26 sec) 
Heartbeat CPU 0 instructions: 80000001 cycles: 53696550 heartbeat IPC: 0.878657 cumulative IPC: 0.86054 (Simulation time: 0 hr 20 min 30 sec) 
Heartbeat CPU 0 instructions: 90000003 cycles: 65727031 heartbeat IPC: 0.831222 cumulative IPC: 0.853018 (Simulation time: 0 hr 23 min 14 sec) 
Heartbeat CPU 0 instructions: 100000000 cycles: 79275940 heartbeat IPC: 0.738067 cumulative IPC: 0.82725 (Simulation time: 0 hr 25 min 56 sec) 
Heartbeat CPU 0 instructions: 110000000 cycles: 92582789 heartbeat IPC: 0.751493 cumulative IPC: 0.813581 (Simulation time: 0 hr 28 min 33 sec) 
Heartbeat CPU 0 instructions: 120000002 cycles: 104864325 heartbeat IPC: 0.814231 cumulative IPC: 0.813673 (Simulation time: 0 hr 30 min 41 sec) 
Heartbeat CPU 0 instructions: 130000000 cycles: 116837683 heartbeat IPC: 0.835187 cumulative IPC: 0.816302 (Simulation time: 0 hr 32 min 50 sec) 
Heartbeat CPU 0 instructions: 140000000 cycles: 133702288 heartbeat IPC: 0.592958 cumulative IPC: 0.783511 (Simulation time: 0 hr 36 min 2 sec) 
Heartbeat CPU 0 instructions: 150000000 cycles: 147971512 heartbeat IPC: 0.700809 cumulative IPC: 0.774373 (Simulation time: 0 hr 38 min 46 sec) 
Finished CPU 0 instructions: 100000000 cycles: 129136795 cumulative IPC: 0.774373 (Simulation time: 0 hr 38 min 46 sec) 

ChampSim completed all CPUs

Region of Interest Statistics

CPU 0 cumulative IPC: 0.774373 instructions: 100000000 cycles: 129136795

CPU 0 Average Load ROB stall cycles: 2.33169e+07
CPU 0 Fraction of times ROB stalled by Loads: 31.8545
CPU 0 Percentage of Load stall cycles in Total stall cycles: 3.47148e+08
Issued all: 74549235
Issued LT all: 60491518
rob_not_full_when_issued_lt_all: 40998977
Issued LT one: 53544449
rob_not_full_when_issued_lt_one: 35648088
 Total stall cycles: 106870786
 Total load stall cycles: 370999567834189
Unique Load IPs: 1142
CPU 0 NUM of IPS identified critical: 176
CPU 0 Num of Load IPs stalling ROB: 741
Threshold modification factor: -1
Max PIST entries: 54
Min PIST entries: 0
Avg PIST entries: 15.4533
Trouble in retire width: 0.872357
MaC = Marked as critical.
lt_50_percent_before_Mac: 170
gt_90_percent_before_Mac: 4
gt_75_percent_before_Mac: 0
gt_50_percent_before_Mac: 2
stall_proportion_bin_same_before_after: 0
stall_proportion_bin_lower_before_after: 0
stall_proportion_bin_upper_before_after: 0
average_stall_proportion_before: 0.0187546
average_stall_proportion_after: 0.0335239
Critical IP stalls, total frequency: 4482065
Non-critical IP stalls, total frequency: 586355
Total Freq all stalling IPs: 5068420
Critical_IP_Detector_Accuracy_70: 0.147727
Critical_IP_Detector_Accuracy_80: 0.193182
Critical_IP_Detector_Accuracy_90: 0.284091
Critical_IP_Detector_Coverage_70: 0.866667
Critical_IP_Detector_Coverage_80: 0.894737
Critical_IP_Detector_Coverage_90: 0.877193
stat_90_percent_critical_ip_stalls_freq: 4577133
stat_90_percent_non_critical_ip_stalls_freq: 491287
AVERAGE_ROB_Occupancy_90_Percent_Critical_IP_Stalls: 61.3966
AVERAGE_ROB_Occupancy_90_Percent_Non_Critical_IP_Stalls: 174.302
Critical_IP_ROB_Stalls_Bucket_0: 3262582
Non-critical_IP_ROB_Stalls_Bucket_0: 562536
Critical_IP_ROB_Stalls_Bucket_1: 429373
Non-critical_IP_ROB_Stalls_Bucket_1: 14449
Critical_IP_ROB_Stalls_Bucket_2: 93640
Non-critical_IP_ROB_Stalls_Bucket_2: 2171
Critical_IP_ROB_Stalls_Bucket_3: 66626
Non-critical_IP_ROB_Stalls_Bucket_3: 1909
Critical_IP_ROB_Stalls_Bucket_4: 55573
Non-critical_IP_ROB_Stalls_Bucket_4: 2051
Critical_IP_ROB_Stalls_Bucket_5: 69636
Non-critical_IP_ROB_Stalls_Bucket_5: 1171
Critical_IP_ROB_Stalls_Bucket_6: 504635
Non-critical_IP_ROB_Stalls_Bucket_6: 2068
0 => IPs accounting for >50 percent of stalls, 1 => 55, 2 => 60, 3 => 65 and so on till 90.
percent50: 50.455 num IPs:  19
percent55: 56.9419 num IPs: 22
percent60: 60.8235 num IPs: 24
percent65: 65.7639 num IPs: 27
percent70: 70.2562 num IPs: 30
percent75: 75.9114 num IPs: 34
percent80: 80.0671 num IPs: 38
percent85: 85.1548 num IPs: 46
percent90: 90.3069 num IPs: 57
Critical_ROB_Stalls_Percent_0_Bucket_0: 2126855
Non-critical_ROB_Stalls_Percent_0_Bucket_0: 1698263
Critical_ROB_Stalls_Percent_0_Bucket_1: 193047
Non-critical_ROB_Stalls_Percent_0_Bucket_1: 250775
Critical_ROB_Stalls_Percent_0_Bucket_2: 21009
Non-critical_ROB_Stalls_Percent_0_Bucket_2: 74802
Critical_ROB_Stalls_Percent_0_Bucket_3: 23138
Non-critical_ROB_Stalls_Percent_0_Bucket_3: 45397
Critical_ROB_Stalls_Percent_0_Bucket_4: 19366
Non-critical_ROB_Stalls_Percent_0_Bucket_4: 38258
Critical_ROB_Stalls_Percent_0_Bucket_5: 18622
Non-critical_ROB_Stalls_Percent_0_Bucket_5: 52185
Critical_ROB_Stalls_Percent_0_Bucket_6: 155234
Non-critical_ROB_Stalls_Percent_0_Bucket_6: 351469
Critical_ROB_Stalls_Percent_1_Bucket_0: 2412980
Non-critical_ROB_Stalls_Percent_1_Bucket_0: 1412138
Critical_ROB_Stalls_Percent_1_Bucket_1: 199655
Non-critical_ROB_Stalls_Percent_1_Bucket_1: 244167
Critical_ROB_Stalls_Percent_1_Bucket_2: 28147
Non-critical_ROB_Stalls_Percent_1_Bucket_2: 67664
Critical_ROB_Stalls_Percent_1_Bucket_3: 33562
Non-critical_ROB_Stalls_Percent_1_Bucket_3: 34973
Critical_ROB_Stalls_Percent_1_Bucket_4: 25751
Non-critical_ROB_Stalls_Percent_1_Bucket_4: 31873
Critical_ROB_Stalls_Percent_1_Bucket_5: 22947
Non-critical_ROB_Stalls_Percent_1_Bucket_5: 47860
Critical_ROB_Stalls_Percent_1_Bucket_6: 163015
Non-critical_ROB_Stalls_Percent_1_Bucket_6: 343688
Critical_ROB_Stalls_Percent_2_Bucket_0: 2524127
Non-critical_ROB_Stalls_Percent_2_Bucket_0: 1300991
Critical_ROB_Stalls_Percent_2_Bucket_1: 255541
Non-critical_ROB_Stalls_Percent_2_Bucket_1: 188281
Critical_ROB_Stalls_Percent_2_Bucket_2: 50313
Non-critical_ROB_Stalls_Percent_2_Bucket_2: 45498
Critical_ROB_Stalls_Percent_2_Bucket_3: 36107
Non-critical_ROB_Stalls_Percent_2_Bucket_3: 32428
Critical_ROB_Stalls_Percent_2_Bucket_4: 27148
Non-critical_ROB_Stalls_Percent_2_Bucket_4: 30476
Critical_ROB_Stalls_Percent_2_Bucket_5: 24644
Non-critical_ROB_Stalls_Percent_2_Bucket_5: 46163
Critical_ROB_Stalls_Percent_2_Bucket_6: 164913
Non-critical_ROB_Stalls_Percent_2_Bucket_6: 341790
Critical_ROB_Stalls_Percent_3_Bucket_0: 2676864
Non-critical_ROB_Stalls_Percent_3_Bucket_0: 1148254
Critical_ROB_Stalls_Percent_3_Bucket_1: 303500
Non-critical_ROB_Stalls_Percent_3_Bucket_1: 140322
Critical_ROB_Stalls_Percent_3_Bucket_2: 58581
Non-critical_ROB_Stalls_Percent_3_Bucket_2: 37230
Critical_ROB_Stalls_Percent_3_Bucket_3: 39724
Non-critical_ROB_Stalls_Percent_3_Bucket_3: 28811
Critical_ROB_Stalls_Percent_3_Bucket_4: 30263
Non-critical_ROB_Stalls_Percent_3_Bucket_4: 27361
Critical_ROB_Stalls_Percent_3_Bucket_5: 28568
Non-critical_ROB_Stalls_Percent_3_Bucket_5: 42239
Critical_ROB_Stalls_Percent_3_Bucket_6: 195693
Non-critical_ROB_Stalls_Percent_3_Bucket_6: 311010
Critical_ROB_Stalls_Percent_4_Bucket_0: 2884497
Non-critical_ROB_Stalls_Percent_4_Bucket_0: 940621
Critical_ROB_Stalls_Percent_4_Bucket_1: 316732
Non-critical_ROB_Stalls_Percent_4_Bucket_1: 127090
Critical_ROB_Stalls_Percent_4_Bucket_2: 59604
Non-critical_ROB_Stalls_Percent_4_Bucket_2: 36207
Critical_ROB_Stalls_Percent_4_Bucket_3: 40872
Non-critical_ROB_Stalls_Percent_4_Bucket_3: 27663
Critical_ROB_Stalls_Percent_4_Bucket_4: 31342
Non-critical_ROB_Stalls_Percent_4_Bucket_4: 26282
Critical_ROB_Stalls_Percent_4_Bucket_5: 29675
Non-critical_ROB_Stalls_Percent_4_Bucket_5: 41132
Critical_ROB_Stalls_Percent_4_Bucket_6: 198155
Non-critical_ROB_Stalls_Percent_4_Bucket_6: 308548
Critical_ROB_Stalls_Percent_5_Bucket_0: 3167092
Non-critical_ROB_Stalls_Percent_5_Bucket_0: 658026
Critical_ROB_Stalls_Percent_5_Bucket_1: 318485
Non-critical_ROB_Stalls_Percent_5_Bucket_1: 125337
Critical_ROB_Stalls_Percent_5_Bucket_2: 59838
Non-critical_ROB_Stalls_Percent_5_Bucket_2: 35973
Critical_ROB_Stalls_Percent_5_Bucket_3: 41212
Non-critical_ROB_Stalls_Percent_5_Bucket_3: 27323
Critical_ROB_Stalls_Percent_5_Bucket_4: 32185
Non-critical_ROB_Stalls_Percent_5_Bucket_4: 25439
Critical_ROB_Stalls_Percent_5_Bucket_5: 29963
Non-critical_ROB_Stalls_Percent_5_Bucket_5: 40844
Critical_ROB_Stalls_Percent_5_Bucket_6: 198732
Non-critical_ROB_Stalls_Percent_5_Bucket_6: 307971
Critical_ROB_Stalls_Percent_6_Bucket_0: 3321507
Non-critical_ROB_Stalls_Percent_6_Bucket_0: 503611
Critical_ROB_Stalls_Percent_6_Bucket_1: 349619
Non-critical_ROB_Stalls_Percent_6_Bucket_1: 94203
Critical_ROB_Stalls_Percent_6_Bucket_2: 68991
Non-critical_ROB_Stalls_Percent_6_Bucket_2: 26820
Critical_ROB_Stalls_Percent_6_Bucket_3: 45530
Non-critical_ROB_Stalls_Percent_6_Bucket_3: 23005
Critical_ROB_Stalls_Percent_6_Bucket_4: 35343
Non-critical_ROB_Stalls_Percent_6_Bucket_4: 22281
Critical_ROB_Stalls_Percent_6_Bucket_5: 32684
Non-critical_ROB_Stalls_Percent_6_Bucket_5: 38123
Critical_ROB_Stalls_Percent_6_Bucket_6: 204463
Non-critical_ROB_Stalls_Percent_6_Bucket_6: 302240
Critical_ROB_Stalls_Percent_7_Bucket_0: 3500296
Non-critical_ROB_Stalls_Percent_7_Bucket_0: 324822
Critical_ROB_Stalls_Percent_7_Bucket_1: 358347
Non-critical_ROB_Stalls_Percent_7_Bucket_1: 85475
Critical_ROB_Stalls_Percent_7_Bucket_2: 71024
Non-critical_ROB_Stalls_Percent_7_Bucket_2: 24787
Critical_ROB_Stalls_Percent_7_Bucket_3: 47639
Non-critical_ROB_Stalls_Percent_7_Bucket_3: 20896
Critical_ROB_Stalls_Percent_7_Bucket_4: 37626
Non-critical_ROB_Stalls_Percent_7_Bucket_4: 19998
Critical_ROB_Stalls_Percent_7_Bucket_5: 37121
Non-critical_ROB_Stalls_Percent_7_Bucket_5: 33686
Critical_ROB_Stalls_Percent_7_Bucket_6: 263949
Non-critical_ROB_Stalls_Percent_7_Bucket_6: 242754
Critical_ROB_Stalls_Percent_8_Bucket_0: 3657675
Non-critical_ROB_Stalls_Percent_8_Bucket_0: 167443
Critical_ROB_Stalls_Percent_8_Bucket_1: 371006
Non-critical_ROB_Stalls_Percent_8_Bucket_1: 72816
Critical_ROB_Stalls_Percent_8_Bucket_2: 75370
Non-critical_ROB_Stalls_Percent_8_Bucket_2: 20441
Critical_ROB_Stalls_Percent_8_Bucket_3: 54026
Non-critical_ROB_Stalls_Percent_8_Bucket_3: 14509
Critical_ROB_Stalls_Percent_8_Bucket_4: 42951
Non-critical_ROB_Stalls_Percent_8_Bucket_4: 14673
Critical_ROB_Stalls_Percent_8_Bucket_5: 48834
Non-critical_ROB_Stalls_Percent_8_Bucket_5: 21973
Critical_ROB_Stalls_Percent_8_Bucket_6: 327271
Non-critical_ROB_Stalls_Percent_8_Bucket_6: 179432
Average ROB occupancy Load Stall Begin: 63.0445
Average ROB occupancy Load Stall End: 72.3406
Min ROB occupancy Load Stall Begin: 1
Max ROB occupancy Load Stall Begin: 352
Min ROB occupancy Load Stall End: 1
Max ROB occupancy Load Stall End: 352
Average ROB occupancy Critical Load Stall Begin: 68.3104
Average ROB occupancy Critical Load Stall End: 78.1031
Min ROB occupancy Critical Load Stall Begin: 2
Max ROB occupancy Critical Load Stall Begin: 352
Min ROB occupancy Critical Load Stall End: 3
Max ROB occupancy Critical Load Stall End: 352
 ROB Load Stall Begin Bucket Count 0: 4059134
 ROB Load Stall End Bucket Count 0: 3825118
 ROB Critical Load Stall Begin Bucket Count 0: 3459432
 ROB Critical Load Stall End Bucket Count 0: 3237717
 ROB Load Stall Begin Bucket Count 1: 270559
 ROB Load Stall End Bucket Count 1: 443822
 ROB Critical Load Stall Begin Bucket Count 1: 264657
 ROB Critical Load Stall End Bucket Count 1: 427180
 ROB Load Stall Begin Bucket Count 2: 82000
 ROB Load Stall End Bucket Count 2: 95811
 ROB Critical Load Stall Begin Bucket Count 2: 79586
 ROB Critical Load Stall End Bucket Count 2: 93225
 ROB Load Stall Begin Bucket Count 3: 65618
 ROB Load Stall End Bucket Count 3: 68535
 ROB Critical Load Stall Begin Bucket Count 3: 63390
 ROB Critical Load Stall End Bucket Count 3: 66238
 ROB Load Stall Begin Bucket Count 4: 53076
 ROB Load Stall End Bucket Count 4: 57624
 ROB Critical Load Stall Begin Bucket Count 4: 50862
 ROB Critical Load Stall End Bucket Count 4: 55027
 ROB Load Stall Begin Bucket Count 5: 111196
 ROB Load Stall End Bucket Count 5: 70807
 ROB Critical Load Stall Begin Bucket Count 5: 108270
 ROB Critical Load Stall End Bucket Count 5: 68886
 ROB Load Stall Begin Bucket Count 6: 426837
 ROB Load Stall End Bucket Count 6: 506703
 ROB Critical Load Stall Begin Bucket Count 6: 419295
 ROB Critical Load Stall End Bucket Count 6: 497219
PIST Tag Read Accesses: 114762
PIST Read Accesses: 57381
PIST Tag Write Accesses: 114762
PIST Write Accesses: 57381
Criticality detector called times: 622928
Max global_stall_cycles_count: 670911
Threshold Modified: 1 times, factor: -1
Sturdy critical IP cache stats: 
 Unused entries: 0
CIC Tag Read Accesses: 0
CIC Read Accesses: 0
CIC Tag Write Accesses: 0
CIC Write Accesses: 0
Wobbly critical IP cache stats: 
 Unused entries: 9
CIC Tag Read Accesses: 222447000
CIC Read Accesses: 0
CIC Tag Write Accesses: 2843564
CIC Write Accesses: 0
ITLB TOTAL     ACCESS:   14464709  HIT:   14464704  MISS:          5  HIT %:        100  MISS %: 3.45669e-05   MPKI: 5e-05
ITLB LOAD TRANSLATION ACCESS:   14464709  HIT:   14464704  MISS:          5  HIT %:        100  MISS %: 3.45669e-05   MPKI: 5e-05
ITLB PREFETCH  REQUESTED:          0  ISSUED:          0  USEFUL:          0  USELESS:          0
ITLB USEFUL LOAD PREFETCHES:          0 PREFETCH ISSUED TO LOWER LEVEL:          0  ACCURACY: -nan
ITLB TIMELY PREFETCHES:          0 LATE PREFETCHES: 0 DROPPED PREFETCHES: 0
ITLB PREFETCHES SAME FILL-ORIGIN LEVEL: 0 DIFFERENT FILL-ORIGIN LEVEL: 0
ITLB AVERAGE MISS LATENCY: 394.2 cycles
ITLB RQ	ACCESS:   17853311	FORWARD:          0	MERGED:    3388602	TO_CACHE:   14464709

DTLB TOTAL     ACCESS:   21234111  HIT:   21187224  MISS:      46887  HIT %:    99.7792  MISS %:    0.22081   MPKI: 0.46887
DTLB LOAD TRANSLATION ACCESS:   21234111  HIT:   21187224  MISS:      46887  HIT %:    99.7792  MISS %:    0.22081   MPKI: 0.46887
DTLB PREFETCH  REQUESTED:          0  ISSUED:          0  USEFUL:          0  USELESS:          0
DTLB USEFUL LOAD PREFETCHES:          0 PREFETCH ISSUED TO LOWER LEVEL:          0  ACCURACY: -nan
DTLB TIMELY PREFETCHES:          0 LATE PREFETCHES: 0 DROPPED PREFETCHES: 0
DTLB PREFETCHES SAME FILL-ORIGIN LEVEL: 0 DIFFERENT FILL-ORIGIN LEVEL: 0
DTLB AVERAGE MISS LATENCY: 122.886 cycles
DTLB RQ	ACCESS:   22590328	FORWARD:          0	MERGED:    1323743	TO_CACHE:   21266585

STLB TOTAL     ACCESS:    2114928  HIT:    2069831  MISS:      45097  HIT %:    97.8677  MISS %:    2.13232   MPKI: 0.45097
STLB LOAD TRANSLATION ACCESS:      46892  HIT:       1795  MISS:      45097  HIT %:    3.82795  MISS %:    96.1721   MPKI: 0.45097
STLB TRANSLATION FROM L1D PREFETCHER ACCESS:    2068036  HIT:    2068036  MISS:          0  HIT %:        100  MISS %:          0   MPKI: 0
STLB PREFETCH  REQUESTED:          0  ISSUED:          0  USEFUL:          0  USELESS:          0
STLB USEFUL LOAD PREFETCHES:          0 PREFETCH ISSUED TO LOWER LEVEL:          0  ACCURACY: -nan
STLB TIMELY PREFETCHES:          0 LATE PREFETCHES: 0 DROPPED PREFETCHES: 0
STLB PREFETCHES SAME FILL-ORIGIN LEVEL: 0 DIFFERENT FILL-ORIGIN LEVEL: 0
STLB AVERAGE MISS LATENCY: 118.273 cycles
STLB RQ	ACCESS:    4236509	FORWARD:          0	MERGED:    2121581	TO_CACHE:    2114928

STLB Hit, L1D data hit: 0
STLB Hit, L2C data hit: 0
STLB Hit, LLC data hit: 0
STLB Hit, LLC data miss: 0
STLB STLB hints to L2: 0
L1D TOTAL     ACCESS:   23822851  HIT:   21129401  MISS:    2693450  HIT %:    88.6938  MISS %:    11.3062   MPKI: 26.9345
L1D LOAD      ACCESS:   18242235  HIT:   17827219  MISS:     415016  HIT %:     97.725  MISS %:    2.27503   MPKI: 4.15016
L1D RFO       ACCESS:    1573287  HIT:     977340  MISS:     595947  HIT %:    62.1209  MISS %:    37.8791   MPKI: 5.95947
L1D PREFETCH  ACCESS:    4007329  HIT:    2324842  MISS:    1682487  HIT %:    58.0148  MISS %:    41.9852   MPKI: 16.8249
L1D PREFETCH  REQUESTED:    8413693  ISSUED:    8379267  USEFUL:    1605334  USELESS:      77087
L1D USEFUL LOAD PREFETCHES:    1605334 PREFETCH ISSUED TO LOWER LEVEL:    1835885  ACCURACY: 87.442
L1D TIMELY PREFETCHES:    1605334 LATE PREFETCHES: 153397 DROPPED PREFETCHES: 0
L1D PREFETCHES SAME FILL-ORIGIN LEVEL: 1835885 DIFFERENT FILL-ORIGIN LEVEL: 0
L1D AVERAGE MISS LATENCY: 6.73358e+06 cycles
L1D RQ	ACCESS:   29526118	FORWARD:          0	MERGED:   11032772	TO_CACHE:   18492205
L1D WQ	ACCESS:    4098123	FORWARD:       1141	MERGED:          0	TO_CACHE:    4098123
L1D PQ	ACCESS:    4189650	FORWARD:          0	MERGED:         33	TO_CACHE:    4189617

L1D UNIQUE REGIONS ACCESSED: 0
L1D REGIONS CONFLICTS: 0
L1D Cross Page Prefetch Requests: 0
L1D Same Page Prefetch Requests: 4882679
L1D ROI Sum of L1D PQ occupancy: 78766249
L1D PREFETCHES PUSHED FROM L2C: 0
L1I TOTAL     ACCESS:   17853138  HIT:   17852806  MISS:        332  HIT %:    99.9981  MISS %: 0.00185962   MPKI: 0.00332
L1I LOAD      ACCESS:   17853138  HIT:   17852806  MISS:        332  HIT %:    99.9981  MISS %: 0.00185962   MPKI: 0.00332
L1I PREFETCH  REQUESTED:          0  ISSUED:          0  USEFUL:          0  USELESS:          0
L1I USEFUL LOAD PREFETCHES:          0 PREFETCH ISSUED TO LOWER LEVEL:          0  ACCURACY: -nan
L1I TIMELY PREFETCHES:          0 LATE PREFETCHES: 0 DROPPED PREFETCHES: 0
L1I PREFETCHES SAME FILL-ORIGIN LEVEL: 0 DIFFERENT FILL-ORIGIN LEVEL: 0
L1I AVERAGE MISS LATENCY: 250.813 cycles
L1I RQ	ACCESS:   25546994	FORWARD:          0	MERGED:    7693683	TO_CACHE:   17853311

BTB TOTAL     ACCESS:    3186002  HIT:    3185933  MISS:         69  HIT %:    99.9978  MISS %: 0.00216572   MPKI: 0.00069
BTB BRANCH_DIRECT_JUMP	ACCESS:        512  HIT:        511  MISS:          1
BTB BRANCH_INDIRECT	ACCESS:          0  HIT:          0  MISS:          0
BTB BRANCH_CONDITIONAL	ACCESS:    3185484  HIT:    3185422  MISS:         62
BTB BRANCH_DIRECT_CALL	ACCESS:          3  HIT:          0  MISS:          3
BTB BRANCH_INDIRECT_CALL	ACCESS:          0  HIT:          0  MISS:          0
BTB BRANCH_RETURN	ACCESS:          3  HIT:          0  MISS:          3
BTB BRANCH_OTHER ACCESS:          0  HIT:          0  MISS:          0

L2C TOTAL     ACCESS:    3469945  HIT:    1103395  MISS:    2366550  HIT %:    31.7986  MISS %:    68.2014   MPKI: 23.6655
L2C LOAD      ACCESS:     261948  HIT:     154808  MISS:     107140  HIT %:    59.0988  MISS %:    40.9012   MPKI: 1.0714
L2C DATA LOAD MPKI: 1.06808
L2C INSTRUCTION LOAD MPKI: 0.00332
L2C RFO       ACCESS:     595947  HIT:          3  MISS:     595944  HIT %:  0.0005034  MISS %:    99.9995   MPKI: 5.95944
L2C PREFETCH  ACCESS:    1835884  HIT:     182605  MISS:    1653279  HIT %:    9.94643  MISS %:    90.0536   MPKI: 16.5328
L2C DATA PREFETCH MPKI: 16.5328
L2C INSTRUCTION PREFETCH MPKI: 0
L2C WRITEBACK ACCESS:     730988  HIT:     729323  MISS:       1665  HIT %:    99.7722  MISS %:   0.227774   MPKI: 0.01665
L2C LOAD TRANSLATION ACCESS:      45178  HIT:      36656  MISS:       8522  HIT %:    81.1368  MISS %:    18.8632   MPKI: 0.08522
L2C PREFETCH  REQUESTED:          0  ISSUED:          0  USEFUL:     124827  USELESS:    1525170
L2C USEFUL LOAD PREFETCHES:     124827 PREFETCH ISSUED TO LOWER LEVEL:    1653280  ACCURACY: 7.55026
L2C TIMELY PREFETCHES:     124827 LATE PREFETCHES: 0 DROPPED PREFETCHES: 0
L2C PREFETCHES SAME FILL-ORIGIN LEVEL: 0 DIFFERENT FILL-ORIGIN LEVEL: 0
L2C AVERAGE MISS LATENCY: 274.759 cycles
L2C RQ	ACCESS:     903077	FORWARD:          0	MERGED:          0	TO_CACHE:     903074
L2C WQ	ACCESS:     730988	FORWARD:          3	MERGED:          0	TO_CACHE:     730988
L2C PQ	ACCESS:    1835885	FORWARD:          0	MERGED:          0	TO_CACHE:    1835885

L2C Instructions Evicting Data 329
L2C Translations Evicting Data 8499
L2C Data Evicting Data 2347237
L2C Instructions Evicting Instructions 0
L2C Translations Evicting Instructions 6
L2C Data Evicting Instructions 326
L2C Instructions Evicting Translations 3
L2C Translations Evicting Translations 17
L2C Data Evicting Translations 8468
L2C Dense regions hint from L2: 0
PSCL5 TOTAL     ACCESS:      45097  HIT:      45097  MISS:          0  HIT %:        100  MISS %:          0   MPKI: 0
PSCL5 LOAD TRANSLATION ACCESS:      45097  HIT:      45097  MISS:          0  HIT %:        100  MISS %:          0   MPKI: 0
PSCL5 PREFETCH  REQUESTED:          0  ISSUED:          0  USEFUL:          0  USELESS:          0
PSCL5 USEFUL LOAD PREFETCHES:          0 PREFETCH ISSUED TO LOWER LEVEL:          0  ACCURACY: -nan
PSCL5 TIMELY PREFETCHES:          0 LATE PREFETCHES: 0 DROPPED PREFETCHES: 0
PSCL5 PREFETCHES SAME FILL-ORIGIN LEVEL: 0 DIFFERENT FILL-ORIGIN LEVEL: 0

PSCL4 TOTAL     ACCESS:      45097  HIT:      45097  MISS:          0  HIT %:        100  MISS %:          0   MPKI: 0
PSCL4 LOAD TRANSLATION ACCESS:      45097  HIT:      45097  MISS:          0  HIT %:        100  MISS %:          0   MPKI: 0
PSCL4 PREFETCH  REQUESTED:          0  ISSUED:          0  USEFUL:          0  USELESS:          0
PSCL4 USEFUL LOAD PREFETCHES:          0 PREFETCH ISSUED TO LOWER LEVEL:          0  ACCURACY: -nan
PSCL4 TIMELY PREFETCHES:          0 LATE PREFETCHES: 0 DROPPED PREFETCHES: 0
PSCL4 PREFETCHES SAME FILL-ORIGIN LEVEL: 0 DIFFERENT FILL-ORIGIN LEVEL: 0

PSCL3 TOTAL     ACCESS:      44836  HIT:      44834  MISS:          2  HIT %:    99.9955  MISS %:  0.0044607   MPKI: 2e-05
PSCL3 LOAD TRANSLATION ACCESS:      44836  HIT:      44834  MISS:          2  HIT %:    99.9955  MISS %:  0.0044607   MPKI: 2e-05
PSCL3 PREFETCH  REQUESTED:          0  ISSUED:          0  USEFUL:          0  USELESS:          0
PSCL3 USEFUL LOAD PREFETCHES:          0 PREFETCH ISSUED TO LOWER LEVEL:          0  ACCURACY: -nan
PSCL3 TIMELY PREFETCHES:          0 LATE PREFETCHES: 0 DROPPED PREFETCHES: 0
PSCL3 PREFETCHES SAME FILL-ORIGIN LEVEL: 0 DIFFERENT FILL-ORIGIN LEVEL: 0

PSCL2 TOTAL     ACCESS:      45097  HIT:      44993  MISS:        104  HIT %:    99.7694  MISS %:   0.230614   MPKI: 0.00104
PSCL2 LOAD TRANSLATION ACCESS:      45097  HIT:      44993  MISS:        104  HIT %:    99.7694  MISS %:   0.230614   MPKI: 0.00104
PSCL2 PREFETCH  REQUESTED:          0  ISSUED:          0  USEFUL:          0  USELESS:          0
PSCL2 USEFUL LOAD PREFETCHES:          0 PREFETCH ISSUED TO LOWER LEVEL:          0  ACCURACY: -nan
PSCL2 TIMELY PREFETCHES:          0 LATE PREFETCHES: 0 DROPPED PREFETCHES: 0
PSCL2 PREFETCHES SAME FILL-ORIGIN LEVEL: 0 DIFFERENT FILL-ORIGIN LEVEL: 0

LLC TOTAL     ACCESS:    3097254  HIT:     360431  MISS:    2736823  HIT %:    11.6371  MISS %:    88.3629   MPKI: 27.3682
LLC LOAD      ACCESS:     107140  HIT:       4732  MISS:     102408  HIT %:    4.41665  MISS %:    95.5833   MPKI: 1.02408
LLC RFO       ACCESS:     595944  HIT:       8150  MISS:     587794  HIT %:    1.36758  MISS %:    98.6324   MPKI: 5.87794
LLC PREFETCH  ACCESS:    1653280  HIT:      17629  MISS:    1635651  HIT %:     1.0663  MISS %:    98.9337   MPKI: 16.3565
LLC WRITEBACK ACCESS:     732368  HIT:     329887  MISS:     402481  HIT %:    45.0439  MISS %:    54.9561   MPKI: 4.02481
LLC LOAD TRANSLATION ACCESS:       8522  HIT:         33  MISS:       8489  HIT %:   0.387233  MISS %:    99.6128   MPKI: 0.08489
LLC PREFETCH  REQUESTED:          0  ISSUED:          0  USEFUL:       3007  USELESS:    1634697
LLC USEFUL LOAD PREFETCHES:       3007 PREFETCH ISSUED TO LOWER LEVEL:    1635651  ACCURACY: 0.183841
LLC TIMELY PREFETCHES:       3007 LATE PREFETCHES: 0 DROPPED PREFETCHES: 0
LLC PREFETCHES SAME FILL-ORIGIN LEVEL: 0 DIFFERENT FILL-ORIGIN LEVEL: 0
LLC AVERAGE MISS LATENCY: 211.431 cycles
LLC RQ	ACCESS:     711606	FORWARD:          0	MERGED:          0	TO_CACHE:     711606
LLC WQ	ACCESS:     732368	FORWARD:          0	MERGED:          0	TO_CACHE:     732368
LLC PQ	ACCESS:    1653280	FORWARD:          0	MERGED:          0	TO_CACHE:    1653280

LLC Dense regions hint to LLC: 0

RAW hits: 8843
Loads Generated: 29534969
Loads sent to L1D: 29526118
Stores Generated: 4098298
Stores sent to L1D: 4098297
Major fault: 0 Minor fault: 39257
Allocated PAGES: 39257

stream: 
stream:times selected: 3267862
stream:pref_filled: 2176522
stream:pref_useful: 2081049
stream:pref_late: 152161
stream:misses: 3915
stream:misses_by_poll: 0

CS: 
CS:times selected: 2923362
CS:pref_filled: 7092
CS:pref_useful: 6857
CS:pref_late: 741
CS:misses: 330385
CS:misses_by_poll: 48

CPLX: 
CPLX:times selected: 344117
CPLX:pref_filled: 22891
CPLX:pref_useful: 18590
CPLX:pref_late: 268
CPLX:misses: 33948
CPLX:misses_by_poll: 10

NL_L1: 
NL:times selected: 266
NL:pref_filled: 178
NL:pref_useful: 178
NL:pref_late: 3
NL:misses: 63
NL:misses_by_poll: 0

total selections: 6535607
total_filled: 1682487
total_useful: 1605334
total_late: 154887
total_polluted: 58
total_misses_after_warmup: 484067
conflicts: 237743
Degree Incremented Times: 195631
Degree Decremented Times: 0

L1 IP Table Write Accesses: 13237367
L1 IP Table Read Accesses: 12999624
L1 RST Write Accesses: 3102036
L1 RST Read Accesses: 6204072
L1 CSPT Write Accesses: 3102036
L1 CSPT Read Accesses: 3648485
L1 RR Filter Tag Write Accesses: 4224076
L1 RR Filter Tag Read Accesses: 599657074
L1 IP Table Tag Write Accesses: 14052073
L1 IP Table Tag Read Accesses: 14052073
L1 RST Tag Write Accesses: 0
L1 RST Tag Read Accesses: 27635615
L1 RR Filter Write Accesses: 0
L1 RR Filter Read Accesses: 26472477
test: 96345

DRAM Statistics
 CHANNEL 0
 RQ ROW_BUFFER_HIT:     258395  ROW_BUFFER_MISS:    2075909
 DBUS_CONGESTED:        114
 WQ ROW_BUFFER_HIT:     142144  ROW_BUFFER_MISS:     567142  FULL:       1529

 AVG_CONGESTED_CYCLE: 6
 All warmup complete: 2
Channel 0 Bank busy for read cycles: 0
Channel 0 Bank busy for write cycles: 0
Channel 0
Rank 0
0banks busy for read cycles: 8759420
0banks busy for write cycles: 12157
1banks busy for read cycles: 16208339
1banks busy for write cycles: 1786981
2banks busy for read cycles: 24905734
2banks busy for write cycles: 521256
3banks busy for read cycles: 21675307
3banks busy for write cycles: 299476
4banks busy for read cycles: 10424201
4banks busy for write cycles: 293207
5banks busy for read cycles: 6992393
5banks busy for write cycles: 302496
6banks busy for read cycles: 4717595
6banks busy for write cycles: 339706
7banks busy for read cycles: 5738696
7banks busy for write cycles: 1350951
8banks busy for read cycles: 7311278
8banks busy for write cycles: 17497603

CPU 0 Branch Prediction Accuracy: 99.74% MPKI: 0.08327 Average ROB Occupancy at Mispredict: 98.7998
Branch types
NOT_BRANCH: 96797559 96.7976%
BRANCH_DIRECT_JUMP: 512 0.000512%
BRANCH_INDIRECT: 0 0%
BRANCH_CONDITIONAL: 3202245 3.20225%
BRANCH_DIRECT_CALL: 3 3e-06%
BRANCH_INDIRECT_CALL: 0 0%
BRANCH_RETURN: 3 3e-06%
BRANCH_OTHER: 0 0%

DRAM PAGES: 1048576
Allocated PAGES: 39257
