Initialize SIGNATURE TABLE
ST_SET: 1
ST_WAY: 256
ST_TAG_BIT: 16
ST_TAG_MASK: ffff

Initialize PATTERN TABLE
PT_SET: 512
PT_WAY: 4
SIG_DELTA_BIT: 7
C_SIG_BIT: 4
C_DELTA_BIT: 4

Initialize PREFETCH FILTER
FILTER_SET: 1024

*** ChampSim Multicore Out-of-Order Simulator ***

Warmup Instructions: 50000000
Simulation Instructions: 100000000
Number of CPUs: 1
LLC sets: 2048
LLC ways: 16
Off-chip DRAM Size: 4096 MB Channels: 1 Width: 64-bit Data Rate: 6400 MT/s
CPU 0 runs ../SPEC2017//654.roms_s-1070B.champsimtrace.xz
.xz
NUM_OF_IPS_IN_CRITICAL_IP_TRAINING: 64
NUM_OF_CRITICAL_IP_TRAINING_TABLE_WAYS: 2
NUM_OF_CRITICAL_IP_TRAINING_TABLE_SETS: 32
WOBBLY_CRITICAL_IP_CACHE_SETS: 32
WOBBLY_CRITICAL_IP_CACHE_WAYS: 4
BTB has LRU replacement policy
ITLB has LRU replacement policy
DTLB has LRU replacement policy
STLB has LRU replacement policy
L1I has LRU replacement policy
L1D has LRU replacement policy
Initialize SRRIP state for L2C
Initialize DRRIP state for LLC
Heartbeat CPU 0 instructions: 10000003 cycles: 3124370 heartbeat IPC: 3.20065 cumulative IPC: 3.20065 (Simulation time: 0 hr 5 min 45 sec) 
Heartbeat CPU 0 instructions: 20000002 cycles: 6344946 heartbeat IPC: 3.10503 cumulative IPC: 3.15212 (Simulation time: 0 hr 10 min 32 sec) 
Heartbeat CPU 0 instructions: 30000003 cycles: 9385976 heartbeat IPC: 3.28836 cumulative IPC: 3.19626 (Simulation time: 0 hr 14 min 41 sec) 
Heartbeat CPU 0 instructions: 40000001 cycles: 12692041 heartbeat IPC: 3.02474 cumulative IPC: 3.15158 (Simulation time: 0 hr 18 min 43 sec) 
Heartbeat CPU 0 instructions: 50000001 cycles: 15878289 heartbeat IPC: 3.13849 cumulative IPC: 3.14895 (Simulation time: 0 hr 22 min 24 sec) 

Warmup complete CPU 0 instructions: 50000001 cycles: 15878289 (Simulation time: 0 hr 22 min 24 sec) 

Heartbeat CPU 0 instructions: 60000000 cycles: 30636433 heartbeat IPC: 0.677592 cumulative IPC: 0.677592 (Simulation time: 0 hr 28 min 22 sec) 
Heartbeat CPU 0 instructions: 70000002 cycles: 39852762 heartbeat IPC: 1.08503 cumulative IPC: 0.834221 (Simulation time: 0 hr 32 min 24 sec) 
Heartbeat CPU 0 instructions: 80000003 cycles: 50385668 heartbeat IPC: 0.949406 cumulative IPC: 0.869379 (Simulation time: 0 hr 36 min 41 sec) 
Heartbeat CPU 0 instructions: 90000000 cycles: 63708860 heartbeat IPC: 0.750571 cumulative IPC: 0.836285 (Simulation time: 0 hr 41 min 2 sec) 
Heartbeat CPU 0 instructions: 100000003 cycles: 72303553 heartbeat IPC: 1.16351 cumulative IPC: 0.886128 (Simulation time: 0 hr 43 min 55 sec) 
Heartbeat CPU 0 instructions: 110000000 cycles: 87449863 heartbeat IPC: 0.660227 cumulative IPC: 0.838322 (Simulation time: 0 hr 48 min 2 sec) 
Heartbeat CPU 0 instructions: 120000002 cycles: 96078239 heartbeat IPC: 1.15897 cumulative IPC: 0.872819 (Simulation time: 0 hr 50 min 40 sec) 
Heartbeat CPU 0 instructions: 130000002 cycles: 107615971 heartbeat IPC: 0.866721 cumulative IPC: 0.872052 (Simulation time: 0 hr 56 min 26 sec) 
Heartbeat CPU 0 instructions: 140000001 cycles: 119904168 heartbeat IPC: 0.813789 cumulative IPC: 0.865169 (Simulation time: 1 hr 3 min 47 sec) 
Heartbeat CPU 0 instructions: 150000003 cycles: 128588480 heartbeat IPC: 1.1515 cumulative IPC: 0.887231 (Simulation time: 1 hr 9 min 0 sec) 
Finished CPU 0 instructions: 100000002 cycles: 112710191 cumulative IPC: 0.887231 (Simulation time: 1 hr 9 min 0 sec) 

ChampSim completed all CPUs

Region of Interest Statistics

CPU 0 cumulative IPC: 0.887231 instructions: 100000002 cycles: 112710191

CPU 0 Average Load ROB stall cycles: 3.21803e+07
CPU 0 Fraction of times ROB stalled by Loads: 44.5393
CPU 0 Percentage of Load stall cycles in Total stall cycles: 3.73057e+08
Issued all: 83485954
Issued LT all: 72746748
rob_not_full_when_issued_lt_all: 24193870
Issued LT one: 59680720
rob_not_full_when_issued_lt_one: 19750284
 Total stall cycles: 88254045
 Total load stall cycles: 329238101244540
CPU 0 NUM of IPS identified critical: 0
CPU 0 Num of Load IPs stalling ROB: 84
Threshold modification factor: 0
Max PIST entries: 28
Min PIST entries: 0
Avg PIST entries: 7.47333
Trouble in retire width: 0.966395
MaC = Marked as critical.
lt_50_percent_before_Mac: 0
gt_90_percent_before_Mac: 0
gt_75_percent_before_Mac: 0
gt_50_percent_before_Mac: 0
stall_proportion_bin_same_before_after: 0
stall_proportion_bin_lower_before_after: 0
stall_proportion_bin_upper_before_after: 0
average_stall_proportion_before: -nan
average_stall_proportion_after: -nan
Critical IP stalls, total frequency: 0
Non-critical IP stalls, total frequency: 4556835
Total Freq all stalling IPs: 4556835
stat_90_percent_critical_ip_stalls_freq: 4107839
stat_90_percent_non_critical_ip_stalls_freq: 448996
Critical_IP_ROB_Stalls_Bucket_0: 0
Non-critical_IP_ROB_Stalls_Bucket_0: 569835
Critical_IP_ROB_Stalls_Bucket_1: 0
Non-critical_IP_ROB_Stalls_Bucket_1: 1050601
Critical_IP_ROB_Stalls_Bucket_2: 0
Non-critical_IP_ROB_Stalls_Bucket_2: 269539
Critical_IP_ROB_Stalls_Bucket_3: 0
Non-critical_IP_ROB_Stalls_Bucket_3: 115069
Critical_IP_ROB_Stalls_Bucket_4: 0
Non-critical_IP_ROB_Stalls_Bucket_4: 139026
Critical_IP_ROB_Stalls_Bucket_5: 0
Non-critical_IP_ROB_Stalls_Bucket_5: 138128
Critical_IP_ROB_Stalls_Bucket_6: 0
Non-critical_IP_ROB_Stalls_Bucket_6: 2274637
0 => IPs accounting for >50 percent of stalls, 1 => 55, 2 => 60, 3 => 65 and so on till 90.
percent50: 61.8442 num IPs:  3
percent55: 61.8442 num IPs: 3
percent60: 61.8442 num IPs: 3
percent65: 72.2314 num IPs: 4
percent70: 72.2314 num IPs: 4
percent75: 82.5104 num IPs: 5
percent80: 82.5104 num IPs: 5
percent85: 86.1581 num IPs: 6
percent90: 90.1468 num IPs: 8
Critical_ROB_Stalls_Percent_0_Bucket_0: 8192
Non-critical_ROB_Stalls_Percent_0_Bucket_0: 561643
Critical_ROB_Stalls_Percent_0_Bucket_1: 550270
Non-critical_ROB_Stalls_Percent_0_Bucket_1: 500331
Critical_ROB_Stalls_Percent_0_Bucket_2: 103251
Non-critical_ROB_Stalls_Percent_0_Bucket_2: 166288
Critical_ROB_Stalls_Percent_0_Bucket_3: 33759
Non-critical_ROB_Stalls_Percent_0_Bucket_3: 81310
Critical_ROB_Stalls_Percent_0_Bucket_4: 41336
Non-critical_ROB_Stalls_Percent_0_Bucket_4: 97690
Critical_ROB_Stalls_Percent_0_Bucket_5: 35261
Non-critical_ROB_Stalls_Percent_0_Bucket_5: 102867
Critical_ROB_Stalls_Percent_0_Bucket_6: 2046069
Non-critical_ROB_Stalls_Percent_0_Bucket_6: 228568
Critical_ROB_Stalls_Percent_1_Bucket_0: 8192
Non-critical_ROB_Stalls_Percent_1_Bucket_0: 561643
Critical_ROB_Stalls_Percent_1_Bucket_1: 550270
Non-critical_ROB_Stalls_Percent_1_Bucket_1: 500331
Critical_ROB_Stalls_Percent_1_Bucket_2: 103251
Non-critical_ROB_Stalls_Percent_1_Bucket_2: 166288
Critical_ROB_Stalls_Percent_1_Bucket_3: 33759
Non-critical_ROB_Stalls_Percent_1_Bucket_3: 81310
Critical_ROB_Stalls_Percent_1_Bucket_4: 41336
Non-critical_ROB_Stalls_Percent_1_Bucket_4: 97690
Critical_ROB_Stalls_Percent_1_Bucket_5: 35261
Non-critical_ROB_Stalls_Percent_1_Bucket_5: 102867
Critical_ROB_Stalls_Percent_1_Bucket_6: 2046069
Non-critical_ROB_Stalls_Percent_1_Bucket_6: 228568
Critical_ROB_Stalls_Percent_2_Bucket_0: 8192
Non-critical_ROB_Stalls_Percent_2_Bucket_0: 561643
Critical_ROB_Stalls_Percent_2_Bucket_1: 550270
Non-critical_ROB_Stalls_Percent_2_Bucket_1: 500331
Critical_ROB_Stalls_Percent_2_Bucket_2: 103251
Non-critical_ROB_Stalls_Percent_2_Bucket_2: 166288
Critical_ROB_Stalls_Percent_2_Bucket_3: 33759
Non-critical_ROB_Stalls_Percent_2_Bucket_3: 81310
Critical_ROB_Stalls_Percent_2_Bucket_4: 41336
Non-critical_ROB_Stalls_Percent_2_Bucket_4: 97690
Critical_ROB_Stalls_Percent_2_Bucket_5: 35261
Non-critical_ROB_Stalls_Percent_2_Bucket_5: 102867
Critical_ROB_Stalls_Percent_2_Bucket_6: 2046069
Non-critical_ROB_Stalls_Percent_2_Bucket_6: 228568
Critical_ROB_Stalls_Percent_3_Bucket_0: 288685
Non-critical_ROB_Stalls_Percent_3_Bucket_0: 281150
Critical_ROB_Stalls_Percent_3_Bucket_1: 686426
Non-critical_ROB_Stalls_Percent_3_Bucket_1: 364175
Critical_ROB_Stalls_Percent_3_Bucket_2: 124372
Non-critical_ROB_Stalls_Percent_3_Bucket_2: 145167
Critical_ROB_Stalls_Percent_3_Bucket_3: 40895
Non-critical_ROB_Stalls_Percent_3_Bucket_3: 74174
Critical_ROB_Stalls_Percent_3_Bucket_4: 52137
Non-critical_ROB_Stalls_Percent_3_Bucket_4: 86889
Critical_ROB_Stalls_Percent_3_Bucket_5: 41697
Non-critical_ROB_Stalls_Percent_3_Bucket_5: 96431
Critical_ROB_Stalls_Percent_3_Bucket_6: 2057255
Non-critical_ROB_Stalls_Percent_3_Bucket_6: 217382
Critical_ROB_Stalls_Percent_4_Bucket_0: 288685
Non-critical_ROB_Stalls_Percent_4_Bucket_0: 281150
Critical_ROB_Stalls_Percent_4_Bucket_1: 686426
Non-critical_ROB_Stalls_Percent_4_Bucket_1: 364175
Critical_ROB_Stalls_Percent_4_Bucket_2: 124372
Non-critical_ROB_Stalls_Percent_4_Bucket_2: 145167
Critical_ROB_Stalls_Percent_4_Bucket_3: 40895
Non-critical_ROB_Stalls_Percent_4_Bucket_3: 74174
Critical_ROB_Stalls_Percent_4_Bucket_4: 52137
Non-critical_ROB_Stalls_Percent_4_Bucket_4: 86889
Critical_ROB_Stalls_Percent_4_Bucket_5: 41697
Non-critical_ROB_Stalls_Percent_4_Bucket_5: 96431
Critical_ROB_Stalls_Percent_4_Bucket_6: 2057255
Non-critical_ROB_Stalls_Percent_4_Bucket_6: 217382
Critical_ROB_Stalls_Percent_5_Bucket_0: 547670
Non-critical_ROB_Stalls_Percent_5_Bucket_0: 22165
Critical_ROB_Stalls_Percent_5_Bucket_1: 828978
Non-critical_ROB_Stalls_Percent_5_Bucket_1: 221623
Critical_ROB_Stalls_Percent_5_Bucket_2: 148731
Non-critical_ROB_Stalls_Percent_5_Bucket_2: 120808
Critical_ROB_Stalls_Percent_5_Bucket_3: 49171
Non-critical_ROB_Stalls_Percent_5_Bucket_3: 65898
Critical_ROB_Stalls_Percent_5_Bucket_4: 62231
Non-critical_ROB_Stalls_Percent_5_Bucket_4: 76795
Critical_ROB_Stalls_Percent_5_Bucket_5: 52086
Non-critical_ROB_Stalls_Percent_5_Bucket_5: 86042
Critical_ROB_Stalls_Percent_5_Bucket_6: 2070996
Non-critical_ROB_Stalls_Percent_5_Bucket_6: 203641
Critical_ROB_Stalls_Percent_6_Bucket_0: 547670
Non-critical_ROB_Stalls_Percent_6_Bucket_0: 22165
Critical_ROB_Stalls_Percent_6_Bucket_1: 828978
Non-critical_ROB_Stalls_Percent_6_Bucket_1: 221623
Critical_ROB_Stalls_Percent_6_Bucket_2: 148731
Non-critical_ROB_Stalls_Percent_6_Bucket_2: 120808
Critical_ROB_Stalls_Percent_6_Bucket_3: 49171
Non-critical_ROB_Stalls_Percent_6_Bucket_3: 65898
Critical_ROB_Stalls_Percent_6_Bucket_4: 62231
Non-critical_ROB_Stalls_Percent_6_Bucket_4: 76795
Critical_ROB_Stalls_Percent_6_Bucket_5: 52086
Non-critical_ROB_Stalls_Percent_6_Bucket_5: 86042
Critical_ROB_Stalls_Percent_6_Bucket_6: 2070996
Non-critical_ROB_Stalls_Percent_6_Bucket_6: 203641
Critical_ROB_Stalls_Percent_7_Bucket_0: 549540
Non-critical_ROB_Stalls_Percent_7_Bucket_0: 20295
Critical_ROB_Stalls_Percent_7_Bucket_1: 853952
Non-critical_ROB_Stalls_Percent_7_Bucket_1: 196649
Critical_ROB_Stalls_Percent_7_Bucket_2: 169846
Non-critical_ROB_Stalls_Percent_7_Bucket_2: 99693
Critical_ROB_Stalls_Percent_7_Bucket_3: 70571
Non-critical_ROB_Stalls_Percent_7_Bucket_3: 44498
Critical_ROB_Stalls_Percent_7_Bucket_4: 91193
Non-critical_ROB_Stalls_Percent_7_Bucket_4: 47833
Critical_ROB_Stalls_Percent_7_Bucket_5: 88853
Non-critical_ROB_Stalls_Percent_7_Bucket_5: 49275
Critical_ROB_Stalls_Percent_7_Bucket_6: 2102129
Non-critical_ROB_Stalls_Percent_7_Bucket_6: 172508
Critical_ROB_Stalls_Percent_8_Bucket_0: 549862
Non-critical_ROB_Stalls_Percent_8_Bucket_0: 19973
Critical_ROB_Stalls_Percent_8_Bucket_1: 918609
Non-critical_ROB_Stalls_Percent_8_Bucket_1: 131992
Critical_ROB_Stalls_Percent_8_Bucket_2: 214638
Non-critical_ROB_Stalls_Percent_8_Bucket_2: 54901
Critical_ROB_Stalls_Percent_8_Bucket_3: 83381
Non-critical_ROB_Stalls_Percent_8_Bucket_3: 31688
Critical_ROB_Stalls_Percent_8_Bucket_4: 107556
Non-critical_ROB_Stalls_Percent_8_Bucket_4: 31470
Critical_ROB_Stalls_Percent_8_Bucket_5: 106200
Non-critical_ROB_Stalls_Percent_8_Bucket_5: 31928
Critical_ROB_Stalls_Percent_8_Bucket_6: 2127593
Non-critical_ROB_Stalls_Percent_8_Bucket_6: 147044
Average ROB occupancy Load Stall Begin: 213.476
Average ROB occupancy Load Stall End: 223.612
Min ROB occupancy Load Stall Begin: 3
Max ROB occupancy Load Stall Begin: 352
Min ROB occupancy Load Stall End: 3
Max ROB occupancy Load Stall End: 352
Average ROB occupancy Critical Load Stall Begin: -nan
Average ROB occupancy Critical Load Stall End: -nan
Min ROB occupancy Critical Load Stall Begin: 400
Max ROB occupancy Critical Load Stall Begin: 0
Min ROB occupancy Critical Load Stall End: 400
Max ROB occupancy Critical Load Stall End: 0
 ROB Load Stall Begin Bucket Count 0: 1054018
 ROB Load Stall End Bucket Count 0: 569835
 ROB Critical Load Stall Begin Bucket Count 0: 0
 ROB Critical Load Stall End Bucket Count 0: 0
 ROB Load Stall Begin Bucket Count 1: 735247
 ROB Load Stall End Bucket Count 1: 1050601
 ROB Critical Load Stall Begin Bucket Count 1: 0
 ROB Critical Load Stall End Bucket Count 1: 0
 ROB Load Stall Begin Bucket Count 2: 160054
 ROB Load Stall End Bucket Count 2: 269539
 ROB Critical Load Stall Begin Bucket Count 2: 0
 ROB Critical Load Stall End Bucket Count 2: 0
 ROB Load Stall Begin Bucket Count 3: 120966
 ROB Load Stall End Bucket Count 3: 115069
 ROB Critical Load Stall Begin Bucket Count 3: 0
 ROB Critical Load Stall End Bucket Count 3: 0
 ROB Load Stall Begin Bucket Count 4: 143655
 ROB Load Stall End Bucket Count 4: 139026
 ROB Critical Load Stall Begin Bucket Count 4: 0
 ROB Critical Load Stall End Bucket Count 4: 0
 ROB Load Stall Begin Bucket Count 5: 133341
 ROB Load Stall End Bucket Count 5: 138128
 ROB Critical Load Stall Begin Bucket Count 5: 0
 ROB Critical Load Stall End Bucket Count 5: 0
 ROB Load Stall Begin Bucket Count 6: 2209554
 ROB Load Stall End Bucket Count 6: 2274637
 ROB Critical Load Stall Begin Bucket Count 6: 0
 ROB Critical Load Stall End Bucket Count 6: 0
PIST Tag Read Accesses: 83046
PIST Read Accesses: 41523
PIST Tag Write Accesses: 83046
PIST Write Accesses: 41523
Criticality detector called times: 56925
Max global_stall_cycles_count: 364076
Threshold Modified: 0 times, factor: 0
Sturdy critical IP cache stats: 
 Unused entries: 0
CIC Tag Read Accesses: 0
CIC Read Accesses: 0
CIC Tag Write Accesses: 0
CIC Write Accesses: 0
Wobbly critical IP cache stats: 
 Unused entries: 101
CIC Tag Read Accesses: 315890327
CIC Read Accesses: 0
CIC Tag Write Accesses: 68
CIC Write Accesses: 0
ITLB TOTAL     ACCESS:   15084460  HIT:   15084460  MISS:          0  HIT %:        100  MISS %:          0   MPKI: 0
ITLB LOAD TRANSLATION ACCESS:   15084460  HIT:   15084460  MISS:          0  HIT %:        100  MISS %:          0   MPKI: 0
ITLB PREFETCH  REQUESTED:          0  ISSUED:          0  USEFUL:          0  USELESS:          0
ITLB USEFUL LOAD PREFETCHES:          0 PREFETCH ISSUED TO LOWER LEVEL:          0  ACCURACY: -nan
ITLB TIMELY PREFETCHES:          0 LATE PREFETCHES: 0 DROPPED PREFETCHES: 0
ITLB PREFETCHES SAME FILL-ORIGIN LEVEL: 0 DIFFERENT FILL-ORIGIN LEVEL: 0
ITLB AVERAGE MISS LATENCY: -nan cycles
ITLB RQ	ACCESS:   16165629	FORWARD:          0	MERGED:    1081170	TO_CACHE:   15084459

DTLB TOTAL     ACCESS:   25406816  HIT:   25358068  MISS:      48748  HIT %:    99.8081  MISS %:    0.19187   MPKI: 0.48748
DTLB LOAD TRANSLATION ACCESS:   25406816  HIT:   25358068  MISS:      48748  HIT %:    99.8081  MISS %:    0.19187   MPKI: 0.48748
DTLB PREFETCH  REQUESTED:          0  ISSUED:          0  USEFUL:          0  USELESS:          0
DTLB USEFUL LOAD PREFETCHES:          0 PREFETCH ISSUED TO LOWER LEVEL:          0  ACCURACY: -nan
DTLB TIMELY PREFETCHES:          0 LATE PREFETCHES: 0 DROPPED PREFETCHES: 0
DTLB PREFETCHES SAME FILL-ORIGIN LEVEL: 0 DIFFERENT FILL-ORIGIN LEVEL: 0
DTLB AVERAGE MISS LATENCY: 190.58 cycles
DTLB RQ	ACCESS:   28206554	FORWARD:          0	MERGED:    2750436	TO_CACHE:   25456118

STLB TOTAL     ACCESS:      48748  HIT:         41  MISS:      48707  HIT %:   0.084106  MISS %:    99.9159   MPKI: 0.48707
STLB LOAD TRANSLATION ACCESS:      48748  HIT:         41  MISS:      48707  HIT %:   0.084106  MISS %:    99.9159   MPKI: 0.48707
STLB PREFETCH  REQUESTED:          0  ISSUED:          0  USEFUL:          0  USELESS:          0
STLB USEFUL LOAD PREFETCHES:          0 PREFETCH ISSUED TO LOWER LEVEL:          0  ACCURACY: -nan
STLB TIMELY PREFETCHES:          0 LATE PREFETCHES: 0 DROPPED PREFETCHES: 0
STLB PREFETCHES SAME FILL-ORIGIN LEVEL: 0 DIFFERENT FILL-ORIGIN LEVEL: 0
STLB AVERAGE MISS LATENCY: 181.173 cycles
STLB RQ	ACCESS:      48748	FORWARD:          0	MERGED:          0	TO_CACHE:      48748

STLB Hit, L1D data hit: 0
STLB Hit, L2C data hit: 0
STLB Hit, LLC data hit: 0
STLB Hit, LLC data miss: 0
STLB STLB hints to L2: 0
L1D TOTAL     ACCESS:   23831780  HIT:   21649326  MISS:    2182454  HIT %:    90.8423  MISS %:    9.15775   MPKI: 21.8245
L1D LOAD      ACCESS:   22274736  HIT:   20774779  MISS:    1499957  HIT %:    93.2661  MISS %:    6.73389   MPKI: 14.9996
L1D RFO       ACCESS:    1557044  HIT:     874547  MISS:     682497  HIT %:    56.1671  MISS %:    43.8329   MPKI: 6.82497
L1D PREFETCH  REQUESTED:          0  ISSUED:          0  USEFUL:          0  USELESS:          0
L1D USEFUL LOAD PREFETCHES:          0 PREFETCH ISSUED TO LOWER LEVEL:          0  ACCURACY: -nan
L1D TIMELY PREFETCHES:          0 LATE PREFETCHES: 0 DROPPED PREFETCHES: 0
L1D PREFETCHES SAME FILL-ORIGIN LEVEL: 0 DIFFERENT FILL-ORIGIN LEVEL: 0
L1D AVERAGE MISS LATENCY: 129.046 cycles
L1D RQ	ACCESS:   37614365	FORWARD:          0	MERGED:   14836345	TO_CACHE:   22778020
L1D WQ	ACCESS:    5428534	FORWARD:          0	MERGED:          0	TO_CACHE:    5428534

L1D UNIQUE REGIONS ACCESSED: 0
L1D REGIONS CONFLICTS: 0
L1D Cross Page Prefetch Requests: 0
L1D Same Page Prefetch Requests: 0
L1D ROI Sum of L1D PQ occupancy: 0
L1D PREFETCHES PUSHED FROM L2C: 0
L1I TOTAL     ACCESS:   16165629  HIT:   16165629  MISS:          0  HIT %:        100  MISS %:          0   MPKI: 0
L1I LOAD      ACCESS:   16165629  HIT:   16165629  MISS:          0  HIT %:        100  MISS %:          0   MPKI: 0
L1I PREFETCH  REQUESTED:          0  ISSUED:          0  USEFUL:          0  USELESS:          0
L1I USEFUL LOAD PREFETCHES:          0 PREFETCH ISSUED TO LOWER LEVEL:          0  ACCURACY: -nan
L1I TIMELY PREFETCHES:          0 LATE PREFETCHES: 0 DROPPED PREFETCHES: 0
L1I PREFETCHES SAME FILL-ORIGIN LEVEL: 0 DIFFERENT FILL-ORIGIN LEVEL: 0
L1I AVERAGE MISS LATENCY: -nan cycles
L1I RQ	ACCESS:   25986088	FORWARD:          0	MERGED:    9820459	TO_CACHE:   16165629

BTB TOTAL     ACCESS:    5346355  HIT:    5346346  MISS:          9  HIT %:    99.9998  MISS %: 0.000168339   MPKI: 9e-05
BTB BRANCH_DIRECT_JUMP	ACCESS:          0  HIT:          0  MISS:          0
BTB BRANCH_INDIRECT	ACCESS:          0  HIT:          0  MISS:          0
BTB BRANCH_CONDITIONAL	ACCESS:    5346355  HIT:    5346346  MISS:          9
BTB BRANCH_DIRECT_CALL	ACCESS:          0  HIT:          0  MISS:          0
BTB BRANCH_INDIRECT_CALL	ACCESS:          0  HIT:          0  MISS:          0
BTB BRANCH_RETURN	ACCESS:          0  HIT:          0  MISS:          0
BTB BRANCH_OTHER ACCESS:          0  HIT:          0  MISS:          0

L2C TOTAL     ACCESS:    3858247  HIT:    1643688  MISS:    2214559  HIT %:    42.6019  MISS %:    57.3981   MPKI: 22.1456
L2C LOAD      ACCESS:    1499958  HIT:     934711  MISS:     565247  HIT %:    62.3158  MISS %:    37.6842   MPKI: 5.65247
L2C DATA LOAD MPKI: 5.65247
L2C INSTRUCTION LOAD MPKI: 0
L2C RFO       ACCESS:     682497  HIT:          0  MISS:     682497  HIT %:          0  MISS %:        100   MPKI: 6.82497
L2C PREFETCH  ACCESS:     944788  HIT:       1250  MISS:     943538  HIT %:   0.132305  MISS %:    99.8677   MPKI: 9.43538
L2C DATA PREFETCH MPKI: 9.43538
L2C INSTRUCTION PREFETCH MPKI: 0
L2C WRITEBACK ACCESS:     682232  HIT:     669077  MISS:      13155  HIT %:    98.0718  MISS %:    1.92823   MPKI: 0.13155
L2C LOAD TRANSLATION ACCESS:      48772  HIT:      38650  MISS:      10122  HIT %:    79.2463  MISS %:    20.7537   MPKI: 0.10122
L2C PREFETCH  REQUESTED:   10114311  ISSUED:    9171390  USEFUL:     934707  USELESS:       8821
L2C USEFUL LOAD PREFETCHES:     934707 PREFETCH ISSUED TO LOWER LEVEL:    9103685  ACCURACY: 10.2673
L2C TIMELY PREFETCHES:     934707 LATE PREFETCHES: 42492 DROPPED PREFETCHES: 0
L2C PREFETCHES SAME FILL-ORIGIN LEVEL: 986030 DIFFERENT FILL-ORIGIN LEVEL: 8117655
L2C AVERAGE MISS LATENCY: 130.227 cycles
L2C RQ	ACCESS:    2231233	FORWARD:          0	MERGED:          0	TO_CACHE:    2231233
L2C WQ	ACCESS:     682232	FORWARD:          0	MERGED:          0	TO_CACHE:     682232
L2C PQ	ACCESS:    9171390	FORWARD:          0	MERGED:      54040	TO_CACHE:    9117350

L2C Instructions Evicting Data 0
L2C Translations Evicting Data 10100
L2C Data Evicting Data 2181215
L2C Instructions Evicting Instructions 0
L2C Translations Evicting Instructions 0
L2C Data Evicting Instructions 0
L2C Instructions Evicting Translations 0
L2C Translations Evicting Translations 22
L2C Data Evicting Translations 10067
L2C Dense regions hint from L2: 0
PSCL5 TOTAL     ACCESS:      48707  HIT:      48707  MISS:          0  HIT %:        100  MISS %:          0   MPKI: 0
PSCL5 LOAD TRANSLATION ACCESS:      48707  HIT:      48707  MISS:          0  HIT %:        100  MISS %:          0   MPKI: 0
PSCL5 PREFETCH  REQUESTED:          0  ISSUED:          0  USEFUL:          0  USELESS:          0
PSCL5 USEFUL LOAD PREFETCHES:          0 PREFETCH ISSUED TO LOWER LEVEL:          0  ACCURACY: -nan
PSCL5 TIMELY PREFETCHES:          0 LATE PREFETCHES: 0 DROPPED PREFETCHES: 0
PSCL5 PREFETCHES SAME FILL-ORIGIN LEVEL: 0 DIFFERENT FILL-ORIGIN LEVEL: 0

PSCL4 TOTAL     ACCESS:      48707  HIT:      48707  MISS:          0  HIT %:        100  MISS %:          0   MPKI: 0
PSCL4 LOAD TRANSLATION ACCESS:      48707  HIT:      48707  MISS:          0  HIT %:        100  MISS %:          0   MPKI: 0
PSCL4 PREFETCH  REQUESTED:          0  ISSUED:          0  USEFUL:          0  USELESS:          0
PSCL4 USEFUL LOAD PREFETCHES:          0 PREFETCH ISSUED TO LOWER LEVEL:          0  ACCURACY: -nan
PSCL4 TIMELY PREFETCHES:          0 LATE PREFETCHES: 0 DROPPED PREFETCHES: 0
PSCL4 PREFETCHES SAME FILL-ORIGIN LEVEL: 0 DIFFERENT FILL-ORIGIN LEVEL: 0

PSCL3 TOTAL     ACCESS:      48707  HIT:      48707  MISS:          0  HIT %:        100  MISS %:          0   MPKI: 0
PSCL3 LOAD TRANSLATION ACCESS:      48707  HIT:      48707  MISS:          0  HIT %:        100  MISS %:          0   MPKI: 0
PSCL3 PREFETCH  REQUESTED:          0  ISSUED:          0  USEFUL:          0  USELESS:          0
PSCL3 USEFUL LOAD PREFETCHES:          0 PREFETCH ISSUED TO LOWER LEVEL:          0  ACCURACY: -nan
PSCL3 TIMELY PREFETCHES:          0 LATE PREFETCHES: 0 DROPPED PREFETCHES: 0
PSCL3 PREFETCHES SAME FILL-ORIGIN LEVEL: 0 DIFFERENT FILL-ORIGIN LEVEL: 0

PSCL2 TOTAL     ACCESS:      48707  HIT:      48570  MISS:        137  HIT %:    99.7187  MISS %:   0.281274   MPKI: 0.00137
PSCL2 LOAD TRANSLATION ACCESS:      48707  HIT:      48570  MISS:        137  HIT %:    99.7187  MISS %:   0.281274   MPKI: 0.00137
PSCL2 PREFETCH  REQUESTED:          0  ISSUED:          0  USEFUL:          0  USELESS:          0
PSCL2 USEFUL LOAD PREFETCHES:          0 PREFETCH ISSUED TO LOWER LEVEL:          0  ACCURACY: -nan
PSCL2 TIMELY PREFETCHES:          0 LATE PREFETCHES: 0 DROPPED PREFETCHES: 0
PSCL2 PREFETCHES SAME FILL-ORIGIN LEVEL: 0 DIFFERENT FILL-ORIGIN LEVEL: 0

LLC TOTAL     ACCESS:   10139711  HIT:    7750305  MISS:    2389406  HIT %:    76.4352  MISS %:    23.5648   MPKI: 23.8941
LLC LOAD      ACCESS:     522755  HIT:     453196  MISS:      69559  HIT %:    86.6938  MISS %:    13.3062   MPKI: 0.69559
LLC RFO       ACCESS:     682497  HIT:          0  MISS:     682497  HIT %:          0  MISS %:        100   MPKI: 6.82497
LLC PREFETCH  ACCESS:    8244185  HIT:    6737173  MISS:    1507012  HIT %:    81.7203  MISS %:    18.2797   MPKI: 15.0701
LLC WRITEBACK ACCESS:     680152  HIT:     559820  MISS:     120332  HIT %:    82.3081  MISS %:    17.6919   MPKI: 1.20332
LLC LOAD TRANSLATION ACCESS:      10122  HIT:        116  MISS:      10006  HIT %:    1.14602  MISS %:     98.854   MPKI: 0.10006
LLC PREFETCH  REQUESTED:          0  ISSUED:          0  USEFUL:     453193  USELESS:    1039454
LLC USEFUL LOAD PREFETCHES:     453193 PREFETCH ISSUED TO LOWER LEVEL:    1515625  ACCURACY: 29.9014
LLC TIMELY PREFETCHES:     453193 LATE PREFETCHES: 8610 DROPPED PREFETCHES: 0
LLC PREFETCHES SAME FILL-ORIGIN LEVEL: 1481353 DIFFERENT FILL-ORIGIN LEVEL: 0
LLC AVERAGE MISS LATENCY: 251.404 cycles
LLC RQ	ACCESS:    1215379	FORWARD:          0	MERGED:          0	TO_CACHE:    1215379
LLC WQ	ACCESS:     680153	FORWARD:          0	MERGED:          0	TO_CACHE:     680153
LLC PQ	ACCESS:    9103685	FORWARD:          0	MERGED:      13924	TO_CACHE:    9089761

LLC Dense regions hint to LLC: 0

RAW hits: 10
Loads Generated: 37614380
Loads sent to L1D: 37614365
Stores Generated: 5428535
Stores sent to L1D: 5428534
Major fault: 0 Minor fault: 32209
Allocated PAGES: 32209
 All Calls: 2248238
 Critical Calls: 1484929
------------------
Depth Distribution
------------------
depth 0: 0
depth 1: 1389973
depth 2: 1327837
depth 3: 1286643
depth 4: 1243287
depth 5: 1153040
depth 6: 940998
depth 7: 649535
depth 8: 470596
depth 9: 224298
depth 10: 169589
depth 11: 141114
depth 12: 97875
depth 13: 56241
depth 14: 10326
depth 15: 10038
depth 16: 0
depth 17: 0
depth 18: 0
depth 19: 0
depth 20: 0
depth 21: 0
depth 22: 0
depth 23: 0
depth 24: 0
depth 25: 0
depth 26: 0
depth 27: 0
depth 28: 0
depth 29: 0
Total: 9171390
-----------------------------
-----------------------------
	Captured at Filter
-----------------------------
depth 0: 0
depth 1: 7620
depth 2: 7184
depth 3: 7150
depth 4: 6866
depth 5: 6610
depth 6: 5473
depth 7: 3349
depth 8: 2478
depth 9: 1153
depth 10: 796
depth 11: 646
depth 12: 436
depth 13: 289
depth 14: 44
depth 15: 44
depth 16: 0
depth 17: 0
depth 18: 0
depth 19: 0
depth 20: 0
depth 21: 0
depth 22: 0
depth 23: 0
depth 24: 0
depth 25: 0
depth 26: 0
depth 27: 0
depth 28: 0
depth 29: 0
-----------------------------
-----------------------------
		Lost at Page
-----------------------------
depth 0: 0
depth 1: 22994
depth 2: 45854
depth 3: 68902
depth 4: 91637
depth 5: 111931
depth 6: 113069
depth 7: 89798
depth 8: 78695
depth 9: 47242
depth 10: 35391
depth 11: 32431
depth 12: 27666
depth 13: 17263
depth 14: 4549
depth 15: 4802
depth 16: 0
depth 17: 0
depth 18: 0
depth 19: 0
depth 20: 0
depth 21: 0
depth 22: 0
depth 23: 0
depth 24: 0
depth 25: 0
depth 26: 0
depth 27: 0
depth 28: 0
depth 29: 0
-----------------------------
-----------------------------
	Lost due to PQ Size
-----------------------------
942921
-----------------------------
ST read accesses: 1449006
ST write accesses: 35923
PT read accesses: 62123584
PT write accesses: 2156741
FILTER read accesses: 13863664
FILTER write accesses: 4184269
GHR read accesses: 3123578
GHR write accesses: 792224
GHR counter read accesses: 52679382
GHR counter write accesses: 3506256
ST tag read accesses: 588752273
ST tag write accesses: 16228558

DRAM Statistics
 CHANNEL 0
 RQ ROW_BUFFER_HIT:     451941  ROW_BUFFER_MISS:    1817133
 DBUS_CONGESTED:        396
 WQ ROW_BUFFER_HIT:     212134  ROW_BUFFER_MISS:     464955  FULL:          0

 AVG_CONGESTED_CYCLE: 3
 All warmup complete: 2
Channel 0 Bank busy for read cycles: 0
Channel 0 Bank busy for write cycles: 0
Channel 0
Rank 0
0banks busy for read cycles: 199136
0banks busy for write cycles: 52
1banks busy for read cycles: 16835363
1banks busy for write cycles: 195476
2banks busy for read cycles: 22982537
2banks busy for write cycles: 192537
3banks busy for read cycles: 16129346
3banks busy for write cycles: 188363
4banks busy for read cycles: 12410846
4banks busy for write cycles: 187098
5banks busy for read cycles: 6585836
5banks busy for write cycles: 193543
6banks busy for read cycles: 3997755
6banks busy for write cycles: 259696
7banks busy for read cycles: 3560798
7banks busy for write cycles: 1688100
8banks busy for read cycles: 7446308
8banks busy for write cycles: 19657402

CPU 0 Branch Prediction Accuracy: 99.8815% MPKI: 0.0634 Average ROB Occupancy at Mispredict: 219.203
Branch types
NOT_BRANCH: 94651514 94.6515%
BRANCH_DIRECT_JUMP: 0 0%
BRANCH_INDIRECT: 0 0%
BRANCH_CONDITIONAL: 5348417 5.34842%
BRANCH_DIRECT_CALL: 0 0%
BRANCH_INDIRECT_CALL: 0 0%
BRANCH_RETURN: 0 0%
BRANCH_OTHER: 0 0%

DRAM PAGES: 1048576
Allocated PAGES: 32209
