Initialize SIGNATURE TABLE
ST_SET: 1
ST_WAY: 256
ST_TAG_BIT: 16
ST_TAG_MASK: ffff

Initialize PATTERN TABLE
PT_SET: 512
PT_WAY: 4
SIG_DELTA_BIT: 7
C_SIG_BIT: 4
C_DELTA_BIT: 4

Initialize PREFETCH FILTER
FILTER_SET: 1024

*** ChampSim Multicore Out-of-Order Simulator ***

Warmup Instructions: 50000000
Simulation Instructions: 100000000
Number of CPUs: 1
LLC sets: 2048
LLC ways: 16
Off-chip DRAM Size: 4096 MB Channels: 1 Width: 64-bit Data Rate: 6400 MT/s
CPU 0 runs ../SPEC2017//654.roms_s-1007B.champsimtrace.xz
.xz
BTB has LRU replacement policy
ITLB has LRU replacement policy
DTLB has LRU replacement policy
STLB has LRU replacement policy
L1I has LRU replacement policy
L1D has LRU replacement policy
Initialize SRRIP state for L2C
Initialize DRRIP state for LLC
Heartbeat CPU 0 instructions: 10000000 cycles: 3018352 heartbeat IPC: 3.31307 cumulative IPC: 3.31307 (Simulation time: 0 hr 5 min 8 sec) 
Heartbeat CPU 0 instructions: 20000002 cycles: 6036440 heartbeat IPC: 3.31336 cumulative IPC: 3.31321 (Simulation time: 0 hr 9 min 49 sec) 
Heartbeat CPU 0 instructions: 30000000 cycles: 9054507 heartbeat IPC: 3.31338 cumulative IPC: 3.31327 (Simulation time: 0 hr 14 min 17 sec) 
Heartbeat CPU 0 instructions: 40000000 cycles: 12072670 heartbeat IPC: 3.31327 cumulative IPC: 3.31327 (Simulation time: 0 hr 18 min 46 sec) 
Heartbeat CPU 0 instructions: 50000003 cycles: 15207221 heartbeat IPC: 3.19025 cumulative IPC: 3.28791 (Simulation time: 0 hr 23 min 15 sec) 

Warmup complete CPU 0 instructions: 50000003 cycles: 15207221 (Simulation time: 0 hr 23 min 15 sec) 

Heartbeat CPU 0 instructions: 60000002 cycles: 41897222 heartbeat IPC: 0.374672 cumulative IPC: 0.374672 (Simulation time: 0 hr 29 min 31 sec) 
Heartbeat CPU 0 instructions: 70000000 cycles: 62299504 heartbeat IPC: 0.490141 cumulative IPC: 0.424698 (Simulation time: 0 hr 34 min 6 sec) 
Heartbeat CPU 0 instructions: 80000000 cycles: 82516334 heartbeat IPC: 0.494637 cumulative IPC: 0.445705 (Simulation time: 0 hr 38 min 30 sec) 
Heartbeat CPU 0 instructions: 90000000 cycles: 102641945 heartbeat IPC: 0.496879 cumulative IPC: 0.457484 (Simulation time: 0 hr 42 min 40 sec) 
Heartbeat CPU 0 instructions: 100000000 cycles: 122780990 heartbeat IPC: 0.496548 cumulative IPC: 0.464797 (Simulation time: 0 hr 46 min 35 sec) 
Heartbeat CPU 0 instructions: 110000000 cycles: 142907608 heartbeat IPC: 0.496854 cumulative IPC: 0.46985 (Simulation time: 0 hr 50 min 35 sec) 
Heartbeat CPU 0 instructions: 120000001 cycles: 165310602 heartbeat IPC: 0.446369 cumulative IPC: 0.466345 (Simulation time: 0 hr 55 min 3 sec) 
Heartbeat CPU 0 instructions: 130000002 cycles: 196336745 heartbeat IPC: 0.322309 cumulative IPC: 0.441673 (Simulation time: 1 hr 0 min 37 sec) 
Heartbeat CPU 0 instructions: 140000000 cycles: 216728622 heartbeat IPC: 0.490391 cumulative IPC: 0.446603 (Simulation time: 1 hr 3 min 54 sec) 
Heartbeat CPU 0 instructions: 150000000 cycles: 237054201 heartbeat IPC: 0.491991 cumulative IPC: 0.450761 (Simulation time: 1 hr 7 min 23 sec) 
Finished CPU 0 instructions: 100000001 cycles: 221846982 cumulative IPC: 0.450761 (Simulation time: 1 hr 7 min 23 sec) 

ChampSim completed all CPUs

Region of Interest Statistics

CPU 0 cumulative IPC: 0.450761 instructions: 100000001 cycles: 221846982

CPU 0 Average Load ROB stall cycles: 3.7746e+07
CPU 0 Fraction of times ROB stalled by Loads: 30.007
CPU 0 Percentage of Load stall cycles in Total stall cycles: 5.35996e+08
Issued all: 92281145
Issued LT all: 80359829
rob_not_full_when_issued_lt_all: 42868422
Issued LT one: 69625941
rob_not_full_when_issued_lt_one: 34263824
 Total stall cycles: 200279064
 Total load stall cycles: 1073487371276141
Unique Load IPs: 241
CPU 0 NUM of IPS identified critical: 0
CPU 0 Num of Load IPs stalling ROB: 0
Threshold modification factor: 0
Trouble in retire width: -nan
MaC = Marked as critical.
lt_50_percent_before_Mac: 0
gt_90_percent_before_Mac: 0
gt_75_percent_before_Mac: 0
gt_50_percent_before_Mac: 0
stall_proportion_bin_same_before_after: 0
stall_proportion_bin_lower_before_after: 0
stall_proportion_bin_upper_before_after: 0
average_stall_proportion_before: -nan
average_stall_proportion_after: -nan
Critical_IP_Detector_Accuracy_70: -nan
Critical_IP_Detector_Accuracy_80: -nan
Critical_IP_Detector_Accuracy_90: -nan
Critical_IP_Detector_Coverage_70: 0
Critical_IP_Detector_Coverage_80: 0
Critical_IP_Detector_Coverage_90: 0
stat_90_percent_critical_ip_stalls_freq: 705922
stat_90_percent_non_critical_ip_stalls_freq: 18446744073708845694
AVERAGE_ROB_Occupancy_90_Percent_Critical_IP_Stalls: 67.7069
AVERAGE_ROB_Occupancy_90_Percent_Non_Critical_IP_Stalls: 2.94793e-11
Critical_IP_ROB_Stalls_Bucket_0: 0
Non-critical_IP_ROB_Stalls_Bucket_0: 3462561
Critical_IP_ROB_Stalls_Bucket_1: 0
Non-critical_IP_ROB_Stalls_Bucket_1: 4506721
Critical_IP_ROB_Stalls_Bucket_2: 0
Non-critical_IP_ROB_Stalls_Bucket_2: 83775
Critical_IP_ROB_Stalls_Bucket_3: 0
Non-critical_IP_ROB_Stalls_Bucket_3: 17231
Critical_IP_ROB_Stalls_Bucket_4: 0
Non-critical_IP_ROB_Stalls_Bucket_4: 14191
Critical_IP_ROB_Stalls_Bucket_5: 0
Non-critical_IP_ROB_Stalls_Bucket_5: 17584
Critical_IP_ROB_Stalls_Bucket_6: 0
Non-critical_IP_ROB_Stalls_Bucket_6: 431861
0 => IPs accounting for >50 percent of stalls, 1 => 55, 2 => 60, 3 => 65 and so on till 90.
percent50: inf num IPs:  1
percent55: inf num IPs: 1
percent60: inf num IPs: 1
percent65: inf num IPs: 1
percent70: inf num IPs: 1
percent75: inf num IPs: 1
percent80: inf num IPs: 1
percent85: inf num IPs: 1
percent90: inf num IPs: 1
Critical_ROB_Stalls_Percent_0_Bucket_0: 240194
Non-critical_ROB_Stalls_Percent_0_Bucket_0: 3222367
Critical_ROB_Stalls_Percent_0_Bucket_1: 465727
Non-critical_ROB_Stalls_Percent_0_Bucket_1: 4040994
Critical_ROB_Stalls_Percent_0_Bucket_2: 0
Non-critical_ROB_Stalls_Percent_0_Bucket_2: 83775
Critical_ROB_Stalls_Percent_0_Bucket_3: 1
Non-critical_ROB_Stalls_Percent_0_Bucket_3: 17230
Critical_ROB_Stalls_Percent_0_Bucket_4: 0
Non-critical_ROB_Stalls_Percent_0_Bucket_4: 14191
Critical_ROB_Stalls_Percent_0_Bucket_5: 0
Non-critical_ROB_Stalls_Percent_0_Bucket_5: 17584
Critical_ROB_Stalls_Percent_0_Bucket_6: 0
Non-critical_ROB_Stalls_Percent_0_Bucket_6: 431861
Critical_ROB_Stalls_Percent_1_Bucket_0: 240194
Non-critical_ROB_Stalls_Percent_1_Bucket_0: 3222367
Critical_ROB_Stalls_Percent_1_Bucket_1: 465727
Non-critical_ROB_Stalls_Percent_1_Bucket_1: 4040994
Critical_ROB_Stalls_Percent_1_Bucket_2: 0
Non-critical_ROB_Stalls_Percent_1_Bucket_2: 83775
Critical_ROB_Stalls_Percent_1_Bucket_3: 1
Non-critical_ROB_Stalls_Percent_1_Bucket_3: 17230
Critical_ROB_Stalls_Percent_1_Bucket_4: 0
Non-critical_ROB_Stalls_Percent_1_Bucket_4: 14191
Critical_ROB_Stalls_Percent_1_Bucket_5: 0
Non-critical_ROB_Stalls_Percent_1_Bucket_5: 17584
Critical_ROB_Stalls_Percent_1_Bucket_6: 0
Non-critical_ROB_Stalls_Percent_1_Bucket_6: 431861
Critical_ROB_Stalls_Percent_2_Bucket_0: 240194
Non-critical_ROB_Stalls_Percent_2_Bucket_0: 3222367
Critical_ROB_Stalls_Percent_2_Bucket_1: 465727
Non-critical_ROB_Stalls_Percent_2_Bucket_1: 4040994
Critical_ROB_Stalls_Percent_2_Bucket_2: 0
Non-critical_ROB_Stalls_Percent_2_Bucket_2: 83775
Critical_ROB_Stalls_Percent_2_Bucket_3: 1
Non-critical_ROB_Stalls_Percent_2_Bucket_3: 17230
Critical_ROB_Stalls_Percent_2_Bucket_4: 0
Non-critical_ROB_Stalls_Percent_2_Bucket_4: 14191
Critical_ROB_Stalls_Percent_2_Bucket_5: 0
Non-critical_ROB_Stalls_Percent_2_Bucket_5: 17584
Critical_ROB_Stalls_Percent_2_Bucket_6: 0
Non-critical_ROB_Stalls_Percent_2_Bucket_6: 431861
Critical_ROB_Stalls_Percent_3_Bucket_0: 240194
Non-critical_ROB_Stalls_Percent_3_Bucket_0: 3222367
Critical_ROB_Stalls_Percent_3_Bucket_1: 465727
Non-critical_ROB_Stalls_Percent_3_Bucket_1: 4040994
Critical_ROB_Stalls_Percent_3_Bucket_2: 0
Non-critical_ROB_Stalls_Percent_3_Bucket_2: 83775
Critical_ROB_Stalls_Percent_3_Bucket_3: 1
Non-critical_ROB_Stalls_Percent_3_Bucket_3: 17230
Critical_ROB_Stalls_Percent_3_Bucket_4: 0
Non-critical_ROB_Stalls_Percent_3_Bucket_4: 14191
Critical_ROB_Stalls_Percent_3_Bucket_5: 0
Non-critical_ROB_Stalls_Percent_3_Bucket_5: 17584
Critical_ROB_Stalls_Percent_3_Bucket_6: 0
Non-critical_ROB_Stalls_Percent_3_Bucket_6: 431861
Critical_ROB_Stalls_Percent_4_Bucket_0: 240194
Non-critical_ROB_Stalls_Percent_4_Bucket_0: 3222367
Critical_ROB_Stalls_Percent_4_Bucket_1: 465727
Non-critical_ROB_Stalls_Percent_4_Bucket_1: 4040994
Critical_ROB_Stalls_Percent_4_Bucket_2: 0
Non-critical_ROB_Stalls_Percent_4_Bucket_2: 83775
Critical_ROB_Stalls_Percent_4_Bucket_3: 1
Non-critical_ROB_Stalls_Percent_4_Bucket_3: 17230
Critical_ROB_Stalls_Percent_4_Bucket_4: 0
Non-critical_ROB_Stalls_Percent_4_Bucket_4: 14191
Critical_ROB_Stalls_Percent_4_Bucket_5: 0
Non-critical_ROB_Stalls_Percent_4_Bucket_5: 17584
Critical_ROB_Stalls_Percent_4_Bucket_6: 0
Non-critical_ROB_Stalls_Percent_4_Bucket_6: 431861
Critical_ROB_Stalls_Percent_5_Bucket_0: 240194
Non-critical_ROB_Stalls_Percent_5_Bucket_0: 3222367
Critical_ROB_Stalls_Percent_5_Bucket_1: 465727
Non-critical_ROB_Stalls_Percent_5_Bucket_1: 4040994
Critical_ROB_Stalls_Percent_5_Bucket_2: 0
Non-critical_ROB_Stalls_Percent_5_Bucket_2: 83775
Critical_ROB_Stalls_Percent_5_Bucket_3: 1
Non-critical_ROB_Stalls_Percent_5_Bucket_3: 17230
Critical_ROB_Stalls_Percent_5_Bucket_4: 0
Non-critical_ROB_Stalls_Percent_5_Bucket_4: 14191
Critical_ROB_Stalls_Percent_5_Bucket_5: 0
Non-critical_ROB_Stalls_Percent_5_Bucket_5: 17584
Critical_ROB_Stalls_Percent_5_Bucket_6: 0
Non-critical_ROB_Stalls_Percent_5_Bucket_6: 431861
Critical_ROB_Stalls_Percent_6_Bucket_0: 240194
Non-critical_ROB_Stalls_Percent_6_Bucket_0: 3222367
Critical_ROB_Stalls_Percent_6_Bucket_1: 465727
Non-critical_ROB_Stalls_Percent_6_Bucket_1: 4040994
Critical_ROB_Stalls_Percent_6_Bucket_2: 0
Non-critical_ROB_Stalls_Percent_6_Bucket_2: 83775
Critical_ROB_Stalls_Percent_6_Bucket_3: 1
Non-critical_ROB_Stalls_Percent_6_Bucket_3: 17230
Critical_ROB_Stalls_Percent_6_Bucket_4: 0
Non-critical_ROB_Stalls_Percent_6_Bucket_4: 14191
Critical_ROB_Stalls_Percent_6_Bucket_5: 0
Non-critical_ROB_Stalls_Percent_6_Bucket_5: 17584
Critical_ROB_Stalls_Percent_6_Bucket_6: 0
Non-critical_ROB_Stalls_Percent_6_Bucket_6: 431861
Critical_ROB_Stalls_Percent_7_Bucket_0: 240194
Non-critical_ROB_Stalls_Percent_7_Bucket_0: 3222367
Critical_ROB_Stalls_Percent_7_Bucket_1: 465727
Non-critical_ROB_Stalls_Percent_7_Bucket_1: 4040994
Critical_ROB_Stalls_Percent_7_Bucket_2: 0
Non-critical_ROB_Stalls_Percent_7_Bucket_2: 83775
Critical_ROB_Stalls_Percent_7_Bucket_3: 1
Non-critical_ROB_Stalls_Percent_7_Bucket_3: 17230
Critical_ROB_Stalls_Percent_7_Bucket_4: 0
Non-critical_ROB_Stalls_Percent_7_Bucket_4: 14191
Critical_ROB_Stalls_Percent_7_Bucket_5: 0
Non-critical_ROB_Stalls_Percent_7_Bucket_5: 17584
Critical_ROB_Stalls_Percent_7_Bucket_6: 0
Non-critical_ROB_Stalls_Percent_7_Bucket_6: 431861
Critical_ROB_Stalls_Percent_8_Bucket_0: 240194
Non-critical_ROB_Stalls_Percent_8_Bucket_0: 3222367
Critical_ROB_Stalls_Percent_8_Bucket_1: 465727
Non-critical_ROB_Stalls_Percent_8_Bucket_1: 4040994
Critical_ROB_Stalls_Percent_8_Bucket_2: 0
Non-critical_ROB_Stalls_Percent_8_Bucket_2: 83775
Critical_ROB_Stalls_Percent_8_Bucket_3: 1
Non-critical_ROB_Stalls_Percent_8_Bucket_3: 17230
Critical_ROB_Stalls_Percent_8_Bucket_4: 0
Non-critical_ROB_Stalls_Percent_8_Bucket_4: 14191
Critical_ROB_Stalls_Percent_8_Bucket_5: 0
Non-critical_ROB_Stalls_Percent_8_Bucket_5: 17584
Critical_ROB_Stalls_Percent_8_Bucket_6: 0
Non-critical_ROB_Stalls_Percent_8_Bucket_6: 431861
Average ROB occupancy Load Stall Begin: 62.7207
Average ROB occupancy Load Stall End: 69.3225
Min ROB occupancy Load Stall Begin: 1
Max ROB occupancy Load Stall Begin: 352
Min ROB occupancy Load Stall End: 1
Max ROB occupancy Load Stall End: 352
Average ROB occupancy Critical Load Stall Begin: -nan
Average ROB occupancy Critical Load Stall End: -nan
Min ROB occupancy Critical Load Stall Begin: 400
Max ROB occupancy Critical Load Stall Begin: 0
Min ROB occupancy Critical Load Stall End: 400
Max ROB occupancy Critical Load Stall End: 0
 ROB Load Stall Begin Bucket Count 0: 4202999
 ROB Load Stall End Bucket Count 0: 3462561
 ROB Critical Load Stall Begin Bucket Count 0: 0
 ROB Critical Load Stall End Bucket Count 0: 0
 ROB Load Stall Begin Bucket Count 1: 3837906
 ROB Load Stall End Bucket Count 1: 4506721
 ROB Critical Load Stall Begin Bucket Count 1: 0
 ROB Critical Load Stall End Bucket Count 1: 0
 ROB Load Stall Begin Bucket Count 2: 24180
 ROB Load Stall End Bucket Count 2: 83775
 ROB Critical Load Stall Begin Bucket Count 2: 0
 ROB Critical Load Stall End Bucket Count 2: 0
 ROB Load Stall Begin Bucket Count 3: 14616
 ROB Load Stall End Bucket Count 3: 17231
 ROB Critical Load Stall Begin Bucket Count 3: 0
 ROB Critical Load Stall End Bucket Count 3: 0
 ROB Load Stall Begin Bucket Count 4: 13769
 ROB Load Stall End Bucket Count 4: 14191
 ROB Critical Load Stall Begin Bucket Count 4: 0
 ROB Critical Load Stall End Bucket Count 4: 0
 ROB Load Stall Begin Bucket Count 5: 56409
 ROB Load Stall End Bucket Count 5: 17584
 ROB Critical Load Stall Begin Bucket Count 5: 0
 ROB Critical Load Stall End Bucket Count 5: 0
 ROB Load Stall Begin Bucket Count 6: 384045
 ROB Load Stall End Bucket Count 6: 431861
 ROB Critical Load Stall Begin Bucket Count 6: 0
 ROB Critical Load Stall End Bucket Count 6: 0
PIST Tag Read Accesses: 0
PIST Read Accesses: 0
PIST Tag Write Accesses: 0
PIST Write Accesses: 0
Criticality detector called times: 0
Max global_stall_cycles_count: 0
Threshold Modified: 0 times, factor: 0
Sturdy critical IP cache stats: 
 Unused entries: 0
CIC Tag Read Accesses: 0
CIC Read Accesses: 0
CIC Tag Write Accesses: 0
CIC Write Accesses: 0
Wobbly critical IP cache stats: 
 Unused entries: 24
CIC Tag Read Accesses: 296020992
CIC Read Accesses: 0
CIC Tag Write Accesses: 36200
CIC Write Accesses: 0
ITLB TOTAL     ACCESS:   17053267  HIT:   17053265  MISS:          2  HIT %:        100  MISS %: 1.1728e-05   MPKI: 2e-05
ITLB LOAD TRANSLATION ACCESS:   17053267  HIT:   17053265  MISS:          2  HIT %:        100  MISS %: 1.1728e-05   MPKI: 2e-05
ITLB PREFETCH  REQUESTED:          0  ISSUED:          0  USEFUL:          0  USELESS:          0
ITLB USEFUL LOAD PREFETCHES:          0 PREFETCH ISSUED TO LOWER LEVEL:          0  ACCURACY: -nan
ITLB TIMELY PREFETCHES:          0 LATE PREFETCHES: 0 DROPPED PREFETCHES: 0
ITLB PREFETCHES SAME FILL-ORIGIN LEVEL: 0 DIFFERENT FILL-ORIGIN LEVEL: 0
ITLB AVERAGE MISS LATENCY: 325.5 cycles
ITLB RQ	ACCESS:   21405175	FORWARD:          0	MERGED:    4351909	TO_CACHE:   17053266

DTLB TOTAL     ACCESS:   27709160  HIT:   27691973  MISS:      17187  HIT %:     99.938  MISS %:  0.0620264   MPKI: 0.17187
DTLB LOAD TRANSLATION ACCESS:   27709160  HIT:   27691973  MISS:      17187  HIT %:     99.938  MISS %:  0.0620264   MPKI: 0.17187
DTLB PREFETCH  REQUESTED:          0  ISSUED:          0  USEFUL:          0  USELESS:          0
DTLB USEFUL LOAD PREFETCHES:          0 PREFETCH ISSUED TO LOWER LEVEL:          0  ACCURACY: -nan
DTLB TIMELY PREFETCHES:          0 LATE PREFETCHES: 0 DROPPED PREFETCHES: 0
DTLB PREFETCHES SAME FILL-ORIGIN LEVEL: 0 DIFFERENT FILL-ORIGIN LEVEL: 0
DTLB AVERAGE MISS LATENCY: 130.684 cycles
DTLB RQ	ACCESS:   30821784	FORWARD:          0	MERGED:    3100440	TO_CACHE:   27721344

STLB TOTAL     ACCESS:      17189  HIT:        416  MISS:      16773  HIT %:    2.42015  MISS %:    97.5798   MPKI: 0.16773
STLB LOAD TRANSLATION ACCESS:      17189  HIT:        416  MISS:      16773  HIT %:    2.42015  MISS %:    97.5798   MPKI: 0.16773
STLB PREFETCH  REQUESTED:          0  ISSUED:          0  USEFUL:          0  USELESS:          0
STLB USEFUL LOAD PREFETCHES:          0 PREFETCH ISSUED TO LOWER LEVEL:          0  ACCURACY: -nan
STLB TIMELY PREFETCHES:          0 LATE PREFETCHES: 0 DROPPED PREFETCHES: 0
STLB PREFETCHES SAME FILL-ORIGIN LEVEL: 0 DIFFERENT FILL-ORIGIN LEVEL: 0
STLB AVERAGE MISS LATENCY: 124.542 cycles
STLB RQ	ACCESS:      17189	FORWARD:          0	MERGED:          0	TO_CACHE:      17189

STLB Hit, L1D data hit: 0
STLB Hit, L2C data hit: 0
STLB Hit, LLC data hit: 0
STLB Hit, LLC data miss: 0
STLB STLB hints to L2: 0
L1D TOTAL     ACCESS:   29694641  HIT:   29001831  MISS:     692810  HIT %:    97.6669  MISS %:    2.33311   MPKI: 6.9281
L1D LOAD      ACCESS:   18541868  HIT:   18087371  MISS:     454497  HIT %:    97.5488  MISS %:    2.45119   MPKI: 4.54497
L1D RFO       ACCESS:   11152773  HIT:   10914460  MISS:     238313  HIT %:    97.8632  MISS %:     2.1368   MPKI: 2.38313
L1D PREFETCH  REQUESTED:          0  ISSUED:          0  USEFUL:          0  USELESS:          0
L1D USEFUL LOAD PREFETCHES:          0 PREFETCH ISSUED TO LOWER LEVEL:          0  ACCURACY: -nan
L1D TIMELY PREFETCHES:          0 LATE PREFETCHES: 0 DROPPED PREFETCHES: 0
L1D PREFETCHES SAME FILL-ORIGIN LEVEL: 0 DIFFERENT FILL-ORIGIN LEVEL: 0
L1D AVERAGE MISS LATENCY: 241.579 cycles
L1D RQ	ACCESS:   24419160	FORWARD:          0	MERGED:    5354519	TO_CACHE:   19051082
L1D WQ	ACCESS:   12476628	FORWARD:      13559	MERGED:     705926	TO_CACHE:   11770702

L1D UNIQUE REGIONS ACCESSED: 0
L1D REGIONS CONFLICTS: 0
L1D Cross Page Prefetch Requests: 0
L1D Same Page Prefetch Requests: 0
L1D ROI Sum of L1D PQ occupancy: 0
L1D PREFETCHES PUSHED FROM L2C: 0
L1I TOTAL     ACCESS:   21405165  HIT:   21405129  MISS:         36  HIT %:    99.9998  MISS %: 0.000168184   MPKI: 0.00036
L1I LOAD      ACCESS:   21405165  HIT:   21405129  MISS:         36  HIT %:    99.9998  MISS %: 0.000168184   MPKI: 0.00036
L1I PREFETCH  REQUESTED:          0  ISSUED:          0  USEFUL:          0  USELESS:          0
L1I USEFUL LOAD PREFETCHES:          0 PREFETCH ISSUED TO LOWER LEVEL:          0  ACCURACY: -nan
L1I TIMELY PREFETCHES:          0 LATE PREFETCHES: 0 DROPPED PREFETCHES: 0
L1I PREFETCHES SAME FILL-ORIGIN LEVEL: 0 DIFFERENT FILL-ORIGIN LEVEL: 0
L1I AVERAGE MISS LATENCY: 232.417 cycles
L1I RQ	ACCESS:   28678436	FORWARD:          0	MERGED:    7273261	TO_CACHE:   21405175

BTB TOTAL     ACCESS:    6508269  HIT:    5802287  MISS:     705982  HIT %:    89.1525  MISS %:    10.8475   MPKI: 7.05982
BTB BRANCH_DIRECT_JUMP	ACCESS:     705946  HIT:     705938  MISS:          8
BTB BRANCH_INDIRECT	ACCESS:          0  HIT:          0  MISS:          0
BTB BRANCH_CONDITIONAL	ACCESS:    2978604  HIT:    2978573  MISS:         31
BTB BRANCH_DIRECT_CALL	ACCESS:    1411860  HIT:    1411850  MISS:         10
BTB BRANCH_INDIRECT_CALL	ACCESS:          0  HIT:          0  MISS:          0
BTB BRANCH_RETURN	ACCESS:    1411859  HIT:     705926  MISS:     705933
BTB BRANCH_OTHER ACCESS:          0  HIT:          0  MISS:          0

L2C TOTAL     ACCESS:     947832  HIT:     249996  MISS:     697836  HIT %:    26.3756  MISS %:    73.6244   MPKI: 6.97836
L2C LOAD      ACCESS:     454533  HIT:          7  MISS:     454526  HIT %: 0.00154004  MISS %:    99.9985   MPKI: 4.54526
L2C DATA LOAD MPKI: 4.5449
L2C INSTRUCTION LOAD MPKI: 0.00036
L2C RFO       ACCESS:     238313  HIT:          0  MISS:     238313  HIT %:          0  MISS %:        100   MPKI: 2.38313
L2C WRITEBACK ACCESS:     238160  HIT:     236759  MISS:       1401  HIT %:    99.4117  MISS %:    0.58826   MPKI: 0.01401
L2C LOAD TRANSLATION ACCESS:      16826  HIT:      13230  MISS:       3596  HIT %:    78.6283  MISS %:    21.3717   MPKI: 0.03596
L2C PREFETCH  REQUESTED:          7  ISSUED:          7  USEFUL:          0  USELESS:          6
L2C USEFUL LOAD PREFETCHES:          0 PREFETCH ISSUED TO LOWER LEVEL:          7  ACCURACY: 0
L2C TIMELY PREFETCHES:          0 LATE PREFETCHES: 0 DROPPED PREFETCHES: 0
L2C PREFETCHES SAME FILL-ORIGIN LEVEL: 0 DIFFERENT FILL-ORIGIN LEVEL: 7
L2C AVERAGE MISS LATENCY: 225.799 cycles
L2C RQ	ACCESS:     709672	FORWARD:          0	MERGED:          0	TO_CACHE:     709672
L2C WQ	ACCESS:     238160	FORWARD:          0	MERGED:          0	TO_CACHE:     238160
L2C PQ	ACCESS:          7	FORWARD:          0	MERGED:          0	TO_CACHE:          7

L2C Instructions Evicting Data 36
L2C Translations Evicting Data 3577
L2C Data Evicting Data 689188
L2C Instructions Evicting Instructions 0
L2C Translations Evicting Instructions 0
L2C Data Evicting Instructions 36
L2C Instructions Evicting Translations 0
L2C Translations Evicting Translations 19
L2C Data Evicting Translations 3579
L2C Dense regions hint from L2: 0
PSCL5 TOTAL     ACCESS:      16773  HIT:      16773  MISS:          0  HIT %:        100  MISS %:          0   MPKI: 0
PSCL5 LOAD TRANSLATION ACCESS:      16773  HIT:      16773  MISS:          0  HIT %:        100  MISS %:          0   MPKI: 0
PSCL5 PREFETCH  REQUESTED:          0  ISSUED:          0  USEFUL:          0  USELESS:          0
PSCL5 USEFUL LOAD PREFETCHES:          0 PREFETCH ISSUED TO LOWER LEVEL:          0  ACCURACY: -nan
PSCL5 TIMELY PREFETCHES:          0 LATE PREFETCHES: 0 DROPPED PREFETCHES: 0
PSCL5 PREFETCHES SAME FILL-ORIGIN LEVEL: 0 DIFFERENT FILL-ORIGIN LEVEL: 0

PSCL4 TOTAL     ACCESS:      16773  HIT:      16773  MISS:          0  HIT %:        100  MISS %:          0   MPKI: 0
PSCL4 LOAD TRANSLATION ACCESS:      16773  HIT:      16773  MISS:          0  HIT %:        100  MISS %:          0   MPKI: 0
PSCL4 PREFETCH  REQUESTED:          0  ISSUED:          0  USEFUL:          0  USELESS:          0
PSCL4 USEFUL LOAD PREFETCHES:          0 PREFETCH ISSUED TO LOWER LEVEL:          0  ACCURACY: -nan
PSCL4 TIMELY PREFETCHES:          0 LATE PREFETCHES: 0 DROPPED PREFETCHES: 0
PSCL4 PREFETCHES SAME FILL-ORIGIN LEVEL: 0 DIFFERENT FILL-ORIGIN LEVEL: 0

PSCL3 TOTAL     ACCESS:      16423  HIT:      16417  MISS:          6  HIT %:    99.9635  MISS %:  0.0365341   MPKI: 6e-05
PSCL3 LOAD TRANSLATION ACCESS:      16423  HIT:      16417  MISS:          6  HIT %:    99.9635  MISS %:  0.0365341   MPKI: 6e-05
PSCL3 PREFETCH  REQUESTED:          0  ISSUED:          0  USEFUL:          0  USELESS:          0
PSCL3 USEFUL LOAD PREFETCHES:          0 PREFETCH ISSUED TO LOWER LEVEL:          0  ACCURACY: -nan
PSCL3 TIMELY PREFETCHES:          0 LATE PREFETCHES: 0 DROPPED PREFETCHES: 0
PSCL3 PREFETCHES SAME FILL-ORIGIN LEVEL: 0 DIFFERENT FILL-ORIGIN LEVEL: 0

PSCL2 TOTAL     ACCESS:      16773  HIT:      16697  MISS:         76  HIT %:    99.5469  MISS %:   0.453109   MPKI: 0.00076
PSCL2 LOAD TRANSLATION ACCESS:      16773  HIT:      16697  MISS:         76  HIT %:    99.5469  MISS %:   0.453109   MPKI: 0.00076
PSCL2 PREFETCH  REQUESTED:          0  ISSUED:          0  USEFUL:          0  USELESS:          0
PSCL2 USEFUL LOAD PREFETCHES:          0 PREFETCH ISSUED TO LOWER LEVEL:          0  ACCURACY: -nan
PSCL2 TIMELY PREFETCHES:          0 LATE PREFETCHES: 0 DROPPED PREFETCHES: 0
PSCL2 PREFETCHES SAME FILL-ORIGIN LEVEL: 0 DIFFERENT FILL-ORIGIN LEVEL: 0

LLC TOTAL     ACCESS:     933791  HIT:     230237  MISS:     703554  HIT %:    24.6562  MISS %:    75.3438   MPKI: 7.03554
LLC LOAD      ACCESS:     454526  HIT:        394  MISS:     454132  HIT %:  0.0866837  MISS %:    99.9133   MPKI: 4.54132
LLC RFO       ACCESS:     238313  HIT:          0  MISS:     238313  HIT %:          0  MISS %:        100   MPKI: 2.38313
LLC PREFETCH  ACCESS:          7  HIT:          0  MISS:          7  HIT %:          0  MISS %:        100   MPKI: 7e-05
LLC WRITEBACK ACCESS:     237349  HIT:     229823  MISS:       7526  HIT %:    96.8291  MISS %:    3.17086   MPKI: 0.07526
LLC LOAD TRANSLATION ACCESS:       3596  HIT:         20  MISS:       3576  HIT %:   0.556174  MISS %:    99.4438   MPKI: 0.03576
LLC PREFETCH  REQUESTED:          0  ISSUED:          0  USEFUL:         19  USELESS:       4184
LLC USEFUL LOAD PREFETCHES:         19 PREFETCH ISSUED TO LOWER LEVEL:          7  ACCURACY: 271.429
LLC TIMELY PREFETCHES:         19 LATE PREFETCHES: 0 DROPPED PREFETCHES: 0
LLC PREFETCHES SAME FILL-ORIGIN LEVEL: 7 DIFFERENT FILL-ORIGIN LEVEL: 0
LLC AVERAGE MISS LATENCY: 193.894 cycles
LLC RQ	ACCESS:     696435	FORWARD:          0	MERGED:          0	TO_CACHE:     696435
LLC WQ	ACCESS:     237349	FORWARD:          0	MERGED:          0	TO_CACHE:     237349
LLC PQ	ACCESS:          7	FORWARD:          0	MERGED:          0	TO_CACHE:          7

LLC Dense regions hint to LLC: 0

RAW hits: 2925510
Loads Generated: 27344671
Loads sent to L1D: 24419160
Stores Generated: 12476623
Stores sent to L1D: 12476628
Major fault: 0 Minor fault: 14234
Allocated PAGES: 14234
 All Calls: 634218
 Critical Calls: 122826
------------------
Depth Distribution
------------------
depth 0: 0
depth 1: 129276
depth 2: 107492
depth 3: 75659
depth 4: 30834
depth 5: 4882
depth 6: 76
depth 7: 13
depth 8: 3
depth 9: 0
depth 10: 0
depth 11: 0
depth 12: 0
depth 13: 0
depth 14: 0
depth 15: 0
depth 16: 0
depth 17: 0
depth 18: 0
depth 19: 0
depth 20: 0
depth 21: 0
depth 22: 0
depth 23: 0
depth 24: 0
depth 25: 0
depth 26: 0
depth 27: 0
depth 28: 0
depth 29: 0
Total: 348235
-----------------------------
-----------------------------
	Captured at Filter
-----------------------------
depth 0: 0
depth 1: 366
depth 2: 154
depth 3: 100
depth 4: 48
depth 5: 9
depth 6: 1
depth 7: 1
depth 8: 0
depth 9: 0
depth 10: 0
depth 11: 0
depth 12: 0
depth 13: 0
depth 14: 0
depth 15: 0
depth 16: 0
depth 17: 0
depth 18: 0
depth 19: 0
depth 20: 0
depth 21: 0
depth 22: 0
depth 23: 0
depth 24: 0
depth 25: 0
depth 26: 0
depth 27: 0
depth 28: 0
depth 29: 0
-----------------------------
-----------------------------
		Lost at Page
-----------------------------
depth 0: 0
depth 1: 2810
depth 2: 4504
depth 3: 4540
depth 4: 2472
depth 5: 518
depth 6: 11
depth 7: 7
depth 8: 2
depth 9: 0
depth 10: 0
depth 11: 0
depth 12: 0
depth 13: 0
depth 14: 0
depth 15: 0
depth 16: 0
depth 17: 0
depth 18: 0
depth 19: 0
depth 20: 0
depth 21: 0
depth 22: 0
depth 23: 0
depth 24: 0
depth 25: 0
depth 26: 0
depth 27: 0
depth 28: 0
depth 29: 0
-----------------------------
-----------------------------
	Lost due to PQ Size
-----------------------------
5
-----------------------------
ST read accesses: 3
ST write accesses: 0
PT read accesses: 52
PT write accesses: 7
FILTER read accesses: 697846
FILTER write accesses: 697836
GHR read accesses: 0
GHR write accesses: 0
GHR counter read accesses: 46
GHR counter write accesses: 16
ST tag read accesses: 1250
ST tag write accesses: 17

DRAM Statistics
 CHANNEL 0
 RQ ROW_BUFFER_HIT:     153537  ROW_BUFFER_MISS:     542491
 DBUS_CONGESTED:        215
 WQ ROW_BUFFER_HIT:     123817  ROW_BUFFER_MISS:     108124  FULL:          0

 AVG_CONGESTED_CYCLE: 5
 All warmup complete: 2
Channel 0 Bank busy for read cycles: 0
Channel 0 Bank busy for write cycles: 0
Channel 0
Rank 0
0banks busy for read cycles: 152743301
0banks busy for write cycles: 38462
1banks busy for read cycles: 28404743
1banks busy for write cycles: 6068689
2banks busy for read cycles: 14918458
2banks busy for write cycles: 218855
3banks busy for read cycles: 10116488
3banks busy for write cycles: 232354
4banks busy for read cycles: 109336
4banks busy for write cycles: 392767
5banks busy for read cycles: 8351
5banks busy for write cycles: 615511
6banks busy for read cycles: 80
6banks busy for write cycles: 890998
7banks busy for read cycles: 0
7banks busy for write cycles: 1622944
8banks busy for read cycles: 0
8banks busy for write cycles: 5465646

CPU 0 Branch Prediction Accuracy: 99.971% MPKI: 0.03111 Average ROB Occupancy at Mispredict: 207.02
Branch types
NOT_BRANCH: 89254039 89.254%
BRANCH_DIRECT_JUMP: 705946 0.705946%
BRANCH_INDIRECT: 0 0%
BRANCH_CONDITIONAL: 7215955 7.21595%
BRANCH_DIRECT_CALL: 1411860 1.41186%
BRANCH_INDIRECT_CALL: 0 0%
BRANCH_RETURN: 1411859 1.41186%
BRANCH_OTHER: 0 0%

DRAM PAGES: 1048576
Allocated PAGES: 14234
