
*** ChampSim Multicore Out-of-Order Simulator ***

Warmup Instructions: 50000000
Simulation Instructions: 100000000
Number of CPUs: 1
LLC sets: 2048
LLC ways: 16
Off-chip DRAM Size: 4096 MB Channels: 1 Width: 64-bit Data Rate: 6400 MT/s
CPU 0 runs ../SPEC2017//654.roms_s-1007B.champsimtrace.xz
.xz
BTB has LRU replacement policy
ITLB has LRU replacement policy
DTLB has LRU replacement policy
STLB has LRU replacement policy
L1I has LRU replacement policy
L1D has LRU replacement policy
Bingo PHT WAYS: 16 and PHT_SIZE: 16384
Initialize SRRIP state for L2C
Initialize DRRIP state for LLC
Heartbeat CPU 0 instructions: 10000000 cycles: 3018331 heartbeat IPC: 3.31309 cumulative IPC: 3.31309 (Simulation time: 0 hr 7 min 14 sec) 
Heartbeat CPU 0 instructions: 20000002 cycles: 6035159 heartbeat IPC: 3.31474 cumulative IPC: 3.31391 (Simulation time: 0 hr 14 min 42 sec) 
Heartbeat CPU 0 instructions: 30000000 cycles: 9051944 heartbeat IPC: 3.31479 cumulative IPC: 3.31421 (Simulation time: 0 hr 22 min 21 sec) 
Heartbeat CPU 0 instructions: 40000000 cycles: 12068746 heartbeat IPC: 3.31477 cumulative IPC: 3.31435 (Simulation time: 0 hr 28 min 55 sec) 
Heartbeat CPU 0 instructions: 50000003 cycles: 15200677 heartbeat IPC: 3.19292 cumulative IPC: 3.28933 (Simulation time: 0 hr 35 min 4 sec) 

Warmup complete CPU 0 instructions: 50000003 cycles: 15200677 (Simulation time: 0 hr 35 min 4 sec) 

Heartbeat CPU 0 instructions: 60000002 cycles: 41911221 heartbeat IPC: 0.374384 cumulative IPC: 0.374384 (Simulation time: 0 hr 43 min 10 sec) 
Heartbeat CPU 0 instructions: 70000000 cycles: 62314107 heartbeat IPC: 0.490127 cumulative IPC: 0.424507 (Simulation time: 0 hr 48 min 59 sec) 
Heartbeat CPU 0 instructions: 80000000 cycles: 82531455 heartbeat IPC: 0.494625 cumulative IPC: 0.445561 (Simulation time: 0 hr 54 min 38 sec) 
Heartbeat CPU 0 instructions: 90000000 cycles: 102653572 heartbeat IPC: 0.496966 cumulative IPC: 0.457389 (Simulation time: 0 hr 59 min 20 sec) 
Heartbeat CPU 0 instructions: 100000000 cycles: 122786071 heartbeat IPC: 0.496709 cumulative IPC: 0.464747 (Simulation time: 1 hr 3 min 59 sec) 
Heartbeat CPU 0 instructions: 110000000 cycles: 142905031 heartbeat IPC: 0.497044 cumulative IPC: 0.469835 (Simulation time: 1 hr 7 min 56 sec) 
Heartbeat CPU 0 instructions: 120000001 cycles: 165313314 heartbeat IPC: 0.446264 cumulative IPC: 0.466316 (Simulation time: 1 hr 12 min 11 sec) 
Heartbeat CPU 0 instructions: 130000002 cycles: 196333082 heartbeat IPC: 0.322375 cumulative IPC: 0.441666 (Simulation time: 1 hr 17 min 41 sec) 
Heartbeat CPU 0 instructions: 140000000 cycles: 216725798 heartbeat IPC: 0.490371 cumulative IPC: 0.446594 (Simulation time: 1 hr 21 min 6 sec) 
Heartbeat CPU 0 instructions: 150000000 cycles: 237049585 heartbeat IPC: 0.492034 cumulative IPC: 0.450757 (Simulation time: 1 hr 24 min 26 sec) 
Finished CPU 0 instructions: 100000001 cycles: 221848910 cumulative IPC: 0.450757 (Simulation time: 1 hr 24 min 26 sec) 

ChampSim completed all CPUs

Region of Interest Statistics

CPU 0 cumulative IPC: 0.450757 instructions: 100000001 cycles: 221848910

CPU 0 Average Load ROB stall cycles: 3.77468e+07
CPU 0 Fraction of times ROB stalled by Loads: 30.0066
CPU 0 Percentage of Load stall cycles in Total stall cycles: 5.3599e+08
Issued all: 92295506
Issued LT all: 80374008
rob_not_full_when_issued_lt_all: 42869360
Issued LT one: 69640387
rob_not_full_when_issued_lt_one: 34264654
 Total stall cycles: 200282184
 Total load stall cycles: 1073492347877808
Unique Load IPs: 241
CPU 0 NUM of IPS identified critical: 0
CPU 0 Num of Load IPs stalling ROB: 0
Threshold modification factor: 0
Trouble in retire width: -nan
MaC = Marked as critical.
lt_50_percent_before_Mac: 0
gt_90_percent_before_Mac: 0
gt_75_percent_before_Mac: 0
gt_50_percent_before_Mac: 0
stall_proportion_bin_same_before_after: 0
stall_proportion_bin_lower_before_after: 0
stall_proportion_bin_upper_before_after: 0
average_stall_proportion_before: -nan
average_stall_proportion_after: -nan
Critical_IP_Detector_Accuracy_70: -nan
Critical_IP_Detector_Accuracy_80: -nan
Critical_IP_Detector_Accuracy_90: -nan
Critical_IP_Detector_Coverage_70: 0
Critical_IP_Detector_Coverage_80: 0
Critical_IP_Detector_Coverage_90: 0
stat_90_percent_critical_ip_stalls_freq: 705922
stat_90_percent_non_critical_ip_stalls_freq: 18446744073708845694
AVERAGE_ROB_Occupancy_90_Percent_Critical_IP_Stalls: 67.7064
AVERAGE_ROB_Occupancy_90_Percent_Non_Critical_IP_Stalls: 2.94787e-11
Critical_IP_ROB_Stalls_Bucket_0: 0
Non-critical_IP_ROB_Stalls_Bucket_0: 3462212
Critical_IP_ROB_Stalls_Bucket_1: 0
Non-critical_IP_ROB_Stalls_Bucket_1: 4506682
Critical_IP_ROB_Stalls_Bucket_2: 0
Non-critical_IP_ROB_Stalls_Bucket_2: 83757
Critical_IP_ROB_Stalls_Bucket_3: 0
Non-critical_IP_ROB_Stalls_Bucket_3: 17313
Critical_IP_ROB_Stalls_Bucket_4: 0
Non-critical_IP_ROB_Stalls_Bucket_4: 14323
Critical_IP_ROB_Stalls_Bucket_5: 0
Non-critical_IP_ROB_Stalls_Bucket_5: 17699
Critical_IP_ROB_Stalls_Bucket_6: 0
Non-critical_IP_ROB_Stalls_Bucket_6: 431663
0 => IPs accounting for >50 percent of stalls, 1 => 55, 2 => 60, 3 => 65 and so on till 90.
percent50: inf num IPs:  1
percent55: inf num IPs: 1
percent60: inf num IPs: 1
percent65: inf num IPs: 1
percent70: inf num IPs: 1
percent75: inf num IPs: 1
percent80: inf num IPs: 1
percent85: inf num IPs: 1
percent90: inf num IPs: 1
Critical_ROB_Stalls_Percent_0_Bucket_0: 240195
Non-critical_ROB_Stalls_Percent_0_Bucket_0: 3222017
Critical_ROB_Stalls_Percent_0_Bucket_1: 465726
Non-critical_ROB_Stalls_Percent_0_Bucket_1: 4040956
Critical_ROB_Stalls_Percent_0_Bucket_2: 0
Non-critical_ROB_Stalls_Percent_0_Bucket_2: 83757
Critical_ROB_Stalls_Percent_0_Bucket_3: 1
Non-critical_ROB_Stalls_Percent_0_Bucket_3: 17312
Critical_ROB_Stalls_Percent_0_Bucket_4: 0
Non-critical_ROB_Stalls_Percent_0_Bucket_4: 14323
Critical_ROB_Stalls_Percent_0_Bucket_5: 0
Non-critical_ROB_Stalls_Percent_0_Bucket_5: 17699
Critical_ROB_Stalls_Percent_0_Bucket_6: 0
Non-critical_ROB_Stalls_Percent_0_Bucket_6: 431663
Critical_ROB_Stalls_Percent_1_Bucket_0: 240195
Non-critical_ROB_Stalls_Percent_1_Bucket_0: 3222017
Critical_ROB_Stalls_Percent_1_Bucket_1: 465726
Non-critical_ROB_Stalls_Percent_1_Bucket_1: 4040956
Critical_ROB_Stalls_Percent_1_Bucket_2: 0
Non-critical_ROB_Stalls_Percent_1_Bucket_2: 83757
Critical_ROB_Stalls_Percent_1_Bucket_3: 1
Non-critical_ROB_Stalls_Percent_1_Bucket_3: 17312
Critical_ROB_Stalls_Percent_1_Bucket_4: 0
Non-critical_ROB_Stalls_Percent_1_Bucket_4: 14323
Critical_ROB_Stalls_Percent_1_Bucket_5: 0
Non-critical_ROB_Stalls_Percent_1_Bucket_5: 17699
Critical_ROB_Stalls_Percent_1_Bucket_6: 0
Non-critical_ROB_Stalls_Percent_1_Bucket_6: 431663
Critical_ROB_Stalls_Percent_2_Bucket_0: 240195
Non-critical_ROB_Stalls_Percent_2_Bucket_0: 3222017
Critical_ROB_Stalls_Percent_2_Bucket_1: 465726
Non-critical_ROB_Stalls_Percent_2_Bucket_1: 4040956
Critical_ROB_Stalls_Percent_2_Bucket_2: 0
Non-critical_ROB_Stalls_Percent_2_Bucket_2: 83757
Critical_ROB_Stalls_Percent_2_Bucket_3: 1
Non-critical_ROB_Stalls_Percent_2_Bucket_3: 17312
Critical_ROB_Stalls_Percent_2_Bucket_4: 0
Non-critical_ROB_Stalls_Percent_2_Bucket_4: 14323
Critical_ROB_Stalls_Percent_2_Bucket_5: 0
Non-critical_ROB_Stalls_Percent_2_Bucket_5: 17699
Critical_ROB_Stalls_Percent_2_Bucket_6: 0
Non-critical_ROB_Stalls_Percent_2_Bucket_6: 431663
Critical_ROB_Stalls_Percent_3_Bucket_0: 240195
Non-critical_ROB_Stalls_Percent_3_Bucket_0: 3222017
Critical_ROB_Stalls_Percent_3_Bucket_1: 465726
Non-critical_ROB_Stalls_Percent_3_Bucket_1: 4040956
Critical_ROB_Stalls_Percent_3_Bucket_2: 0
Non-critical_ROB_Stalls_Percent_3_Bucket_2: 83757
Critical_ROB_Stalls_Percent_3_Bucket_3: 1
Non-critical_ROB_Stalls_Percent_3_Bucket_3: 17312
Critical_ROB_Stalls_Percent_3_Bucket_4: 0
Non-critical_ROB_Stalls_Percent_3_Bucket_4: 14323
Critical_ROB_Stalls_Percent_3_Bucket_5: 0
Non-critical_ROB_Stalls_Percent_3_Bucket_5: 17699
Critical_ROB_Stalls_Percent_3_Bucket_6: 0
Non-critical_ROB_Stalls_Percent_3_Bucket_6: 431663
Critical_ROB_Stalls_Percent_4_Bucket_0: 240195
Non-critical_ROB_Stalls_Percent_4_Bucket_0: 3222017
Critical_ROB_Stalls_Percent_4_Bucket_1: 465726
Non-critical_ROB_Stalls_Percent_4_Bucket_1: 4040956
Critical_ROB_Stalls_Percent_4_Bucket_2: 0
Non-critical_ROB_Stalls_Percent_4_Bucket_2: 83757
Critical_ROB_Stalls_Percent_4_Bucket_3: 1
Non-critical_ROB_Stalls_Percent_4_Bucket_3: 17312
Critical_ROB_Stalls_Percent_4_Bucket_4: 0
Non-critical_ROB_Stalls_Percent_4_Bucket_4: 14323
Critical_ROB_Stalls_Percent_4_Bucket_5: 0
Non-critical_ROB_Stalls_Percent_4_Bucket_5: 17699
Critical_ROB_Stalls_Percent_4_Bucket_6: 0
Non-critical_ROB_Stalls_Percent_4_Bucket_6: 431663
Critical_ROB_Stalls_Percent_5_Bucket_0: 240195
Non-critical_ROB_Stalls_Percent_5_Bucket_0: 3222017
Critical_ROB_Stalls_Percent_5_Bucket_1: 465726
Non-critical_ROB_Stalls_Percent_5_Bucket_1: 4040956
Critical_ROB_Stalls_Percent_5_Bucket_2: 0
Non-critical_ROB_Stalls_Percent_5_Bucket_2: 83757
Critical_ROB_Stalls_Percent_5_Bucket_3: 1
Non-critical_ROB_Stalls_Percent_5_Bucket_3: 17312
Critical_ROB_Stalls_Percent_5_Bucket_4: 0
Non-critical_ROB_Stalls_Percent_5_Bucket_4: 14323
Critical_ROB_Stalls_Percent_5_Bucket_5: 0
Non-critical_ROB_Stalls_Percent_5_Bucket_5: 17699
Critical_ROB_Stalls_Percent_5_Bucket_6: 0
Non-critical_ROB_Stalls_Percent_5_Bucket_6: 431663
Critical_ROB_Stalls_Percent_6_Bucket_0: 240195
Non-critical_ROB_Stalls_Percent_6_Bucket_0: 3222017
Critical_ROB_Stalls_Percent_6_Bucket_1: 465726
Non-critical_ROB_Stalls_Percent_6_Bucket_1: 4040956
Critical_ROB_Stalls_Percent_6_Bucket_2: 0
Non-critical_ROB_Stalls_Percent_6_Bucket_2: 83757
Critical_ROB_Stalls_Percent_6_Bucket_3: 1
Non-critical_ROB_Stalls_Percent_6_Bucket_3: 17312
Critical_ROB_Stalls_Percent_6_Bucket_4: 0
Non-critical_ROB_Stalls_Percent_6_Bucket_4: 14323
Critical_ROB_Stalls_Percent_6_Bucket_5: 0
Non-critical_ROB_Stalls_Percent_6_Bucket_5: 17699
Critical_ROB_Stalls_Percent_6_Bucket_6: 0
Non-critical_ROB_Stalls_Percent_6_Bucket_6: 431663
Critical_ROB_Stalls_Percent_7_Bucket_0: 240195
Non-critical_ROB_Stalls_Percent_7_Bucket_0: 3222017
Critical_ROB_Stalls_Percent_7_Bucket_1: 465726
Non-critical_ROB_Stalls_Percent_7_Bucket_1: 4040956
Critical_ROB_Stalls_Percent_7_Bucket_2: 0
Non-critical_ROB_Stalls_Percent_7_Bucket_2: 83757
Critical_ROB_Stalls_Percent_7_Bucket_3: 1
Non-critical_ROB_Stalls_Percent_7_Bucket_3: 17312
Critical_ROB_Stalls_Percent_7_Bucket_4: 0
Non-critical_ROB_Stalls_Percent_7_Bucket_4: 14323
Critical_ROB_Stalls_Percent_7_Bucket_5: 0
Non-critical_ROB_Stalls_Percent_7_Bucket_5: 17699
Critical_ROB_Stalls_Percent_7_Bucket_6: 0
Non-critical_ROB_Stalls_Percent_7_Bucket_6: 431663
Critical_ROB_Stalls_Percent_8_Bucket_0: 240195
Non-critical_ROB_Stalls_Percent_8_Bucket_0: 3222017
Critical_ROB_Stalls_Percent_8_Bucket_1: 465726
Non-critical_ROB_Stalls_Percent_8_Bucket_1: 4040956
Critical_ROB_Stalls_Percent_8_Bucket_2: 0
Non-critical_ROB_Stalls_Percent_8_Bucket_2: 83757
Critical_ROB_Stalls_Percent_8_Bucket_3: 1
Non-critical_ROB_Stalls_Percent_8_Bucket_3: 17312
Critical_ROB_Stalls_Percent_8_Bucket_4: 0
Non-critical_ROB_Stalls_Percent_8_Bucket_4: 14323
Critical_ROB_Stalls_Percent_8_Bucket_5: 0
Non-critical_ROB_Stalls_Percent_8_Bucket_5: 17699
Critical_ROB_Stalls_Percent_8_Bucket_6: 0
Non-critical_ROB_Stalls_Percent_8_Bucket_6: 431663
Average ROB occupancy Load Stall Begin: 62.721
Average ROB occupancy Load Stall End: 69.3233
Min ROB occupancy Load Stall Begin: 1
Max ROB occupancy Load Stall Begin: 352
Min ROB occupancy Load Stall End: 1
Max ROB occupancy Load Stall End: 352
Average ROB occupancy Critical Load Stall Begin: -nan
Average ROB occupancy Critical Load Stall End: -nan
Min ROB occupancy Critical Load Stall Begin: 400
Max ROB occupancy Critical Load Stall Begin: 0
Min ROB occupancy Critical Load Stall End: 400
Max ROB occupancy Critical Load Stall End: 0
 ROB Load Stall Begin Bucket Count 0: 4202654
 ROB Load Stall End Bucket Count 0: 3462212
 ROB Critical Load Stall Begin Bucket Count 0: 0
 ROB Critical Load Stall End Bucket Count 0: 0
 ROB Load Stall Begin Bucket Count 1: 3837857
 ROB Load Stall End Bucket Count 1: 4506682
 ROB Critical Load Stall Begin Bucket Count 1: 0
 ROB Critical Load Stall End Bucket Count 1: 0
 ROB Load Stall Begin Bucket Count 2: 24274
 ROB Load Stall End Bucket Count 2: 83757
 ROB Critical Load Stall Begin Bucket Count 2: 0
 ROB Critical Load Stall End Bucket Count 2: 0
 ROB Load Stall Begin Bucket Count 3: 14707
 ROB Load Stall End Bucket Count 3: 17313
 ROB Critical Load Stall Begin Bucket Count 3: 0
 ROB Critical Load Stall End Bucket Count 3: 0
 ROB Load Stall Begin Bucket Count 4: 13831
 ROB Load Stall End Bucket Count 4: 14323
 ROB Critical Load Stall Begin Bucket Count 4: 0
 ROB Critical Load Stall End Bucket Count 4: 0
 ROB Load Stall Begin Bucket Count 5: 56394
 ROB Load Stall End Bucket Count 5: 17699
 ROB Critical Load Stall Begin Bucket Count 5: 0
 ROB Critical Load Stall End Bucket Count 5: 0
 ROB Load Stall Begin Bucket Count 6: 383932
 ROB Load Stall End Bucket Count 6: 431663
 ROB Critical Load Stall Begin Bucket Count 6: 0
 ROB Critical Load Stall End Bucket Count 6: 0
PIST Tag Read Accesses: 0
PIST Read Accesses: 0
PIST Tag Write Accesses: 0
PIST Write Accesses: 0
Criticality detector called times: 0
Max global_stall_cycles_count: 0
Threshold Modified: 0 times, factor: 0
Sturdy critical IP cache stats: 
 Unused entries: 0
CIC Tag Read Accesses: 0
CIC Read Accesses: 0
CIC Tag Write Accesses: 0
CIC Write Accesses: 0
Wobbly critical IP cache stats: 
 Unused entries: 24
CIC Tag Read Accesses: 296021096
CIC Read Accesses: 0
CIC Tag Write Accesses: 36196
CIC Write Accesses: 0
ITLB TOTAL     ACCESS:   17053364  HIT:   17053362  MISS:          2  HIT %:        100  MISS %: 1.17279e-05   MPKI: 2e-05
ITLB LOAD TRANSLATION ACCESS:   17053364  HIT:   17053362  MISS:          2  HIT %:        100  MISS %: 1.17279e-05   MPKI: 2e-05
ITLB PREFETCH  REQUESTED:          0  ISSUED:          0  USEFUL:          0  USELESS:          0
ITLB USEFUL LOAD PREFETCHES:          0 PREFETCH ISSUED TO LOWER LEVEL:          0  ACCURACY: -nan
ITLB TIMELY PREFETCHES:          0 LATE PREFETCHES: 0 DROPPED PREFETCHES: 0
ITLB PREFETCHES SAME FILL-ORIGIN LEVEL: 0 DIFFERENT FILL-ORIGIN LEVEL: 0
ITLB AVERAGE MISS LATENCY: 377 cycles
ITLB RQ	ACCESS:   21405243	FORWARD:          0	MERGED:    4351880	TO_CACHE:   17053363

DTLB TOTAL     ACCESS:   27708753  HIT:   27691566  MISS:      17187  HIT %:     99.938  MISS %:  0.0620273   MPKI: 0.17187
DTLB LOAD TRANSLATION ACCESS:   27708753  HIT:   27691566  MISS:      17187  HIT %:     99.938  MISS %:  0.0620273   MPKI: 0.17187
DTLB PREFETCH  REQUESTED:          0  ISSUED:          0  USEFUL:          0  USELESS:          0
DTLB USEFUL LOAD PREFETCHES:          0 PREFETCH ISSUED TO LOWER LEVEL:          0  ACCURACY: -nan
DTLB TIMELY PREFETCHES:          0 LATE PREFETCHES: 0 DROPPED PREFETCHES: 0
DTLB PREFETCHES SAME FILL-ORIGIN LEVEL: 0 DIFFERENT FILL-ORIGIN LEVEL: 0
DTLB AVERAGE MISS LATENCY: 130.874 cycles
DTLB RQ	ACCESS:   30820761	FORWARD:          0	MERGED:    3099885	TO_CACHE:   27720876

STLB TOTAL     ACCESS:      17189  HIT:        416  MISS:      16773  HIT %:    2.42015  MISS %:    97.5798   MPKI: 0.16773
STLB LOAD TRANSLATION ACCESS:      17189  HIT:        416  MISS:      16773  HIT %:    2.42015  MISS %:    97.5798   MPKI: 0.16773
STLB PREFETCH  REQUESTED:          0  ISSUED:          0  USEFUL:          0  USELESS:          0
STLB USEFUL LOAD PREFETCHES:          0 PREFETCH ISSUED TO LOWER LEVEL:          0  ACCURACY: -nan
STLB TIMELY PREFETCHES:          0 LATE PREFETCHES: 0 DROPPED PREFETCHES: 0
STLB PREFETCHES SAME FILL-ORIGIN LEVEL: 0 DIFFERENT FILL-ORIGIN LEVEL: 0
STLB AVERAGE MISS LATENCY: 124.744 cycles
STLB RQ	ACCESS:      17189	FORWARD:          0	MERGED:          0	TO_CACHE:      17189

STLB Hit, L1D data hit: 0
STLB Hit, L2C data hit: 0
STLB Hit, LLC data hit: 0
STLB Hit, LLC data miss: 0
STLB STLB hints to L2: 0
L1D TOTAL     ACCESS:   29693462  HIT:   29000651  MISS:     692811  HIT %:    97.6668  MISS %:    2.33321   MPKI: 6.92811
L1D LOAD      ACCESS:   18540789  HIT:   18086291  MISS:     454498  HIT %:    97.5487  MISS %:    2.45134   MPKI: 4.54498
L1D RFO       ACCESS:   11152673  HIT:   10914360  MISS:     238313  HIT %:    97.8632  MISS %:    2.13682   MPKI: 2.38313
L1D PREFETCH  REQUESTED:          0  ISSUED:          0  USEFUL:          0  USELESS:          0
L1D USEFUL LOAD PREFETCHES:          0 PREFETCH ISSUED TO LOWER LEVEL:          0  ACCURACY: -nan
L1D TIMELY PREFETCHES:          0 LATE PREFETCHES: 0 DROPPED PREFETCHES: 0
L1D PREFETCHES SAME FILL-ORIGIN LEVEL: 0 DIFFERENT FILL-ORIGIN LEVEL: 0
L1D AVERAGE MISS LATENCY: 241.656 cycles
L1D RQ	ACCESS:   24419173	FORWARD:          0	MERGED:    5355554	TO_CACHE:   19050059
L1D WQ	ACCESS:   12476628	FORWARD:      13560	MERGED:     705926	TO_CACHE:   11770702

L1D UNIQUE REGIONS ACCESSED: 0
L1D REGIONS CONFLICTS: 0
L1D Cross Page Prefetch Requests: 0
L1D Same Page Prefetch Requests: 0
L1D ROI Sum of L1D PQ occupancy: 0
L1D PREFETCHES PUSHED FROM L2C: 0
L1I TOTAL     ACCESS:   21405233  HIT:   21405197  MISS:         36  HIT %:    99.9998  MISS %: 0.000168183   MPKI: 0.00036
L1I LOAD      ACCESS:   21405233  HIT:   21405197  MISS:         36  HIT %:    99.9998  MISS %: 0.000168183   MPKI: 0.00036
L1I PREFETCH  REQUESTED:          0  ISSUED:          0  USEFUL:          0  USELESS:          0
L1I USEFUL LOAD PREFETCHES:          0 PREFETCH ISSUED TO LOWER LEVEL:          0  ACCURACY: -nan
L1I TIMELY PREFETCHES:          0 LATE PREFETCHES: 0 DROPPED PREFETCHES: 0
L1I PREFETCHES SAME FILL-ORIGIN LEVEL: 0 DIFFERENT FILL-ORIGIN LEVEL: 0
L1I AVERAGE MISS LATENCY: 224.528 cycles
L1I RQ	ACCESS:   28678399	FORWARD:          0	MERGED:    7273156	TO_CACHE:   21405243

BTB TOTAL     ACCESS:    6508269  HIT:    5802287  MISS:     705982  HIT %:    89.1525  MISS %:    10.8475   MPKI: 7.05982
BTB BRANCH_DIRECT_JUMP	ACCESS:     705946  HIT:     705938  MISS:          8
BTB BRANCH_INDIRECT	ACCESS:          0  HIT:          0  MISS:          0
BTB BRANCH_CONDITIONAL	ACCESS:    2978604  HIT:    2978573  MISS:         31
BTB BRANCH_DIRECT_CALL	ACCESS:    1411860  HIT:    1411850  MISS:         10
BTB BRANCH_INDIRECT_CALL	ACCESS:          0  HIT:          0  MISS:          0
BTB BRANCH_RETURN	ACCESS:    1411859  HIT:     705926  MISS:     705933
BTB BRANCH_OTHER ACCESS:          0  HIT:          0  MISS:          0

L2C TOTAL     ACCESS:     947850  HIT:     250028  MISS:     697822  HIT %:    26.3784  MISS %:    73.6216   MPKI: 6.97822
L2C LOAD      ACCESS:     454534  HIT:         94  MISS:     454440  HIT %:  0.0206805  MISS %:    99.9793   MPKI: 4.5444
L2C DATA LOAD MPKI: 4.54404
L2C INSTRUCTION LOAD MPKI: 0.00036
L2C RFO       ACCESS:     238313  HIT:          0  MISS:     238313  HIT %:          0  MISS %:        100   MPKI: 2.38313
L2C PREFETCH  ACCESS:         16  HIT:          0  MISS:         16  HIT %:          0  MISS %:        100   MPKI: 0.00016
L2C DATA PREFETCH MPKI: 0.00016
L2C INSTRUCTION PREFETCH MPKI: 0
L2C WRITEBACK ACCESS:     238161  HIT:     236704  MISS:       1457  HIT %:    99.3882  MISS %:   0.611771   MPKI: 0.01457
L2C LOAD TRANSLATION ACCESS:      16826  HIT:      13230  MISS:       3596  HIT %:    78.6283  MISS %:    21.3717   MPKI: 0.03596
L2C PREFETCH  REQUESTED:         16  ISSUED:         16  USEFUL:         87  USELESS:        130
L2C USEFUL LOAD PREFETCHES:         87 PREFETCH ISSUED TO LOWER LEVEL:         16  ACCURACY: 543.75
L2C TIMELY PREFETCHES:         87 LATE PREFETCHES: 0 DROPPED PREFETCHES: 0
L2C PREFETCHES SAME FILL-ORIGIN LEVEL: 16 DIFFERENT FILL-ORIGIN LEVEL: 0
L2C AVERAGE MISS LATENCY: 225.885 cycles
L2C RQ	ACCESS:     709673	FORWARD:          0	MERGED:          0	TO_CACHE:     709673
L2C WQ	ACCESS:     238161	FORWARD:          0	MERGED:          0	TO_CACHE:     238161
L2C PQ	ACCESS:         16	FORWARD:          0	MERGED:          0	TO_CACHE:         16

L2C Instructions Evicting Data 36
L2C Translations Evicting Data 3579
L2C Data Evicting Data 689135
L2C Instructions Evicting Instructions 0
L2C Translations Evicting Instructions 0
L2C Data Evicting Instructions 36
L2C Instructions Evicting Translations 0
L2C Translations Evicting Translations 17
L2C Data Evicting Translations 3562
L2C Dense regions hint from L2: 0
PSCL5 TOTAL     ACCESS:      16773  HIT:      16773  MISS:          0  HIT %:        100  MISS %:          0   MPKI: 0
PSCL5 LOAD TRANSLATION ACCESS:      16773  HIT:      16773  MISS:          0  HIT %:        100  MISS %:          0   MPKI: 0
PSCL5 PREFETCH  REQUESTED:          0  ISSUED:          0  USEFUL:          0  USELESS:          0
PSCL5 USEFUL LOAD PREFETCHES:          0 PREFETCH ISSUED TO LOWER LEVEL:          0  ACCURACY: -nan
PSCL5 TIMELY PREFETCHES:          0 LATE PREFETCHES: 0 DROPPED PREFETCHES: 0
PSCL5 PREFETCHES SAME FILL-ORIGIN LEVEL: 0 DIFFERENT FILL-ORIGIN LEVEL: 0

PSCL4 TOTAL     ACCESS:      16773  HIT:      16773  MISS:          0  HIT %:        100  MISS %:          0   MPKI: 0
PSCL4 LOAD TRANSLATION ACCESS:      16773  HIT:      16773  MISS:          0  HIT %:        100  MISS %:          0   MPKI: 0
PSCL4 PREFETCH  REQUESTED:          0  ISSUED:          0  USEFUL:          0  USELESS:          0
PSCL4 USEFUL LOAD PREFETCHES:          0 PREFETCH ISSUED TO LOWER LEVEL:          0  ACCURACY: -nan
PSCL4 TIMELY PREFETCHES:          0 LATE PREFETCHES: 0 DROPPED PREFETCHES: 0
PSCL4 PREFETCHES SAME FILL-ORIGIN LEVEL: 0 DIFFERENT FILL-ORIGIN LEVEL: 0

PSCL3 TOTAL     ACCESS:      16423  HIT:      16417  MISS:          6  HIT %:    99.9635  MISS %:  0.0365341   MPKI: 6e-05
PSCL3 LOAD TRANSLATION ACCESS:      16423  HIT:      16417  MISS:          6  HIT %:    99.9635  MISS %:  0.0365341   MPKI: 6e-05
PSCL3 PREFETCH  REQUESTED:          0  ISSUED:          0  USEFUL:          0  USELESS:          0
PSCL3 USEFUL LOAD PREFETCHES:          0 PREFETCH ISSUED TO LOWER LEVEL:          0  ACCURACY: -nan
PSCL3 TIMELY PREFETCHES:          0 LATE PREFETCHES: 0 DROPPED PREFETCHES: 0
PSCL3 PREFETCHES SAME FILL-ORIGIN LEVEL: 0 DIFFERENT FILL-ORIGIN LEVEL: 0

PSCL2 TOTAL     ACCESS:      16773  HIT:      16697  MISS:         76  HIT %:    99.5469  MISS %:   0.453109   MPKI: 0.00076
PSCL2 LOAD TRANSLATION ACCESS:      16773  HIT:      16697  MISS:         76  HIT %:    99.5469  MISS %:   0.453109   MPKI: 0.00076
PSCL2 PREFETCH  REQUESTED:          0  ISSUED:          0  USEFUL:          0  USELESS:          0
PSCL2 USEFUL LOAD PREFETCHES:          0 PREFETCH ISSUED TO LOWER LEVEL:          0  ACCURACY: -nan
PSCL2 TIMELY PREFETCHES:          0 LATE PREFETCHES: 0 DROPPED PREFETCHES: 0
PSCL2 PREFETCHES SAME FILL-ORIGIN LEVEL: 0 DIFFERENT FILL-ORIGIN LEVEL: 0

LLC TOTAL     ACCESS:     932086  HIT:     231795  MISS:     700291  HIT %:    24.8684  MISS %:    75.1316   MPKI: 7.00291
LLC LOAD      ACCESS:     454440  HIT:        385  MISS:     454055  HIT %:  0.0847197  MISS %:    99.9153   MPKI: 4.54055
LLC RFO       ACCESS:     238313  HIT:          0  MISS:     238313  HIT %:          0  MISS %:        100   MPKI: 2.38313
LLC PREFETCH  ACCESS:         16  HIT:          0  MISS:         16  HIT %:          0  MISS %:        100   MPKI: 0.00016
LLC WRITEBACK ACCESS:     235721  HIT:     231391  MISS:       4330  HIT %:    98.1631  MISS %:    1.83692   MPKI: 0.0433
LLC LOAD TRANSLATION ACCESS:       3596  HIT:         19  MISS:       3577  HIT %:   0.528365  MISS %:    99.4716   MPKI: 0.03577
LLC PREFETCH  REQUESTED:          0  ISSUED:          0  USEFUL:          0  USELESS:      18238
LLC USEFUL LOAD PREFETCHES:          0 PREFETCH ISSUED TO LOWER LEVEL:         16  ACCURACY: 0
LLC TIMELY PREFETCHES:          0 LATE PREFETCHES: 0 DROPPED PREFETCHES: 0
LLC PREFETCHES SAME FILL-ORIGIN LEVEL: 0 DIFFERENT FILL-ORIGIN LEVEL: 0
LLC AVERAGE MISS LATENCY: 194.88 cycles
LLC RQ	ACCESS:     696349	FORWARD:          0	MERGED:          0	TO_CACHE:     696349
LLC WQ	ACCESS:     235721	FORWARD:          0	MERGED:          0	TO_CACHE:     235721
LLC PQ	ACCESS:         16	FORWARD:          0	MERGED:          0	TO_CACHE:         16

LLC Dense regions hint to LLC: 0

RAW hits: 2925499
Loads Generated: 27344671
Loads sent to L1D: 24419173
Stores Generated: 12476624
Stores sent to L1D: 12476628
Major fault: 0 Minor fault: 14234
Allocated PAGES: 14234
[Bingo] PHT Access: 1
[Bingo] PHT Hit PC+Addr: 0
[Bingo] PHT Hit PC+Offs: 1
[Bingo] PHT Miss: 0
[Bingo] Prefetch PC+Addr: 0
[Bingo] Prefetch PC+Offs: 0
[Bingo] Useful PC+Addr: 0
[Bingo] Useful PC+Offs: 0
[Bingo] Useless PC+Addr: 0
[Bingo] Useless PC+Offs: 0
[Bingo] L1 Prefetch per Region: 0
[Bingo] L2 Prefetch per Region: 32
[Bingo] L3 Prefetch per Region: 0
[Bingo] No Prefetch per Region: 0
[Bingo] Number of Voters Mean: 16
[Bingo] Number of Voters SD: 1175.8
PHT read accesses: 16
PHT write accesses: 81
AT read accesses: 84
AT write accesses: 3
FT read accesses: 1
FT write accesses: 1
PS read accesses: 1
PS write accesses: 1
PHT tag read accesses: 2552
PHT tag write accesses: 81
AT tag read accesses: 11165216
AT tag write accesses: 84
FT tag read accesses: 11165185
FT tag write accesses: 2
PS tag read accesses: 91
PS tag write accesses: 2

DRAM Statistics
 CHANNEL 0
 RQ ROW_BUFFER_HIT:     153464  ROW_BUFFER_MISS:     542497
 DBUS_CONGESTED:        241
 WQ ROW_BUFFER_HIT:     125500  ROW_BUFFER_MISS:     109118  FULL:          0

 AVG_CONGESTED_CYCLE: 5
 All warmup complete: 2
Channel 0 Bank busy for read cycles: 0
Channel 0 Bank busy for write cycles: 0
Channel 0
Rank 0
0banks busy for read cycles: 152746002
0banks busy for write cycles: 38256
1banks busy for read cycles: 28374372
1banks busy for write cycles: 6049932
2banks busy for read cycles: 14915529
2banks busy for write cycles: 224298
3banks busy for read cycles: 10125387
3banks busy for write cycles: 244569
4banks busy for read cycles: 110833
4banks busy for write cycles: 404485
5banks busy for read cycles: 7917
5banks busy for write cycles: 629402
6banks busy for read cycles: 91
6banks busy for write cycles: 880759
7banks busy for read cycles: 11
7banks busy for write cycles: 1529055
8banks busy for read cycles: 186
8banks busy for write cycles: 5567827

CPU 0 Branch Prediction Accuracy: 99.971% MPKI: 0.03111 Average ROB Occupancy at Mispredict: 206.874
Branch types
NOT_BRANCH: 89254039 89.254%
BRANCH_DIRECT_JUMP: 705946 0.705946%
BRANCH_INDIRECT: 0 0%
BRANCH_CONDITIONAL: 7215955 7.21595%
BRANCH_DIRECT_CALL: 1411860 1.41186%
BRANCH_INDIRECT_CALL: 0 0%
BRANCH_RETURN: 1411859 1.41186%
BRANCH_OTHER: 0 0%

DRAM PAGES: 1048576
Allocated PAGES: 14234
