Initialize SIGNATURE TABLE
ST_SET: 1
ST_WAY: 256
ST_TAG_BIT: 16
ST_TAG_MASK: ffff

Initialize PATTERN TABLE
PT_SET: 512
PT_WAY: 4
SIG_DELTA_BIT: 7
C_SIG_BIT: 4
C_DELTA_BIT: 4

Initialize PREFETCH FILTER
FILTER_SET: 1024

*** ChampSim Multicore Out-of-Order Simulator ***

Warmup Instructions: 50000000
Simulation Instructions: 100000000
Number of CPUs: 1
LLC sets: 2048
LLC ways: 16
Off-chip DRAM Size: 4096 MB Channels: 1 Width: 64-bit Data Rate: 6400 MT/s
CPU 0 runs ../SPEC2017//654.roms_s-1070B.champsimtrace.xz
.xz
BTB has LRU replacement policy
ITLB has LRU replacement policy
DTLB has LRU replacement policy
STLB has LRU replacement policy
L1I has LRU replacement policy
L1D has LRU replacement policy
Initialize SRRIP state for L2C
Initialize DRRIP state for LLC
Heartbeat CPU 0 instructions: 10000002 cycles: 3122666 heartbeat IPC: 3.20239 cumulative IPC: 3.20239 (Simulation time: 0 hr 4 min 54 sec) 
Heartbeat CPU 0 instructions: 20000001 cycles: 6342725 heartbeat IPC: 3.10553 cumulative IPC: 3.15322 (Simulation time: 0 hr 9 min 53 sec) 
Heartbeat CPU 0 instructions: 30000003 cycles: 9382162 heartbeat IPC: 3.29008 cumulative IPC: 3.19756 (Simulation time: 0 hr 14 min 3 sec) 
Heartbeat CPU 0 instructions: 40000000 cycles: 12687450 heartbeat IPC: 3.02545 cumulative IPC: 3.15272 (Simulation time: 0 hr 18 min 36 sec) 
Heartbeat CPU 0 instructions: 50000001 cycles: 15873636 heartbeat IPC: 3.13855 cumulative IPC: 3.14988 (Simulation time: 0 hr 22 min 57 sec) 

Warmup complete CPU 0 instructions: 50000001 cycles: 15873636 (Simulation time: 0 hr 22 min 57 sec) 

Heartbeat CPU 0 instructions: 60000000 cycles: 39733890 heartbeat IPC: 0.419107 cumulative IPC: 0.419107 (Simulation time: 0 hr 31 min 7 sec) 
Heartbeat CPU 0 instructions: 70000002 cycles: 61781941 heartbeat IPC: 0.453555 cumulative IPC: 0.435651 (Simulation time: 0 hr 37 min 36 sec) 
Heartbeat CPU 0 instructions: 80000003 cycles: 84536593 heartbeat IPC: 0.439471 cumulative IPC: 0.436917 (Simulation time: 0 hr 43 min 37 sec) 
Heartbeat CPU 0 instructions: 90000003 cycles: 105217380 heartbeat IPC: 0.483541 cumulative IPC: 0.447709 (Simulation time: 0 hr 50 min 5 sec) 
Heartbeat CPU 0 instructions: 100000003 cycles: 124420086 heartbeat IPC: 0.52076 cumulative IPC: 0.460632 (Simulation time: 0 hr 55 min 5 sec) 
Heartbeat CPU 0 instructions: 110000000 cycles: 144994105 heartbeat IPC: 0.48605 cumulative IPC: 0.464682 (Simulation time: 1 hr 0 min 35 sec) 
Heartbeat CPU 0 instructions: 120000002 cycles: 161729439 heartbeat IPC: 0.597538 cumulative IPC: 0.479926 (Simulation time: 1 hr 4 min 50 sec) 
Heartbeat CPU 0 instructions: 130000002 cycles: 181555650 heartbeat IPC: 0.504383 cumulative IPC: 0.482853 (Simulation time: 1 hr 13 min 20 sec) 
Heartbeat CPU 0 instructions: 140000001 cycles: 202103039 heartbeat IPC: 0.48668 cumulative IPC: 0.483275 (Simulation time: 1 hr 25 min 24 sec) 
Heartbeat CPU 0 instructions: 150000003 cycles: 223679887 heartbeat IPC: 0.46346 cumulative IPC: 0.481217 (Simulation time: 1 hr 34 min 41 sec) 
Finished CPU 0 instructions: 100000002 cycles: 207806251 cumulative IPC: 0.481217 (Simulation time: 1 hr 34 min 41 sec) 

ChampSim completed all CPUs

Region of Interest Statistics

CPU 0 cumulative IPC: 0.481217 instructions: 100000002 cycles: 207806251

CPU 0 Average Load ROB stall cycles: 4.71352e+07
CPU 0 Fraction of times ROB stalled by Loads: 40.7494
CPU 0 Percentage of Load stall cycles in Total stall cycles: 2.57728e+08
Issued all: 181877167
Issued LT all: 173392150
rob_not_full_when_issued_lt_all: 21194467
Issued LT one: 155097805
rob_not_full_when_issued_lt_one: 17225117
 Total stall cycles: 183392542
 Total load stall cycles: 472653548600549
Unique Load IPs: 115
CPU 0 NUM of IPS identified critical: 15
CPU 0 Num of Load IPs stalling ROB: 0
Threshold modification factor: 0
Trouble in retire width: -nan
MaC = Marked as critical.
lt_50_percent_before_Mac: 2
gt_90_percent_before_Mac: 2
gt_75_percent_before_Mac: 2
gt_50_percent_before_Mac: 8
stall_proportion_bin_same_before_after: 0
stall_proportion_bin_lower_before_after: 0
stall_proportion_bin_upper_before_after: 0
average_stall_proportion_before: 0.0112754
average_stall_proportion_after: 0.0123689
Critical_IP_Detector_Accuracy_70: 0
Critical_IP_Detector_Accuracy_80: 0
Critical_IP_Detector_Accuracy_90: 0
Critical_IP_Detector_Coverage_70: 0
Critical_IP_Detector_Coverage_80: 0
Critical_IP_Detector_Coverage_90: 0
stat_90_percent_critical_ip_stalls_freq: 1050624
stat_90_percent_non_critical_ip_stalls_freq: 18446744073708500992
AVERAGE_ROB_Occupancy_90_Percent_Critical_IP_Stalls: 345.805
AVERAGE_ROB_Occupancy_90_Percent_Non_Critical_IP_Stalls: 5.52661e-11
Critical_IP_ROB_Stalls_Bucket_0: 1080
Non-critical_IP_ROB_Stalls_Bucket_0: 16455
Critical_IP_ROB_Stalls_Bucket_1: 2570
Non-critical_IP_ROB_Stalls_Bucket_1: 15341
Critical_IP_ROB_Stalls_Bucket_2: 3192
Non-critical_IP_ROB_Stalls_Bucket_2: 16221
Critical_IP_ROB_Stalls_Bucket_3: 3538
Non-critical_IP_ROB_Stalls_Bucket_3: 15467
Critical_IP_ROB_Stalls_Bucket_4: 4752
Non-critical_IP_ROB_Stalls_Bucket_4: 39189
Critical_IP_ROB_Stalls_Bucket_5: 28252
Non-critical_IP_ROB_Stalls_Bucket_5: 224830
Critical_IP_ROB_Stalls_Bucket_6: 462448
Non-critical_IP_ROB_Stalls_Bucket_6: 3252859
0 => IPs accounting for >50 percent of stalls, 1 => 55, 2 => 60, 3 => 65 and so on till 90.
percent50: inf num IPs:  1
percent55: inf num IPs: 1
percent60: inf num IPs: 1
percent65: inf num IPs: 1
percent70: inf num IPs: 1
percent75: inf num IPs: 1
percent80: inf num IPs: 1
percent85: inf num IPs: 1
percent90: inf num IPs: 1
Critical_ROB_Stalls_Percent_0_Bucket_0: 4096
Non-critical_ROB_Stalls_Percent_0_Bucket_0: 13439
Critical_ROB_Stalls_Percent_0_Bucket_1: 4601
Non-critical_ROB_Stalls_Percent_0_Bucket_1: 13310
Critical_ROB_Stalls_Percent_0_Bucket_2: 7925
Non-critical_ROB_Stalls_Percent_0_Bucket_2: 11488
Critical_ROB_Stalls_Percent_0_Bucket_3: 5140
Non-critical_ROB_Stalls_Percent_0_Bucket_3: 13865
Critical_ROB_Stalls_Percent_0_Bucket_4: 4915
Non-critical_ROB_Stalls_Percent_0_Bucket_4: 39026
Critical_ROB_Stalls_Percent_0_Bucket_5: 4917
Non-critical_ROB_Stalls_Percent_0_Bucket_5: 248165
Critical_ROB_Stalls_Percent_0_Bucket_6: 1019030
Non-critical_ROB_Stalls_Percent_0_Bucket_6: 2696277
Critical_ROB_Stalls_Percent_1_Bucket_0: 4096
Non-critical_ROB_Stalls_Percent_1_Bucket_0: 13439
Critical_ROB_Stalls_Percent_1_Bucket_1: 4601
Non-critical_ROB_Stalls_Percent_1_Bucket_1: 13310
Critical_ROB_Stalls_Percent_1_Bucket_2: 7925
Non-critical_ROB_Stalls_Percent_1_Bucket_2: 11488
Critical_ROB_Stalls_Percent_1_Bucket_3: 5140
Non-critical_ROB_Stalls_Percent_1_Bucket_3: 13865
Critical_ROB_Stalls_Percent_1_Bucket_4: 4915
Non-critical_ROB_Stalls_Percent_1_Bucket_4: 39026
Critical_ROB_Stalls_Percent_1_Bucket_5: 4917
Non-critical_ROB_Stalls_Percent_1_Bucket_5: 248165
Critical_ROB_Stalls_Percent_1_Bucket_6: 1019030
Non-critical_ROB_Stalls_Percent_1_Bucket_6: 2696277
Critical_ROB_Stalls_Percent_2_Bucket_0: 4096
Non-critical_ROB_Stalls_Percent_2_Bucket_0: 13439
Critical_ROB_Stalls_Percent_2_Bucket_1: 4601
Non-critical_ROB_Stalls_Percent_2_Bucket_1: 13310
Critical_ROB_Stalls_Percent_2_Bucket_2: 7925
Non-critical_ROB_Stalls_Percent_2_Bucket_2: 11488
Critical_ROB_Stalls_Percent_2_Bucket_3: 5140
Non-critical_ROB_Stalls_Percent_2_Bucket_3: 13865
Critical_ROB_Stalls_Percent_2_Bucket_4: 4915
Non-critical_ROB_Stalls_Percent_2_Bucket_4: 39026
Critical_ROB_Stalls_Percent_2_Bucket_5: 4917
Non-critical_ROB_Stalls_Percent_2_Bucket_5: 248165
Critical_ROB_Stalls_Percent_2_Bucket_6: 1019030
Non-critical_ROB_Stalls_Percent_2_Bucket_6: 2696277
Critical_ROB_Stalls_Percent_3_Bucket_0: 4096
Non-critical_ROB_Stalls_Percent_3_Bucket_0: 13439
Critical_ROB_Stalls_Percent_3_Bucket_1: 4601
Non-critical_ROB_Stalls_Percent_3_Bucket_1: 13310
Critical_ROB_Stalls_Percent_3_Bucket_2: 7925
Non-critical_ROB_Stalls_Percent_3_Bucket_2: 11488
Critical_ROB_Stalls_Percent_3_Bucket_3: 5140
Non-critical_ROB_Stalls_Percent_3_Bucket_3: 13865
Critical_ROB_Stalls_Percent_3_Bucket_4: 4915
Non-critical_ROB_Stalls_Percent_3_Bucket_4: 39026
Critical_ROB_Stalls_Percent_3_Bucket_5: 4917
Non-critical_ROB_Stalls_Percent_3_Bucket_5: 248165
Critical_ROB_Stalls_Percent_3_Bucket_6: 1019030
Non-critical_ROB_Stalls_Percent_3_Bucket_6: 2696277
Critical_ROB_Stalls_Percent_4_Bucket_0: 4096
Non-critical_ROB_Stalls_Percent_4_Bucket_0: 13439
Critical_ROB_Stalls_Percent_4_Bucket_1: 4601
Non-critical_ROB_Stalls_Percent_4_Bucket_1: 13310
Critical_ROB_Stalls_Percent_4_Bucket_2: 7925
Non-critical_ROB_Stalls_Percent_4_Bucket_2: 11488
Critical_ROB_Stalls_Percent_4_Bucket_3: 5140
Non-critical_ROB_Stalls_Percent_4_Bucket_3: 13865
Critical_ROB_Stalls_Percent_4_Bucket_4: 4915
Non-critical_ROB_Stalls_Percent_4_Bucket_4: 39026
Critical_ROB_Stalls_Percent_4_Bucket_5: 4917
Non-critical_ROB_Stalls_Percent_4_Bucket_5: 248165
Critical_ROB_Stalls_Percent_4_Bucket_6: 1019030
Non-critical_ROB_Stalls_Percent_4_Bucket_6: 2696277
Critical_ROB_Stalls_Percent_5_Bucket_0: 4096
Non-critical_ROB_Stalls_Percent_5_Bucket_0: 13439
Critical_ROB_Stalls_Percent_5_Bucket_1: 4601
Non-critical_ROB_Stalls_Percent_5_Bucket_1: 13310
Critical_ROB_Stalls_Percent_5_Bucket_2: 7925
Non-critical_ROB_Stalls_Percent_5_Bucket_2: 11488
Critical_ROB_Stalls_Percent_5_Bucket_3: 5140
Non-critical_ROB_Stalls_Percent_5_Bucket_3: 13865
Critical_ROB_Stalls_Percent_5_Bucket_4: 4915
Non-critical_ROB_Stalls_Percent_5_Bucket_4: 39026
Critical_ROB_Stalls_Percent_5_Bucket_5: 4917
Non-critical_ROB_Stalls_Percent_5_Bucket_5: 248165
Critical_ROB_Stalls_Percent_5_Bucket_6: 1019030
Non-critical_ROB_Stalls_Percent_5_Bucket_6: 2696277
Critical_ROB_Stalls_Percent_6_Bucket_0: 4096
Non-critical_ROB_Stalls_Percent_6_Bucket_0: 13439
Critical_ROB_Stalls_Percent_6_Bucket_1: 4601
Non-critical_ROB_Stalls_Percent_6_Bucket_1: 13310
Critical_ROB_Stalls_Percent_6_Bucket_2: 7925
Non-critical_ROB_Stalls_Percent_6_Bucket_2: 11488
Critical_ROB_Stalls_Percent_6_Bucket_3: 5140
Non-critical_ROB_Stalls_Percent_6_Bucket_3: 13865
Critical_ROB_Stalls_Percent_6_Bucket_4: 4915
Non-critical_ROB_Stalls_Percent_6_Bucket_4: 39026
Critical_ROB_Stalls_Percent_6_Bucket_5: 4917
Non-critical_ROB_Stalls_Percent_6_Bucket_5: 248165
Critical_ROB_Stalls_Percent_6_Bucket_6: 1019030
Non-critical_ROB_Stalls_Percent_6_Bucket_6: 2696277
Critical_ROB_Stalls_Percent_7_Bucket_0: 4096
Non-critical_ROB_Stalls_Percent_7_Bucket_0: 13439
Critical_ROB_Stalls_Percent_7_Bucket_1: 4601
Non-critical_ROB_Stalls_Percent_7_Bucket_1: 13310
Critical_ROB_Stalls_Percent_7_Bucket_2: 7925
Non-critical_ROB_Stalls_Percent_7_Bucket_2: 11488
Critical_ROB_Stalls_Percent_7_Bucket_3: 5140
Non-critical_ROB_Stalls_Percent_7_Bucket_3: 13865
Critical_ROB_Stalls_Percent_7_Bucket_4: 4915
Non-critical_ROB_Stalls_Percent_7_Bucket_4: 39026
Critical_ROB_Stalls_Percent_7_Bucket_5: 4917
Non-critical_ROB_Stalls_Percent_7_Bucket_5: 248165
Critical_ROB_Stalls_Percent_7_Bucket_6: 1019030
Non-critical_ROB_Stalls_Percent_7_Bucket_6: 2696277
Critical_ROB_Stalls_Percent_8_Bucket_0: 4096
Non-critical_ROB_Stalls_Percent_8_Bucket_0: 13439
Critical_ROB_Stalls_Percent_8_Bucket_1: 4601
Non-critical_ROB_Stalls_Percent_8_Bucket_1: 13310
Critical_ROB_Stalls_Percent_8_Bucket_2: 7925
Non-critical_ROB_Stalls_Percent_8_Bucket_2: 11488
Critical_ROB_Stalls_Percent_8_Bucket_3: 5140
Non-critical_ROB_Stalls_Percent_8_Bucket_3: 13865
Critical_ROB_Stalls_Percent_8_Bucket_4: 4915
Non-critical_ROB_Stalls_Percent_8_Bucket_4: 39026
Critical_ROB_Stalls_Percent_8_Bucket_5: 4917
Non-critical_ROB_Stalls_Percent_8_Bucket_5: 248165
Critical_ROB_Stalls_Percent_8_Bucket_6: 1019030
Non-critical_ROB_Stalls_Percent_8_Bucket_6: 2696277
Average ROB occupancy Load Stall Begin: 328.41
Average ROB occupancy Load Stall End: 338.406
Min ROB occupancy Load Stall Begin: 3
Max ROB occupancy Load Stall Begin: 352
Min ROB occupancy Load Stall End: 3
Max ROB occupancy Load Stall End: 352
Average ROB occupancy Critical Load Stall Begin: 330.172
Average ROB occupancy Critical Load Stall End: 334.501
Min ROB occupancy Critical Load Stall Begin: 11
Max ROB occupancy Critical Load Stall Begin: 352
Min ROB occupancy Critical Load Stall End: 11
Max ROB occupancy Critical Load Stall End: 352
 ROB Load Stall Begin Bucket Count 0: 22560
 ROB Load Stall End Bucket Count 0: 17535
 ROB Critical Load Stall Begin Bucket Count 0: 393
 ROB Critical Load Stall End Bucket Count 0: 304
 ROB Load Stall Begin Bucket Count 1: 19783
 ROB Load Stall End Bucket Count 1: 17911
 ROB Critical Load Stall Begin Bucket Count 1: 1293
 ROB Critical Load Stall End Bucket Count 1: 871
 ROB Load Stall Begin Bucket Count 2: 19558
 ROB Load Stall End Bucket Count 2: 19413
 ROB Critical Load Stall Begin Bucket Count 2: 767
 ROB Critical Load Stall End Bucket Count 2: 961
 ROB Load Stall Begin Bucket Count 3: 32484
 ROB Load Stall End Bucket Count 3: 19005
 ROB Critical Load Stall Begin Bucket Count 3: 848
 ROB Critical Load Stall End Bucket Count 3: 847
 ROB Load Stall Begin Bucket Count 4: 95412
 ROB Load Stall End Bucket Count 4: 43941
 ROB Critical Load Stall Begin Bucket Count 4: 1417
 ROB Critical Load Stall End Bucket Count 4: 1374
 ROB Load Stall Begin Bucket Count 5: 580810
 ROB Load Stall End Bucket Count 5: 253082
 ROB Critical Load Stall Begin Bucket Count 5: 14536
 ROB Critical Load Stall End Bucket Count 5: 12072
 ROB Load Stall Begin Bucket Count 6: 3315587
 ROB Load Stall End Bucket Count 6: 3715307
 ROB Critical Load Stall Begin Bucket Count 6: 108592
 ROB Critical Load Stall End Bucket Count 6: 111417
PIST Tag Read Accesses: 0
PIST Read Accesses: 0
PIST Tag Write Accesses: 0
PIST Write Accesses: 0
Criticality detector called times: 0
Max global_stall_cycles_count: 0
Threshold Modified: 0 times, factor: 0
Sturdy critical IP cache stats: 
 Unused entries: 0
CIC Tag Read Accesses: 0
CIC Read Accesses: 0
CIC Tag Write Accesses: 0
CIC Write Accesses: 0
Wobbly critical IP cache stats: 
 Unused entries: 8
CIC Tag Read Accesses: 389082217
CIC Read Accesses: 0
CIC Tag Write Accesses: 9462389
CIC Write Accesses: 0
ITLB TOTAL     ACCESS:   16274938  HIT:   16274938  MISS:          0  HIT %:        100  MISS %:          0   MPKI: 0
ITLB LOAD TRANSLATION ACCESS:   16274938  HIT:   16274938  MISS:          0  HIT %:        100  MISS %:          0   MPKI: 0
ITLB PREFETCH  REQUESTED:          0  ISSUED:          0  USEFUL:          0  USELESS:          0
ITLB USEFUL LOAD PREFETCHES:          0 PREFETCH ISSUED TO LOWER LEVEL:          0  ACCURACY: -nan
ITLB TIMELY PREFETCHES:          0 LATE PREFETCHES: 0 DROPPED PREFETCHES: 0
ITLB PREFETCHES SAME FILL-ORIGIN LEVEL: 0 DIFFERENT FILL-ORIGIN LEVEL: 0
ITLB AVERAGE MISS LATENCY: -nan cycles
ITLB RQ	ACCESS:   17335436	FORWARD:          0	MERGED:    1060499	TO_CACHE:   16274937

DTLB TOTAL     ACCESS:   22949017  HIT:   22900263  MISS:      48754  HIT %:    99.7876  MISS %:   0.212445   MPKI: 0.48754
DTLB LOAD TRANSLATION ACCESS:   22949017  HIT:   22900263  MISS:      48754  HIT %:    99.7876  MISS %:   0.212445   MPKI: 0.48754
DTLB PREFETCH  REQUESTED:          0  ISSUED:          0  USEFUL:          0  USELESS:          0
DTLB USEFUL LOAD PREFETCHES:          0 PREFETCH ISSUED TO LOWER LEVEL:          0  ACCURACY: -nan
DTLB TIMELY PREFETCHES:          0 LATE PREFETCHES: 0 DROPPED PREFETCHES: 0
DTLB PREFETCHES SAME FILL-ORIGIN LEVEL: 0 DIFFERENT FILL-ORIGIN LEVEL: 0
DTLB AVERAGE MISS LATENCY: 164.122 cycles
DTLB RQ	ACCESS:   25646903	FORWARD:          0	MERGED:    2670616	TO_CACHE:   22976287

STLB TOTAL     ACCESS:      48754  HIT:         46  MISS:      48708  HIT %:  0.0943512  MISS %:    99.9056   MPKI: 0.48708
STLB LOAD TRANSLATION ACCESS:      48754  HIT:         46  MISS:      48708  HIT %:  0.0943512  MISS %:    99.9056   MPKI: 0.48708
STLB PREFETCH  REQUESTED:          0  ISSUED:          0  USEFUL:          0  USELESS:          0
STLB USEFUL LOAD PREFETCHES:          0 PREFETCH ISSUED TO LOWER LEVEL:          0  ACCURACY: -nan
STLB TIMELY PREFETCHES:          0 LATE PREFETCHES: 0 DROPPED PREFETCHES: 0
STLB PREFETCHES SAME FILL-ORIGIN LEVEL: 0 DIFFERENT FILL-ORIGIN LEVEL: 0
STLB AVERAGE MISS LATENCY: 154.715 cycles
STLB RQ	ACCESS:      48754	FORWARD:          0	MERGED:          0	TO_CACHE:      48754

STLB Hit, L1D data hit: 0
STLB Hit, L2C data hit: 0
STLB Hit, LLC data hit: 0
STLB Hit, LLC data miss: 0
STLB STLB hints to L2: 0
L1D TOTAL     ACCESS:   20936848  HIT:   18754359  MISS:    2182489  HIT %:    89.5758  MISS %:    10.4242   MPKI: 21.8249
L1D LOAD      ACCESS:   18452523  HIT:   16952535  MISS:    1499988  HIT %:    91.8711  MISS %:     8.1289   MPKI: 14.9999
L1D RFO       ACCESS:    2484325  HIT:    1801824  MISS:     682501  HIT %:    72.5277  MISS %:    27.4723   MPKI: 6.82501
L1D PREFETCH  REQUESTED:          0  ISSUED:          0  USEFUL:          0  USELESS:          0
L1D USEFUL LOAD PREFETCHES:          0 PREFETCH ISSUED TO LOWER LEVEL:          0  ACCURACY: -nan
L1D TIMELY PREFETCHES:          0 LATE PREFETCHES: 0 DROPPED PREFETCHES: 0
L1D PREFETCHES SAME FILL-ORIGIN LEVEL: 0 DIFFERENT FILL-ORIGIN LEVEL: 0
L1D AVERAGE MISS LATENCY: 231.716 cycles
L1D RQ	ACCESS:   37614369	FORWARD:          0	MERGED:   17396000	TO_CACHE:   20218369
L1D WQ	ACCESS:    5428534	FORWARD:          0	MERGED:          0	TO_CACHE:    5428534

L1D UNIQUE REGIONS ACCESSED: 0
L1D REGIONS CONFLICTS: 0
L1D Cross Page Prefetch Requests: 0
L1D Same Page Prefetch Requests: 0
L1D ROI Sum of L1D PQ occupancy: 0
L1D PREFETCHES PUSHED FROM L2C: 0
L1I TOTAL     ACCESS:   17335435  HIT:   17335435  MISS:          0  HIT %:        100  MISS %:          0   MPKI: 0
L1I LOAD      ACCESS:   17335435  HIT:   17335435  MISS:          0  HIT %:        100  MISS %:          0   MPKI: 0
L1I PREFETCH  REQUESTED:          0  ISSUED:          0  USEFUL:          0  USELESS:          0
L1I USEFUL LOAD PREFETCHES:          0 PREFETCH ISSUED TO LOWER LEVEL:          0  ACCURACY: -nan
L1I TIMELY PREFETCHES:          0 LATE PREFETCHES: 0 DROPPED PREFETCHES: 0
L1I PREFETCHES SAME FILL-ORIGIN LEVEL: 0 DIFFERENT FILL-ORIGIN LEVEL: 0
L1I AVERAGE MISS LATENCY: -nan cycles
L1I RQ	ACCESS:   28431301	FORWARD:          0	MERGED:   11095865	TO_CACHE:   17335436

BTB TOTAL     ACCESS:    5346356  HIT:    5346347  MISS:          9  HIT %:    99.9998  MISS %: 0.000168339   MPKI: 9e-05
BTB BRANCH_DIRECT_JUMP	ACCESS:          0  HIT:          0  MISS:          0
BTB BRANCH_INDIRECT	ACCESS:          0  HIT:          0  MISS:          0
BTB BRANCH_CONDITIONAL	ACCESS:    5346356  HIT:    5346347  MISS:          9
BTB BRANCH_DIRECT_CALL	ACCESS:          0  HIT:          0  MISS:          0
BTB BRANCH_INDIRECT_CALL	ACCESS:          0  HIT:          0  MISS:          0
BTB BRANCH_RETURN	ACCESS:          0  HIT:          0  MISS:          0
BTB BRANCH_OTHER ACCESS:          0  HIT:          0  MISS:          0

L2C TOTAL     ACCESS:    3077191  HIT:     879327  MISS:    2197864  HIT %:    28.5756  MISS %:    71.4244   MPKI: 21.9786
L2C LOAD      ACCESS:    1499988  HIT:     162868  MISS:    1337120  HIT %:     10.858  MISS %:     89.142   MPKI: 13.3712
L2C DATA LOAD MPKI: 13.3712
L2C INSTRUCTION LOAD MPKI: 0
L2C RFO       ACCESS:     682501  HIT:          0  MISS:     682501  HIT %:          0  MISS %:        100   MPKI: 6.82501
L2C PREFETCH  ACCESS:     163693  HIT:         56  MISS:     163637  HIT %:  0.0342104  MISS %:    99.9658   MPKI: 1.63637
L2C DATA PREFETCH MPKI: 1.63637
L2C INSTRUCTION PREFETCH MPKI: 0
L2C WRITEBACK ACCESS:     682236  HIT:     677655  MISS:       4581  HIT %:    99.3285  MISS %:   0.671469   MPKI: 0.04581
L2C LOAD TRANSLATION ACCESS:      48773  HIT:      38748  MISS:      10025  HIT %:    79.4456  MISS %:    20.5544   MPKI: 0.10025
L2C PREFETCH  REQUESTED:    2034141  ISSUED:    1998696  USEFUL:     162860  USELESS:        784
L2C USEFUL LOAD PREFETCHES:     162860 PREFETCH ISSUED TO LOWER LEVEL:    1993255  ACCURACY: 8.17056
L2C TIMELY PREFETCHES:     162860 LATE PREFETCHES: 743 DROPPED PREFETCHES: 0
L2C PREFETCHES SAME FILL-ORIGIN LEVEL: 164380 DIFFERENT FILL-ORIGIN LEVEL: 1828875
L2C AVERAGE MISS LATENCY: 218.342 cycles
L2C RQ	ACCESS:    2231265	FORWARD:          0	MERGED:          0	TO_CACHE:    2231265
L2C WQ	ACCESS:     682236	FORWARD:          0	MERGED:          0	TO_CACHE:     682236
L2C PQ	ACCESS:    1998696	FORWARD:          0	MERGED:       4960	TO_CACHE:    1993736

L2C Instructions Evicting Data 0
L2C Translations Evicting Data 9980
L2C Data Evicting Data 2173296
L2C Instructions Evicting Instructions 0
L2C Translations Evicting Instructions 0
L2C Data Evicting Instructions 0
L2C Instructions Evicting Translations 0
L2C Translations Evicting Translations 45
L2C Data Evicting Translations 9962
L2C Dense regions hint from L2: 0
PSCL5 TOTAL     ACCESS:      48708  HIT:      48708  MISS:          0  HIT %:        100  MISS %:          0   MPKI: 0
PSCL5 LOAD TRANSLATION ACCESS:      48708  HIT:      48708  MISS:          0  HIT %:        100  MISS %:          0   MPKI: 0
PSCL5 PREFETCH  REQUESTED:          0  ISSUED:          0  USEFUL:          0  USELESS:          0
PSCL5 USEFUL LOAD PREFETCHES:          0 PREFETCH ISSUED TO LOWER LEVEL:          0  ACCURACY: -nan
PSCL5 TIMELY PREFETCHES:          0 LATE PREFETCHES: 0 DROPPED PREFETCHES: 0
PSCL5 PREFETCHES SAME FILL-ORIGIN LEVEL: 0 DIFFERENT FILL-ORIGIN LEVEL: 0

PSCL4 TOTAL     ACCESS:      48708  HIT:      48708  MISS:          0  HIT %:        100  MISS %:          0   MPKI: 0
PSCL4 LOAD TRANSLATION ACCESS:      48708  HIT:      48708  MISS:          0  HIT %:        100  MISS %:          0   MPKI: 0
PSCL4 PREFETCH  REQUESTED:          0  ISSUED:          0  USEFUL:          0  USELESS:          0
PSCL4 USEFUL LOAD PREFETCHES:          0 PREFETCH ISSUED TO LOWER LEVEL:          0  ACCURACY: -nan
PSCL4 TIMELY PREFETCHES:          0 LATE PREFETCHES: 0 DROPPED PREFETCHES: 0
PSCL4 PREFETCHES SAME FILL-ORIGIN LEVEL: 0 DIFFERENT FILL-ORIGIN LEVEL: 0

PSCL3 TOTAL     ACCESS:      48708  HIT:      48708  MISS:          0  HIT %:        100  MISS %:          0   MPKI: 0
PSCL3 LOAD TRANSLATION ACCESS:      48708  HIT:      48708  MISS:          0  HIT %:        100  MISS %:          0   MPKI: 0
PSCL3 PREFETCH  REQUESTED:          0  ISSUED:          0  USEFUL:          0  USELESS:          0
PSCL3 USEFUL LOAD PREFETCHES:          0 PREFETCH ISSUED TO LOWER LEVEL:          0  ACCURACY: -nan
PSCL3 TIMELY PREFETCHES:          0 LATE PREFETCHES: 0 DROPPED PREFETCHES: 0
PSCL3 PREFETCHES SAME FILL-ORIGIN LEVEL: 0 DIFFERENT FILL-ORIGIN LEVEL: 0

PSCL2 TOTAL     ACCESS:      48708  HIT:      48571  MISS:        137  HIT %:    99.7187  MISS %:   0.281268   MPKI: 0.00137
PSCL2 LOAD TRANSLATION ACCESS:      48708  HIT:      48571  MISS:        137  HIT %:    99.7187  MISS %:   0.281268   MPKI: 0.00137
PSCL2 PREFETCH  REQUESTED:          0  ISSUED:          0  USEFUL:          0  USELESS:          0
PSCL2 USEFUL LOAD PREFETCHES:          0 PREFETCH ISSUED TO LOWER LEVEL:          0  ACCURACY: -nan
PSCL2 TIMELY PREFETCHES:          0 LATE PREFETCHES: 0 DROPPED PREFETCHES: 0
PSCL2 PREFETCHES SAME FILL-ORIGIN LEVEL: 0 DIFFERENT FILL-ORIGIN LEVEL: 0

LLC TOTAL     ACCESS:    4683759  HIT:    2449682  MISS:    2234077  HIT %:    52.3016  MISS %:    47.6984   MPKI: 22.3408
LLC LOAD      ACCESS:    1336377  HIT:      68201  MISS:    1268176  HIT %:    5.10343  MISS %:    94.8966   MPKI: 12.6818
LLC RFO       ACCESS:     682501  HIT:          2  MISS:     682499  HIT %: 0.00029304  MISS %:    99.9997   MPKI: 6.82499
LLC PREFETCH  ACCESS:    1976038  HIT:    1735784  MISS:     240254  HIT %:    87.8416  MISS %:    12.1584   MPKI: 2.40254
LLC WRITEBACK ACCESS:     678818  HIT:     645648  MISS:      33170  HIT %:    95.1136  MISS %:    4.88643   MPKI: 0.3317
LLC LOAD TRANSLATION ACCESS:      10025  HIT:         47  MISS:       9978  HIT %:   0.468828  MISS %:    99.5312   MPKI: 0.09978
LLC PREFETCH  REQUESTED:          0  ISSUED:          0  USEFUL:      68188  USELESS:     174944
LLC USEFUL LOAD PREFETCHES:      68188 PREFETCH ISSUED TO LOWER LEVEL:     240313  ACCURACY: 28.3747
LLC TIMELY PREFETCHES:      68188 LATE PREFETCHES: 57 DROPPED PREFETCHES: 0
LLC PREFETCHES SAME FILL-ORIGIN LEVEL: 236850 DIFFERENT FILL-ORIGIN LEVEL: 0
LLC AVERAGE MISS LATENCY: 206.536 cycles
LLC RQ	ACCESS:    2028905	FORWARD:          0	MERGED:          0	TO_CACHE:    2028905
LLC WQ	ACCESS:     678818	FORWARD:          0	MERGED:          0	TO_CACHE:     678818
LLC PQ	ACCESS:    1993255	FORWARD:          0	MERGED:       1083	TO_CACHE:    1992172

LLC Dense regions hint to LLC: 0

RAW hits: 10
Loads Generated: 37614382
Loads sent to L1D: 37614369
Stores Generated: 5428536
Stores sent to L1D: 5428534
Major fault: 0 Minor fault: 32209
Allocated PAGES: 32209
 All Calls: 2248269
 Critical Calls: 827755
------------------
Depth Distribution
------------------
depth 0: 0
depth 1: 865510
depth 2: 767809
depth 3: 690714
depth 4: 535846
depth 5: 405889
depth 6: 305204
depth 7: 279192
depth 8: 232874
depth 9: 186300
depth 10: 127347
depth 11: 78732
depth 12: 43383
depth 13: 20893
depth 14: 3997
depth 15: 3871
depth 16: 0
depth 17: 0
depth 18: 0
depth 19: 0
depth 20: 0
depth 21: 0
depth 22: 0
depth 23: 0
depth 24: 0
depth 25: 0
depth 26: 0
depth 27: 0
depth 28: 0
depth 29: 0
Total: 4547561
-----------------------------
-----------------------------
	Captured at Filter
-----------------------------
depth 0: 0
depth 1: 2790
depth 2: 2383
depth 3: 2177
depth 4: 1741
depth 5: 1335
depth 6: 976
depth 7: 856
depth 8: 747
depth 9: 611
depth 10: 471
depth 11: 292
depth 12: 186
depth 13: 93
depth 14: 10
depth 15: 17
depth 16: 0
depth 17: 0
depth 18: 0
depth 19: 0
depth 20: 0
depth 21: 0
depth 22: 0
depth 23: 0
depth 24: 0
depth 25: 0
depth 26: 0
depth 27: 0
depth 28: 0
depth 29: 0
-----------------------------
-----------------------------
		Lost at Page
-----------------------------
depth 0: 0
depth 1: 16106
depth 2: 25951
depth 3: 34603
depth 4: 36551
depth 5: 35189
depth 6: 32220
depth 7: 35185
depth 8: 34532
depth 9: 32999
depth 10: 26056
depth 11: 17841
depth 12: 12426
depth 13: 6850
depth 14: 2233
depth 15: 2342
depth 16: 0
depth 17: 0
depth 18: 0
depth 19: 0
depth 20: 0
depth 21: 0
depth 22: 0
depth 23: 0
depth 24: 0
depth 25: 0
depth 26: 0
depth 27: 0
depth 28: 0
depth 29: 0
-----------------------------
-----------------------------
	Lost due to PQ Size
-----------------------------
48327
-----------------------------
ST read accesses: 228169
ST write accesses: 5773
PT read accesses: 12386270
PT write accesses: 340856
FILTER read accesses: 4246449
FILTER write accesses: 2300192
GHR read accesses: 1071066
GHR write accesses: 203294
GHR counter read accesses: 10373412
GHR counter write accesses: 563369
ST tag read accesses: 93081723
ST tag write accesses: 1790145

DRAM Statistics
 CHANNEL 0
 RQ ROW_BUFFER_HIT:     382168  ROW_BUFFER_MISS:    1818740
 DBUS_CONGESTED:        681
 WQ ROW_BUFFER_HIT:     346397  ROW_BUFFER_MISS:     325326  FULL:          0

 AVG_CONGESTED_CYCLE: 2
 All warmup complete: 2
Channel 0 Bank busy for read cycles: 0
Channel 0 Bank busy for write cycles: 0
Channel 0
Rank 0
0banks busy for read cycles: 13341129
0banks busy for write cycles: 62243
1banks busy for read cycles: 69493052
1banks busy for write cycles: 11360391
2banks busy for read cycles: 50572187
2banks busy for write cycles: 6038797
3banks busy for read cycles: 23071402
3banks busy for write cycles: 2780734
4banks busy for read cycles: 7390059
4banks busy for write cycles: 1470927
5banks busy for read cycles: 3238414
5banks busy for write cycles: 993051
6banks busy for read cycles: 388974
6banks busy for write cycles: 899217
7banks busy for read cycles: 189673
7banks busy for write cycles: 1820980
8banks busy for read cycles: 460637
8banks busy for write cycles: 14234385

CPU 0 Branch Prediction Accuracy: 99.8815% MPKI: 0.0634 Average ROB Occupancy at Mispredict: 326.15
Branch types
NOT_BRANCH: 94651526 94.6515%
BRANCH_DIRECT_JUMP: 0 0%
BRANCH_INDIRECT: 0 0%
BRANCH_CONDITIONAL: 5348418 5.34842%
BRANCH_DIRECT_CALL: 0 0%
BRANCH_INDIRECT_CALL: 0 0%
BRANCH_RETURN: 0 0%
BRANCH_OTHER: 0 0%

DRAM PAGES: 1048576
Allocated PAGES: 32209
