
*** ChampSim Multicore Out-of-Order Simulator ***

Warmup Instructions: 50000000
Simulation Instructions: 100000000
Number of CPUs: 1
LLC sets: 2048
LLC ways: 16
Off-chip DRAM Size: 4096 MB Channels: 1 Width: 64-bit Data Rate: 6400 MT/s
CPU 0 runs ../SPEC_2006_2017//654.roms_s-1390B.champsimtrace.xz
.xz
NUM_OF_IPS_IN_CRITICAL_IP_TRAINING: 64
NUM_OF_CRITICAL_IP_TRAINING_TABLE_WAYS: 2
NUM_OF_CRITICAL_IP_TRAINING_TABLE_SETS: 32
WOBBLY_CRITICAL_IP_CACHE_SETS: 32
WOBBLY_CRITICAL_IP_CACHE_WAYS: 4
BTB has LRU replacement policy
ITLB has LRU replacement policy
DTLB has LRU replacement policy
STLB has LRU replacement policy
L1I has LRU replacement policy
IP Table Entries: 64
L1D has LRU replacement policy
Initialize SRRIP state for L2C
Initialize DRRIP state for LLC
Heartbeat CPU 0 instructions: 10000001 cycles: 3756122 heartbeat IPC: 2.66232 cumulative IPC: 2.66232 (Simulation time: 0 hr 5 min 56 sec) 
Heartbeat CPU 0 instructions: 20000000 cycles: 7248977 heartbeat IPC: 2.86299 cumulative IPC: 2.75901 (Simulation time: 0 hr 9 min 50 sec) 
Heartbeat CPU 0 instructions: 30000003 cycles: 10665701 heartbeat IPC: 2.92678 cumulative IPC: 2.81275 (Simulation time: 0 hr 13 min 19 sec) 
Heartbeat CPU 0 instructions: 40000002 cycles: 14438158 heartbeat IPC: 2.65079 cumulative IPC: 2.77044 (Simulation time: 0 hr 17 min 51 sec) 
Heartbeat CPU 0 instructions: 50000000 cycles: 18783640 heartbeat IPC: 2.30124 cumulative IPC: 2.66189 (Simulation time: 0 hr 22 min 35 sec) 

Warmup complete CPU 0 instructions: 50000002 cycles: 18783641 (Simulation time: 0 hr 22 min 35 sec) 

% increase in all ip prefetch 243.922
% increase in all ip prefetch -0.348585
Heartbeat CPU 0 instructions: 60000001 cycles: 30815987 heartbeat IPC: 0.831093 cumulative IPC: 0.831093 (Simulation time: 0 hr 25 min 30 sec) 
Heartbeat CPU 0 instructions: 70000003 cycles: 42174729 heartbeat IPC: 0.880379 cumulative IPC: 0.855027 (Simulation time: 0 hr 28 min 13 sec) 
Heartbeat CPU 0 instructions: 80000002 cycles: 53520334 heartbeat IPC: 0.881398 cumulative IPC: 0.86364 (Simulation time: 0 hr 30 min 56 sec) 
Heartbeat CPU 0 instructions: 90000003 cycles: 65302406 heartbeat IPC: 0.848747 cumulative IPC: 0.859868 (Simulation time: 0 hr 34 min 32 sec) 
Heartbeat CPU 0 instructions: 100000000 cycles: 78784222 heartbeat IPC: 0.74174 cumulative IPC: 0.833325 (Simulation time: 0 hr 37 min 56 sec) 
Heartbeat CPU 0 instructions: 110000000 cycles: 91782017 heartbeat IPC: 0.769361 cumulative IPC: 0.821936 (Simulation time: 0 hr 41 min 0 sec) 
Heartbeat CPU 0 instructions: 120000002 cycles: 104038609 heartbeat IPC: 0.815888 cumulative IPC: 0.821066 (Simulation time: 0 hr 43 min 36 sec) 
Heartbeat CPU 0 instructions: 130000000 cycles: 116015962 heartbeat IPC: 0.834909 cumulative IPC: 0.822772 (Simulation time: 0 hr 46 min 14 sec) 
Heartbeat CPU 0 instructions: 140000000 cycles: 128934577 heartbeat IPC: 0.774077 cumulative IPC: 0.817061 (Simulation time: 0 hr 50 min 4 sec) 
Heartbeat CPU 0 instructions: 150000001 cycles: 140903564 heartbeat IPC: 0.835493 cumulative IPC: 0.818867 (Simulation time: 0 hr 52 min 26 sec) 
Finished CPU 0 instructions: 100000003 cycles: 122119924 cumulative IPC: 0.818867 (Simulation time: 0 hr 52 min 26 sec) 

ChampSim completed all CPUs

Region of Interest Statistics

CPU 0 cumulative IPC: 0.818867 instructions: 100000003 cycles: 122119924

CPU 0 Average Load ROB stall cycles: 2.2889e+07
CPU 0 Fraction of times ROB stalled by Loads: 31.3023
CPU 0 Percentage of Load stall cycles in Total stall cycles: 3.85239e+08
Issued all: 67809985
Issued LT all: 53732503
rob_not_full_when_issued_lt_all: 41088217
Issued LT one: 46840222
rob_not_full_when_issued_lt_one: 35719685
 Total stall cycles: 100051942
 Total load stall cycles: 385439408500139
CPU 0 NUM of IPS identified critical: 0
CPU 0 Num of Load IPs stalling ROB: 757
Threshold modification factor: -1
Max PIST entries: 53
Min PIST entries: 0
Avg PIST entries: 15.5467
Trouble in retire width: 0.881535
MaC = Marked as critical.
lt_50_percent_before_Mac: 0
gt_90_percent_before_Mac: 0
gt_75_percent_before_Mac: 0
gt_50_percent_before_Mac: 0
stall_proportion_bin_same_before_after: 0
stall_proportion_bin_lower_before_after: 0
stall_proportion_bin_upper_before_after: 0
average_stall_proportion_before: -nan
average_stall_proportion_after: -nan
Critical IP stalls, total frequency: 0
Non-critical IP stalls, total frequency: 5271150
Total Freq all stalling IPs: 5271150
stat_90_percent_critical_ip_stalls_freq: 4749493
stat_90_percent_non_critical_ip_stalls_freq: 521657
Critical_IP_ROB_Stalls_Bucket_0: 0
Non-critical_IP_ROB_Stalls_Bucket_0: 4082275
Critical_IP_ROB_Stalls_Bucket_1: 0
Non-critical_IP_ROB_Stalls_Bucket_1: 427940
Critical_IP_ROB_Stalls_Bucket_2: 0
Non-critical_IP_ROB_Stalls_Bucket_2: 86723
Critical_IP_ROB_Stalls_Bucket_3: 0
Non-critical_IP_ROB_Stalls_Bucket_3: 55330
Critical_IP_ROB_Stalls_Bucket_4: 0
Non-critical_IP_ROB_Stalls_Bucket_4: 49342
Critical_IP_ROB_Stalls_Bucket_5: 0
Non-critical_IP_ROB_Stalls_Bucket_5: 63435
Critical_IP_ROB_Stalls_Bucket_6: 0
Non-critical_IP_ROB_Stalls_Bucket_6: 506105
0 => IPs accounting for >50 percent of stalls, 1 => 55, 2 => 60, 3 => 65 and so on till 90.
percent50: 50.0888 num IPs:  19
percent55: 56.4312 num IPs: 22
percent60: 60.4775 num IPs: 24
percent65: 65.245 num IPs: 27
percent70: 71.0931 num IPs: 31
percent75: 75.2954 num IPs: 34
percent80: 80.5685 num IPs: 39
percent85: 85.5293 num IPs: 47
percent90: 90.1035 num IPs: 56
Critical_ROB_Stalls_Percent_0_Bucket_0: 2146438
Non-critical_ROB_Stalls_Percent_0_Bucket_0: 1935837
Critical_ROB_Stalls_Percent_0_Bucket_1: 201579
Non-critical_ROB_Stalls_Percent_0_Bucket_1: 226361
Critical_ROB_Stalls_Percent_0_Bucket_2: 25550
Non-critical_ROB_Stalls_Percent_0_Bucket_2: 61173
Critical_ROB_Stalls_Percent_0_Bucket_3: 25633
Non-critical_ROB_Stalls_Percent_0_Bucket_3: 29697
Critical_ROB_Stalls_Percent_0_Bucket_4: 20097
Non-critical_ROB_Stalls_Percent_0_Bucket_4: 29245
Critical_ROB_Stalls_Percent_0_Bucket_5: 16380
Non-critical_ROB_Stalls_Percent_0_Bucket_5: 47055
Critical_ROB_Stalls_Percent_0_Bucket_6: 204578
Non-critical_ROB_Stalls_Percent_0_Bucket_6: 301527
Critical_ROB_Stalls_Percent_1_Bucket_0: 2472858
Non-critical_ROB_Stalls_Percent_1_Bucket_0: 1609417
Critical_ROB_Stalls_Percent_1_Bucket_1: 204824
Non-critical_ROB_Stalls_Percent_1_Bucket_1: 223116
Critical_ROB_Stalls_Percent_1_Bucket_2: 26791
Non-critical_ROB_Stalls_Percent_1_Bucket_2: 59932
Critical_ROB_Stalls_Percent_1_Bucket_3: 26771
Non-critical_ROB_Stalls_Percent_1_Bucket_3: 28559
Critical_ROB_Stalls_Percent_1_Bucket_4: 20952
Non-critical_ROB_Stalls_Percent_1_Bucket_4: 28390
Critical_ROB_Stalls_Percent_1_Bucket_5: 16994
Non-critical_ROB_Stalls_Percent_1_Bucket_5: 46441
Critical_ROB_Stalls_Percent_1_Bucket_6: 205382
Non-critical_ROB_Stalls_Percent_1_Bucket_6: 300723
Critical_ROB_Stalls_Percent_2_Bucket_0: 2679965
Non-critical_ROB_Stalls_Percent_2_Bucket_0: 1402310
Critical_ROB_Stalls_Percent_2_Bucket_1: 205904
Non-critical_ROB_Stalls_Percent_2_Bucket_1: 222036
Critical_ROB_Stalls_Percent_2_Bucket_2: 28475
Non-critical_ROB_Stalls_Percent_2_Bucket_2: 58248
Critical_ROB_Stalls_Percent_2_Bucket_3: 27952
Non-critical_ROB_Stalls_Percent_2_Bucket_3: 27378
Critical_ROB_Stalls_Percent_2_Bucket_4: 22174
Non-critical_ROB_Stalls_Percent_2_Bucket_4: 27168
Critical_ROB_Stalls_Percent_2_Bucket_5: 17331
Non-critical_ROB_Stalls_Percent_2_Bucket_5: 46104
Critical_ROB_Stalls_Percent_2_Bucket_6: 206060
Non-critical_ROB_Stalls_Percent_2_Bucket_6: 300045
Critical_ROB_Stalls_Percent_3_Bucket_0: 2840422
Non-critical_ROB_Stalls_Percent_3_Bucket_0: 1241853
Critical_ROB_Stalls_Percent_3_Bucket_1: 261714
Non-critical_ROB_Stalls_Percent_3_Bucket_1: 166226
Critical_ROB_Stalls_Percent_3_Bucket_2: 52090
Non-critical_ROB_Stalls_Percent_3_Bucket_2: 34633
Critical_ROB_Stalls_Percent_3_Bucket_3: 31618
Non-critical_ROB_Stalls_Percent_3_Bucket_3: 23712
Critical_ROB_Stalls_Percent_3_Bucket_4: 25044
Non-critical_ROB_Stalls_Percent_3_Bucket_4: 24298
Critical_ROB_Stalls_Percent_3_Bucket_5: 19719
Non-critical_ROB_Stalls_Percent_3_Bucket_5: 43716
Critical_ROB_Stalls_Percent_3_Bucket_6: 208554
Non-critical_ROB_Stalls_Percent_3_Bucket_6: 297551
Critical_ROB_Stalls_Percent_4_Bucket_0: 3054197
Non-critical_ROB_Stalls_Percent_4_Bucket_0: 1028078
Critical_ROB_Stalls_Percent_4_Bucket_1: 307139
Non-critical_ROB_Stalls_Percent_4_Bucket_1: 120801
Critical_ROB_Stalls_Percent_4_Bucket_2: 56652
Non-critical_ROB_Stalls_Percent_4_Bucket_2: 30071
Critical_ROB_Stalls_Percent_4_Bucket_3: 33967
Non-critical_ROB_Stalls_Percent_4_Bucket_3: 21363
Critical_ROB_Stalls_Percent_4_Bucket_4: 27063
Non-critical_ROB_Stalls_Percent_4_Bucket_4: 22279
Critical_ROB_Stalls_Percent_4_Bucket_5: 22611
Non-critical_ROB_Stalls_Percent_4_Bucket_5: 40824
Critical_ROB_Stalls_Percent_4_Bucket_6: 245795
Non-critical_ROB_Stalls_Percent_4_Bucket_6: 260310
Critical_ROB_Stalls_Percent_5_Bucket_0: 3272060
Non-critical_ROB_Stalls_Percent_5_Bucket_0: 810215
Critical_ROB_Stalls_Percent_5_Bucket_1: 308900
Non-critical_ROB_Stalls_Percent_5_Bucket_1: 119040
Critical_ROB_Stalls_Percent_5_Bucket_2: 57101
Non-critical_ROB_Stalls_Percent_5_Bucket_2: 29622
Critical_ROB_Stalls_Percent_5_Bucket_3: 34552
Non-critical_ROB_Stalls_Percent_5_Bucket_3: 20778
Critical_ROB_Stalls_Percent_5_Bucket_4: 27274
Non-critical_ROB_Stalls_Percent_5_Bucket_4: 22068
Critical_ROB_Stalls_Percent_5_Bucket_5: 22768
Non-critical_ROB_Stalls_Percent_5_Bucket_5: 40667
Critical_ROB_Stalls_Percent_5_Bucket_6: 246278
Non-critical_ROB_Stalls_Percent_5_Bucket_6: 259827
Critical_ROB_Stalls_Percent_6_Bucket_0: 3502040
Non-critical_ROB_Stalls_Percent_6_Bucket_0: 580235
Critical_ROB_Stalls_Percent_6_Bucket_1: 342652
Non-critical_ROB_Stalls_Percent_6_Bucket_1: 85288
Critical_ROB_Stalls_Percent_6_Bucket_2: 64085
Non-critical_ROB_Stalls_Percent_6_Bucket_2: 22638
Critical_ROB_Stalls_Percent_6_Bucket_3: 36036
Non-critical_ROB_Stalls_Percent_6_Bucket_3: 19294
Critical_ROB_Stalls_Percent_6_Bucket_4: 28916
Non-critical_ROB_Stalls_Percent_6_Bucket_4: 20426
Critical_ROB_Stalls_Percent_6_Bucket_5: 24255
Non-critical_ROB_Stalls_Percent_6_Bucket_5: 39180
Critical_ROB_Stalls_Percent_6_Bucket_6: 248905
Non-critical_ROB_Stalls_Percent_6_Bucket_6: 257200
Critical_ROB_Stalls_Percent_7_Bucket_0: 3688315
Non-critical_ROB_Stalls_Percent_7_Bucket_0: 393960
Critical_ROB_Stalls_Percent_7_Bucket_1: 346695
Non-critical_ROB_Stalls_Percent_7_Bucket_1: 81245
Critical_ROB_Stalls_Percent_7_Bucket_2: 66261
Non-critical_ROB_Stalls_Percent_7_Bucket_2: 20462
Critical_ROB_Stalls_Percent_7_Bucket_3: 38203
Non-critical_ROB_Stalls_Percent_7_Bucket_3: 17127
Critical_ROB_Stalls_Percent_7_Bucket_4: 31204
Non-critical_ROB_Stalls_Percent_7_Bucket_4: 18138
Critical_ROB_Stalls_Percent_7_Bucket_5: 29539
Non-critical_ROB_Stalls_Percent_7_Bucket_5: 33896
Critical_ROB_Stalls_Percent_7_Bucket_6: 308163
Non-critical_ROB_Stalls_Percent_7_Bucket_6: 197942
Critical_ROB_Stalls_Percent_8_Bucket_0: 3894016
Non-critical_ROB_Stalls_Percent_8_Bucket_0: 188259
Critical_ROB_Stalls_Percent_8_Bucket_1: 350104
Non-critical_ROB_Stalls_Percent_8_Bucket_1: 77836
Critical_ROB_Stalls_Percent_8_Bucket_2: 68038
Non-critical_ROB_Stalls_Percent_8_Bucket_2: 18685
Critical_ROB_Stalls_Percent_8_Bucket_3: 40718
Non-critical_ROB_Stalls_Percent_8_Bucket_3: 14612
Critical_ROB_Stalls_Percent_8_Bucket_4: 33787
Non-critical_ROB_Stalls_Percent_8_Bucket_4: 15555
Critical_ROB_Stalls_Percent_8_Bucket_5: 42249
Non-critical_ROB_Stalls_Percent_8_Bucket_5: 21186
Critical_ROB_Stalls_Percent_8_Bucket_6: 320581
Non-critical_ROB_Stalls_Percent_8_Bucket_6: 185524
Average ROB occupancy Load Stall Begin: 60.435
Average ROB occupancy Load Stall End: 69.0388
Min ROB occupancy Load Stall Begin: 1
Max ROB occupancy Load Stall Begin: 352
Min ROB occupancy Load Stall End: 1
Max ROB occupancy Load Stall End: 352
Average ROB occupancy Critical Load Stall Begin: -nan
Average ROB occupancy Critical Load Stall End: -nan
Min ROB occupancy Critical Load Stall Begin: 400
Max ROB occupancy Critical Load Stall Begin: 0
Min ROB occupancy Critical Load Stall End: 400
Max ROB occupancy Critical Load Stall End: 0
 ROB Load Stall Begin Bucket Count 0: 4313848
 ROB Load Stall End Bucket Count 0: 4082275
 ROB Critical Load Stall Begin Bucket Count 0: 0
 ROB Critical Load Stall End Bucket Count 0: 0
 ROB Load Stall Begin Bucket Count 1: 250487
 ROB Load Stall End Bucket Count 1: 427940
 ROB Critical Load Stall Begin Bucket Count 1: 0
 ROB Critical Load Stall End Bucket Count 1: 0
 ROB Load Stall Begin Bucket Count 2: 74074
 ROB Load Stall End Bucket Count 2: 86723
 ROB Critical Load Stall Begin Bucket Count 2: 0
 ROB Critical Load Stall End Bucket Count 2: 0
 ROB Load Stall Begin Bucket Count 3: 51175
 ROB Load Stall End Bucket Count 3: 55330
 ROB Critical Load Stall Begin Bucket Count 3: 0
 ROB Critical Load Stall End Bucket Count 3: 0
 ROB Load Stall Begin Bucket Count 4: 42352
 ROB Load Stall End Bucket Count 4: 49342
 ROB Critical Load Stall Begin Bucket Count 4: 0
 ROB Critical Load Stall End Bucket Count 4: 0
 ROB Load Stall Begin Bucket Count 5: 85880
 ROB Load Stall End Bucket Count 5: 63435
 ROB Critical Load Stall Begin Bucket Count 5: 0
 ROB Critical Load Stall End Bucket Count 5: 0
 ROB Load Stall Begin Bucket Count 6: 453334
 ROB Load Stall End Bucket Count 6: 506105
 ROB Critical Load Stall Begin Bucket Count 6: 0
 ROB Critical Load Stall End Bucket Count 6: 0
PIST Tag Read Accesses: 114586
PIST Read Accesses: 57293
PIST Tag Write Accesses: 114586
PIST Write Accesses: 57293
Criticality detector called times: 712087
Max global_stall_cycles_count: 678159
Threshold Modified: 1 times, factor: -1
Sturdy critical IP cache stats: 
 Unused entries: 0
CIC Tag Read Accesses: 0
CIC Read Accesses: 0
CIC Tag Write Accesses: 0
CIC Write Accesses: 0
Wobbly critical IP cache stats: 
 Unused entries: 10
CIC Tag Read Accesses: 221829077
CIC Read Accesses: 0
CIC Tag Write Accesses: 2910622
CIC Write Accesses: 0
ITLB TOTAL     ACCESS:   14402330  HIT:   14402325  MISS:          5  HIT %:        100  MISS %: 3.47166e-05   MPKI: 5e-05
ITLB LOAD TRANSLATION ACCESS:   14402330  HIT:   14402325  MISS:          5  HIT %:        100  MISS %: 3.47166e-05   MPKI: 5e-05
ITLB PREFETCH  REQUESTED:          0  ISSUED:          0  USEFUL:          0  USELESS:          0
ITLB USEFUL LOAD PREFETCHES:          0 PREFETCH ISSUED TO LOWER LEVEL:          0  ACCURACY: -nan
ITLB TIMELY PREFETCHES:          0 LATE PREFETCHES: 0 DROPPED PREFETCHES: 0
ITLB PREFETCHES SAME FILL-ORIGIN LEVEL: 0 DIFFERENT FILL-ORIGIN LEVEL: 0
ITLB AVERAGE MISS LATENCY: 406.2 cycles
ITLB RQ	ACCESS:   17789251	FORWARD:          0	MERGED:    3386921	TO_CACHE:   14402330

DTLB TOTAL     ACCESS:   21384258  HIT:   21337364  MISS:      46894  HIT %:    99.7807  MISS %:   0.219292   MPKI: 0.46894
DTLB LOAD TRANSLATION ACCESS:   21384258  HIT:   21337364  MISS:      46894  HIT %:    99.7807  MISS %:   0.219292   MPKI: 0.46894
DTLB PREFETCH  REQUESTED:          0  ISSUED:          0  USEFUL:          0  USELESS:          0
DTLB USEFUL LOAD PREFETCHES:          0 PREFETCH ISSUED TO LOWER LEVEL:          0  ACCURACY: -nan
DTLB TIMELY PREFETCHES:          0 LATE PREFETCHES: 0 DROPPED PREFETCHES: 0
DTLB PREFETCHES SAME FILL-ORIGIN LEVEL: 0 DIFFERENT FILL-ORIGIN LEVEL: 0
DTLB AVERAGE MISS LATENCY: 130.214 cycles
DTLB RQ	ACCESS:   22762024	FORWARD:          0	MERGED:    1344133	TO_CACHE:   21417891

STLB TOTAL     ACCESS:    2075604  HIT:    2030507  MISS:      45097  HIT %:    97.8273  MISS %:    2.17272   MPKI: 0.45097
STLB LOAD TRANSLATION ACCESS:      46899  HIT:       1802  MISS:      45097  HIT %:     3.8423  MISS %:    96.1577   MPKI: 0.45097
STLB TRANSLATION FROM L1D PREFETCHER ACCESS:    2028705  HIT:    2028705  MISS:          0  HIT %:        100  MISS %:          0   MPKI: 0
STLB PREFETCH  REQUESTED:          0  ISSUED:          0  USEFUL:          0  USELESS:          0
STLB USEFUL LOAD PREFETCHES:          0 PREFETCH ISSUED TO LOWER LEVEL:          0  ACCURACY: -nan
STLB TIMELY PREFETCHES:          0 LATE PREFETCHES: 0 DROPPED PREFETCHES: 0
STLB PREFETCHES SAME FILL-ORIGIN LEVEL: 0 DIFFERENT FILL-ORIGIN LEVEL: 0
STLB AVERAGE MISS LATENCY: 125.899 cycles
STLB RQ	ACCESS:    4032366	FORWARD:          0	MERGED:    1956762	TO_CACHE:    2075604

STLB Hit, L1D data hit: 0
STLB Hit, L2C data hit: 0
STLB Hit, LLC data hit: 0
STLB Hit, LLC data miss: 0
STLB STLB hints to L2: 0
L1D TOTAL     ACCESS:   23860561  HIT:   21164177  MISS:    2696384  HIT %:    88.6994  MISS %:    11.3006   MPKI: 26.9638
L1D LOAD      ACCESS:   18544006  HIT:   18189347  MISS:     354659  HIT %:    98.0875  MISS %:    1.91253   MPKI: 3.54659
L1D RFO       ACCESS:    1419051  HIT:     823117  MISS:     595934  HIT %:    58.0048  MISS %:    41.9952   MPKI: 5.95934
L1D PREFETCH  ACCESS:    3897504  HIT:    2151713  MISS:    1745791  HIT %:    55.2075  MISS %:    44.7925   MPKI: 17.4579
L1D PREFETCH  REQUESTED:    8000927  ISSUED:    7970942  USEFUL:    1666471  USELESS:      79255
L1D USEFUL LOAD PREFETCHES:    1666471 PREFETCH ISSUED TO LOWER LEVEL:    1824684  ACCURACY: 91.3293
L1D TIMELY PREFETCHES:    1666471 LATE PREFETCHES: 74553 DROPPED PREFETCHES: 0
L1D PREFETCHES SAME FILL-ORIGIN LEVEL: 1824684 DIFFERENT FILL-ORIGIN LEVEL: 0
L1D AVERAGE MISS LATENCY: 3.15178e+06 cycles
L1D RQ	ACCESS:   29526218	FORWARD:          0	MERGED:   10861169	TO_CACHE:   18663909
L1D WQ	ACCESS:    4098115	FORWARD:       1140	MERGED:          0	TO_CACHE:    4098115
L1D PQ	ACCESS:    3985475	FORWARD:          0	MERGED:          8	TO_CACHE:    3985467

L1D UNIQUE REGIONS ACCESSED: 0
L1D REGIONS CONFLICTS: 0
L1D Cross Page Prefetch Requests: 0
L1D Same Page Prefetch Requests: 8056236
L1D ROI Sum of L1D PQ occupancy: 60742435
L1D PREFETCHES PUSHED FROM L2C: 0
L1I TOTAL     ACCESS:   17789079  HIT:   17788747  MISS:        332  HIT %:    99.9981  MISS %: 0.00186631   MPKI: 0.00332
L1I LOAD      ACCESS:   17789079  HIT:   17788747  MISS:        332  HIT %:    99.9981  MISS %: 0.00186631   MPKI: 0.00332
L1I PREFETCH  REQUESTED:          0  ISSUED:          0  USEFUL:          0  USELESS:          0
L1I USEFUL LOAD PREFETCHES:          0 PREFETCH ISSUED TO LOWER LEVEL:          0  ACCURACY: -nan
L1I TIMELY PREFETCHES:          0 LATE PREFETCHES: 0 DROPPED PREFETCHES: 0
L1I PREFETCHES SAME FILL-ORIGIN LEVEL: 0 DIFFERENT FILL-ORIGIN LEVEL: 0
L1I AVERAGE MISS LATENCY: 253.503 cycles
L1I RQ	ACCESS:   25547220	FORWARD:          0	MERGED:    7757969	TO_CACHE:   17789251

BTB TOTAL     ACCESS:    3186003  HIT:    3185934  MISS:         69  HIT %:    99.9978  MISS %: 0.00216572   MPKI: 0.00069
BTB BRANCH_DIRECT_JUMP	ACCESS:        512  HIT:        511  MISS:          1
BTB BRANCH_INDIRECT	ACCESS:          0  HIT:          0  MISS:          0
BTB BRANCH_CONDITIONAL	ACCESS:    3185485  HIT:    3185423  MISS:         62
BTB BRANCH_DIRECT_CALL	ACCESS:          3  HIT:          0  MISS:          3
BTB BRANCH_INDIRECT_CALL	ACCESS:          0  HIT:          0  MISS:          0
BTB BRANCH_RETURN	ACCESS:          3  HIT:          0  MISS:          3
BTB BRANCH_OTHER ACCESS:          0  HIT:          0  MISS:          0

L2C TOTAL     ACCESS:    9615733  HIT:    7187450  MISS:    2428283  HIT %:    74.7468  MISS %:    25.2532   MPKI: 24.2828
L2C LOAD      ACCESS:     280438  HIT:     215263  MISS:      65175  HIT %:    76.7596  MISS %:    23.2404   MPKI: 0.65175
L2C DATA LOAD MPKI: 0.64843
L2C INSTRUCTION LOAD MPKI: 0.00332
L2C RFO       ACCESS:     595934  HIT:          4  MISS:     595930  HIT %: 0.000671215  MISS %:    99.9993   MPKI: 5.9593
L2C PREFETCH  ACCESS:    7963181  HIT:    6221736  MISS:    1741445  HIT %:    78.1313  MISS %:    21.8687   MPKI: 17.4144
L2C DATA PREFETCH MPKI: 17.4144
L2C INSTRUCTION PREFETCH MPKI: 0
L2C WRITEBACK ACCESS:     731002  HIT:     713944  MISS:      17058  HIT %:    97.6665  MISS %:    2.33351   MPKI: 0.17058
L2C LOAD TRANSLATION ACCESS:      45178  HIT:      36503  MISS:       8675  HIT %:    80.7982  MISS %:    19.2018   MPKI: 0.08675
L2C PREFETCH  REQUESTED:    8017906  ISSUED:    7973028  USEFUL:     185593  USELESS:    1553993
L2C USEFUL LOAD PREFETCHES:     185593 PREFETCH ISSUED TO LOWER LEVEL:    1746021  ACCURACY: 10.6295
L2C TIMELY PREFETCHES:     185593 LATE PREFETCHES: 4557 DROPPED PREFETCHES: 0
L2C PREFETCHES SAME FILL-ORIGIN LEVEL: 1475050 DIFFERENT FILL-ORIGIN LEVEL: 0
L2C AVERAGE MISS LATENCY: 303.24 cycles
L2C RQ	ACCESS:     921553	FORWARD:          0	MERGED:          0	TO_CACHE:     921553
L2C WQ	ACCESS:     731002	FORWARD:          0	MERGED:          0	TO_CACHE:     731002
L2C PQ	ACCESS:    9793372	FORWARD:          0	MERGED:     712301	TO_CACHE:    9081071

L2C Instructions Evicting Data 322
L2C Translations Evicting Data 8631
L2C Data Evicting Data 2393359
L2C Instructions Evicting Instructions 0
L2C Translations Evicting Instructions 4
L2C Data Evicting Instructions 323
L2C Instructions Evicting Translations 10
L2C Translations Evicting Translations 40
L2C Data Evicting Translations 8536
L2C Dense regions hint from L2: 0
PSCL5 TOTAL     ACCESS:      45097  HIT:      45097  MISS:          0  HIT %:        100  MISS %:          0   MPKI: 0
PSCL5 LOAD TRANSLATION ACCESS:      45097  HIT:      45097  MISS:          0  HIT %:        100  MISS %:          0   MPKI: 0
PSCL5 PREFETCH  REQUESTED:          0  ISSUED:          0  USEFUL:          0  USELESS:          0
PSCL5 USEFUL LOAD PREFETCHES:          0 PREFETCH ISSUED TO LOWER LEVEL:          0  ACCURACY: -nan
PSCL5 TIMELY PREFETCHES:          0 LATE PREFETCHES: 0 DROPPED PREFETCHES: 0
PSCL5 PREFETCHES SAME FILL-ORIGIN LEVEL: 0 DIFFERENT FILL-ORIGIN LEVEL: 0

PSCL4 TOTAL     ACCESS:      45097  HIT:      45097  MISS:          0  HIT %:        100  MISS %:          0   MPKI: 0
PSCL4 LOAD TRANSLATION ACCESS:      45097  HIT:      45097  MISS:          0  HIT %:        100  MISS %:          0   MPKI: 0
PSCL4 PREFETCH  REQUESTED:          0  ISSUED:          0  USEFUL:          0  USELESS:          0
PSCL4 USEFUL LOAD PREFETCHES:          0 PREFETCH ISSUED TO LOWER LEVEL:          0  ACCURACY: -nan
PSCL4 TIMELY PREFETCHES:          0 LATE PREFETCHES: 0 DROPPED PREFETCHES: 0
PSCL4 PREFETCHES SAME FILL-ORIGIN LEVEL: 0 DIFFERENT FILL-ORIGIN LEVEL: 0

PSCL3 TOTAL     ACCESS:      44836  HIT:      44834  MISS:          2  HIT %:    99.9955  MISS %:  0.0044607   MPKI: 2e-05
PSCL3 LOAD TRANSLATION ACCESS:      44836  HIT:      44834  MISS:          2  HIT %:    99.9955  MISS %:  0.0044607   MPKI: 2e-05
PSCL3 PREFETCH  REQUESTED:          0  ISSUED:          0  USEFUL:          0  USELESS:          0
PSCL3 USEFUL LOAD PREFETCHES:          0 PREFETCH ISSUED TO LOWER LEVEL:          0  ACCURACY: -nan
PSCL3 TIMELY PREFETCHES:          0 LATE PREFETCHES: 0 DROPPED PREFETCHES: 0
PSCL3 PREFETCHES SAME FILL-ORIGIN LEVEL: 0 DIFFERENT FILL-ORIGIN LEVEL: 0

PSCL2 TOTAL     ACCESS:      45097  HIT:      44993  MISS:        104  HIT %:    99.7694  MISS %:   0.230614   MPKI: 0.00104
PSCL2 LOAD TRANSLATION ACCESS:      45097  HIT:      44993  MISS:        104  HIT %:    99.7694  MISS %:   0.230614   MPKI: 0.00104
PSCL2 PREFETCH  REQUESTED:          0  ISSUED:          0  USEFUL:          0  USELESS:          0
PSCL2 USEFUL LOAD PREFETCHES:          0 PREFETCH ISSUED TO LOWER LEVEL:          0  ACCURACY: -nan
PSCL2 TIMELY PREFETCHES:          0 LATE PREFETCHES: 0 DROPPED PREFETCHES: 0
PSCL2 PREFETCHES SAME FILL-ORIGIN LEVEL: 0 DIFFERENT FILL-ORIGIN LEVEL: 0

LLC TOTAL     ACCESS:    3142877  HIT:      72020  MISS:    3070857  HIT %:    2.29153  MISS %:    97.7085   MPKI: 30.7086
LLC LOAD      ACCESS:      60618  HIT:       1682  MISS:      58936  HIT %:    2.77475  MISS %:    97.2252   MPKI: 0.58936
LLC RFO       ACCESS:     595931  HIT:       8911  MISS:     587020  HIT %:    1.49531  MISS %:    98.5047   MPKI: 5.8702
LLC PREFETCH  ACCESS:    1746005  HIT:      18271  MISS:    1727734  HIT %:    1.04645  MISS %:    98.9536   MPKI: 17.2773
LLC WRITEBACK ACCESS:     731648  HIT:      43047  MISS:     688601  HIT %:    5.88357  MISS %:    94.1164   MPKI: 6.88601
LLC LOAD TRANSLATION ACCESS:       8675  HIT:        109  MISS:       8566  HIT %:    1.25648  MISS %:    98.7435   MPKI: 0.08566
LLC PREFETCH  REQUESTED:          0  ISSUED:          0  USEFUL:        671  USELESS:    1725106
LLC USEFUL LOAD PREFETCHES:        671 PREFETCH ISSUED TO LOWER LEVEL:    1727750  ACCURACY: 0.0388366
LLC TIMELY PREFETCHES:        671 LATE PREFETCHES: 0 DROPPED PREFETCHES: 0
LLC PREFETCHES SAME FILL-ORIGIN LEVEL: 0 DIFFERENT FILL-ORIGIN LEVEL: 0
LLC AVERAGE MISS LATENCY: 216.397 cycles
LLC RQ	ACCESS:     665225	FORWARD:          0	MERGED:          0	TO_CACHE:     665225
LLC WQ	ACCESS:     731648	FORWARD:          0	MERGED:          0	TO_CACHE:     731648
LLC PQ	ACCESS:    1746021	FORWARD:          0	MERGED:          0	TO_CACHE:    1746021

LLC Dense regions hint to LLC: 0

RAW hits: 8744
Loads Generated: 29534975
Loads sent to L1D: 29526218
Stores Generated: 4098297
Stores sent to L1D: 4098298
Major fault: 0 Minor fault: 39257
Allocated PAGES: 39257

stream: 
stream:times selected: 4540835
stream:pref_filled: 3067854
stream:pref_useful: 2916379
stream:pref_late: 74069
stream:misses: 301
stream:misses_by_poll: 0

CS: 
CS:times selected: 4273184
CS:pref_filled: 3824
CS:pref_useful: 3428
CS:pref_late: 44
CS:misses: 245158
CS:misses_by_poll: 17

CPLX: 
CPLX:times selected: 267530
CPLX:pref_filled: 6816
CPLX:pref_useful: 5050
CPLX:pref_late: 52
CPLX:misses: 9950
CPLX:misses_by_poll: 11

NL_L1: 
NL:times selected: 77
NL:pref_filled: 3
NL:pref_useful: 3
NL:pref_late: 0
NL:misses: 2
NL:misses_by_poll: 0

total selections: 9081626
total_filled: 1745791
total_useful: 1666471
total_late: 75226
total_polluted: 28
total_misses_after_warmup: 297812
conflicts: 243722
Degree Incremented Times: 258525
Degree Decremented Times: 0

L1 IP Table Write Accesses: 13064972
L1 IP Table Read Accesses: 12821250
L1 RST Write Accesses: 2998517
L1 RST Read Accesses: 5997034
L1 CSPT Write Accesses: 2998517
L1 CSPT Read Accesses: 3523223
L1 RR Filter Tag Write Accesses: 4015460
L1 RR Filter Tag Read Accesses: 581425620
L1 IP Table Tag Write Accesses: 13912121
L1 IP Table Tag Read Accesses: 13912121
L1 RST Tag Write Accesses: 0
L1 RST Tag Read Accesses: 27042127
L1 RR Filter Write Accesses: 0
L1 RR Filter Read Accesses: 25578925
test: 101802
L2 IP Table Read Accesses: 2893757
L2 IP Table Write Accesses: 2816971
L2 IP Table Tag Read Accesses: 1466806
L2 IP Table Tag Write Accesses: 1466806

DRAM Statistics
 CHANNEL 0
 RQ ROW_BUFFER_HIT:     375420  ROW_BUFFER_MISS:    2006744
 DBUS_CONGESTED:         33
 WQ ROW_BUFFER_HIT:     125063  ROW_BUFFER_MISS:     599378  FULL:        836

 AVG_CONGESTED_CYCLE: 5
 All warmup complete: 2
Channel 0 Bank busy for read cycles: 0
Channel 0 Bank busy for write cycles: 0
Channel 0
Rank 0
0banks busy for read cycles: 8560576
0banks busy for write cycles: 10268
1banks busy for read cycles: 16925485
1banks busy for write cycles: 1560706
2banks busy for read cycles: 22009112
2banks busy for write cycles: 355320
3banks busy for read cycles: 17812103
3banks busy for write cycles: 227542
4banks busy for read cycles: 7987855
4banks busy for write cycles: 222524
5banks busy for read cycles: 5430592
5banks busy for write cycles: 238193
6banks busy for read cycles: 5074594
6banks busy for write cycles: 291012
7banks busy for read cycles: 6780288
7banks busy for write cycles: 1318098
8banks busy for read cycles: 10121723
8banks busy for write cycles: 17193934

CPU 0 Branch Prediction Accuracy: 99.74% MPKI: 0.08327 Average ROB Occupancy at Mispredict: 88.5441
Branch types
NOT_BRANCH: 96797549 96.7975%
BRANCH_DIRECT_JUMP: 512 0.000512%
BRANCH_INDIRECT: 0 0%
BRANCH_CONDITIONAL: 3202246 3.20225%
BRANCH_DIRECT_CALL: 3 3e-06%
BRANCH_INDIRECT_CALL: 0 0%
BRANCH_RETURN: 3 3e-06%
BRANCH_OTHER: 0 0%

DRAM PAGES: 1048576
Allocated PAGES: 39257
