
*** ChampSim Multicore Out-of-Order Simulator ***

Warmup Instructions: 50000000
Simulation Instructions: 100000000
Number of CPUs: 1
LLC sets: 2048
LLC ways: 16
Off-chip DRAM Size: 4096 MB Channels: 1 Width: 64-bit Data Rate: 6400 MT/s
CPU 0 runs ../SPEC2017//654.roms_s-1613B.champsimtrace.xz
.xz
NUM_OF_IPS_IN_CRITICAL_IP_TRAINING: 64
NUM_OF_CRITICAL_IP_TRAINING_TABLE_WAYS: 2
NUM_OF_CRITICAL_IP_TRAINING_TABLE_SETS: 32
WOBBLY_CRITICAL_IP_CACHE_SETS: 32
WOBBLY_CRITICAL_IP_CACHE_WAYS: 4
BTB has LRU replacement policy
ITLB has LRU replacement policy
DTLB has LRU replacement policy
STLB has LRU replacement policy
L1I has LRU replacement policy
IP Table Entries: 64
L1D has LRU replacement policy
Initialize SRRIP state for L2C
Initialize DRRIP state for LLC
Heartbeat CPU 0 instructions: 10000001 cycles: 2910589 heartbeat IPC: 3.43573 cumulative IPC: 3.43573 (Simulation time: 0 hr 5 min 4 sec) 
Heartbeat CPU 0 instructions: 20000000 cycles: 5821030 heartbeat IPC: 3.4359 cumulative IPC: 3.43582 (Simulation time: 0 hr 9 min 22 sec) 
Heartbeat CPU 0 instructions: 30000000 cycles: 8731449 heartbeat IPC: 3.43593 cumulative IPC: 3.43586 (Simulation time: 0 hr 13 min 32 sec) 
Heartbeat CPU 0 instructions: 40000000 cycles: 11641914 heartbeat IPC: 3.43588 cumulative IPC: 3.43586 (Simulation time: 0 hr 17 min 15 sec) 
Heartbeat CPU 0 instructions: 50000001 cycles: 15087098 heartbeat IPC: 2.9026 cumulative IPC: 3.31409 (Simulation time: 0 hr 20 min 42 sec) 

Warmup complete CPU 0 instructions: 50000001 cycles: 15087098 (Simulation time: 0 hr 20 min 42 sec) 

% increase in all ip prefetch 412.833
% increase in all ip prefetch -0.0243272
Heartbeat CPU 0 instructions: 60000001 cycles: 31748858 heartbeat IPC: 0.600177 cumulative IPC: 0.600177 (Simulation time: 0 hr 23 min 42 sec) 
Heartbeat CPU 0 instructions: 70000003 cycles: 48388235 heartbeat IPC: 0.600984 cumulative IPC: 0.60058 (Simulation time: 0 hr 26 min 26 sec) 
Heartbeat CPU 0 instructions: 80000000 cycles: 65016136 heartbeat IPC: 0.601399 cumulative IPC: 0.600853 (Simulation time: 0 hr 29 min 27 sec) 
Heartbeat CPU 0 instructions: 90000001 cycles: 81635585 heartbeat IPC: 0.601705 cumulative IPC: 0.601066 (Simulation time: 0 hr 32 min 12 sec) 
Heartbeat CPU 0 instructions: 100000000 cycles: 98257332 heartbeat IPC: 0.601621 cumulative IPC: 0.601177 (Simulation time: 0 hr 35 min 9 sec) 
Heartbeat CPU 0 instructions: 110000000 cycles: 114879592 heartbeat IPC: 0.601603 cumulative IPC: 0.601248 (Simulation time: 0 hr 37 min 52 sec) 
Heartbeat CPU 0 instructions: 120000001 cycles: 135803538 heartbeat IPC: 0.477921 cumulative IPC: 0.579871 (Simulation time: 0 hr 41 min 44 sec) 
Heartbeat CPU 0 instructions: 130000000 cycles: 152424921 heartbeat IPC: 0.601635 cumulative IPC: 0.582505 (Simulation time: 0 hr 44 min 26 sec) 
Heartbeat CPU 0 instructions: 140000003 cycles: 169053390 heartbeat IPC: 0.601378 cumulative IPC: 0.584544 (Simulation time: 0 hr 47 min 7 sec) 
Heartbeat CPU 0 instructions: 150000001 cycles: 185683124 heartbeat IPC: 0.601332 cumulative IPC: 0.58618 (Simulation time: 0 hr 49 min 46 sec) 
Finished CPU 0 instructions: 100000000 cycles: 170596026 cumulative IPC: 0.58618 (Simulation time: 0 hr 49 min 46 sec) 

ChampSim completed all CPUs

Region of Interest Statistics

CPU 0 cumulative IPC: 0.58618 instructions: 100000000 cycles: 170596026

CPU 0 Average Load ROB stall cycles: 2.90728e+07
CPU 0 Fraction of times ROB stalled by Loads: 29.0048
CPU 0 Percentage of Load stall cycles in Total stall cycles: 5.76904e+08
Issued all: 62617412
Issued LT all: 48735094
rob_not_full_when_issued_lt_all: 43762279
Issued LT one: 40976699
rob_not_full_when_issued_lt_one: 36278733
 Total stall cycles: 144859964
 Total load stall cycles: 835702915807748
CPU 0 NUM of IPS identified critical: 0
CPU 0 Num of Load IPs stalling ROB: 283
Threshold modification factor: -1
Max PIST entries: 55
Min PIST entries: 0
Avg PIST entries: 14.44
Trouble in retire width: 0.988806
MaC = Marked as critical.
lt_50_percent_before_Mac: 0
gt_90_percent_before_Mac: 0
gt_75_percent_before_Mac: 0
gt_50_percent_before_Mac: 0
stall_proportion_bin_same_before_after: 0
stall_proportion_bin_lower_before_after: 0
stall_proportion_bin_upper_before_after: 0
average_stall_proportion_before: -nan
average_stall_proportion_after: -nan
Critical IP stalls, total frequency: 0
Non-critical IP stalls, total frequency: 8337478
Total Freq all stalling IPs: 8337478
stat_90_percent_critical_ip_stalls_freq: 7745395
stat_90_percent_non_critical_ip_stalls_freq: 592083
Critical_IP_ROB_Stalls_Bucket_0: 0
Non-critical_IP_ROB_Stalls_Bucket_0: 4749718
Critical_IP_ROB_Stalls_Bucket_1: 0
Non-critical_IP_ROB_Stalls_Bucket_1: 3304122
Critical_IP_ROB_Stalls_Bucket_2: 0
Non-critical_IP_ROB_Stalls_Bucket_2: 6766
Critical_IP_ROB_Stalls_Bucket_3: 0
Non-critical_IP_ROB_Stalls_Bucket_3: 4317
Critical_IP_ROB_Stalls_Bucket_4: 0
Non-critical_IP_ROB_Stalls_Bucket_4: 2965
Critical_IP_ROB_Stalls_Bucket_5: 0
Non-critical_IP_ROB_Stalls_Bucket_5: 3631
Critical_IP_ROB_Stalls_Bucket_6: 0
Non-critical_IP_ROB_Stalls_Bucket_6: 265959
0 => IPs accounting for >50 percent of stalls, 1 => 55, 2 => 60, 3 => 65 and so on till 90.
percent50: 51.072 num IPs:  6
percent55: 59.3703 num IPs: 7
percent60: 63.8363 num IPs: 8
percent65: 68.1068 num IPs: 9
percent70: 72.3773 num IPs: 10
percent75: 76.6479 num IPs: 11
percent80: 80.9099 num IPs: 12
percent85: 85.1711 num IPs: 13
percent90: 92.8985 num IPs: 15
Critical_ROB_Stalls_Percent_0_Bucket_0: 1425857
Non-critical_ROB_Stalls_Percent_0_Bucket_0: 3323861
Critical_ROB_Stalls_Percent_0_Bucket_1: 2831158
Non-critical_ROB_Stalls_Percent_0_Bucket_1: 472964
Critical_ROB_Stalls_Percent_0_Bucket_2: 1083
Non-critical_ROB_Stalls_Percent_0_Bucket_2: 5683
Critical_ROB_Stalls_Percent_0_Bucket_3: 12
Non-critical_ROB_Stalls_Percent_0_Bucket_3: 4305
Critical_ROB_Stalls_Percent_0_Bucket_4: 3
Non-critical_ROB_Stalls_Percent_0_Bucket_4: 2962
Critical_ROB_Stalls_Percent_0_Bucket_5: 1
Non-critical_ROB_Stalls_Percent_0_Bucket_5: 3630
Critical_ROB_Stalls_Percent_0_Bucket_6: 5
Non-critical_ROB_Stalls_Percent_0_Bucket_6: 265954
Critical_ROB_Stalls_Percent_1_Bucket_0: 2117031
Non-critical_ROB_Stalls_Percent_1_Bucket_0: 2632687
Critical_ROB_Stalls_Percent_1_Bucket_1: 2831845
Non-critical_ROB_Stalls_Percent_1_Bucket_1: 472277
Critical_ROB_Stalls_Percent_1_Bucket_2: 1083
Non-critical_ROB_Stalls_Percent_1_Bucket_2: 5683
Critical_ROB_Stalls_Percent_1_Bucket_3: 13
Non-critical_ROB_Stalls_Percent_1_Bucket_3: 4304
Critical_ROB_Stalls_Percent_1_Bucket_4: 3
Non-critical_ROB_Stalls_Percent_1_Bucket_4: 2962
Critical_ROB_Stalls_Percent_1_Bucket_5: 2
Non-critical_ROB_Stalls_Percent_1_Bucket_5: 3629
Critical_ROB_Stalls_Percent_1_Bucket_6: 5
Non-critical_ROB_Stalls_Percent_1_Bucket_6: 265954
Critical_ROB_Stalls_Percent_2_Bucket_0: 2489386
Non-critical_ROB_Stalls_Percent_2_Bucket_0: 2260332
Critical_ROB_Stalls_Percent_2_Bucket_1: 2831845
Non-critical_ROB_Stalls_Percent_2_Bucket_1: 472277
Critical_ROB_Stalls_Percent_2_Bucket_2: 1083
Non-critical_ROB_Stalls_Percent_2_Bucket_2: 5683
Critical_ROB_Stalls_Percent_2_Bucket_3: 13
Non-critical_ROB_Stalls_Percent_2_Bucket_3: 4304
Critical_ROB_Stalls_Percent_2_Bucket_4: 3
Non-critical_ROB_Stalls_Percent_2_Bucket_4: 2962
Critical_ROB_Stalls_Percent_2_Bucket_5: 2
Non-critical_ROB_Stalls_Percent_2_Bucket_5: 3629
Critical_ROB_Stalls_Percent_2_Bucket_6: 5
Non-critical_ROB_Stalls_Percent_2_Bucket_6: 265954
Critical_ROB_Stalls_Percent_3_Bucket_0: 2845381
Non-critical_ROB_Stalls_Percent_3_Bucket_0: 1904337
Critical_ROB_Stalls_Percent_3_Bucket_1: 2831887
Non-critical_ROB_Stalls_Percent_3_Bucket_1: 472235
Critical_ROB_Stalls_Percent_3_Bucket_2: 1099
Non-critical_ROB_Stalls_Percent_3_Bucket_2: 5667
Critical_ROB_Stalls_Percent_3_Bucket_3: 13
Non-critical_ROB_Stalls_Percent_3_Bucket_3: 4304
Critical_ROB_Stalls_Percent_3_Bucket_4: 4
Non-critical_ROB_Stalls_Percent_3_Bucket_4: 2961
Critical_ROB_Stalls_Percent_3_Bucket_5: 2
Non-critical_ROB_Stalls_Percent_3_Bucket_5: 3629
Critical_ROB_Stalls_Percent_3_Bucket_6: 5
Non-critical_ROB_Stalls_Percent_3_Bucket_6: 265954
Critical_ROB_Stalls_Percent_4_Bucket_0: 3201325
Non-critical_ROB_Stalls_Percent_4_Bucket_0: 1548393
Critical_ROB_Stalls_Percent_4_Bucket_1: 2831980
Non-critical_ROB_Stalls_Percent_4_Bucket_1: 472142
Critical_ROB_Stalls_Percent_4_Bucket_2: 1115
Non-critical_ROB_Stalls_Percent_4_Bucket_2: 5651
Critical_ROB_Stalls_Percent_4_Bucket_3: 13
Non-critical_ROB_Stalls_Percent_4_Bucket_3: 4304
Critical_ROB_Stalls_Percent_4_Bucket_4: 5
Non-critical_ROB_Stalls_Percent_4_Bucket_4: 2960
Critical_ROB_Stalls_Percent_4_Bucket_5: 2
Non-critical_ROB_Stalls_Percent_4_Bucket_5: 3629
Critical_ROB_Stalls_Percent_4_Bucket_6: 5
Non-critical_ROB_Stalls_Percent_4_Bucket_6: 265954
Critical_ROB_Stalls_Percent_5_Bucket_0: 3202059
Non-critical_ROB_Stalls_Percent_5_Bucket_0: 1547659
Critical_ROB_Stalls_Percent_5_Bucket_1: 3187270
Non-critical_ROB_Stalls_Percent_5_Bucket_1: 116852
Critical_ROB_Stalls_Percent_5_Bucket_2: 1144
Non-critical_ROB_Stalls_Percent_5_Bucket_2: 5622
Critical_ROB_Stalls_Percent_5_Bucket_3: 13
Non-critical_ROB_Stalls_Percent_5_Bucket_3: 4304
Critical_ROB_Stalls_Percent_5_Bucket_4: 6
Non-critical_ROB_Stalls_Percent_5_Bucket_4: 2959
Critical_ROB_Stalls_Percent_5_Bucket_5: 2
Non-critical_ROB_Stalls_Percent_5_Bucket_5: 3629
Critical_ROB_Stalls_Percent_5_Bucket_6: 5
Non-critical_ROB_Stalls_Percent_5_Bucket_6: 265954
Critical_ROB_Stalls_Percent_6_Bucket_0: 3557397
Non-critical_ROB_Stalls_Percent_6_Bucket_0: 1192321
Critical_ROB_Stalls_Percent_6_Bucket_1: 3187274
Non-critical_ROB_Stalls_Percent_6_Bucket_1: 116848
Critical_ROB_Stalls_Percent_6_Bucket_2: 1145
Non-critical_ROB_Stalls_Percent_6_Bucket_2: 5621
Critical_ROB_Stalls_Percent_6_Bucket_3: 13
Non-critical_ROB_Stalls_Percent_6_Bucket_3: 4304
Critical_ROB_Stalls_Percent_6_Bucket_4: 6
Non-critical_ROB_Stalls_Percent_6_Bucket_4: 2959
Critical_ROB_Stalls_Percent_6_Bucket_5: 2
Non-critical_ROB_Stalls_Percent_6_Bucket_5: 3629
Critical_ROB_Stalls_Percent_6_Bucket_6: 5
Non-critical_ROB_Stalls_Percent_6_Bucket_6: 265954
Critical_ROB_Stalls_Percent_7_Bucket_0: 3912671
Non-critical_ROB_Stalls_Percent_7_Bucket_0: 837047
Critical_ROB_Stalls_Percent_7_Bucket_1: 3187277
Non-critical_ROB_Stalls_Percent_7_Bucket_1: 116845
Critical_ROB_Stalls_Percent_7_Bucket_2: 1146
Non-critical_ROB_Stalls_Percent_7_Bucket_2: 5620
Critical_ROB_Stalls_Percent_7_Bucket_3: 13
Non-critical_ROB_Stalls_Percent_7_Bucket_3: 4304
Critical_ROB_Stalls_Percent_7_Bucket_4: 6
Non-critical_ROB_Stalls_Percent_7_Bucket_4: 2959
Critical_ROB_Stalls_Percent_7_Bucket_5: 2
Non-critical_ROB_Stalls_Percent_7_Bucket_5: 3629
Critical_ROB_Stalls_Percent_7_Bucket_6: 5
Non-critical_ROB_Stalls_Percent_7_Bucket_6: 265954
Critical_ROB_Stalls_Percent_8_Bucket_0: 4544820
Non-critical_ROB_Stalls_Percent_8_Bucket_0: 204898
Critical_ROB_Stalls_Percent_8_Bucket_1: 3196991
Non-critical_ROB_Stalls_Percent_8_Bucket_1: 107131
Critical_ROB_Stalls_Percent_8_Bucket_2: 1766
Non-critical_ROB_Stalls_Percent_8_Bucket_2: 5000
Critical_ROB_Stalls_Percent_8_Bucket_3: 528
Non-critical_ROB_Stalls_Percent_8_Bucket_3: 3789
Critical_ROB_Stalls_Percent_8_Bucket_4: 413
Non-critical_ROB_Stalls_Percent_8_Bucket_4: 2552
Critical_ROB_Stalls_Percent_8_Bucket_5: 596
Non-critical_ROB_Stalls_Percent_8_Bucket_5: 3035
Critical_ROB_Stalls_Percent_8_Bucket_6: 281
Non-critical_ROB_Stalls_Percent_8_Bucket_6: 265678
Average ROB occupancy Load Stall Begin: 42.8693
Average ROB occupancy Load Stall End: 49.0816
Min ROB occupancy Load Stall Begin: 1
Max ROB occupancy Load Stall Begin: 352
Min ROB occupancy Load Stall End: 1
Max ROB occupancy Load Stall End: 352
Average ROB occupancy Critical Load Stall Begin: -nan
Average ROB occupancy Critical Load Stall End: -nan
Min ROB occupancy Critical Load Stall Begin: 400
Max ROB occupancy Critical Load Stall Begin: 0
Min ROB occupancy Critical Load Stall End: 400
Max ROB occupancy Critical Load Stall End: 0
 ROB Load Stall Begin Bucket Count 0: 6759571
 ROB Load Stall End Bucket Count 0: 4749718
 ROB Critical Load Stall Begin Bucket Count 0: 0
 ROB Critical Load Stall End Bucket Count 0: 0
 ROB Load Stall Begin Bucket Count 1: 1299950
 ROB Load Stall End Bucket Count 1: 3304122
 ROB Critical Load Stall Begin Bucket Count 1: 0
 ROB Critical Load Stall End Bucket Count 1: 0
 ROB Load Stall Begin Bucket Count 2: 5169
 ROB Load Stall End Bucket Count 2: 6766
 ROB Critical Load Stall Begin Bucket Count 2: 0
 ROB Critical Load Stall End Bucket Count 2: 0
 ROB Load Stall Begin Bucket Count 3: 3727
 ROB Load Stall End Bucket Count 3: 4317
 ROB Critical Load Stall Begin Bucket Count 3: 0
 ROB Critical Load Stall End Bucket Count 3: 0
 ROB Load Stall Begin Bucket Count 4: 2689
 ROB Load Stall End Bucket Count 4: 2965
 ROB Critical Load Stall Begin Bucket Count 4: 0
 ROB Critical Load Stall End Bucket Count 4: 0
 ROB Load Stall Begin Bucket Count 5: 2398
 ROB Load Stall End Bucket Count 5: 3631
 ROB Critical Load Stall Begin Bucket Count 5: 0
 ROB Critical Load Stall End Bucket Count 5: 0
 ROB Load Stall Begin Bucket Count 6: 263974
 ROB Load Stall End Bucket Count 6: 265959
 ROB Critical Load Stall Begin Bucket Count 6: 0
 ROB Critical Load Stall End Bucket Count 6: 0
PIST Tag Read Accesses: 191858
PIST Read Accesses: 95929
PIST Tag Write Accesses: 191858
PIST Write Accesses: 95929
Criticality detector called times: 3744107
Max global_stall_cycles_count: 200581
Threshold Modified: 1 times, factor: -1
Sturdy critical IP cache stats: 
 Unused entries: 0
CIC Tag Read Accesses: 0
CIC Read Accesses: 0
CIC Tag Write Accesses: 0
CIC Write Accesses: 0
Wobbly critical IP cache stats: 
 Unused entries: 114
CIC Tag Read Accesses: 168178186
CIC Read Accesses: 0
CIC Tag Write Accesses: 1403299
CIC Write Accesses: 0
ITLB TOTAL     ACCESS:   15214184  HIT:   15214176  MISS:          8  HIT %:    99.9999  MISS %: 5.25825e-05   MPKI: 8e-05
ITLB LOAD TRANSLATION ACCESS:   15214184  HIT:   15214176  MISS:          8  HIT %:    99.9999  MISS %: 5.25825e-05   MPKI: 8e-05
ITLB PREFETCH  REQUESTED:          0  ISSUED:          0  USEFUL:          0  USELESS:          0
ITLB USEFUL LOAD PREFETCHES:          0 PREFETCH ISSUED TO LOWER LEVEL:          0  ACCURACY: -nan
ITLB TIMELY PREFETCHES:          0 LATE PREFETCHES: 0 DROPPED PREFETCHES: 0
ITLB PREFETCHES SAME FILL-ORIGIN LEVEL: 0 DIFFERENT FILL-ORIGIN LEVEL: 0
ITLB AVERAGE MISS LATENCY: 283.75 cycles
ITLB RQ	ACCESS:   19844381	FORWARD:          0	MERGED:    4630197	TO_CACHE:   15214184

DTLB TOTAL     ACCESS:   20817954  HIT:   20811843  MISS:       6111  HIT %:    99.9706  MISS %:  0.0293545   MPKI: 0.06111
DTLB LOAD TRANSLATION ACCESS:   20817954  HIT:   20811843  MISS:       6111  HIT %:    99.9706  MISS %:  0.0293545   MPKI: 0.06111
DTLB PREFETCH  REQUESTED:          0  ISSUED:          0  USEFUL:          0  USELESS:          0
DTLB USEFUL LOAD PREFETCHES:          0 PREFETCH ISSUED TO LOWER LEVEL:          0  ACCURACY: -nan
DTLB TIMELY PREFETCHES:          0 LATE PREFETCHES: 0 DROPPED PREFETCHES: 0
DTLB PREFETCHES SAME FILL-ORIGIN LEVEL: 0 DIFFERENT FILL-ORIGIN LEVEL: 0
DTLB AVERAGE MISS LATENCY: 106.076 cycles
DTLB RQ	ACCESS:   24941788	FORWARD:          0	MERGED:    4117467	TO_CACHE:   20824321

STLB TOTAL     ACCESS:     164511  HIT:     158801  MISS:       5710  HIT %:    96.5291  MISS %:    3.47089   MPKI: 0.0571
STLB LOAD TRANSLATION ACCESS:       6119  HIT:        410  MISS:       5709  HIT %:    6.70044  MISS %:    93.2996   MPKI: 0.05709
STLB TRANSLATION FROM L1D PREFETCHER ACCESS:     158392  HIT:     158391  MISS:          1  HIT %:    99.9994  MISS %: 0.000631345   MPKI: 1e-05
STLB PREFETCH  REQUESTED:          0  ISSUED:          0  USEFUL:          1  USELESS:          0
STLB USEFUL LOAD PREFETCHES:          1 PREFETCH ISSUED TO LOWER LEVEL:          0  ACCURACY: inf
STLB TIMELY PREFETCHES:          1 LATE PREFETCHES: 0 DROPPED PREFETCHES: 0
STLB PREFETCHES SAME FILL-ORIGIN LEVEL: 0 DIFFERENT FILL-ORIGIN LEVEL: 0
STLB AVERAGE MISS LATENCY: 104.282 cycles
STLB RQ	ACCESS:     248014	FORWARD:          0	MERGED:      83503	TO_CACHE:     164511

STLB Hit, L1D data hit: 0
STLB Hit, L2C data hit: 0
STLB Hit, LLC data hit: 0
STLB Hit, LLC data miss: 0
STLB STLB hints to L2: 0
L1D TOTAL     ACCESS:   24695047  HIT:   24404555  MISS:     290492  HIT %:    98.8237  MISS %:    1.17632   MPKI: 2.90492
L1D LOAD      ACCESS:   14777347  HIT:   14763445  MISS:      13902  HIT %:    99.9059  MISS %:  0.0940764   MPKI: 0.13902
L1D RFO       ACCESS:    9684569  HIT:    9573003  MISS:     111566  HIT %:     98.848  MISS %:      1.152   MPKI: 1.11566
L1D PREFETCH  ACCESS:     233131  HIT:      68107  MISS:     165024  HIT %:     29.214  MISS %:     70.786   MPKI: 1.65024
L1D PREFETCH  REQUESTED:     483809  ISSUED:     483792  USEFUL:     153967  USELESS:      11085
L1D USEFUL LOAD PREFETCHES:     153967 PREFETCH ISSUED TO LOWER LEVEL:     172172  ACCURACY: 89.4263
L1D TIMELY PREFETCHES:     153967 LATE PREFETCHES: 7148 DROPPED PREFETCHES: 0
L1D PREFETCHES SAME FILL-ORIGIN LEVEL: 172172 DIFFERENT FILL-ORIGIN LEVEL: 0
L1D AVERAGE MISS LATENCY: 3.2181e+06 cycles
L1D RQ	ACCESS:   20046853	FORWARD:          0	MERGED:    5233374	TO_CACHE:   14800540
L1D WQ	ACCESS:   10855420	FORWARD:      12941	MERGED:     714172	TO_CACHE:   10141248
L1D PQ	ACCESS:     241897	FORWARD:          0	MERGED:          0	TO_CACHE:     241895

L1D UNIQUE REGIONS ACCESSED: 0
L1D REGIONS CONFLICTS: 0
L1D Cross Page Prefetch Requests: 0
L1D Same Page Prefetch Requests: 1449329
L1D ROI Sum of L1D PQ occupancy: 4558122
L1D PREFETCHES PUSHED FROM L2C: 0
L1I TOTAL     ACCESS:   19844365  HIT:   19844259  MISS:        106  HIT %:    99.9995  MISS %: 0.000534157   MPKI: 0.00106
L1I LOAD      ACCESS:   19844365  HIT:   19844259  MISS:        106  HIT %:    99.9995  MISS %: 0.000534157   MPKI: 0.00106
L1I PREFETCH  REQUESTED:          0  ISSUED:          0  USEFUL:          0  USELESS:          0
L1I USEFUL LOAD PREFETCHES:          0 PREFETCH ISSUED TO LOWER LEVEL:          0  ACCURACY: -nan
L1I TIMELY PREFETCHES:          0 LATE PREFETCHES: 0 DROPPED PREFETCHES: 0
L1I PREFETCHES SAME FILL-ORIGIN LEVEL: 0 DIFFERENT FILL-ORIGIN LEVEL: 0
L1I AVERAGE MISS LATENCY: 172.047 cycles
L1I RQ	ACCESS:   28927197	FORWARD:          0	MERGED:    9082816	TO_CACHE:   19844381

BTB TOTAL     ACCESS:    6673576  HIT:    5961136  MISS:     712440  HIT %:    89.3245  MISS %:    10.6755   MPKI: 7.1244
BTB BRANCH_DIRECT_JUMP	ACCESS:     712598  HIT:     712560  MISS:         38
BTB BRANCH_INDIRECT	ACCESS:         16  HIT:         15  MISS:          1
BTB BRANCH_CONDITIONAL	ACCESS:    3111182  HIT:    3111055  MISS:        127
BTB BRANCH_DIRECT_CALL	ACCESS:    1424889  HIT:    1424844  MISS:         45
BTB BRANCH_INDIRECT_CALL	ACCESS:          0  HIT:          0  MISS:          0
BTB BRANCH_RETURN	ACCESS:    1424891  HIT:     712662  MISS:     712229
BTB BRANCH_OTHER ACCESS:          0  HIT:          0  MISS:          0

L2C TOTAL     ACCESS:     407879  HIT:     115524  MISS:     292355  HIT %:    28.3231  MISS %:    71.6769   MPKI: 2.92355
L2C LOAD      ACCESS:       6860  HIT:         19  MISS:       6841  HIT %:   0.276968  MISS %:     99.723   MPKI: 0.06841
L2C DATA LOAD MPKI: 0.06735
L2C INSTRUCTION LOAD MPKI: 0.00106
L2C RFO       ACCESS:     111566  HIT:          1  MISS:     111565  HIT %: 0.00089633  MISS %:    99.9991   MPKI: 1.11565
L2C PREFETCH  ACCESS:     172172  HIT:        261  MISS:     171911  HIT %:   0.151593  MISS %:    99.8484   MPKI: 1.71911
L2C DATA PREFETCH MPKI: 1.71911
L2C INSTRUCTION PREFETCH MPKI: 0
L2C WRITEBACK ACCESS:     111568  HIT:     110591  MISS:        977  HIT %:    99.1243  MISS %:   0.875699   MPKI: 0.00977
L2C LOAD TRANSLATION ACCESS:       5712  HIT:       4651  MISS:       1061  HIT %:    81.4251  MISS %:    18.5749   MPKI: 0.01061
L2C TRANSLATION FROM L1D PREFETCHER ACCESS:          1  HIT:          1  MISS:          0  HIT %:        100  MISS %:          0   MPKI: 0
L2C PREFETCH  REQUESTED:          0  ISSUED:          0  USEFUL:         15  USELESS:     171769
L2C USEFUL LOAD PREFETCHES:         15 PREFETCH ISSUED TO LOWER LEVEL:     171911  ACCURACY: 0.00872545
L2C TIMELY PREFETCHES:         15 LATE PREFETCHES: 0 DROPPED PREFETCHES: 0
L2C PREFETCHES SAME FILL-ORIGIN LEVEL: 0 DIFFERENT FILL-ORIGIN LEVEL: 0
L2C AVERAGE MISS LATENCY: 243.04 cycles
L2C RQ	ACCESS:     124139	FORWARD:          0	MERGED:          0	TO_CACHE:     124139
L2C WQ	ACCESS:     111568	FORWARD:          0	MERGED:          0	TO_CACHE:     111568
L2C PQ	ACCESS:     172172	FORWARD:          0	MERGED:          0	TO_CACHE:     172172

L2C Instructions Evicting Data 105
L2C Translations Evicting Data 1043
L2C Data Evicting Data 289021
L2C Instructions Evicting Instructions 0
L2C Translations Evicting Instructions 1
L2C Data Evicting Instructions 116
L2C Instructions Evicting Translations 1
L2C Translations Evicting Translations 17
L2C Data Evicting Translations 1074
L2C Dense regions hint from L2: 0
PSCL5 TOTAL     ACCESS:       5710  HIT:       5710  MISS:          0  HIT %:        100  MISS %:          0   MPKI: 0
PSCL5 LOAD TRANSLATION ACCESS:       5709  HIT:       5709  MISS:          0  HIT %:        100  MISS %:          0   MPKI: 0
PSCL5 TRANSLATION FROM L1D PREFETCHER ACCESS:          1  HIT:          1  MISS:          0  HIT %:        100  MISS %:          0   MPKI: 0
PSCL5 PREFETCH  REQUESTED:          0  ISSUED:          0  USEFUL:          0  USELESS:          0
PSCL5 USEFUL LOAD PREFETCHES:          0 PREFETCH ISSUED TO LOWER LEVEL:          0  ACCURACY: -nan
PSCL5 TIMELY PREFETCHES:          0 LATE PREFETCHES: 0 DROPPED PREFETCHES: 0
PSCL5 PREFETCHES SAME FILL-ORIGIN LEVEL: 0 DIFFERENT FILL-ORIGIN LEVEL: 0

PSCL4 TOTAL     ACCESS:       5710  HIT:       5710  MISS:          0  HIT %:        100  MISS %:          0   MPKI: 0
PSCL4 LOAD TRANSLATION ACCESS:       5709  HIT:       5709  MISS:          0  HIT %:        100  MISS %:          0   MPKI: 0
PSCL4 TRANSLATION FROM L1D PREFETCHER ACCESS:          1  HIT:          1  MISS:          0  HIT %:        100  MISS %:          0   MPKI: 0
PSCL4 PREFETCH  REQUESTED:          0  ISSUED:          0  USEFUL:          0  USELESS:          0
PSCL4 USEFUL LOAD PREFETCHES:          0 PREFETCH ISSUED TO LOWER LEVEL:          0  ACCURACY: -nan
PSCL4 TIMELY PREFETCHES:          0 LATE PREFETCHES: 0 DROPPED PREFETCHES: 0
PSCL4 PREFETCHES SAME FILL-ORIGIN LEVEL: 0 DIFFERENT FILL-ORIGIN LEVEL: 0

PSCL3 TOTAL     ACCESS:       5710  HIT:       5710  MISS:          0  HIT %:        100  MISS %:          0   MPKI: 0
PSCL3 LOAD TRANSLATION ACCESS:       5709  HIT:       5709  MISS:          0  HIT %:        100  MISS %:          0   MPKI: 0
PSCL3 TRANSLATION FROM L1D PREFETCHER ACCESS:          1  HIT:          1  MISS:          0  HIT %:        100  MISS %:          0   MPKI: 0
PSCL3 PREFETCH  REQUESTED:          0  ISSUED:          0  USEFUL:          0  USELESS:          0
PSCL3 USEFUL LOAD PREFETCHES:          0 PREFETCH ISSUED TO LOWER LEVEL:          0  ACCURACY: -nan
PSCL3 TIMELY PREFETCHES:          0 LATE PREFETCHES: 0 DROPPED PREFETCHES: 0
PSCL3 PREFETCHES SAME FILL-ORIGIN LEVEL: 0 DIFFERENT FILL-ORIGIN LEVEL: 0

PSCL2 TOTAL     ACCESS:       5710  HIT:       5702  MISS:          8  HIT %:    99.8599  MISS %:   0.140105   MPKI: 8e-05
PSCL2 LOAD TRANSLATION ACCESS:       5709  HIT:       5701  MISS:          8  HIT %:    99.8599  MISS %:    0.14013   MPKI: 8e-05
PSCL2 TRANSLATION FROM L1D PREFETCHER ACCESS:          1  HIT:          1  MISS:          0  HIT %:        100  MISS %:          0   MPKI: 0
PSCL2 PREFETCH  REQUESTED:          0  ISSUED:          0  USEFUL:          0  USELESS:          0
PSCL2 USEFUL LOAD PREFETCHES:          0 PREFETCH ISSUED TO LOWER LEVEL:          0  ACCURACY: -nan
PSCL2 TIMELY PREFETCHES:          0 LATE PREFETCHES: 0 DROPPED PREFETCHES: 0
PSCL2 PREFETCHES SAME FILL-ORIGIN LEVEL: 0 DIFFERENT FILL-ORIGIN LEVEL: 0

LLC TOTAL     ACCESS:     403024  HIT:      97187  MISS:     305837  HIT %:    24.1144  MISS %:    75.8856   MPKI: 3.05837
LLC LOAD      ACCESS:       6841  HIT:          9  MISS:       6832  HIT %:    0.13156  MISS %:    99.8684   MPKI: 0.06832
LLC RFO       ACCESS:     111565  HIT:        102  MISS:     111463  HIT %:  0.0914265  MISS %:    99.9086   MPKI: 1.11463
LLC PREFETCH  ACCESS:     171911  HIT:        467  MISS:     171444  HIT %:   0.271652  MISS %:    99.7283   MPKI: 1.71444
LLC WRITEBACK ACCESS:     111646  HIT:      96605  MISS:      15041  HIT %:     86.528  MISS %:     13.472   MPKI: 0.15041
LLC LOAD TRANSLATION ACCESS:       1061  HIT:          4  MISS:       1057  HIT %:   0.377003  MISS %:     99.623   MPKI: 0.01057
LLC PREFETCH  REQUESTED:          0  ISSUED:          0  USEFUL:          1  USELESS:     176048
LLC USEFUL LOAD PREFETCHES:          1 PREFETCH ISSUED TO LOWER LEVEL:     171444  ACCURACY: 0.000583281
LLC TIMELY PREFETCHES:          1 LATE PREFETCHES: 0 DROPPED PREFETCHES: 0
LLC PREFETCHES SAME FILL-ORIGIN LEVEL: 0 DIFFERENT FILL-ORIGIN LEVEL: 0
LLC AVERAGE MISS LATENCY: 203.398 cycles
LLC RQ	ACCESS:     119467	FORWARD:          0	MERGED:          0	TO_CACHE:     119467
LLC WQ	ACCESS:     111646	FORWARD:          0	MERGED:          0	TO_CACHE:     111646
LLC PQ	ACCESS:     171911	FORWARD:          0	MERGED:          0	TO_CACHE:     171911

LLC Dense regions hint to LLC: 0

RAW hits: 2837208
Loads Generated: 22884063
Loads sent to L1D: 20046853
Stores Generated: 10855417
Stores sent to L1D: 10855420
Major fault: 0 Minor fault: 6008
Allocated PAGES: 6008

stream: 
stream:times selected: 2757521
stream:pref_filled: 283650
stream:pref_useful: 265003
stream:pref_late: 7015
stream:misses: 34
stream:misses_by_poll: 0

CS: 
CS:times selected: 435682
CS:pref_filled: 17962
CS:pref_useful: 17559
CS:pref_late: 114
CS:misses: 42298
CS:misses_by_poll: 40

CPLX: 
CPLX:times selected: 2321744
CPLX:pref_filled: 208
CPLX:pref_useful: 46
CPLX:pref_late: 8
CPLX:misses: 751
CPLX:misses_by_poll: 0

NL_L1: 
NL:times selected: 12
NL:pref_filled: 3
NL:pref_useful: 3
NL:pref_late: 2
NL:misses: 8
NL:misses_by_poll: 0

total selections: 5514959
total_filled: 165024
total_useful: 153967
total_late: 7290
total_polluted: 40
total_misses_after_warmup: 37096
conflicts: 1940
Degree Incremented Times: 180695
Degree Decremented Times: 0

L1 IP Table Write Accesses: 13340632
L1 IP Table Read Accesses: 13338692
L1 RST Write Accesses: 1629037
L1 RST Read Accesses: 3258074
L1 CSPT Write Accesses: 1629037
L1 CSPT Read Accesses: 5719399
L1 RR Filter Tag Write Accesses: 241914
L1 RR Filter Tag Read Accesses: 53099144
L1 IP Table Tag Write Accesses: 14800541
L1 IP Table Tag Read Accesses: 14800541
L1 RST Tag Write Accesses: 0
L1 RST Tag Read Accesses: 14174094
L1 RR Filter Write Accesses: 0
L1 RR Filter Read Accesses: 2115762
test: 1201202

DRAM Statistics
 CHANNEL 0
 RQ ROW_BUFFER_HIT:      52679  ROW_BUFFER_MISS:     238116
 DBUS_CONGESTED:         21
 WQ ROW_BUFFER_HIT:      13615  ROW_BUFFER_MISS:      89546  FULL:          0

 AVG_CONGESTED_CYCLE: 4
 All warmup complete: 2
Channel 0 Bank busy for read cycles: 0
Channel 0 Bank busy for write cycles: 0
Channel 0
Rank 0
0banks busy for read cycles: 145237103
0banks busy for write cycles: 30066
1banks busy for read cycles: 12238945
1banks busy for write cycles: 4567348
2banks busy for read cycles: 2292767
2banks busy for write cycles: 157844
3banks busy for read cycles: 1060301
3banks busy for write cycles: 67184
4banks busy for read cycles: 1006874
4banks busy for write cycles: 52089
5banks busy for read cycles: 380021
5banks busy for write cycles: 29285
6banks busy for read cycles: 329424
6banks busy for write cycles: 21969
7banks busy for read cycles: 541476
7banks busy for write cycles: 108240
8banks busy for read cycles: 969589
8banks busy for write cycles: 1505502

CPU 0 Branch Prediction Accuracy: 99.978% MPKI: 0.02252 Average ROB Occupancy at Mispredict: 34.4858
Branch types
NOT_BRANCH: 89756089 89.7561%
BRANCH_DIRECT_JUMP: 712598 0.712598%
BRANCH_INDIRECT: 16 1.6e-05%
BRANCH_CONDITIONAL: 6681200 6.6812%
BRANCH_DIRECT_CALL: 1424889 1.42489%
BRANCH_INDIRECT_CALL: 0 0%
BRANCH_RETURN: 1424891 1.42489%
BRANCH_OTHER: 0 0%

DRAM PAGES: 1048576
Allocated PAGES: 6008
