
*** ChampSim Multicore Out-of-Order Simulator ***

Warmup Instructions: 50000000
Simulation Instructions: 100000000
Number of CPUs: 1
LLC sets: 2048
LLC ways: 16
Off-chip DRAM Size: 4096 MB Channels: 1 Width: 64-bit Data Rate: 6400 MT/s
CPU 0 runs ../SPEC2017//654.roms_s-1390B.champsimtrace.xz
.xz
NUM_OF_IPS_IN_CRITICAL_IP_TRAINING: 64
NUM_OF_CRITICAL_IP_TRAINING_TABLE_WAYS: 2
NUM_OF_CRITICAL_IP_TRAINING_TABLE_SETS: 32
WOBBLY_CRITICAL_IP_CACHE_SETS: 32
WOBBLY_CRITICAL_IP_CACHE_WAYS: 4
BTB has LRU replacement policy
ITLB has LRU replacement policy
DTLB has LRU replacement policy
STLB has LRU replacement policy
L1I has LRU replacement policy
IP Table Entries: 64
L1D has LRU replacement policy
Initialize SRRIP state for L2C
Initialize DRRIP state for LLC
Heartbeat CPU 0 instructions: 10000001 cycles: 3756634 heartbeat IPC: 2.66196 cumulative IPC: 2.66196 (Simulation time: 0 hr 8 min 58 sec) 
Heartbeat CPU 0 instructions: 20000000 cycles: 7249717 heartbeat IPC: 2.8628 cumulative IPC: 2.75873 (Simulation time: 0 hr 14 min 12 sec) 
Heartbeat CPU 0 instructions: 30000003 cycles: 10666441 heartbeat IPC: 2.92678 cumulative IPC: 2.81256 (Simulation time: 0 hr 18 min 10 sec) 
Heartbeat CPU 0 instructions: 40000002 cycles: 14438278 heartbeat IPC: 2.65123 cumulative IPC: 2.77041 (Simulation time: 0 hr 23 min 44 sec) 
Heartbeat CPU 0 instructions: 50000000 cycles: 18782881 heartbeat IPC: 2.30171 cumulative IPC: 2.662 (Simulation time: 0 hr 29 min 31 sec) 

Warmup complete CPU 0 instructions: 50000002 cycles: 18782882 (Simulation time: 0 hr 29 min 31 sec) 

% increase in all ip prefetch 243.056
% increase in all ip prefetch -0.482247
Heartbeat CPU 0 instructions: 60000001 cycles: 30840608 heartbeat IPC: 0.829344 cumulative IPC: 0.829344 (Simulation time: 0 hr 32 min 57 sec) 
Heartbeat CPU 0 instructions: 70000003 cycles: 42200140 heartbeat IPC: 0.880318 cumulative IPC: 0.854071 (Simulation time: 0 hr 36 min 10 sec) 
Heartbeat CPU 0 instructions: 80000002 cycles: 53555295 heartbeat IPC: 0.880657 cumulative IPC: 0.862753 (Simulation time: 0 hr 39 min 7 sec) 
Heartbeat CPU 0 instructions: 90000003 cycles: 65531740 heartbeat IPC: 0.834972 cumulative IPC: 0.855636 (Simulation time: 0 hr 42 min 33 sec) 
Heartbeat CPU 0 instructions: 100000000 cycles: 79023252 heartbeat IPC: 0.741207 cumulative IPC: 0.830008 (Simulation time: 0 hr 45 min 41 sec) 
Heartbeat CPU 0 instructions: 110000000 cycles: 92047625 heartbeat IPC: 0.767791 cumulative IPC: 0.818948 (Simulation time: 0 hr 48 min 31 sec) 
Heartbeat CPU 0 instructions: 120000002 cycles: 104307082 heartbeat IPC: 0.815697 cumulative IPC: 0.818482 (Simulation time: 0 hr 50 min 55 sec) 
Heartbeat CPU 0 instructions: 130000000 cycles: 116244792 heartbeat IPC: 0.837681 cumulative IPC: 0.820833 (Simulation time: 0 hr 53 min 10 sec) 
Heartbeat CPU 0 instructions: 140000000 cycles: 133373162 heartbeat IPC: 0.583827 cumulative IPC: 0.785407 (Simulation time: 0 hr 59 min 5 sec) 
Heartbeat CPU 0 instructions: 150000000 cycles: 147591424 heartbeat IPC: 0.703321 cumulative IPC: 0.776346 (Simulation time: 1 hr 6 min 41 sec) 
Finished CPU 0 instructions: 100000002 cycles: 128808543 cumulative IPC: 0.776346 (Simulation time: 1 hr 6 min 41 sec) 

ChampSim completed all CPUs

Region of Interest Statistics

CPU 0 cumulative IPC: 0.776346 instructions: 100000002 cycles: 128808543

CPU 0 Average Load ROB stall cycles: 7.14796e+06
CPU 0 Fraction of times ROB stalled by Loads: 9.41609
CPU 0 Percentage of Load stall cycles in Total stall cycles: 1.1297e+08
 Total stall cycles: 86087575
 Total load stall cycles: 97252993003625
CPU 0 NUM of IPS identified critical: 75
CPU 0 Num of Load IPs stalling ROB: 406
Threshold modification factor: -1
Max PIST entries: 38
Min PIST entries: 0
Avg PIST entries: 12.96
Trouble in retire width: 0.902619
MaC = Marked as critical.
lt_50_percent_before_Mac: 68
gt_90_percent_before_Mac: 3
gt_75_percent_before_Mac: 2
gt_50_percent_before_Mac: 1
stall_proportion_bin_same_before_after: 0
stall_proportion_bin_lower_before_after: 0
stall_proportion_bin_upper_before_after: 0
average_stall_proportion_before: 0.0409508
average_stall_proportion_after: 0.0418506
Critical IP stalls, total frequency: 597013
Non-critical IP stalls, total frequency: 681585
Critical_IP_ROB_Stalls_Bucket_0: 432629
Non-critical_IP_ROB_Stalls_Bucket_0: 656125
Critical_IP_ROB_Stalls_Bucket_1: 23441
Non-critical_IP_ROB_Stalls_Bucket_1: 6531
Critical_IP_ROB_Stalls_Bucket_2: 8137
Non-critical_IP_ROB_Stalls_Bucket_2: 4887
Critical_IP_ROB_Stalls_Bucket_3: 11595
Non-critical_IP_ROB_Stalls_Bucket_3: 3802
Critical_IP_ROB_Stalls_Bucket_4: 8033
Non-critical_IP_ROB_Stalls_Bucket_4: 3054
Critical_IP_ROB_Stalls_Bucket_5: 17544
Non-critical_IP_ROB_Stalls_Bucket_5: 3015
Critical_IP_ROB_Stalls_Bucket_6: 95634
Non-critical_IP_ROB_Stalls_Bucket_6: 6697
0 => IPs accounting for >50 percent of stalls, 1 => 55, 2 => 60, 3 => 65 and so on till 90.
percent50: 50.4022 num IPs:9
percent55: 55.1457 num IPs:11
percent60: 61.9465 num IPs:14
percent65: 66.0498 num IPs:16
percent70: 70.0523 num IPs:18
percent75: 75.4715 num IPs:21
percent80: 80.4483 num IPs:25
percent85: 85.0439 num IPs:31
percent90: 90.1003 num IPs:45
Critical_ROB_Stalls_Percent_0_Bucket_0: 623833
Non-critical_ROB_Stalls_Percent_0_Bucket_0: 464921
Critical_ROB_Stalls_Percent_0_Bucket_1: 7498
Non-critical_ROB_Stalls_Percent_0_Bucket_1: 22474
Critical_ROB_Stalls_Percent_0_Bucket_2: 2273
Non-critical_ROB_Stalls_Percent_0_Bucket_2: 10751
Critical_ROB_Stalls_Percent_0_Bucket_3: 4142
Non-critical_ROB_Stalls_Percent_0_Bucket_3: 11255
Critical_ROB_Stalls_Percent_0_Bucket_4: 2044
Non-critical_ROB_Stalls_Percent_0_Bucket_4: 9043
Critical_ROB_Stalls_Percent_0_Bucket_5: 2091
Non-critical_ROB_Stalls_Percent_0_Bucket_5: 18468
Critical_ROB_Stalls_Percent_0_Bucket_6: 2560
Non-critical_ROB_Stalls_Percent_0_Bucket_6: 99771
Critical_ROB_Stalls_Percent_1_Bucket_0: 680541
Non-critical_ROB_Stalls_Percent_1_Bucket_0: 408213
Critical_ROB_Stalls_Percent_1_Bucket_1: 9562
Non-critical_ROB_Stalls_Percent_1_Bucket_1: 20410
Critical_ROB_Stalls_Percent_1_Bucket_2: 2610
Non-critical_ROB_Stalls_Percent_1_Bucket_2: 10414
Critical_ROB_Stalls_Percent_1_Bucket_3: 4396
Non-critical_ROB_Stalls_Percent_1_Bucket_3: 11001
Critical_ROB_Stalls_Percent_1_Bucket_4: 2433
Non-critical_ROB_Stalls_Percent_1_Bucket_4: 8654
Critical_ROB_Stalls_Percent_1_Bucket_5: 2390
Non-critical_ROB_Stalls_Percent_1_Bucket_5: 18169
Critical_ROB_Stalls_Percent_1_Bucket_6: 3160
Non-critical_ROB_Stalls_Percent_1_Bucket_6: 99171
Critical_ROB_Stalls_Percent_2_Bucket_0: 766858
Non-critical_ROB_Stalls_Percent_2_Bucket_0: 321896
Critical_ROB_Stalls_Percent_2_Bucket_1: 9670
Non-critical_ROB_Stalls_Percent_2_Bucket_1: 20302
Critical_ROB_Stalls_Percent_2_Bucket_2: 2698
Non-critical_ROB_Stalls_Percent_2_Bucket_2: 10326
Critical_ROB_Stalls_Percent_2_Bucket_3: 4464
Non-critical_ROB_Stalls_Percent_2_Bucket_3: 10933
Critical_ROB_Stalls_Percent_2_Bucket_4: 2490
Non-critical_ROB_Stalls_Percent_2_Bucket_4: 8597
Critical_ROB_Stalls_Percent_2_Bucket_5: 2431
Non-critical_ROB_Stalls_Percent_2_Bucket_5: 18128
Critical_ROB_Stalls_Percent_2_Bucket_6: 3436
Non-critical_ROB_Stalls_Percent_2_Bucket_6: 98895
Critical_ROB_Stalls_Percent_3_Bucket_0: 792595
Non-critical_ROB_Stalls_Percent_3_Bucket_0: 296159
Critical_ROB_Stalls_Percent_3_Bucket_1: 9820
Non-critical_ROB_Stalls_Percent_3_Bucket_1: 20152
Critical_ROB_Stalls_Percent_3_Bucket_2: 2727
Non-critical_ROB_Stalls_Percent_3_Bucket_2: 10297
Critical_ROB_Stalls_Percent_3_Bucket_3: 4596
Non-critical_ROB_Stalls_Percent_3_Bucket_3: 10801
Critical_ROB_Stalls_Percent_3_Bucket_4: 2631
Non-critical_ROB_Stalls_Percent_3_Bucket_4: 8456
Critical_ROB_Stalls_Percent_3_Bucket_5: 2556
Non-critical_ROB_Stalls_Percent_3_Bucket_5: 18003
Critical_ROB_Stalls_Percent_3_Bucket_6: 29586
Non-critical_ROB_Stalls_Percent_3_Bucket_6: 72745
Critical_ROB_Stalls_Percent_4_Bucket_0: 843335
Non-critical_ROB_Stalls_Percent_4_Bucket_0: 245419
Critical_ROB_Stalls_Percent_4_Bucket_1: 9872
Non-critical_ROB_Stalls_Percent_4_Bucket_1: 20100
Critical_ROB_Stalls_Percent_4_Bucket_2: 2751
Non-critical_ROB_Stalls_Percent_4_Bucket_2: 10273
Critical_ROB_Stalls_Percent_4_Bucket_3: 4604
Non-critical_ROB_Stalls_Percent_4_Bucket_3: 10793
Critical_ROB_Stalls_Percent_4_Bucket_4: 2835
Non-critical_ROB_Stalls_Percent_4_Bucket_4: 8252
Critical_ROB_Stalls_Percent_4_Bucket_5: 2590
Non-critical_ROB_Stalls_Percent_4_Bucket_5: 17969
Critical_ROB_Stalls_Percent_4_Bucket_6: 29700
Non-critical_ROB_Stalls_Percent_4_Bucket_6: 72631
Critical_ROB_Stalls_Percent_5_Bucket_0: 908172
Non-critical_ROB_Stalls_Percent_5_Bucket_0: 180582
Critical_ROB_Stalls_Percent_5_Bucket_1: 10217
Non-critical_ROB_Stalls_Percent_5_Bucket_1: 19755
Critical_ROB_Stalls_Percent_5_Bucket_2: 3121
Non-critical_ROB_Stalls_Percent_5_Bucket_2: 9903
Critical_ROB_Stalls_Percent_5_Bucket_3: 6601
Non-critical_ROB_Stalls_Percent_5_Bucket_3: 8796
Critical_ROB_Stalls_Percent_5_Bucket_4: 3274
Non-critical_ROB_Stalls_Percent_5_Bucket_4: 7813
Critical_ROB_Stalls_Percent_5_Bucket_5: 2876
Non-critical_ROB_Stalls_Percent_5_Bucket_5: 17683
Critical_ROB_Stalls_Percent_5_Bucket_6: 30716
Non-critical_ROB_Stalls_Percent_5_Bucket_6: 71615
Critical_ROB_Stalls_Percent_6_Bucket_0: 966029
Non-critical_ROB_Stalls_Percent_6_Bucket_0: 122725
Critical_ROB_Stalls_Percent_6_Bucket_1: 10835
Non-critical_ROB_Stalls_Percent_6_Bucket_1: 19137
Critical_ROB_Stalls_Percent_6_Bucket_2: 4192
Non-critical_ROB_Stalls_Percent_6_Bucket_2: 8832
Critical_ROB_Stalls_Percent_6_Bucket_3: 7630
Non-critical_ROB_Stalls_Percent_6_Bucket_3: 7767
Critical_ROB_Stalls_Percent_6_Bucket_4: 4135
Non-critical_ROB_Stalls_Percent_6_Bucket_4: 6952
Critical_ROB_Stalls_Percent_6_Bucket_5: 3533
Non-critical_ROB_Stalls_Percent_6_Bucket_5: 17026
Critical_ROB_Stalls_Percent_6_Bucket_6: 32257
Non-critical_ROB_Stalls_Percent_6_Bucket_6: 70074
Critical_ROB_Stalls_Percent_7_Bucket_0: 1003474
Non-critical_ROB_Stalls_Percent_7_Bucket_0: 85280
Critical_ROB_Stalls_Percent_7_Bucket_1: 16620
Non-critical_ROB_Stalls_Percent_7_Bucket_1: 13352
Critical_ROB_Stalls_Percent_7_Bucket_2: 6312
Non-critical_ROB_Stalls_Percent_7_Bucket_2: 6712
Critical_ROB_Stalls_Percent_7_Bucket_3: 9174
Non-critical_ROB_Stalls_Percent_7_Bucket_3: 6223
Critical_ROB_Stalls_Percent_7_Bucket_4: 5471
Non-critical_ROB_Stalls_Percent_7_Bucket_4: 5616
Critical_ROB_Stalls_Percent_7_Bucket_5: 5968
Non-critical_ROB_Stalls_Percent_7_Bucket_5: 14591
Critical_ROB_Stalls_Percent_7_Bucket_6: 40351
Non-critical_ROB_Stalls_Percent_7_Bucket_6: 61980
Critical_ROB_Stalls_Percent_8_Bucket_0: 1034615
Non-critical_ROB_Stalls_Percent_8_Bucket_0: 54139
Critical_ROB_Stalls_Percent_8_Bucket_1: 18889
Non-critical_ROB_Stalls_Percent_8_Bucket_1: 11083
Critical_ROB_Stalls_Percent_8_Bucket_2: 8857
Non-critical_ROB_Stalls_Percent_8_Bucket_2: 4167
Critical_ROB_Stalls_Percent_8_Bucket_3: 11228
Non-critical_ROB_Stalls_Percent_8_Bucket_3: 4169
Critical_ROB_Stalls_Percent_8_Bucket_4: 6794
Non-critical_ROB_Stalls_Percent_8_Bucket_4: 4293
Critical_ROB_Stalls_Percent_8_Bucket_5: 13156
Non-critical_ROB_Stalls_Percent_8_Bucket_5: 7403
Critical_ROB_Stalls_Percent_8_Bucket_6: 58481
Non-critical_ROB_Stalls_Percent_8_Bucket_6: 43850
Average ROB occupancy Load Stall Begin: 55.7082
Average ROB occupancy Load Stall End: 61.7276
Min ROB occupancy Load Stall Begin: 1
Max ROB occupancy Load Stall Begin: 351
Min ROB occupancy Load Stall End: 1
Max ROB occupancy Load Stall End: 352
Average ROB occupancy Critical Load Stall Begin: 87.258
Average ROB occupancy Critical Load Stall End: 95.6857
Min ROB occupancy Critical Load Stall Begin: 6
Max ROB occupancy Critical Load Stall Begin: 351
Min ROB occupancy Critical Load Stall End: 6
Max ROB occupancy Critical Load Stall End: 352
 ROB Load Stall Begin Bucket Count 0: 1102119
 ROB Load Stall End Bucket Count 0: 1088754
 ROB Critical Load Stall Begin Bucket Count 0: 424641
 ROB Critical Load Stall End Bucket Count 0: 415238
 ROB Load Stall Begin Bucket Count 1: 26913
 ROB Load Stall End Bucket Count 1: 29972
 ROB Critical Load Stall Begin Bucket Count 1: 21136
 ROB Critical Load Stall End Bucket Count 1: 21774
 ROB Load Stall Begin Bucket Count 2: 13327
 ROB Load Stall End Bucket Count 2: 13024
 ROB Critical Load Stall Begin Bucket Count 2: 7653
 ROB Critical Load Stall End Bucket Count 2: 7543
 ROB Load Stall Begin Bucket Count 3: 13930
 ROB Load Stall End Bucket Count 3: 15397
 ROB Critical Load Stall Begin Bucket Count 3: 9641
 ROB Critical Load Stall End Bucket Count 3: 11003
 ROB Load Stall Begin Bucket Count 4: 11784
 ROB Load Stall End Bucket Count 4: 11087
 ROB Critical Load Stall Begin Bucket Count 4: 8197
 ROB Critical Load Stall End Bucket Count 4: 7506
 ROB Load Stall Begin Bucket Count 5: 26410
 ROB Load Stall End Bucket Count 5: 20559
 ROB Critical Load Stall Begin Bucket Count 5: 22176
 ROB Critical Load Stall End Bucket Count 5: 16818
 ROB Load Stall Begin Bucket Count 6: 86641
 ROB Load Stall End Bucket Count 6: 102331
 ROB Critical Load Stall Begin Bucket Count 6: 78901
 ROB Critical Load Stall End Bucket Count 6: 92463
PIST Tag Read Accesses: 78758
PIST Read Accesses: 39379
PIST Tag Write Accesses: 78758
PIST Write Accesses: 39379
Criticality detector called times: 371925
Max global_stall_cycles_count: 479169
Threshold Modified: 1 times, factor: -1
ITLB TOTAL     ACCESS:   14463898  HIT:   14463893  MISS:          5  HIT %:        100  MISS %: 3.45688e-05   MPKI: 5e-05
ITLB LOAD TRANSLATION ACCESS:   14463898  HIT:   14463893  MISS:          5  HIT %:        100  MISS %: 3.45688e-05   MPKI: 5e-05
ITLB PREFETCH  REQUESTED:          0  ISSUED:          0  USEFUL:          0  USELESS:          0
ITLB USEFUL LOAD PREFETCHES:          0 PREFETCH ISSUED TO LOWER LEVEL:          0  ACCURACY: -nan
ITLB TIMELY PREFETCHES:          0 LATE PREFETCHES: 0 DROPPED PREFETCHES: 0
ITLB PREFETCHES SAME FILL-ORIGIN LEVEL: 0 DIFFERENT FILL-ORIGIN LEVEL: 0
ITLB AVERAGE MISS LATENCY: 363.2 cycles
ITLB RQ	ACCESS:   17853132	FORWARD:          0	MERGED:    3389234	TO_CACHE:   14463898

DTLB TOTAL     ACCESS:   21250243  HIT:   21203360  MISS:      46883  HIT %:    99.7794  MISS %:   0.220623   MPKI: 0.46883
DTLB LOAD TRANSLATION ACCESS:   21250243  HIT:   21203360  MISS:      46883  HIT %:    99.7794  MISS %:   0.220623   MPKI: 0.46883
DTLB PREFETCH  REQUESTED:          0  ISSUED:          0  USEFUL:          0  USELESS:          0
DTLB USEFUL LOAD PREFETCHES:          0 PREFETCH ISSUED TO LOWER LEVEL:          0  ACCURACY: -nan
DTLB TIMELY PREFETCHES:          0 LATE PREFETCHES: 0 DROPPED PREFETCHES: 0
DTLB PREFETCHES SAME FILL-ORIGIN LEVEL: 0 DIFFERENT FILL-ORIGIN LEVEL: 0
DTLB AVERAGE MISS LATENCY: 125.659 cycles
DTLB RQ	ACCESS:   22605741	FORWARD:          0	MERGED:    1322397	TO_CACHE:   21283344

STLB TOTAL     ACCESS:    2605977  HIT:    2560879  MISS:      45098  HIT %:    98.2694  MISS %:    1.73056   MPKI: 0.45098
STLB LOAD TRANSLATION ACCESS:      46888  HIT:       1790  MISS:      45098  HIT %:    3.81761  MISS %:    96.1824   MPKI: 0.45098
STLB TRANSLATION FROM L1D PREFETCHER ACCESS:    2559089  HIT:    2559089  MISS:          0  HIT %:        100  MISS %:          0   MPKI: 0
STLB PREFETCH  REQUESTED:          0  ISSUED:          0  USEFUL:          0  USELESS:          0
STLB USEFUL LOAD PREFETCHES:          0 PREFETCH ISSUED TO LOWER LEVEL:          0  ACCURACY: -nan
STLB TIMELY PREFETCHES:          0 LATE PREFETCHES: 0 DROPPED PREFETCHES: 0
STLB PREFETCHES SAME FILL-ORIGIN LEVEL: 0 DIFFERENT FILL-ORIGIN LEVEL: 0
STLB AVERAGE MISS LATENCY: 121.116 cycles
STLB RQ	ACCESS:    8100450	FORWARD:          0	MERGED:    5494473	TO_CACHE:    2605977

STLB Hit, L1D data hit: 0
STLB Hit, L2C data hit: 0
STLB Hit, LLC data hit: 0
STLB Hit, LLC data miss: 0
STLB STLB hints to L2: 0
L1D TOTAL     ACCESS:   27661706  HIT:   25009087  MISS:    2652619  HIT %:    90.4105  MISS %:     9.5895   MPKI: 26.5262
L1D LOAD      ACCESS:   18257588  HIT:   17990566  MISS:     267022  HIT %:    98.5375  MISS %:    1.46253   MPKI: 2.67022
L1D RFO       ACCESS:    1576298  HIT:     980366  MISS:     595932  HIT %:    62.1942  MISS %:    37.8058   MPKI: 5.95932
L1D PREFETCH  ACCESS:    7827820  HIT:    6038155  MISS:    1789665  HIT %:    77.1371  MISS %:    22.8629   MPKI: 17.8966
L1D PREFETCH  REQUESTED:   16193156  ISSUED:   16107210  USEFUL:    1702028  USELESS:      87577
L1D USEFUL LOAD PREFETCHES:    1702028 PREFETCH ISSUED TO LOWER LEVEL:    1943256  ACCURACY: 87.5864
L1D TIMELY PREFETCHES:    1702028 LATE PREFETCHES: 153590 DROPPED PREFETCHES: 0
L1D PREFETCHES SAME FILL-ORIGIN LEVEL: 1943256 DIFFERENT FILL-ORIGIN LEVEL: 0
L1D AVERAGE MISS LATENCY: 6.8262e+06 cycles
L1D RQ	ACCESS:   29526121	FORWARD:          0	MERGED:   11017353	TO_CACHE:   18507631
L1D WQ	ACCESS:    4098110	FORWARD:       1137	MERGED:          0	TO_CACHE:    4098110
L1D PQ	ACCESS:    8053648	FORWARD:          0	MERGED:         86	TO_CACHE:    8053562

L1D UNIQUE REGIONS ACCESSED: 0
L1D REGIONS CONFLICTS: 0
L1D Cross Page Prefetch Requests: 0
L1D Same Page Prefetch Requests: 12127462
L1D ROI Sum of L1D PQ occupancy: 132103073
L1D PREFETCHES PUSHED FROM L2C: 0
L1I TOTAL     ACCESS:   17852964  HIT:   17852632  MISS:        332  HIT %:    99.9981  MISS %: 0.00185964   MPKI: 0.00332
L1I LOAD      ACCESS:   17852964  HIT:   17852632  MISS:        332  HIT %:    99.9981  MISS %: 0.00185964   MPKI: 0.00332
L1I PREFETCH  REQUESTED:          0  ISSUED:          0  USEFUL:          0  USELESS:          0
L1I USEFUL LOAD PREFETCHES:          0 PREFETCH ISSUED TO LOWER LEVEL:          0  ACCURACY: -nan
L1I TIMELY PREFETCHES:          0 LATE PREFETCHES: 0 DROPPED PREFETCHES: 0
L1I PREFETCHES SAME FILL-ORIGIN LEVEL: 0 DIFFERENT FILL-ORIGIN LEVEL: 0
L1I AVERAGE MISS LATENCY: 259.59 cycles
L1I RQ	ACCESS:   25538041	FORWARD:          0	MERGED:    7684909	TO_CACHE:   17853132

BTB TOTAL     ACCESS:    3186003  HIT:    3185934  MISS:         69  HIT %:    99.9978  MISS %: 0.00216572   MPKI: 0.00069
BTB BRANCH_DIRECT_JUMP	ACCESS:        512  HIT:        511  MISS:          1
BTB BRANCH_INDIRECT	ACCESS:          0  HIT:          0  MISS:          0
BTB BRANCH_CONDITIONAL	ACCESS:    3185485  HIT:    3185423  MISS:         62
BTB BRANCH_DIRECT_CALL	ACCESS:          3  HIT:          0  MISS:          3
BTB BRANCH_INDIRECT_CALL	ACCESS:          0  HIT:          0  MISS:          0
BTB BRANCH_RETURN	ACCESS:          3  HIT:          0  MISS:          3
BTB BRANCH_OTHER ACCESS:          0  HIT:          0  MISS:          0

L2C TOTAL     ACCESS:    3429104  HIT:    1058024  MISS:    2371080  HIT %:    30.8542  MISS %:    69.1458   MPKI: 23.7108
L2C LOAD      ACCESS:     113757  HIT:      17003  MISS:      96754  HIT %:    14.9468  MISS %:    85.0532   MPKI: 0.96754
L2C DATA LOAD MPKI: 0.96422
L2C INSTRUCTION LOAD MPKI: 0.00332
L2C RFO       ACCESS:     595932  HIT:          2  MISS:     595930  HIT %: 0.000335609  MISS %:    99.9997   MPKI: 5.9593
L2C PREFETCH  ACCESS:    1943255  HIT:     275100  MISS:    1668155  HIT %:    14.1567  MISS %:    85.8433   MPKI: 16.6815
L2C DATA PREFETCH MPKI: 16.6815
L2C INSTRUCTION PREFETCH MPKI: 0
L2C WRITEBACK ACCESS:     730981  HIT:     729259  MISS:       1722  HIT %:    99.7644  MISS %:   0.235574   MPKI: 0.01722
L2C LOAD TRANSLATION ACCESS:      45179  HIT:      36660  MISS:       8519  HIT %:    81.1439  MISS %:    18.8561   MPKI: 0.08519
L2C PREFETCH  REQUESTED:          0  ISSUED:          0  USEFUL:       1713  USELESS:    1664374
L2C USEFUL LOAD PREFETCHES:       1713 PREFETCH ISSUED TO LOWER LEVEL:    1668156  ACCURACY: 0.102688
L2C TIMELY PREFETCHES:       1713 LATE PREFETCHES: 0 DROPPED PREFETCHES: 0
L2C PREFETCHES SAME FILL-ORIGIN LEVEL: 0 DIFFERENT FILL-ORIGIN LEVEL: 0
L2C AVERAGE MISS LATENCY: 272.598 cycles
L2C RQ	ACCESS:     754876	FORWARD:          0	MERGED:          0	TO_CACHE:     754869
L2C WQ	ACCESS:     730981	FORWARD:          7	MERGED:          0	TO_CACHE:     730981
L2C PQ	ACCESS:    1943256	FORWARD:          0	MERGED:          0	TO_CACHE:    1943256

L2C Instructions Evicting Data 330
L2C Translations Evicting Data 8486
L2C Data Evicting Data 2351719
L2C Instructions Evicting Instructions 0
L2C Translations Evicting Instructions 3
L2C Data Evicting Instructions 329
L2C Instructions Evicting Translations 2
L2C Translations Evicting Translations 30
L2C Data Evicting Translations 8459
L2C Dense regions hint from L2: 0
PSCL5 TOTAL     ACCESS:      45098  HIT:      45098  MISS:          0  HIT %:        100  MISS %:          0   MPKI: 0
PSCL5 LOAD TRANSLATION ACCESS:      45098  HIT:      45098  MISS:          0  HIT %:        100  MISS %:          0   MPKI: 0
PSCL5 PREFETCH  REQUESTED:          0  ISSUED:          0  USEFUL:          0  USELESS:          0
PSCL5 USEFUL LOAD PREFETCHES:          0 PREFETCH ISSUED TO LOWER LEVEL:          0  ACCURACY: -nan
PSCL5 TIMELY PREFETCHES:          0 LATE PREFETCHES: 0 DROPPED PREFETCHES: 0
PSCL5 PREFETCHES SAME FILL-ORIGIN LEVEL: 0 DIFFERENT FILL-ORIGIN LEVEL: 0

PSCL4 TOTAL     ACCESS:      45098  HIT:      45098  MISS:          0  HIT %:        100  MISS %:          0   MPKI: 0
PSCL4 LOAD TRANSLATION ACCESS:      45098  HIT:      45098  MISS:          0  HIT %:        100  MISS %:          0   MPKI: 0
PSCL4 PREFETCH  REQUESTED:          0  ISSUED:          0  USEFUL:          0  USELESS:          0
PSCL4 USEFUL LOAD PREFETCHES:          0 PREFETCH ISSUED TO LOWER LEVEL:          0  ACCURACY: -nan
PSCL4 TIMELY PREFETCHES:          0 LATE PREFETCHES: 0 DROPPED PREFETCHES: 0
PSCL4 PREFETCHES SAME FILL-ORIGIN LEVEL: 0 DIFFERENT FILL-ORIGIN LEVEL: 0

PSCL3 TOTAL     ACCESS:      44837  HIT:      44835  MISS:          2  HIT %:    99.9955  MISS %:  0.0044606   MPKI: 2e-05
PSCL3 LOAD TRANSLATION ACCESS:      44837  HIT:      44835  MISS:          2  HIT %:    99.9955  MISS %:  0.0044606   MPKI: 2e-05
PSCL3 PREFETCH  REQUESTED:          0  ISSUED:          0  USEFUL:          0  USELESS:          0
PSCL3 USEFUL LOAD PREFETCHES:          0 PREFETCH ISSUED TO LOWER LEVEL:          0  ACCURACY: -nan
PSCL3 TIMELY PREFETCHES:          0 LATE PREFETCHES: 0 DROPPED PREFETCHES: 0
PSCL3 PREFETCHES SAME FILL-ORIGIN LEVEL: 0 DIFFERENT FILL-ORIGIN LEVEL: 0

PSCL2 TOTAL     ACCESS:      45098  HIT:      44994  MISS:        104  HIT %:    99.7694  MISS %:   0.230609   MPKI: 0.00104
PSCL2 LOAD TRANSLATION ACCESS:      45098  HIT:      44994  MISS:        104  HIT %:    99.7694  MISS %:   0.230609   MPKI: 0.00104
PSCL2 PREFETCH  REQUESTED:          0  ISSUED:          0  USEFUL:          0  USELESS:          0
PSCL2 USEFUL LOAD PREFETCHES:          0 PREFETCH ISSUED TO LOWER LEVEL:          0  ACCURACY: -nan
PSCL2 TIMELY PREFETCHES:          0 LATE PREFETCHES: 0 DROPPED PREFETCHES: 0
PSCL2 PREFETCHES SAME FILL-ORIGIN LEVEL: 0 DIFFERENT FILL-ORIGIN LEVEL: 0

LLC TOTAL     ACCESS:    3101748  HIT:     319399  MISS:    2782349  HIT %:    10.2974  MISS %:    89.7026   MPKI: 27.8235
LLC LOAD      ACCESS:      96754  HIT:       2172  MISS:      94582  HIT %:    2.24487  MISS %:    97.7551   MPKI: 0.94582
LLC RFO       ACCESS:     595930  HIT:       9141  MISS:     586789  HIT %:     1.5339  MISS %:    98.4661   MPKI: 5.86789
LLC PREFETCH  ACCESS:    1668156  HIT:      26026  MISS:    1642130  HIT %:    1.56017  MISS %:    98.4398   MPKI: 16.4213
LLC WRITEBACK ACCESS:     732389  HIT:     282032  MISS:     450357  HIT %:    38.5085  MISS %:    61.4915   MPKI: 4.50357
LLC LOAD TRANSLATION ACCESS:       8519  HIT:         28  MISS:       8491  HIT %:   0.328677  MISS %:    99.6713   MPKI: 0.08491
LLC PREFETCH  REQUESTED:          0  ISSUED:          0  USEFUL:        107  USELESS:    1651799
LLC USEFUL LOAD PREFETCHES:        107 PREFETCH ISSUED TO LOWER LEVEL:    1642130  ACCURACY: 0.00651593
LLC TIMELY PREFETCHES:        107 LATE PREFETCHES: 0 DROPPED PREFETCHES: 0
LLC PREFETCHES SAME FILL-ORIGIN LEVEL: 0 DIFFERENT FILL-ORIGIN LEVEL: 0
LLC AVERAGE MISS LATENCY: 206.534 cycles
LLC RQ	ACCESS:     701203	FORWARD:          0	MERGED:          0	TO_CACHE:     701203
LLC WQ	ACCESS:     732389	FORWARD:          0	MERGED:          0	TO_CACHE:     732389
LLC PQ	ACCESS:    1668156	FORWARD:          0	MERGED:          0	TO_CACHE:    1668156

LLC Dense regions hint to LLC: 0

RAW hits: 8841
Loads Generated: 29534970
Loads sent to L1D: 29526121
Stores Generated: 4098299
Stores sent to L1D: 4098298
Major fault: 0 Minor fault: 39258
Allocated PAGES: 39258

stream: 
stream:times selected: 5441857
stream:pref_filled: 3101422
stream:pref_useful: 2942518
stream:pref_late: 150933
stream:misses: 567
stream:misses_by_poll: 0

CS: 
CS:times selected: 5107957
CS:pref_filled: 11482
CS:pref_useful: 10958
CS:pref_late: 799
CS:misses: 379882
CS:misses_by_poll: 38

CPLX: 
CPLX:times selected: 333776
CPLX:pref_filled: 13671
CPLX:pref_useful: 11163
CPLX:pref_late: 402
CPLX:misses: 20102
CPLX:misses_by_poll: 30

NL_L1: 
NL:times selected: 86
NL:pref_filled: 11
NL:pref_useful: 11
NL:pref_late: 2
NL:misses: 5
NL:misses_by_poll: 0

total selections: 10883676
total_filled: 1789665
total_useful: 1702028
total_late: 153890
total_polluted: 68
total_misses_after_warmup: 517061
conflicts: 321114
Degree Incremented Times: 308126
Degree Decremented Times: 0

L1 IP Table Write Accesses: 17321083
L1 IP Table Read Accesses: 16999969
L1 RST Write Accesses: 3899505
L1 RST Read Accesses: 7799010
L1 CSPT Write Accesses: 3899505
L1 CSPT Read Accesses: 4615093
L1 RR Filter Tag Write Accesses: 8139594
L1 RR Filter Tag Read Accesses: 789116458
L1 IP Table Tag Write Accesses: 18507627
L1 IP Table Tag Read Accesses: 18507627
L1 RST Tag Write Accesses: 0
L1 RST Tag Read Accesses: 35141443
L1 RR Filter Write Accesses: 0
L1 RR Filter Read Accesses: 33247154
test: 125409

DRAM Statistics
 CHANNEL 0
 RQ ROW_BUFFER_HIT:     258138  ROW_BUFFER_MISS:    2073750
 DBUS_CONGESTED:        142
 WQ ROW_BUFFER_HIT:     140705  ROW_BUFFER_MISS:     567300  FULL:       2057

 AVG_CONGESTED_CYCLE: 5
 All warmup complete: 2
Channel 0 Bank busy for read cycles: 0
Channel 0 Bank busy for write cycles: 0
Channel 0
Rank 0
0banks busy for read cycles: 8542291
0banks busy for write cycles: 11922
1banks busy for read cycles: 15883521
1banks busy for write cycles: 1745269
2banks busy for read cycles: 25256647
2banks busy for write cycles: 464595
3banks busy for read cycles: 21740150
3banks busy for write cycles: 257659
4banks busy for read cycles: 10299410
4banks busy for write cycles: 251803
5banks busy for read cycles: 7062313
5banks busy for write cycles: 263196
6banks busy for read cycles: 4784113
6banks busy for write cycles: 314847
7banks busy for read cycles: 5804833
7banks busy for write cycles: 1344648
8banks busy for read cycles: 7095390
8banks busy for write cycles: 17685937

CPU 0 Branch Prediction Accuracy: 99.74% MPKI: 0.08327 Average ROB Occupancy at Mispredict: 96.856
Branch types
NOT_BRANCH: 96797564 96.7976%
BRANCH_DIRECT_JUMP: 512 0.000512%
BRANCH_INDIRECT: 0 0%
BRANCH_CONDITIONAL: 3202246 3.20225%
BRANCH_DIRECT_CALL: 3 3e-06%
BRANCH_INDIRECT_CALL: 0 0%
BRANCH_RETURN: 3 3e-06%
BRANCH_OTHER: 0 0%

DRAM PAGES: 1048576
Allocated PAGES: 39258
