
*** ChampSim Multicore Out-of-Order Simulator ***

Warmup Instructions: 50000000
Simulation Instructions: 100000000
Number of CPUs: 1
LLC sets: 2048
LLC ways: 16
Off-chip DRAM Size: 4096 MB Channels: 1 Width: 64-bit Data Rate: 6400 MT/s
CPU 0 runs ../SPEC2017//654.roms_s-1007B.champsimtrace.xz
.xz
NUM_OF_IPS_IN_CRITICAL_IP_TRAINING: 64
NUM_OF_CRITICAL_IP_TRAINING_TABLE_WAYS: 2
NUM_OF_CRITICAL_IP_TRAINING_TABLE_SETS: 32
WOBBLY_CRITICAL_IP_CACHE_SETS: 32
WOBBLY_CRITICAL_IP_CACHE_WAYS: 4
BTB has LRU replacement policy
ITLB has LRU replacement policy
DTLB has LRU replacement policy
STLB has LRU replacement policy
L1I has LRU replacement policy
IP Table Entries: 64
L1D has LRU replacement policy
Initialize SRRIP state for L2C
Initialize DRRIP state for LLC
Heartbeat CPU 0 instructions: 10000000 cycles: 3015957 heartbeat IPC: 3.3157 cumulative IPC: 3.3157 (Simulation time: 0 hr 5 min 29 sec) 
Heartbeat CPU 0 instructions: 20000002 cycles: 6031720 heartbeat IPC: 3.31591 cumulative IPC: 3.3158 (Simulation time: 0 hr 10 min 6 sec) 
Heartbeat CPU 0 instructions: 30000000 cycles: 9047595 heartbeat IPC: 3.31579 cumulative IPC: 3.3158 (Simulation time: 0 hr 14 min 32 sec) 
Heartbeat CPU 0 instructions: 40000000 cycles: 12063395 heartbeat IPC: 3.31587 cumulative IPC: 3.31582 (Simulation time: 0 hr 18 min 32 sec) 
Heartbeat CPU 0 instructions: 50000003 cycles: 15186391 heartbeat IPC: 3.20205 cumulative IPC: 3.29242 (Simulation time: 0 hr 22 min 51 sec) 

Warmup complete CPU 0 instructions: 50000003 cycles: 15186391 (Simulation time: 0 hr 22 min 51 sec) 

% increase in all ip prefetch 282.246
% increase in all ip prefetch 10.7009
% increase in all ip prefetch 7.08326
% increase in all ip prefetch 0.00774369
Heartbeat CPU 0 instructions: 60000002 cycles: 32448523 heartbeat IPC: 0.579303 cumulative IPC: 0.579303 (Simulation time: 0 hr 26 min 21 sec) 
Heartbeat CPU 0 instructions: 70000000 cycles: 51946184 heartbeat IPC: 0.512882 cumulative IPC: 0.544073 (Simulation time: 0 hr 30 min 4 sec) 
Heartbeat CPU 0 instructions: 80000000 cycles: 71435904 heartbeat IPC: 0.513091 cumulative IPC: 0.533338 (Simulation time: 0 hr 33 min 20 sec) 
Heartbeat CPU 0 instructions: 90000000 cycles: 90921715 heartbeat IPC: 0.513194 cumulative IPC: 0.528155 (Simulation time: 0 hr 36 min 47 sec) 
Heartbeat CPU 0 instructions: 100000000 cycles: 110401404 heartbeat IPC: 0.513355 cumulative IPC: 0.525127 (Simulation time: 0 hr 40 min 9 sec) 
Heartbeat CPU 0 instructions: 110000000 cycles: 129885842 heartbeat IPC: 0.51323 cumulative IPC: 0.523106 (Simulation time: 0 hr 43 min 17 sec) 
Heartbeat CPU 0 instructions: 120000001 cycles: 147463597 heartbeat IPC: 0.568901 cumulative IPC: 0.529192 (Simulation time: 0 hr 46 min 27 sec) 
Heartbeat CPU 0 instructions: 130000002 cycles: 161904219 heartbeat IPC: 0.692491 cumulative IPC: 0.545264 (Simulation time: 0 hr 49 min 44 sec) 
Heartbeat CPU 0 instructions: 140000000 cycles: 181393699 heartbeat IPC: 0.513097 cumulative IPC: 0.541492 (Simulation time: 0 hr 52 min 42 sec) 
Heartbeat CPU 0 instructions: 150000000 cycles: 200883746 heartbeat IPC: 0.513082 cumulative IPC: 0.538511 (Simulation time: 0 hr 55 min 29 sec) 
Finished CPU 0 instructions: 100000001 cycles: 185697357 cumulative IPC: 0.538511 (Simulation time: 0 hr 55 min 29 sec) 

ChampSim completed all CPUs

Region of Interest Statistics

CPU 0 cumulative IPC: 0.538511 instructions: 100000001 cycles: 185697357

CPU 0 Average Load ROB stall cycles: 3.29925e+07
CPU 0 Fraction of times ROB stalled by Loads: 30.5434
CPU 0 Percentage of Load stall cycles in Total stall cycles: 5.93904e+08
Issued all: 59745164
Issued LT all: 46806296
rob_not_full_when_issued_lt_all: 45527780
Issued LT one: 37961611
rob_not_full_when_issued_lt_one: 36737441
 Total stall cycles: 164358893
 Total load stall cycles: 976134061279080
CPU 0 NUM of IPS identified critical: 0
CPU 0 Num of Load IPs stalling ROB: 165
Threshold modification factor: -3
Max PIST entries: 40
Min PIST entries: 0
Avg PIST entries: 11.76
Trouble in retire width: 0.997313
MaC = Marked as critical.
lt_50_percent_before_Mac: 0
gt_90_percent_before_Mac: 0
gt_75_percent_before_Mac: 0
gt_50_percent_before_Mac: 0
stall_proportion_bin_same_before_after: 0
stall_proportion_bin_lower_before_after: 0
stall_proportion_bin_upper_before_after: 0
average_stall_proportion_before: -nan
average_stall_proportion_after: -nan
Critical IP stalls, total frequency: 0
Non-critical IP stalls, total frequency: 9036741
Total Freq all stalling IPs: 9036741
stat_90_percent_critical_ip_stalls_freq: 8317618
stat_90_percent_non_critical_ip_stalls_freq: 719123
Critical_IP_ROB_Stalls_Bucket_0: 0
Non-critical_IP_ROB_Stalls_Bucket_0: 4628325
Critical_IP_ROB_Stalls_Bucket_1: 0
Non-critical_IP_ROB_Stalls_Bucket_1: 4331077
Critical_IP_ROB_Stalls_Bucket_2: 0
Non-critical_IP_ROB_Stalls_Bucket_2: 22865
Critical_IP_ROB_Stalls_Bucket_3: 0
Non-critical_IP_ROB_Stalls_Bucket_3: 15624
Critical_IP_ROB_Stalls_Bucket_4: 0
Non-critical_IP_ROB_Stalls_Bucket_4: 10936
Critical_IP_ROB_Stalls_Bucket_5: 0
Non-critical_IP_ROB_Stalls_Bucket_5: 12998
Critical_IP_ROB_Stalls_Bucket_6: 0
Non-critical_IP_ROB_Stalls_Bucket_6: 14916
0 => IPs accounting for >50 percent of stalls, 1 => 55, 2 => 60, 3 => 65 and so on till 90.
percent50: 54.6149 num IPs:  7
percent55: 62.36 num IPs: 8
percent60: 62.36 num IPs: 8
percent65: 68.9965 num IPs: 9
percent70: 72.9023 num IPs: 10
percent75: 76.8081 num IPs: 11
percent80: 80.714 num IPs: 12
percent85: 87.0535 num IPs: 14
percent90: 92.0422 num IPs: 16
Critical_ROB_Stalls_Percent_0_Bucket_0: 2105161
Non-critical_ROB_Stalls_Percent_0_Bucket_0: 2523164
Critical_ROB_Stalls_Percent_0_Bucket_1: 2830205
Non-critical_ROB_Stalls_Percent_0_Bucket_1: 1500872
Critical_ROB_Stalls_Percent_0_Bucket_2: 38
Non-critical_ROB_Stalls_Percent_0_Bucket_2: 22827
Critical_ROB_Stalls_Percent_0_Bucket_3: 4
Non-critical_ROB_Stalls_Percent_0_Bucket_3: 15620
Critical_ROB_Stalls_Percent_0_Bucket_4: 0
Non-critical_ROB_Stalls_Percent_0_Bucket_4: 10936
Critical_ROB_Stalls_Percent_0_Bucket_5: 0
Non-critical_ROB_Stalls_Percent_0_Bucket_5: 12998
Critical_ROB_Stalls_Percent_0_Bucket_6: 0
Non-critical_ROB_Stalls_Percent_0_Bucket_6: 14916
Critical_ROB_Stalls_Percent_1_Bucket_0: 2105161
Non-critical_ROB_Stalls_Percent_1_Bucket_0: 2523164
Critical_ROB_Stalls_Percent_1_Bucket_1: 3530111
Non-critical_ROB_Stalls_Percent_1_Bucket_1: 800966
Critical_ROB_Stalls_Percent_1_Bucket_2: 38
Non-critical_ROB_Stalls_Percent_1_Bucket_2: 22827
Critical_ROB_Stalls_Percent_1_Bucket_3: 5
Non-critical_ROB_Stalls_Percent_1_Bucket_3: 15619
Critical_ROB_Stalls_Percent_1_Bucket_4: 0
Non-critical_ROB_Stalls_Percent_1_Bucket_4: 10936
Critical_ROB_Stalls_Percent_1_Bucket_5: 0
Non-critical_ROB_Stalls_Percent_1_Bucket_5: 12998
Critical_ROB_Stalls_Percent_1_Bucket_6: 0
Non-critical_ROB_Stalls_Percent_1_Bucket_6: 14916
Critical_ROB_Stalls_Percent_2_Bucket_0: 2105161
Non-critical_ROB_Stalls_Percent_2_Bucket_0: 2523164
Critical_ROB_Stalls_Percent_2_Bucket_1: 3530111
Non-critical_ROB_Stalls_Percent_2_Bucket_1: 800966
Critical_ROB_Stalls_Percent_2_Bucket_2: 38
Non-critical_ROB_Stalls_Percent_2_Bucket_2: 22827
Critical_ROB_Stalls_Percent_2_Bucket_3: 5
Non-critical_ROB_Stalls_Percent_2_Bucket_3: 15619
Critical_ROB_Stalls_Percent_2_Bucket_4: 0
Non-critical_ROB_Stalls_Percent_2_Bucket_4: 10936
Critical_ROB_Stalls_Percent_2_Bucket_5: 0
Non-critical_ROB_Stalls_Percent_2_Bucket_5: 12998
Critical_ROB_Stalls_Percent_2_Bucket_6: 0
Non-critical_ROB_Stalls_Percent_2_Bucket_6: 14916
Critical_ROB_Stalls_Percent_3_Bucket_0: 2626135
Non-critical_ROB_Stalls_Percent_3_Bucket_0: 2002190
Critical_ROB_Stalls_Percent_3_Bucket_1: 3608818
Non-critical_ROB_Stalls_Percent_3_Bucket_1: 722259
Critical_ROB_Stalls_Percent_3_Bucket_2: 75
Non-critical_ROB_Stalls_Percent_3_Bucket_2: 22790
Critical_ROB_Stalls_Percent_3_Bucket_3: 5
Non-critical_ROB_Stalls_Percent_3_Bucket_3: 15619
Critical_ROB_Stalls_Percent_3_Bucket_4: 0
Non-critical_ROB_Stalls_Percent_3_Bucket_4: 10936
Critical_ROB_Stalls_Percent_3_Bucket_5: 0
Non-critical_ROB_Stalls_Percent_3_Bucket_5: 12998
Critical_ROB_Stalls_Percent_3_Bucket_6: 0
Non-critical_ROB_Stalls_Percent_3_Bucket_6: 14916
Critical_ROB_Stalls_Percent_4_Bucket_0: 2903762
Non-critical_ROB_Stalls_Percent_4_Bucket_0: 1724563
Critical_ROB_Stalls_Percent_4_Bucket_1: 3684135
Non-critical_ROB_Stalls_Percent_4_Bucket_1: 646942
Critical_ROB_Stalls_Percent_4_Bucket_2: 91
Non-critical_ROB_Stalls_Percent_4_Bucket_2: 22774
Critical_ROB_Stalls_Percent_4_Bucket_3: 5
Non-critical_ROB_Stalls_Percent_4_Bucket_3: 15619
Critical_ROB_Stalls_Percent_4_Bucket_4: 0
Non-critical_ROB_Stalls_Percent_4_Bucket_4: 10936
Critical_ROB_Stalls_Percent_4_Bucket_5: 0
Non-critical_ROB_Stalls_Percent_4_Bucket_5: 12998
Critical_ROB_Stalls_Percent_4_Bucket_6: 0
Non-critical_ROB_Stalls_Percent_4_Bucket_6: 14916
Critical_ROB_Stalls_Percent_5_Bucket_0: 2973511
Non-critical_ROB_Stalls_Percent_5_Bucket_0: 1654814
Critical_ROB_Stalls_Percent_5_Bucket_1: 3967330
Non-critical_ROB_Stalls_Percent_5_Bucket_1: 363747
Critical_ROB_Stalls_Percent_5_Bucket_2: 107
Non-critical_ROB_Stalls_Percent_5_Bucket_2: 22758
Critical_ROB_Stalls_Percent_5_Bucket_3: 5
Non-critical_ROB_Stalls_Percent_5_Bucket_3: 15619
Critical_ROB_Stalls_Percent_5_Bucket_4: 0
Non-critical_ROB_Stalls_Percent_5_Bucket_4: 10936
Critical_ROB_Stalls_Percent_5_Bucket_5: 0
Non-critical_ROB_Stalls_Percent_5_Bucket_5: 12998
Critical_ROB_Stalls_Percent_5_Bucket_6: 0
Non-critical_ROB_Stalls_Percent_5_Bucket_6: 14916
Critical_ROB_Stalls_Percent_6_Bucket_0: 3040727
Non-critical_ROB_Stalls_Percent_6_Bucket_0: 1587598
Critical_ROB_Stalls_Percent_6_Bucket_1: 4246029
Non-critical_ROB_Stalls_Percent_6_Bucket_1: 85048
Critical_ROB_Stalls_Percent_6_Bucket_2: 7152
Non-critical_ROB_Stalls_Percent_6_Bucket_2: 15713
Critical_ROB_Stalls_Percent_6_Bucket_3: 5
Non-critical_ROB_Stalls_Percent_6_Bucket_3: 15619
Critical_ROB_Stalls_Percent_6_Bucket_4: 0
Non-critical_ROB_Stalls_Percent_6_Bucket_4: 10936
Critical_ROB_Stalls_Percent_6_Bucket_5: 0
Non-critical_ROB_Stalls_Percent_6_Bucket_5: 12998
Critical_ROB_Stalls_Percent_6_Bucket_6: 0
Non-critical_ROB_Stalls_Percent_6_Bucket_6: 14916
Critical_ROB_Stalls_Percent_7_Bucket_0: 3565421
Non-critical_ROB_Stalls_Percent_7_Bucket_0: 1062904
Critical_ROB_Stalls_Percent_7_Bucket_1: 4270862
Non-critical_ROB_Stalls_Percent_7_Bucket_1: 60215
Critical_ROB_Stalls_Percent_7_Bucket_2: 12303
Non-critical_ROB_Stalls_Percent_7_Bucket_2: 10562
Critical_ROB_Stalls_Percent_7_Bucket_3: 5750
Non-critical_ROB_Stalls_Percent_7_Bucket_3: 9874
Critical_ROB_Stalls_Percent_7_Bucket_4: 3827
Non-critical_ROB_Stalls_Percent_7_Bucket_4: 7109
Critical_ROB_Stalls_Percent_7_Bucket_5: 5091
Non-critical_ROB_Stalls_Percent_7_Bucket_5: 7907
Critical_ROB_Stalls_Percent_7_Bucket_6: 3549
Non-critical_ROB_Stalls_Percent_7_Bucket_6: 11367
Critical_ROB_Stalls_Percent_8_Bucket_0: 3973923
Non-critical_ROB_Stalls_Percent_8_Bucket_0: 654402
Critical_ROB_Stalls_Percent_8_Bucket_1: 4288886
Non-critical_ROB_Stalls_Percent_8_Bucket_1: 42191
Critical_ROB_Stalls_Percent_8_Bucket_2: 17676
Non-critical_ROB_Stalls_Percent_8_Bucket_2: 5189
Critical_ROB_Stalls_Percent_8_Bucket_3: 11185
Non-critical_ROB_Stalls_Percent_8_Bucket_3: 4439
Critical_ROB_Stalls_Percent_8_Bucket_4: 7332
Non-critical_ROB_Stalls_Percent_8_Bucket_4: 3604
Critical_ROB_Stalls_Percent_8_Bucket_5: 9730
Non-critical_ROB_Stalls_Percent_8_Bucket_5: 3268
Critical_ROB_Stalls_Percent_8_Bucket_6: 8886
Non-critical_ROB_Stalls_Percent_8_Bucket_6: 6030
Average ROB occupancy Load Stall Begin: 45.2792
Average ROB occupancy Load Stall End: 50.8924
Min ROB occupancy Load Stall Begin: 1
Max ROB occupancy Load Stall Begin: 352
Min ROB occupancy Load Stall End: 1
Max ROB occupancy Load Stall End: 352
Average ROB occupancy Critical Load Stall Begin: -nan
Average ROB occupancy Critical Load Stall End: -nan
Min ROB occupancy Critical Load Stall Begin: 400
Max ROB occupancy Critical Load Stall Begin: 0
Min ROB occupancy Critical Load Stall End: 400
Max ROB occupancy Critical Load Stall End: 0
 ROB Load Stall Begin Bucket Count 0: 5353155
 ROB Load Stall End Bucket Count 0: 4628325
 ROB Critical Load Stall Begin Bucket Count 0: 0
 ROB Critical Load Stall End Bucket Count 0: 0
 ROB Load Stall Begin Bucket Count 1: 3626381
 ROB Load Stall End Bucket Count 1: 4331077
 ROB Critical Load Stall Begin Bucket Count 1: 0
 ROB Critical Load Stall End Bucket Count 1: 0
 ROB Load Stall Begin Bucket Count 2: 13714
 ROB Load Stall End Bucket Count 2: 22865
 ROB Critical Load Stall Begin Bucket Count 2: 0
 ROB Critical Load Stall End Bucket Count 2: 0
 ROB Load Stall Begin Bucket Count 3: 14236
 ROB Load Stall End Bucket Count 3: 15624
 ROB Critical Load Stall Begin Bucket Count 3: 0
 ROB Critical Load Stall End Bucket Count 3: 0
 ROB Load Stall Begin Bucket Count 4: 9132
 ROB Load Stall End Bucket Count 4: 10936
 ROB Critical Load Stall Begin Bucket Count 4: 0
 ROB Critical Load Stall End Bucket Count 4: 0
 ROB Load Stall Begin Bucket Count 5: 10959
 ROB Load Stall End Bucket Count 5: 12998
 ROB Critical Load Stall Begin Bucket Count 5: 0
 ROB Critical Load Stall End Bucket Count 5: 0
 ROB Load Stall Begin Bucket Count 6: 9164
 ROB Load Stall End Bucket Count 6: 14916
 ROB Critical Load Stall Begin Bucket Count 6: 0
 ROB Critical Load Stall End Bucket Count 6: 0
PIST Tag Read Accesses: 140994
PIST Read Accesses: 70497
PIST Tag Write Accesses: 140994
PIST Write Accesses: 70497
Criticality detector called times: 488663
Max global_stall_cycles_count: 213955
Threshold Modified: 3 times, factor: -3
Sturdy critical IP cache stats: 
 Unused entries: 0
CIC Tag Read Accesses: 0
CIC Read Accesses: 0
CIC Tag Write Accesses: 0
CIC Write Accesses: 0
Wobbly critical IP cache stats: 
 Unused entries: 97
CIC Tag Read Accesses: 207009334
CIC Read Accesses: 0
CIC Tag Write Accesses: 3109697
CIC Write Accesses: 0
ITLB TOTAL     ACCESS:   16847050  HIT:   16847048  MISS:          2  HIT %:        100  MISS %: 1.18715e-05   MPKI: 2e-05
ITLB LOAD TRANSLATION ACCESS:   16847050  HIT:   16847048  MISS:          2  HIT %:        100  MISS %: 1.18715e-05   MPKI: 2e-05
ITLB PREFETCH  REQUESTED:          0  ISSUED:          0  USEFUL:          0  USELESS:          0
ITLB USEFUL LOAD PREFETCHES:          0 PREFETCH ISSUED TO LOWER LEVEL:          0  ACCURACY: -nan
ITLB TIMELY PREFETCHES:          0 LATE PREFETCHES: 0 DROPPED PREFETCHES: 0
ITLB PREFETCHES SAME FILL-ORIGIN LEVEL: 0 DIFFERENT FILL-ORIGIN LEVEL: 0
ITLB AVERAGE MISS LATENCY: 325.5 cycles
ITLB RQ	ACCESS:   21395492	FORWARD:          0	MERGED:    4548443	TO_CACHE:   16847049

DTLB TOTAL     ACCESS:   28494792  HIT:   28477428  MISS:      17364  HIT %:    99.9391  MISS %:  0.0609375   MPKI: 0.17364
DTLB LOAD TRANSLATION ACCESS:   28494792  HIT:   28477428  MISS:      17364  HIT %:    99.9391  MISS %:  0.0609375   MPKI: 0.17364
DTLB PREFETCH  REQUESTED:          0  ISSUED:          0  USEFUL:          0  USELESS:          0
DTLB USEFUL LOAD PREFETCHES:          0 PREFETCH ISSUED TO LOWER LEVEL:          0  ACCURACY: -nan
DTLB TIMELY PREFETCHES:          0 LATE PREFETCHES: 0 DROPPED PREFETCHES: 0
DTLB PREFETCHES SAME FILL-ORIGIN LEVEL: 0 DIFFERENT FILL-ORIGIN LEVEL: 0
DTLB AVERAGE MISS LATENCY: 166.381 cycles
DTLB RQ	ACCESS:   32119915	FORWARD:          0	MERGED:    3602586	TO_CACHE:   28517329

STLB TOTAL     ACCESS:     546395  HIT:     529622  MISS:      16773  HIT %:    96.9302  MISS %:    3.06976   MPKI: 0.16773
STLB LOAD TRANSLATION ACCESS:      17366  HIT:        593  MISS:      16773  HIT %:    3.41472  MISS %:    96.5853   MPKI: 0.16773
STLB TRANSLATION FROM L1D PREFETCHER ACCESS:     529029  HIT:     529029  MISS:          0  HIT %:        100  MISS %:          0   MPKI: 0
STLB PREFETCH  REQUESTED:          0  ISSUED:          0  USEFUL:          0  USELESS:          0
STLB USEFUL LOAD PREFETCHES:          0 PREFETCH ISSUED TO LOWER LEVEL:          0  ACCURACY: -nan
STLB TIMELY PREFETCHES:          0 LATE PREFETCHES: 0 DROPPED PREFETCHES: 0
STLB PREFETCHES SAME FILL-ORIGIN LEVEL: 0 DIFFERENT FILL-ORIGIN LEVEL: 0
STLB AVERAGE MISS LATENCY: 162.726 cycles
STLB RQ	ACCESS:    1482456	FORWARD:          0	MERGED:     936062	TO_CACHE:     546394

STLB Hit, L1D data hit: 0
STLB Hit, L2C data hit: 0
STLB Hit, LLC data hit: 0
STLB Hit, LLC data miss: 0
STLB STLB hints to L2: 0
L1D TOTAL     ACCESS:   32335399  HIT:   31614568  MISS:     720831  HIT %:    97.7708  MISS %:    2.22923   MPKI: 7.20831
L1D LOAD      ACCESS:   20301743  HIT:   20271680  MISS:      30063  HIT %:    99.8519  MISS %:   0.148081   MPKI: 0.30063
L1D RFO       ACCESS:   10598597  HIT:   10360290  MISS:     238307  HIT %:    97.7515  MISS %:    2.24848   MPKI: 2.38307
L1D PREFETCH  ACCESS:    1435059  HIT:     982598  MISS:     452461  HIT %:    68.4709  MISS %:    31.5291   MPKI: 4.52461
L1D PREFETCH  REQUESTED:    2934929  ISSUED:    2930182  USEFUL:     424713  USELESS:      27757
L1D USEFUL LOAD PREFETCHES:     424713 PREFETCH ISSUED TO LOWER LEVEL:     465861  ACCURACY: 91.1673
L1D TIMELY PREFETCHES:     424713 LATE PREFETCHES: 13400 DROPPED PREFETCHES: 0
L1D PREFETCHES SAME FILL-ORIGIN LEVEL: 465861 DIFFERENT FILL-ORIGIN LEVEL: 0
L1D AVERAGE MISS LATENCY: 2.08861e+06 cycles
L1D RQ	ACCESS:   24459151	FORWARD:          0	MERGED:    4094912	TO_CACHE:   20349213
L1D WQ	ACCESS:   12476628	FORWARD:      15026	MERGED:     705926	TO_CACHE:   11770702
L1D PQ	ACCESS:    1465092	FORWARD:          0	MERGED:          2	TO_CACHE:    1465090

L1D UNIQUE REGIONS ACCESSED: 0
L1D REGIONS CONFLICTS: 0
L1D Cross Page Prefetch Requests: 0
L1D Same Page Prefetch Requests: 3613639
L1D ROI Sum of L1D PQ occupancy: 28117948
L1D PREFETCHES PUSHED FROM L2C: 0
L1I TOTAL     ACCESS:   21395482  HIT:   21395446  MISS:         36  HIT %:    99.9998  MISS %: 0.00016826   MPKI: 0.00036
L1I LOAD      ACCESS:   21395482  HIT:   21395446  MISS:         36  HIT %:    99.9998  MISS %: 0.00016826   MPKI: 0.00036
L1I PREFETCH  REQUESTED:          0  ISSUED:          0  USEFUL:          0  USELESS:          0
L1I USEFUL LOAD PREFETCHES:          0 PREFETCH ISSUED TO LOWER LEVEL:          0  ACCURACY: -nan
L1I TIMELY PREFETCHES:          0 LATE PREFETCHES: 0 DROPPED PREFETCHES: 0
L1I PREFETCHES SAME FILL-ORIGIN LEVEL: 0 DIFFERENT FILL-ORIGIN LEVEL: 0
L1I AVERAGE MISS LATENCY: 236.611 cycles
L1I RQ	ACCESS:   28121294	FORWARD:          0	MERGED:    6725802	TO_CACHE:   21395492

BTB TOTAL     ACCESS:    6508269  HIT:    5802287  MISS:     705982  HIT %:    89.1525  MISS %:    10.8475   MPKI: 7.05982
BTB BRANCH_DIRECT_JUMP	ACCESS:     705946  HIT:     705938  MISS:          8
BTB BRANCH_INDIRECT	ACCESS:          0  HIT:          0  MISS:          0
BTB BRANCH_CONDITIONAL	ACCESS:    2978604  HIT:    2978573  MISS:         31
BTB BRANCH_DIRECT_CALL	ACCESS:    1411860  HIT:    1411850  MISS:         10
BTB BRANCH_INDIRECT_CALL	ACCESS:          0  HIT:          0  MISS:          0
BTB BRANCH_RETURN	ACCESS:    1411859  HIT:     705926  MISS:     705933
BTB BRANCH_OTHER ACCESS:          0  HIT:          0  MISS:          0

L2C TOTAL     ACCESS:     975949  HIT:     250924  MISS:     725025  HIT %:    25.7108  MISS %:    74.2892   MPKI: 7.25025
L2C LOAD      ACCESS:      16698  HIT:        257  MISS:      16441  HIT %:    1.53911  MISS %:    98.4609   MPKI: 0.16441
L2C DATA LOAD MPKI: 0.16405
L2C INSTRUCTION LOAD MPKI: 0.00036
L2C RFO       ACCESS:     238307  HIT:          0  MISS:     238307  HIT %:          0  MISS %:        100   MPKI: 2.38307
L2C PREFETCH  ACCESS:     465861  HIT:        180  MISS:     465681  HIT %:  0.0386381  MISS %:    99.9614   MPKI: 4.65681
L2C DATA PREFETCH MPKI: 4.65681
L2C INSTRUCTION PREFETCH MPKI: 0
L2C WRITEBACK ACCESS:     238257  HIT:     237258  MISS:        999  HIT %:    99.5807  MISS %:   0.419295   MPKI: 0.00999
L2C LOAD TRANSLATION ACCESS:      16826  HIT:      13229  MISS:       3597  HIT %:    78.6224  MISS %:    21.3776   MPKI: 0.03597
L2C PREFETCH  REQUESTED:          0  ISSUED:          0  USEFUL:          3  USELESS:     465953
L2C USEFUL LOAD PREFETCHES:          3 PREFETCH ISSUED TO LOWER LEVEL:     465681  ACCURACY: 0.000644218
L2C TIMELY PREFETCHES:          3 LATE PREFETCHES: 0 DROPPED PREFETCHES: 0
L2C PREFETCHES SAME FILL-ORIGIN LEVEL: 0 DIFFERENT FILL-ORIGIN LEVEL: 0
L2C AVERAGE MISS LATENCY: 281.998 cycles
L2C RQ	ACCESS:     271832	FORWARD:          0	MERGED:          0	TO_CACHE:     271831
L2C WQ	ACCESS:     238257	FORWARD:          1	MERGED:          0	TO_CACHE:     238257
L2C PQ	ACCESS:     465861	FORWARD:          0	MERGED:          0	TO_CACHE:     465861

L2C Instructions Evicting Data 36
L2C Translations Evicting Data 3575
L2C Data Evicting Data 716768
L2C Instructions Evicting Instructions 0
L2C Translations Evicting Instructions 0
L2C Data Evicting Instructions 36
L2C Instructions Evicting Translations 0
L2C Translations Evicting Translations 22
L2C Data Evicting Translations 3589
L2C Dense regions hint from L2: 0
PSCL5 TOTAL     ACCESS:      16773  HIT:      16773  MISS:          0  HIT %:        100  MISS %:          0   MPKI: 0
PSCL5 LOAD TRANSLATION ACCESS:      16773  HIT:      16773  MISS:          0  HIT %:        100  MISS %:          0   MPKI: 0
PSCL5 PREFETCH  REQUESTED:          0  ISSUED:          0  USEFUL:          0  USELESS:          0
PSCL5 USEFUL LOAD PREFETCHES:          0 PREFETCH ISSUED TO LOWER LEVEL:          0  ACCURACY: -nan
PSCL5 TIMELY PREFETCHES:          0 LATE PREFETCHES: 0 DROPPED PREFETCHES: 0
PSCL5 PREFETCHES SAME FILL-ORIGIN LEVEL: 0 DIFFERENT FILL-ORIGIN LEVEL: 0

PSCL4 TOTAL     ACCESS:      16773  HIT:      16773  MISS:          0  HIT %:        100  MISS %:          0   MPKI: 0
PSCL4 LOAD TRANSLATION ACCESS:      16773  HIT:      16773  MISS:          0  HIT %:        100  MISS %:          0   MPKI: 0
PSCL4 PREFETCH  REQUESTED:          0  ISSUED:          0  USEFUL:          0  USELESS:          0
PSCL4 USEFUL LOAD PREFETCHES:          0 PREFETCH ISSUED TO LOWER LEVEL:          0  ACCURACY: -nan
PSCL4 TIMELY PREFETCHES:          0 LATE PREFETCHES: 0 DROPPED PREFETCHES: 0
PSCL4 PREFETCHES SAME FILL-ORIGIN LEVEL: 0 DIFFERENT FILL-ORIGIN LEVEL: 0

PSCL3 TOTAL     ACCESS:      16423  HIT:      16417  MISS:          6  HIT %:    99.9635  MISS %:  0.0365341   MPKI: 6e-05
PSCL3 LOAD TRANSLATION ACCESS:      16423  HIT:      16417  MISS:          6  HIT %:    99.9635  MISS %:  0.0365341   MPKI: 6e-05
PSCL3 PREFETCH  REQUESTED:          0  ISSUED:          0  USEFUL:          0  USELESS:          0
PSCL3 USEFUL LOAD PREFETCHES:          0 PREFETCH ISSUED TO LOWER LEVEL:          0  ACCURACY: -nan
PSCL3 TIMELY PREFETCHES:          0 LATE PREFETCHES: 0 DROPPED PREFETCHES: 0
PSCL3 PREFETCHES SAME FILL-ORIGIN LEVEL: 0 DIFFERENT FILL-ORIGIN LEVEL: 0

PSCL2 TOTAL     ACCESS:      16773  HIT:      16697  MISS:         76  HIT %:    99.5469  MISS %:   0.453109   MPKI: 0.00076
PSCL2 LOAD TRANSLATION ACCESS:      16773  HIT:      16697  MISS:         76  HIT %:    99.5469  MISS %:   0.453109   MPKI: 0.00076
PSCL2 PREFETCH  REQUESTED:          0  ISSUED:          0  USEFUL:          0  USELESS:          0
PSCL2 USEFUL LOAD PREFETCHES:          0 PREFETCH ISSUED TO LOWER LEVEL:          0  ACCURACY: -nan
PSCL2 TIMELY PREFETCHES:          0 LATE PREFETCHES: 0 DROPPED PREFETCHES: 0
PSCL2 PREFETCHES SAME FILL-ORIGIN LEVEL: 0 DIFFERENT FILL-ORIGIN LEVEL: 0

LLC TOTAL     ACCESS:     961863  HIT:     233920  MISS:     727943  HIT %:    24.3195  MISS %:    75.6805   MPKI: 7.27943
LLC LOAD      ACCESS:      16441  HIT:         15  MISS:      16426  HIT %:  0.0912353  MISS %:    99.9088   MPKI: 0.16426
LLC RFO       ACCESS:     238307  HIT:          0  MISS:     238307  HIT %:          0  MISS %:        100   MPKI: 2.38307
LLC PREFETCH  ACCESS:     465681  HIT:        343  MISS:     465338  HIT %:  0.0736556  MISS %:    99.9263   MPKI: 4.65338
LLC WRITEBACK ACCESS:     237837  HIT:     233541  MISS:       4296  HIT %:    98.1937  MISS %:    1.80628   MPKI: 0.04296
LLC LOAD TRANSLATION ACCESS:       3597  HIT:         21  MISS:       3576  HIT %:    0.58382  MISS %:    99.4162   MPKI: 0.03576
LLC PREFETCH  REQUESTED:          0  ISSUED:          0  USEFUL:          0  USELESS:     466737
LLC USEFUL LOAD PREFETCHES:          0 PREFETCH ISSUED TO LOWER LEVEL:     465338  ACCURACY: 0
LLC TIMELY PREFETCHES:          0 LATE PREFETCHES: 0 DROPPED PREFETCHES: 0
LLC PREFETCHES SAME FILL-ORIGIN LEVEL: 0 DIFFERENT FILL-ORIGIN LEVEL: 0
LLC AVERAGE MISS LATENCY: 249.592 cycles
LLC RQ	ACCESS:     258345	FORWARD:          0	MERGED:          0	TO_CACHE:     258345
LLC WQ	ACCESS:     237837	FORWARD:          0	MERGED:          0	TO_CACHE:     237837
LLC PQ	ACCESS:     465681	FORWARD:          0	MERGED:          0	TO_CACHE:     465681

LLC Dense regions hint to LLC: 0

RAW hits: 2885519
Loads Generated: 27344671
Loads sent to L1D: 24459151
Stores Generated: 12476624
Stores sent to L1D: 12476628
Major fault: 0 Minor fault: 14234
Allocated PAGES: 14234

stream: 
stream:times selected: 4045663
stream:pref_filled: 626708
stream:pref_useful: 589948
stream:pref_late: 12942
stream:misses: 86
stream:misses_by_poll: 0

CS: 
CS:times selected: 883511
CS:pref_filled: 9774
CS:pref_useful: 9536
CS:pref_late: 167
CS:misses: 80732
CS:misses_by_poll: 17

CPLX: 
CPLX:times selected: 3158966
CPLX:pref_filled: 247
CPLX:pref_useful: 71
CPLX:pref_late: 6
CPLX:misses: 1345
CPLX:misses_by_poll: 0

NL_L1: 
NL:times selected: 7
NL:pref_filled: 5
NL:pref_useful: 5
NL:pref_late: 2
NL:misses: 11
NL:misses_by_poll: 0

total selections: 8088147
total_filled: 452461
total_useful: 424713
total_late: 13439
total_polluted: 17
total_misses_after_warmup: 77539
conflicts: 242270
Degree Incremented Times: 155691
Degree Decremented Times: 0

L1 IP Table Write Accesses: 18001462
L1 IP Table Read Accesses: 17759192
L1 RST Write Accesses: 2764614
L1 RST Read Accesses: 5529228
L1 CSPT Write Accesses: 2764614
L1 CSPT Read Accesses: 8917545
L1 RR Filter Tag Write Accesses: 1469839
L1 RR Filter Tag Read Accesses: 235623692
L1 IP Table Tag Write Accesses: 20349219
L1 IP Table Tag Read Accesses: 20349219
L1 RST Tag Write Accesses: 0
L1 RST Tag Read Accesses: 29103391
L1 RR Filter Write Accesses: 0
L1 RR Filter Read Accesses: 11728647
test: 870373

DRAM Statistics
 CHANNEL 0
 RQ ROW_BUFFER_HIT:     236508  ROW_BUFFER_MISS:     487139
 DBUS_CONGESTED:         20
 WQ ROW_BUFFER_HIT:      25279  ROW_BUFFER_MISS:     211609  FULL:          0

 AVG_CONGESTED_CYCLE: 4
 All warmup complete: 2
Channel 0 Bank busy for read cycles: 0
Channel 0 Bank busy for write cycles: 0
Channel 0
Rank 0
0banks busy for read cycles: 147630632
0banks busy for write cycles: 34626
1banks busy for read cycles: 12364683
1banks busy for write cycles: 5258793
2banks busy for read cycles: 1301757
2banks busy for write cycles: 175487
3banks busy for read cycles: 2127643
3banks busy for write cycles: 82514
4banks busy for read cycles: 2915864
4banks busy for write cycles: 68773
5banks busy for read cycles: 2640538
5banks busy for write cycles: 49878
6banks busy for read cycles: 2130135
6banks busy for write cycles: 49800
7banks busy for read cycles: 2080872
7banks busy for write cycles: 379736
8banks busy for read cycles: 1904305
8banks busy for write cycles: 4501322

CPU 0 Branch Prediction Accuracy: 99.971% MPKI: 0.03111 Average ROB Occupancy at Mispredict: 45.7695
Branch types
NOT_BRANCH: 89254039 89.254%
BRANCH_DIRECT_JUMP: 705946 0.705946%
BRANCH_INDIRECT: 0 0%
BRANCH_CONDITIONAL: 7215955 7.21595%
BRANCH_DIRECT_CALL: 1411860 1.41186%
BRANCH_INDIRECT_CALL: 0 0%
BRANCH_RETURN: 1411859 1.41186%
BRANCH_OTHER: 0 0%

DRAM PAGES: 1048576
Allocated PAGES: 14234
