Initialize SIGNATURE TABLE
ST_SET: 1
ST_WAY: 256
ST_TAG_BIT: 16
ST_TAG_MASK: ffff

Initialize PATTERN TABLE
PT_SET: 512
PT_WAY: 4
SIG_DELTA_BIT: 7
C_SIG_BIT: 4
C_DELTA_BIT: 4

Initialize PREFETCH FILTER
FILTER_SET: 1024

*** ChampSim Multicore Out-of-Order Simulator ***

Warmup Instructions: 50000000
Simulation Instructions: 100000000
Number of CPUs: 1
LLC sets: 2048
LLC ways: 16
Off-chip DRAM Size: 4096 MB Channels: 1 Width: 64-bit Data Rate: 6400 MT/s
CPU 0 runs ../SPEC2017//654.roms_s-1390B.champsimtrace.xz
.xz
BTB has LRU replacement policy
ITLB has LRU replacement policy
DTLB has LRU replacement policy
STLB has LRU replacement policy
L1I has LRU replacement policy
L1D has LRU replacement policy
Initialize SRRIP state for L2C
Initialize DRRIP state for LLC
Heartbeat CPU 0 instructions: 10000001 cycles: 3762884 heartbeat IPC: 2.65754 cumulative IPC: 2.65754 (Simulation time: 0 hr 6 min 21 sec) 
Heartbeat CPU 0 instructions: 20000000 cycles: 7261635 heartbeat IPC: 2.85816 cumulative IPC: 2.7542 (Simulation time: 0 hr 10 min 3 sec) 
Heartbeat CPU 0 instructions: 30000003 cycles: 10678359 heartbeat IPC: 2.92678 cumulative IPC: 2.80942 (Simulation time: 0 hr 12 min 40 sec) 
Heartbeat CPU 0 instructions: 40000002 cycles: 14470184 heartbeat IPC: 2.63725 cumulative IPC: 2.76431 (Simulation time: 0 hr 17 min 23 sec) 
Heartbeat CPU 0 instructions: 50000000 cycles: 18806036 heartbeat IPC: 2.30635 cumulative IPC: 2.65872 (Simulation time: 0 hr 22 min 15 sec) 

Warmup complete CPU 0 instructions: 50000004 cycles: 18806037 (Simulation time: 0 hr 22 min 15 sec) 

Heartbeat CPU 0 instructions: 60000001 cycles: 36237250 heartbeat IPC: 0.573684 cumulative IPC: 0.573683 (Simulation time: 0 hr 27 min 53 sec) 
Heartbeat CPU 0 instructions: 70000002 cycles: 52605120 heartbeat IPC: 0.610953 cumulative IPC: 0.591732 (Simulation time: 0 hr 33 min 3 sec) 
Heartbeat CPU 0 instructions: 80000001 cycles: 69001413 heartbeat IPC: 0.609894 cumulative IPC: 0.597665 (Simulation time: 0 hr 37 min 54 sec) 
Heartbeat CPU 0 instructions: 90000001 cycles: 91898845 heartbeat IPC: 0.43673 cumulative IPC: 0.547249 (Simulation time: 0 hr 43 min 53 sec) 
Heartbeat CPU 0 instructions: 100000001 cycles: 117126312 heartbeat IPC: 0.396393 cumulative IPC: 0.508542 (Simulation time: 0 hr 49 min 46 sec) 
Heartbeat CPU 0 instructions: 110000000 cycles: 139863859 heartbeat IPC: 0.439801 cumulative IPC: 0.495631 (Simulation time: 0 hr 54 min 52 sec) 
Heartbeat CPU 0 instructions: 120000001 cycles: 157975220 heartbeat IPC: 0.55214 cumulative IPC: 0.502985 (Simulation time: 0 hr 59 min 7 sec) 
Heartbeat CPU 0 instructions: 130000000 cycles: 175997340 heartbeat IPC: 0.554874 cumulative IPC: 0.508934 (Simulation time: 1 hr 3 min 23 sec) 
Heartbeat CPU 0 instructions: 140000001 cycles: 207509254 heartbeat IPC: 0.31734 cumulative IPC: 0.476939 (Simulation time: 1 hr 12 min 46 sec) 
Heartbeat CPU 0 instructions: 150000000 cycles: 233252551 heartbeat IPC: 0.388451 cumulative IPC: 0.466317 (Simulation time: 1 hr 24 min 30 sec) 
Finished CPU 0 instructions: 100000000 cycles: 214446515 cumulative IPC: 0.466317 (Simulation time: 1 hr 24 min 30 sec) 

ChampSim completed all CPUs

Region of Interest Statistics

CPU 0 cumulative IPC: 0.466317 instructions: 100000000 cycles: 214446515

CPU 0 Average Load ROB stall cycles: 4.28524e+07
CPU 0 Fraction of times ROB stalled by Loads: 35.6752
CPU 0 Percentage of Load stall cycles in Total stall cycles: 1.91792e+08
Issued all: 169155127
Issued LT all: 158476227
rob_not_full_when_issued_lt_all: 32346127
Issued LT one: 144530559
rob_not_full_when_issued_lt_one: 27813061
 Total stall cycles: 190408020
 Total load stall cycles: 365186730072102
Unique Load IPs: 1142
CPU 0 NUM of IPS identified critical: 4
CPU 0 Num of Load IPs stalling ROB: 0
Threshold modification factor: 0
Trouble in retire width: -nan
MaC = Marked as critical.
lt_50_percent_before_Mac: 4
gt_90_percent_before_Mac: 0
gt_75_percent_before_Mac: 0
gt_50_percent_before_Mac: 0
stall_proportion_bin_same_before_after: 0
stall_proportion_bin_lower_before_after: 0
stall_proportion_bin_upper_before_after: 0
average_stall_proportion_before: 0.0137202
average_stall_proportion_after: 0.0145982
Critical_IP_Detector_Accuracy_70: 0
Critical_IP_Detector_Accuracy_80: 0
Critical_IP_Detector_Accuracy_90: 0
Critical_IP_Detector_Coverage_70: 0
Critical_IP_Detector_Coverage_80: 0
Critical_IP_Detector_Coverage_90: 0
stat_90_percent_critical_ip_stalls_freq: 125961
stat_90_percent_non_critical_ip_stalls_freq: 18446744073709425655
AVERAGE_ROB_Occupancy_90_Percent_Critical_IP_Stalls: 349.033
AVERAGE_ROB_Occupancy_90_Percent_Non_Critical_IP_Stalls: 4.6661e-11
Critical_IP_ROB_Stalls_Bucket_0: 202
Non-critical_IP_ROB_Stalls_Bucket_0: 206526
Critical_IP_ROB_Stalls_Bucket_1: 528
Non-critical_IP_ROB_Stalls_Bucket_1: 100338
Critical_IP_ROB_Stalls_Bucket_2: 125
Non-critical_IP_ROB_Stalls_Bucket_2: 69580
Critical_IP_ROB_Stalls_Bucket_3: 361
Non-critical_IP_ROB_Stalls_Bucket_3: 37288
Critical_IP_ROB_Stalls_Bucket_4: 211
Non-critical_IP_ROB_Stalls_Bucket_4: 108274
Critical_IP_ROB_Stalls_Bucket_5: 8032
Non-critical_IP_ROB_Stalls_Bucket_5: 284827
Critical_IP_ROB_Stalls_Bucket_6: 27125
Non-critical_IP_ROB_Stalls_Bucket_6: 2196814
0 => IPs accounting for >50 percent of stalls, 1 => 55, 2 => 60, 3 => 65 and so on till 90.
percent50: inf num IPs:  1
percent55: inf num IPs: 1
percent60: inf num IPs: 1
percent65: inf num IPs: 1
percent70: inf num IPs: 1
percent75: inf num IPs: 1
percent80: inf num IPs: 1
percent85: inf num IPs: 1
percent90: inf num IPs: 1
Critical_ROB_Stalls_Percent_0_Bucket_0: 19
Non-critical_ROB_Stalls_Percent_0_Bucket_0: 206709
Critical_ROB_Stalls_Percent_0_Bucket_1: 126
Non-critical_ROB_Stalls_Percent_0_Bucket_1: 100740
Critical_ROB_Stalls_Percent_0_Bucket_2: 507
Non-critical_ROB_Stalls_Percent_0_Bucket_2: 69198
Critical_ROB_Stalls_Percent_0_Bucket_3: 244
Non-critical_ROB_Stalls_Percent_0_Bucket_3: 37405
Critical_ROB_Stalls_Percent_0_Bucket_4: 526
Non-critical_ROB_Stalls_Percent_0_Bucket_4: 107959
Critical_ROB_Stalls_Percent_0_Bucket_5: 568
Non-critical_ROB_Stalls_Percent_0_Bucket_5: 292291
Critical_ROB_Stalls_Percent_0_Bucket_6: 123971
Non-critical_ROB_Stalls_Percent_0_Bucket_6: 2099968
Critical_ROB_Stalls_Percent_1_Bucket_0: 19
Non-critical_ROB_Stalls_Percent_1_Bucket_0: 206709
Critical_ROB_Stalls_Percent_1_Bucket_1: 126
Non-critical_ROB_Stalls_Percent_1_Bucket_1: 100740
Critical_ROB_Stalls_Percent_1_Bucket_2: 507
Non-critical_ROB_Stalls_Percent_1_Bucket_2: 69198
Critical_ROB_Stalls_Percent_1_Bucket_3: 244
Non-critical_ROB_Stalls_Percent_1_Bucket_3: 37405
Critical_ROB_Stalls_Percent_1_Bucket_4: 526
Non-critical_ROB_Stalls_Percent_1_Bucket_4: 107959
Critical_ROB_Stalls_Percent_1_Bucket_5: 568
Non-critical_ROB_Stalls_Percent_1_Bucket_5: 292291
Critical_ROB_Stalls_Percent_1_Bucket_6: 123971
Non-critical_ROB_Stalls_Percent_1_Bucket_6: 2099968
Critical_ROB_Stalls_Percent_2_Bucket_0: 19
Non-critical_ROB_Stalls_Percent_2_Bucket_0: 206709
Critical_ROB_Stalls_Percent_2_Bucket_1: 126
Non-critical_ROB_Stalls_Percent_2_Bucket_1: 100740
Critical_ROB_Stalls_Percent_2_Bucket_2: 507
Non-critical_ROB_Stalls_Percent_2_Bucket_2: 69198
Critical_ROB_Stalls_Percent_2_Bucket_3: 244
Non-critical_ROB_Stalls_Percent_2_Bucket_3: 37405
Critical_ROB_Stalls_Percent_2_Bucket_4: 526
Non-critical_ROB_Stalls_Percent_2_Bucket_4: 107959
Critical_ROB_Stalls_Percent_2_Bucket_5: 568
Non-critical_ROB_Stalls_Percent_2_Bucket_5: 292291
Critical_ROB_Stalls_Percent_2_Bucket_6: 123971
Non-critical_ROB_Stalls_Percent_2_Bucket_6: 2099968
Critical_ROB_Stalls_Percent_3_Bucket_0: 19
Non-critical_ROB_Stalls_Percent_3_Bucket_0: 206709
Critical_ROB_Stalls_Percent_3_Bucket_1: 126
Non-critical_ROB_Stalls_Percent_3_Bucket_1: 100740
Critical_ROB_Stalls_Percent_3_Bucket_2: 507
Non-critical_ROB_Stalls_Percent_3_Bucket_2: 69198
Critical_ROB_Stalls_Percent_3_Bucket_3: 244
Non-critical_ROB_Stalls_Percent_3_Bucket_3: 37405
Critical_ROB_Stalls_Percent_3_Bucket_4: 526
Non-critical_ROB_Stalls_Percent_3_Bucket_4: 107959
Critical_ROB_Stalls_Percent_3_Bucket_5: 568
Non-critical_ROB_Stalls_Percent_3_Bucket_5: 292291
Critical_ROB_Stalls_Percent_3_Bucket_6: 123971
Non-critical_ROB_Stalls_Percent_3_Bucket_6: 2099968
Critical_ROB_Stalls_Percent_4_Bucket_0: 19
Non-critical_ROB_Stalls_Percent_4_Bucket_0: 206709
Critical_ROB_Stalls_Percent_4_Bucket_1: 126
Non-critical_ROB_Stalls_Percent_4_Bucket_1: 100740
Critical_ROB_Stalls_Percent_4_Bucket_2: 507
Non-critical_ROB_Stalls_Percent_4_Bucket_2: 69198
Critical_ROB_Stalls_Percent_4_Bucket_3: 244
Non-critical_ROB_Stalls_Percent_4_Bucket_3: 37405
Critical_ROB_Stalls_Percent_4_Bucket_4: 526
Non-critical_ROB_Stalls_Percent_4_Bucket_4: 107959
Critical_ROB_Stalls_Percent_4_Bucket_5: 568
Non-critical_ROB_Stalls_Percent_4_Bucket_5: 292291
Critical_ROB_Stalls_Percent_4_Bucket_6: 123971
Non-critical_ROB_Stalls_Percent_4_Bucket_6: 2099968
Critical_ROB_Stalls_Percent_5_Bucket_0: 19
Non-critical_ROB_Stalls_Percent_5_Bucket_0: 206709
Critical_ROB_Stalls_Percent_5_Bucket_1: 126
Non-critical_ROB_Stalls_Percent_5_Bucket_1: 100740
Critical_ROB_Stalls_Percent_5_Bucket_2: 507
Non-critical_ROB_Stalls_Percent_5_Bucket_2: 69198
Critical_ROB_Stalls_Percent_5_Bucket_3: 244
Non-critical_ROB_Stalls_Percent_5_Bucket_3: 37405
Critical_ROB_Stalls_Percent_5_Bucket_4: 526
Non-critical_ROB_Stalls_Percent_5_Bucket_4: 107959
Critical_ROB_Stalls_Percent_5_Bucket_5: 568
Non-critical_ROB_Stalls_Percent_5_Bucket_5: 292291
Critical_ROB_Stalls_Percent_5_Bucket_6: 123971
Non-critical_ROB_Stalls_Percent_5_Bucket_6: 2099968
Critical_ROB_Stalls_Percent_6_Bucket_0: 19
Non-critical_ROB_Stalls_Percent_6_Bucket_0: 206709
Critical_ROB_Stalls_Percent_6_Bucket_1: 126
Non-critical_ROB_Stalls_Percent_6_Bucket_1: 100740
Critical_ROB_Stalls_Percent_6_Bucket_2: 507
Non-critical_ROB_Stalls_Percent_6_Bucket_2: 69198
Critical_ROB_Stalls_Percent_6_Bucket_3: 244
Non-critical_ROB_Stalls_Percent_6_Bucket_3: 37405
Critical_ROB_Stalls_Percent_6_Bucket_4: 526
Non-critical_ROB_Stalls_Percent_6_Bucket_4: 107959
Critical_ROB_Stalls_Percent_6_Bucket_5: 568
Non-critical_ROB_Stalls_Percent_6_Bucket_5: 292291
Critical_ROB_Stalls_Percent_6_Bucket_6: 123971
Non-critical_ROB_Stalls_Percent_6_Bucket_6: 2099968
Critical_ROB_Stalls_Percent_7_Bucket_0: 19
Non-critical_ROB_Stalls_Percent_7_Bucket_0: 206709
Critical_ROB_Stalls_Percent_7_Bucket_1: 126
Non-critical_ROB_Stalls_Percent_7_Bucket_1: 100740
Critical_ROB_Stalls_Percent_7_Bucket_2: 507
Non-critical_ROB_Stalls_Percent_7_Bucket_2: 69198
Critical_ROB_Stalls_Percent_7_Bucket_3: 244
Non-critical_ROB_Stalls_Percent_7_Bucket_3: 37405
Critical_ROB_Stalls_Percent_7_Bucket_4: 526
Non-critical_ROB_Stalls_Percent_7_Bucket_4: 107959
Critical_ROB_Stalls_Percent_7_Bucket_5: 568
Non-critical_ROB_Stalls_Percent_7_Bucket_5: 292291
Critical_ROB_Stalls_Percent_7_Bucket_6: 123971
Non-critical_ROB_Stalls_Percent_7_Bucket_6: 2099968
Critical_ROB_Stalls_Percent_8_Bucket_0: 19
Non-critical_ROB_Stalls_Percent_8_Bucket_0: 206709
Critical_ROB_Stalls_Percent_8_Bucket_1: 126
Non-critical_ROB_Stalls_Percent_8_Bucket_1: 100740
Critical_ROB_Stalls_Percent_8_Bucket_2: 507
Non-critical_ROB_Stalls_Percent_8_Bucket_2: 69198
Critical_ROB_Stalls_Percent_8_Bucket_3: 244
Non-critical_ROB_Stalls_Percent_8_Bucket_3: 37405
Critical_ROB_Stalls_Percent_8_Bucket_4: 526
Non-critical_ROB_Stalls_Percent_8_Bucket_4: 107959
Critical_ROB_Stalls_Percent_8_Bucket_5: 568
Non-critical_ROB_Stalls_Percent_8_Bucket_5: 292291
Critical_ROB_Stalls_Percent_8_Bucket_6: 123971
Non-critical_ROB_Stalls_Percent_8_Bucket_6: 2099968
Average ROB occupancy Load Stall Begin: 280.183
Average ROB occupancy Load Stall End: 297.579
Min ROB occupancy Load Stall Begin: 1
Max ROB occupancy Load Stall Begin: 352
Min ROB occupancy Load Stall End: 1
Max ROB occupancy Load Stall End: 352
Average ROB occupancy Critical Load Stall Begin: 307.848
Average ROB occupancy Critical Load Stall End: 320.662
Min ROB occupancy Critical Load Stall Begin: 20
Max ROB occupancy Critical Load Stall Begin: 352
Min ROB occupancy Critical Load Stall End: 38
Max ROB occupancy Critical Load Stall End: 352
 ROB Load Stall Begin Bucket Count 0: 285111
 ROB Load Stall End Bucket Count 0: 206728
 ROB Critical Load Stall Begin Bucket Count 0: 165
 ROB Critical Load Stall End Bucket Count 0: 153
 ROB Load Stall Begin Bucket Count 1: 71096
 ROB Load Stall End Bucket Count 1: 100866
 ROB Critical Load Stall Begin Bucket Count 1: 418
 ROB Critical Load Stall End Bucket Count 1: 389
 ROB Load Stall Begin Bucket Count 2: 70344
 ROB Load Stall End Bucket Count 2: 69705
 ROB Critical Load Stall Begin Bucket Count 2: 95
 ROB Critical Load Stall End Bucket Count 2: 70
 ROB Load Stall Begin Bucket Count 3: 38667
 ROB Load Stall End Bucket Count 3: 37649
 ROB Critical Load Stall Begin Bucket Count 3: 240
 ROB Critical Load Stall End Bucket Count 3: 237
 ROB Load Stall Begin Bucket Count 4: 135048
 ROB Load Stall End Bucket Count 4: 108485
 ROB Critical Load Stall Begin Bucket Count 4: 116
 ROB Critical Load Stall End Bucket Count 4: 105
 ROB Load Stall Begin Bucket Count 5: 575816
 ROB Load Stall End Bucket Count 5: 292859
 ROB Critical Load Stall Begin Bucket Count 5: 7880
 ROB Critical Load Stall End Bucket Count 5: 4866
 ROB Load Stall Begin Bucket Count 6: 1864149
 ROB Load Stall End Bucket Count 6: 2223939
 ROB Critical Load Stall Begin Bucket Count 6: 11446
 ROB Critical Load Stall End Bucket Count 6: 14540
PIST Tag Read Accesses: 0
PIST Read Accesses: 0
PIST Tag Write Accesses: 0
PIST Write Accesses: 0
Criticality detector called times: 0
Max global_stall_cycles_count: 0
Threshold Modified: 0 times, factor: 0
Sturdy critical IP cache stats: 
 Unused entries: 0
CIC Tag Read Accesses: 0
CIC Read Accesses: 0
CIC Tag Write Accesses: 0
CIC Write Accesses: 0
Wobbly critical IP cache stats: 
 Unused entries: 11
CIC Tag Read Accesses: 285067608
CIC Read Accesses: 0
CIC Tag Write Accesses: 307293
CIC Write Accesses: 0
ITLB TOTAL     ACCESS:   15199294  HIT:   15199289  MISS:          5  HIT %:        100  MISS %: 3.28963e-05   MPKI: 5e-05
ITLB LOAD TRANSLATION ACCESS:   15199294  HIT:   15199289  MISS:          5  HIT %:        100  MISS %: 3.28963e-05   MPKI: 5e-05
ITLB PREFETCH  REQUESTED:          0  ISSUED:          0  USEFUL:          0  USELESS:          0
ITLB USEFUL LOAD PREFETCHES:          0 PREFETCH ISSUED TO LOWER LEVEL:          0  ACCURACY: -nan
ITLB TIMELY PREFETCHES:          0 LATE PREFETCHES: 0 DROPPED PREFETCHES: 0
ITLB PREFETCHES SAME FILL-ORIGIN LEVEL: 0 DIFFERENT FILL-ORIGIN LEVEL: 0
ITLB AVERAGE MISS LATENCY: 362.2 cycles
ITLB RQ	ACCESS:   18552111	FORWARD:          0	MERGED:    3352817	TO_CACHE:   15199294

DTLB TOTAL     ACCESS:   18440920  HIT:   18394001  MISS:      46919  HIT %:    99.7456  MISS %:   0.254429   MPKI: 0.46919
DTLB LOAD TRANSLATION ACCESS:   18440920  HIT:   18394001  MISS:      46919  HIT %:    99.7456  MISS %:   0.254429   MPKI: 0.46919
DTLB PREFETCH  REQUESTED:          0  ISSUED:          0  USEFUL:          0  USELESS:          0
DTLB USEFUL LOAD PREFETCHES:          0 PREFETCH ISSUED TO LOWER LEVEL:          0  ACCURACY: -nan
DTLB TIMELY PREFETCHES:          0 LATE PREFETCHES: 0 DROPPED PREFETCHES: 0
DTLB PREFETCHES SAME FILL-ORIGIN LEVEL: 0 DIFFERENT FILL-ORIGIN LEVEL: 0
DTLB AVERAGE MISS LATENCY: 105.725 cycles
DTLB RQ	ACCESS:   19875177	FORWARD:          0	MERGED:    1404749	TO_CACHE:   18470428

STLB TOTAL     ACCESS:      46924  HIT:       1826  MISS:      45098  HIT %:     3.8914  MISS %:    96.1086   MPKI: 0.45098
STLB LOAD TRANSLATION ACCESS:      46924  HIT:       1826  MISS:      45098  HIT %:     3.8914  MISS %:    96.1086   MPKI: 0.45098
STLB PREFETCH  REQUESTED:          0  ISSUED:          0  USEFUL:          0  USELESS:          0
STLB USEFUL LOAD PREFETCHES:          0 PREFETCH ISSUED TO LOWER LEVEL:          0  ACCURACY: -nan
STLB TIMELY PREFETCHES:          0 LATE PREFETCHES: 0 DROPPED PREFETCHES: 0
STLB PREFETCHES SAME FILL-ORIGIN LEVEL: 0 DIFFERENT FILL-ORIGIN LEVEL: 0
STLB AVERAGE MISS LATENCY: 100.156 cycles
STLB RQ	ACCESS:      46924	FORWARD:          0	MERGED:          0	TO_CACHE:      46924

STLB Hit, L1D data hit: 0
STLB Hit, L2C data hit: 0
STLB Hit, LLC data hit: 0
STLB Hit, LLC data miss: 0
STLB STLB hints to L2: 0
L1D TOTAL     ACCESS:   16716765  HIT:   14169210  MISS:    2547555  HIT %:    84.7605  MISS %:    15.2395   MPKI: 25.4755
L1D LOAD      ACCESS:   14274620  HIT:   12323018  MISS:    1951602  HIT %:    86.3282  MISS %:    13.6718   MPKI: 19.516
L1D RFO       ACCESS:    2442145  HIT:    1846192  MISS:     595953  HIT %:    75.5971  MISS %:    24.4029   MPKI: 5.95953
L1D PREFETCH  REQUESTED:          0  ISSUED:          0  USEFUL:          0  USELESS:          0
L1D USEFUL LOAD PREFETCHES:          0 PREFETCH ISSUED TO LOWER LEVEL:          0  ACCURACY: -nan
L1D TIMELY PREFETCHES:          0 LATE PREFETCHES: 0 DROPPED PREFETCHES: 0
L1D PREFETCHES SAME FILL-ORIGIN LEVEL: 0 DIFFERENT FILL-ORIGIN LEVEL: 0
L1D AVERAGE MISS LATENCY: 213.234 cycles
L1D RQ	ACCESS:   29523422	FORWARD:          0	MERGED:   13745794	TO_CACHE:   15777019
L1D WQ	ACCESS:    4098158	FORWARD:        609	MERGED:          0	TO_CACHE:    4098158

L1D UNIQUE REGIONS ACCESSED: 0
L1D REGIONS CONFLICTS: 0
L1D Cross Page Prefetch Requests: 0
L1D Same Page Prefetch Requests: 0
L1D ROI Sum of L1D PQ occupancy: 0
L1D PREFETCHES PUSHED FROM L2C: 0
L1I TOTAL     ACCESS:   18551938  HIT:   18551606  MISS:        332  HIT %:    99.9982  MISS %: 0.00178957   MPKI: 0.00332
L1I LOAD      ACCESS:   18551938  HIT:   18551606  MISS:        332  HIT %:    99.9982  MISS %: 0.00178957   MPKI: 0.00332
L1I PREFETCH  REQUESTED:          0  ISSUED:          0  USEFUL:          0  USELESS:          0
L1I USEFUL LOAD PREFETCHES:          0 PREFETCH ISSUED TO LOWER LEVEL:          0  ACCURACY: -nan
L1I TIMELY PREFETCHES:          0 LATE PREFETCHES: 0 DROPPED PREFETCHES: 0
L1I PREFETCHES SAME FILL-ORIGIN LEVEL: 0 DIFFERENT FILL-ORIGIN LEVEL: 0
L1I AVERAGE MISS LATENCY: 239.886 cycles
L1I RQ	ACCESS:   27140332	FORWARD:          0	MERGED:    8588221	TO_CACHE:   18552111

BTB TOTAL     ACCESS:    3186002  HIT:    3185933  MISS:         69  HIT %:    99.9978  MISS %: 0.00216572   MPKI: 0.00069
BTB BRANCH_DIRECT_JUMP	ACCESS:        512  HIT:        511  MISS:          1
BTB BRANCH_INDIRECT	ACCESS:          0  HIT:          0  MISS:          0
BTB BRANCH_CONDITIONAL	ACCESS:    3185484  HIT:    3185422  MISS:         62
BTB BRANCH_DIRECT_CALL	ACCESS:          3  HIT:          0  MISS:          3
BTB BRANCH_INDIRECT_CALL	ACCESS:          0  HIT:          0  MISS:          0
BTB BRANCH_RETURN	ACCESS:          3  HIT:          0  MISS:          3
BTB BRANCH_OTHER ACCESS:          0  HIT:          0  MISS:          0

L2C TOTAL     ACCESS:    3328825  HIT:    1014463  MISS:    2314362  HIT %:    30.4751  MISS %:    69.5249   MPKI: 23.1436
L2C LOAD      ACCESS:    1951934  HIT:     248755  MISS:    1703179  HIT %:     12.744  MISS %:     87.256   MPKI: 17.0318
L2C DATA LOAD MPKI: 17.0285
L2C INSTRUCTION LOAD MPKI: 0.00332
L2C RFO       ACCESS:     595953  HIT:          5  MISS:     595948  HIT %: 0.000838992  MISS %:    99.9992   MPKI: 5.95948
L2C PREFETCH  ACCESS:       4950  HIT:        243  MISS:       4707  HIT %:    4.90909  MISS %:    95.0909   MPKI: 0.04707
L2C DATA PREFETCH MPKI: 0.04707
L2C INSTRUCTION PREFETCH MPKI: 0
L2C WRITEBACK ACCESS:     730809  HIT:     728805  MISS:       2004  HIT %:    99.7258  MISS %:   0.274217   MPKI: 0.02004
L2C LOAD TRANSLATION ACCESS:      45179  HIT:      36655  MISS:       8524  HIT %:    81.1328  MISS %:    18.8672   MPKI: 0.08524
L2C PREFETCH  REQUESTED:      64296  ISSUED:      64296  USEFUL:       4611  USELESS:         96
L2C USEFUL LOAD PREFETCHES:       4611 PREFETCH ISSUED TO LOWER LEVEL:      63079  ACCURACY: 7.30988
L2C TIMELY PREFETCHES:       4611 LATE PREFETCHES: 0 DROPPED PREFETCHES: 0
L2C PREFETCHES SAME FILL-ORIGIN LEVEL: 4707 DIFFERENT FILL-ORIGIN LEVEL: 58372
L2C AVERAGE MISS LATENCY: 219.104 cycles
L2C RQ	ACCESS:    2593067	FORWARD:          0	MERGED:          0	TO_CACHE:    2593067
L2C WQ	ACCESS:     730809	FORWARD:          0	MERGED:          0	TO_CACHE:     730809
L2C PQ	ACCESS:      64296	FORWARD:          0	MERGED:        974	TO_CACHE:      63322

L2C Instructions Evicting Data 329
L2C Translations Evicting Data 8491
L2C Data Evicting Data 2294721
L2C Instructions Evicting Instructions 0
L2C Translations Evicting Instructions 1
L2C Data Evicting Instructions 331
L2C Instructions Evicting Translations 3
L2C Translations Evicting Translations 32
L2C Data Evicting Translations 8450
L2C Dense regions hint from L2: 0
PSCL5 TOTAL     ACCESS:      45098  HIT:      45098  MISS:          0  HIT %:        100  MISS %:          0   MPKI: 0
PSCL5 LOAD TRANSLATION ACCESS:      45098  HIT:      45098  MISS:          0  HIT %:        100  MISS %:          0   MPKI: 0
PSCL5 PREFETCH  REQUESTED:          0  ISSUED:          0  USEFUL:          0  USELESS:          0
PSCL5 USEFUL LOAD PREFETCHES:          0 PREFETCH ISSUED TO LOWER LEVEL:          0  ACCURACY: -nan
PSCL5 TIMELY PREFETCHES:          0 LATE PREFETCHES: 0 DROPPED PREFETCHES: 0
PSCL5 PREFETCHES SAME FILL-ORIGIN LEVEL: 0 DIFFERENT FILL-ORIGIN LEVEL: 0

PSCL4 TOTAL     ACCESS:      45098  HIT:      45098  MISS:          0  HIT %:        100  MISS %:          0   MPKI: 0
PSCL4 LOAD TRANSLATION ACCESS:      45098  HIT:      45098  MISS:          0  HIT %:        100  MISS %:          0   MPKI: 0
PSCL4 PREFETCH  REQUESTED:          0  ISSUED:          0  USEFUL:          0  USELESS:          0
PSCL4 USEFUL LOAD PREFETCHES:          0 PREFETCH ISSUED TO LOWER LEVEL:          0  ACCURACY: -nan
PSCL4 TIMELY PREFETCHES:          0 LATE PREFETCHES: 0 DROPPED PREFETCHES: 0
PSCL4 PREFETCHES SAME FILL-ORIGIN LEVEL: 0 DIFFERENT FILL-ORIGIN LEVEL: 0

PSCL3 TOTAL     ACCESS:      44837  HIT:      44835  MISS:          2  HIT %:    99.9955  MISS %:  0.0044606   MPKI: 2e-05
PSCL3 LOAD TRANSLATION ACCESS:      44837  HIT:      44835  MISS:          2  HIT %:    99.9955  MISS %:  0.0044606   MPKI: 2e-05
PSCL3 PREFETCH  REQUESTED:          0  ISSUED:          0  USEFUL:          0  USELESS:          0
PSCL3 USEFUL LOAD PREFETCHES:          0 PREFETCH ISSUED TO LOWER LEVEL:          0  ACCURACY: -nan
PSCL3 TIMELY PREFETCHES:          0 LATE PREFETCHES: 0 DROPPED PREFETCHES: 0
PSCL3 PREFETCHES SAME FILL-ORIGIN LEVEL: 0 DIFFERENT FILL-ORIGIN LEVEL: 0

PSCL2 TOTAL     ACCESS:      45098  HIT:      44994  MISS:        104  HIT %:    99.7694  MISS %:   0.230609   MPKI: 0.00104
PSCL2 LOAD TRANSLATION ACCESS:      45098  HIT:      44994  MISS:        104  HIT %:    99.7694  MISS %:   0.230609   MPKI: 0.00104
PSCL2 PREFETCH  REQUESTED:          0  ISSUED:          0  USEFUL:          0  USELESS:          0
PSCL2 USEFUL LOAD PREFETCHES:          0 PREFETCH ISSUED TO LOWER LEVEL:          0  ACCURACY: -nan
PSCL2 TIMELY PREFETCHES:          0 LATE PREFETCHES: 0 DROPPED PREFETCHES: 0
PSCL2 PREFETCHES SAME FILL-ORIGIN LEVEL: 0 DIFFERENT FILL-ORIGIN LEVEL: 0

LLC TOTAL     ACCESS:    3102851  HIT:     623365  MISS:    2479486  HIT %:    20.0901  MISS %:    79.9099   MPKI: 24.7949
LLC LOAD      ACCESS:    1703179  HIT:      38377  MISS:    1664802  HIT %:    2.25326  MISS %:    97.7467   MPKI: 16.648
LLC RFO       ACCESS:     595948  HIT:        142  MISS:     595806  HIT %:  0.0238276  MISS %:    99.9762   MPKI: 5.95806
LLC PREFETCH  ACCESS:      62994  HIT:      34917  MISS:      28077  HIT %:    55.4291  MISS %:    44.5709   MPKI: 0.28077
LLC WRITEBACK ACCESS:     732206  HIT:     549891  MISS:     182315  HIT %:    75.1006  MISS %:    24.8994   MPKI: 1.82315
LLC LOAD TRANSLATION ACCESS:       8524  HIT:         38  MISS:       8486  HIT %:     0.4458  MISS %:    99.5542   MPKI: 0.08486
LLC PREFETCH  REQUESTED:          0  ISSUED:          0  USEFUL:      22624  USELESS:       5456
LLC USEFUL LOAD PREFETCHES:      22624 PREFETCH ISSUED TO LOWER LEVEL:      28077  ACCURACY: 80.5784
LLC TIMELY PREFETCHES:      22624 LATE PREFETCHES: 0 DROPPED PREFETCHES: 0
LLC PREFETCHES SAME FILL-ORIGIN LEVEL: 27553 DIFFERENT FILL-ORIGIN LEVEL: 0
LLC AVERAGE MISS LATENCY: 178.443 cycles
LLC RQ	ACCESS:    2307651	FORWARD:          0	MERGED:          0	TO_CACHE:    2307651
LLC WQ	ACCESS:     732206	FORWARD:          0	MERGED:          0	TO_CACHE:     732206
LLC PQ	ACCESS:      63079	FORWARD:          0	MERGED:          0	TO_CACHE:      63079

LLC Dense regions hint to LLC: 0

RAW hits: 11539
Loads Generated: 29534969
Loads sent to L1D: 29523422
Stores Generated: 4098298
Stores sent to L1D: 4098297
Major fault: 0 Minor fault: 39258
Allocated PAGES: 39258
 All Calls: 3331574
 Critical Calls: 820547
------------------
Depth Distribution
------------------
depth 0: 0
depth 1: 908273
depth 2: 466394
depth 3: 196337
depth 4: 114199
depth 5: 81798
depth 6: 48745
depth 7: 15901
depth 8: 4276
depth 9: 512
depth 10: 0
depth 11: 0
depth 12: 0
depth 13: 0
depth 14: 0
depth 15: 0
depth 16: 0
depth 17: 0
depth 18: 0
depth 19: 0
depth 20: 0
depth 21: 0
depth 22: 0
depth 23: 0
depth 24: 0
depth 25: 0
depth 26: 0
depth 27: 0
depth 28: 0
depth 29: 0
Total: 1836435
-----------------------------
-----------------------------
	Captured at Filter
-----------------------------
depth 0: 0
depth 1: 3167
depth 2: 2265
depth 3: 875
depth 4: 452
depth 5: 339
depth 6: 215
depth 7: 77
depth 8: 26
depth 9: 3
depth 10: 0
depth 11: 0
depth 12: 0
depth 13: 0
depth 14: 0
depth 15: 0
depth 16: 0
depth 17: 0
depth 18: 0
depth 19: 0
depth 20: 0
depth 21: 0
depth 22: 0
depth 23: 0
depth 24: 0
depth 25: 0
depth 26: 0
depth 27: 0
depth 28: 0
depth 29: 0
-----------------------------
-----------------------------
		Lost at Page
-----------------------------
depth 0: 0
depth 1: 18878
depth 2: 17031
depth 3: 11010
depth 4: 8422
depth 5: 7253
depth 6: 4802
depth 7: 1788
depth 8: 575
depth 9: 119
depth 10: 0
depth 11: 0
depth 12: 0
depth 13: 0
depth 14: 0
depth 15: 0
depth 16: 0
depth 17: 0
depth 18: 0
depth 19: 0
depth 20: 0
depth 21: 0
depth 22: 0
depth 23: 0
depth 24: 0
depth 25: 0
depth 26: 0
depth 27: 0
depth 28: 0
depth 29: 0
-----------------------------
-----------------------------
	Lost due to PQ Size
-----------------------------
750
-----------------------------
ST read accesses: 22320
ST write accesses: 1090
PT read accesses: 455990
PT write accesses: 33073
FILTER read accesses: 2282593
FILTER write accesses: 2204341
GHR read accesses: 28514
GHR write accesses: 3622
GHR counter read accesses: 394712
GHR counter write accesses: 32837
ST tag read accesses: 9576392
ST tag write accesses: 301390

DRAM Statistics
 CHANNEL 0
 RQ ROW_BUFFER_HIT:     151429  ROW_BUFFER_MISS:    2145740
 DBUS_CONGESTED:        522
 WQ ROW_BUFFER_HIT:     471642  ROW_BUFFER_MISS:     266295  FULL:          0

 AVG_CONGESTED_CYCLE: 6
 All warmup complete: 2
Channel 0 Bank busy for read cycles: 0
Channel 0 Bank busy for write cycles: 0
Channel 0
Rank 0
0banks busy for read cycles: 12288007
0banks busy for write cycles: 32458
1banks busy for read cycles: 57221003
1banks busy for write cycles: 6932670
2banks busy for read cycles: 44997777
2banks busy for write cycles: 5413783
3banks busy for read cycles: 27371975
3banks busy for write cycles: 4228350
4banks busy for read cycles: 13815402
4banks busy for write cycles: 3360921
5banks busy for read cycles: 2332690
5banks busy for write cycles: 2894249
6banks busy for read cycles: 3144569
6banks busy for write cycles: 2781798
7banks busy for read cycles: 2107411
7banks busy for write cycles: 4387328
8banks busy for read cycles: 31354
8banks busy for write cycles: 21104771

CPU 0 Branch Prediction Accuracy: 99.74% MPKI: 0.08327 Average ROB Occupancy at Mispredict: 306.264
Branch types
NOT_BRANCH: 96797559 96.7976%
BRANCH_DIRECT_JUMP: 512 0.000512%
BRANCH_INDIRECT: 0 0%
BRANCH_CONDITIONAL: 3202245 3.20225%
BRANCH_DIRECT_CALL: 3 3e-06%
BRANCH_INDIRECT_CALL: 0 0%
BRANCH_RETURN: 3 3e-06%
BRANCH_OTHER: 0 0%

DRAM PAGES: 1048576
Allocated PAGES: 39258
