
*** ChampSim Multicore Out-of-Order Simulator ***

Warmup Instructions: 50000000
Simulation Instructions: 100000000
Number of CPUs: 1
LLC sets: 2048
LLC ways: 16
Off-chip DRAM Size: 4096 MB Channels: 1 Width: 64-bit Data Rate: 6400 MT/s
CPU 0 runs ../SPEC2017//654.roms_s-293B.champsimtrace.xz
.xz
NUM_OF_IPS_IN_CRITICAL_IP_TRAINING: 64
NUM_OF_CRITICAL_IP_TRAINING_TABLE_WAYS: 2
NUM_OF_CRITICAL_IP_TRAINING_TABLE_SETS: 32
WOBBLY_CRITICAL_IP_CACHE_SETS: 32
WOBBLY_CRITICAL_IP_CACHE_WAYS: 4
BTB has LRU replacement policy
ITLB has LRU replacement policy
DTLB has LRU replacement policy
STLB has LRU replacement policy
L1I has LRU replacement policy
IP Table Entries: 64
L1D has LRU replacement policy
Initialize SRRIP state for L2C
Initialize DRRIP state for LLC
Heartbeat CPU 0 instructions: 10000001 cycles: 3119637 heartbeat IPC: 3.2055 cumulative IPC: 3.2055 (Simulation time: 0 hr 3 min 15 sec) 
Heartbeat CPU 0 instructions: 20000003 cycles: 6306877 heartbeat IPC: 3.13751 cumulative IPC: 3.17114 (Simulation time: 0 hr 5 min 48 sec) 
Heartbeat CPU 0 instructions: 30000000 cycles: 9427104 heartbeat IPC: 3.20489 cumulative IPC: 3.18231 (Simulation time: 0 hr 8 min 21 sec) 
Heartbeat CPU 0 instructions: 40000002 cycles: 12614215 heartbeat IPC: 3.13764 cumulative IPC: 3.17103 (Simulation time: 0 hr 10 min 45 sec) 
Heartbeat CPU 0 instructions: 50000003 cycles: 15734358 heartbeat IPC: 3.20498 cumulative IPC: 3.17776 (Simulation time: 0 hr 12 min 58 sec) 

Warmup complete CPU 0 instructions: 50000003 cycles: 15734358 (Simulation time: 0 hr 12 min 58 sec) 

% increase in all ip prefetch 222.625
% increase in all ip prefetch -17.8154
Heartbeat CPU 0 instructions: 60000002 cycles: 25615939 heartbeat IPC: 1.01198 cumulative IPC: 1.01198 (Simulation time: 0 hr 15 min 42 sec) 
Heartbeat CPU 0 instructions: 70000003 cycles: 35165761 heartbeat IPC: 1.04714 cumulative IPC: 1.02926 (Simulation time: 0 hr 18 min 14 sec) 
Heartbeat CPU 0 instructions: 80000002 cycles: 44849259 heartbeat IPC: 1.03268 cumulative IPC: 1.0304 (Simulation time: 0 hr 20 min 49 sec) 
Heartbeat CPU 0 instructions: 90000002 cycles: 54520347 heartbeat IPC: 1.03401 cumulative IPC: 1.0313 (Simulation time: 0 hr 23 min 10 sec) 
Heartbeat CPU 0 instructions: 100000003 cycles: 64127000 heartbeat IPC: 1.04095 cumulative IPC: 1.03321 (Simulation time: 0 hr 25 min 36 sec) 
Heartbeat CPU 0 instructions: 110000000 cycles: 73835374 heartbeat IPC: 1.03004 cumulative IPC: 1.03268 (Simulation time: 0 hr 28 min 3 sec) 
Heartbeat CPU 0 instructions: 120000000 cycles: 83365823 heartbeat IPC: 1.04927 cumulative IPC: 1.03502 (Simulation time: 0 hr 30 min 20 sec) 
Heartbeat CPU 0 instructions: 130000000 cycles: 93367431 heartbeat IPC: 0.999839 cumulative IPC: 1.03049 (Simulation time: 0 hr 32 min 39 sec) 
Heartbeat CPU 0 instructions: 140000003 cycles: 103292239 heartbeat IPC: 1.00758 cumulative IPC: 1.02789 (Simulation time: 0 hr 34 min 54 sec) 
Heartbeat CPU 0 instructions: 150000000 cycles: 113244740 heartbeat IPC: 1.00477 cumulative IPC: 1.02553 (Simulation time: 0 hr 37 min 18 sec) 
Finished CPU 0 instructions: 100000001 cycles: 97510383 cumulative IPC: 1.02553 (Simulation time: 0 hr 37 min 18 sec) 

ChampSim completed all CPUs

Region of Interest Statistics

CPU 0 cumulative IPC: 1.02553 instructions: 100000001 cycles: 97510383

CPU 0 Average Load ROB stall cycles: 2.45918e+07
CPU 0 Fraction of times ROB stalled by Loads: 39.1037
CPU 0 Percentage of Load stall cycles in Total stall cycles: 3.41334e+08
Issued all: 52055346
Issued LT all: 38062352
rob_not_full_when_issued_lt_all: 35026653
Issued LT one: 32962846
rob_not_full_when_issued_lt_one: 30196485
 Total stall cycles: 74278302
 Total load stall cycles: 253537198629702
Unique Load IPs: 907
CPU 0 NUM of IPS identified critical: 71
CPU 0 Num of Load IPs stalling ROB: 519
Threshold modification factor: -1
Max PIST entries: 60
Min PIST entries: 0
Avg PIST entries: 28.2067
Trouble in retire width: 0.702596
MaC = Marked as critical.
lt_50_percent_before_Mac: 70
gt_90_percent_before_Mac: 0
gt_75_percent_before_Mac: 0
gt_50_percent_before_Mac: 1
stall_proportion_bin_same_before_after: 0
stall_proportion_bin_lower_before_after: 0
stall_proportion_bin_upper_before_after: 0
average_stall_proportion_before: 0.0359303
average_stall_proportion_after: 0.0416516
Critical IP stalls, total frequency: 3585142
Non-critical IP stalls, total frequency: 446374
Total Freq all stalling IPs: 4031516
Critical_IP_Detector_Accuracy_70: 0.239437
Critical_IP_Detector_Accuracy_80: 0.28169
Critical_IP_Detector_Accuracy_90: 0.450704
Critical_IP_Detector_Coverage_70: 1
Critical_IP_Detector_Coverage_80: 0.909091
Critical_IP_Detector_Coverage_90: 0.8
stat_90_percent_critical_ip_stalls_freq: 3641359
stat_90_percent_non_critical_ip_stalls_freq: 390157
AVERAGE_ROB_Occupancy_90_Percent_Critical_IP_Stalls: 108.844
AVERAGE_ROB_Occupancy_90_Percent_Non_Critical_IP_Stalls: 120.518
Critical_IP_ROB_Stalls_Bucket_0: 880618
Non-critical_IP_ROB_Stalls_Bucket_0: 167714
Critical_IP_ROB_Stalls_Bucket_1: 1402046
Non-critical_IP_ROB_Stalls_Bucket_1: 113940
Critical_IP_ROB_Stalls_Bucket_2: 426468
Non-critical_IP_ROB_Stalls_Bucket_2: 43829
Critical_IP_ROB_Stalls_Bucket_3: 248100
Non-critical_IP_ROB_Stalls_Bucket_3: 26160
Critical_IP_ROB_Stalls_Bucket_4: 204122
Non-critical_IP_ROB_Stalls_Bucket_4: 24622
Critical_IP_ROB_Stalls_Bucket_5: 249066
Non-critical_IP_ROB_Stalls_Bucket_5: 54928
Critical_IP_ROB_Stalls_Bucket_6: 174722
Non-critical_IP_ROB_Stalls_Bucket_6: 15181
0 => IPs accounting for >50 percent of stalls, 1 => 55, 2 => 60, 3 => 65 and so on till 90.
percent50: 51.4648 num IPs:  10
percent55: 55.1623 num IPs: 11
percent60: 61.8345 num IPs: 13
percent65: 66.8352 num IPs: 15
percent70: 71.2314 num IPs: 17
percent75: 75.3177 num IPs: 19
percent80: 80.182 num IPs: 22
percent85: 85.456 num IPs: 29
percent90: 90.3223 num IPs: 40
Critical_ROB_Stalls_Percent_0_Bucket_0: 503076
Non-critical_ROB_Stalls_Percent_0_Bucket_0: 545256
Critical_ROB_Stalls_Percent_0_Bucket_1: 785793
Non-critical_ROB_Stalls_Percent_0_Bucket_1: 730193
Critical_ROB_Stalls_Percent_0_Bucket_2: 283406
Non-critical_ROB_Stalls_Percent_0_Bucket_2: 186891
Critical_ROB_Stalls_Percent_0_Bucket_3: 147543
Non-critical_ROB_Stalls_Percent_0_Bucket_3: 126717
Critical_ROB_Stalls_Percent_0_Bucket_4: 117133
Non-critical_ROB_Stalls_Percent_0_Bucket_4: 111611
Critical_ROB_Stalls_Percent_0_Bucket_5: 139788
Non-critical_ROB_Stalls_Percent_0_Bucket_5: 164206
Critical_ROB_Stalls_Percent_0_Bucket_6: 98071
Non-critical_ROB_Stalls_Percent_0_Bucket_6: 91832
Critical_ROB_Stalls_Percent_1_Bucket_0: 624106
Non-critical_ROB_Stalls_Percent_1_Bucket_0: 424226
Critical_ROB_Stalls_Percent_1_Bucket_1: 810841
Non-critical_ROB_Stalls_Percent_1_Bucket_1: 705145
Critical_ROB_Stalls_Percent_1_Bucket_2: 284209
Non-critical_ROB_Stalls_Percent_1_Bucket_2: 186088
Critical_ROB_Stalls_Percent_1_Bucket_3: 147930
Non-critical_ROB_Stalls_Percent_1_Bucket_3: 126330
Critical_ROB_Stalls_Percent_1_Bucket_4: 117649
Non-critical_ROB_Stalls_Percent_1_Bucket_4: 111095
Critical_ROB_Stalls_Percent_1_Bucket_5: 140285
Non-critical_ROB_Stalls_Percent_1_Bucket_5: 163709
Critical_ROB_Stalls_Percent_1_Bucket_6: 98856
Non-critical_ROB_Stalls_Percent_1_Bucket_6: 91047
Critical_ROB_Stalls_Percent_2_Bucket_0: 733128
Non-critical_ROB_Stalls_Percent_2_Bucket_0: 315204
Critical_ROB_Stalls_Percent_2_Bucket_1: 938856
Non-critical_ROB_Stalls_Percent_2_Bucket_1: 577130
Critical_ROB_Stalls_Percent_2_Bucket_2: 292126
Non-critical_ROB_Stalls_Percent_2_Bucket_2: 178171
Critical_ROB_Stalls_Percent_2_Bucket_3: 153526
Non-critical_ROB_Stalls_Percent_2_Bucket_3: 120734
Critical_ROB_Stalls_Percent_2_Bucket_4: 122811
Non-critical_ROB_Stalls_Percent_2_Bucket_4: 105933
Critical_ROB_Stalls_Percent_2_Bucket_5: 148312
Non-critical_ROB_Stalls_Percent_2_Bucket_5: 155682
Critical_ROB_Stalls_Percent_2_Bucket_6: 104107
Non-critical_ROB_Stalls_Percent_2_Bucket_6: 85796
Critical_ROB_Stalls_Percent_3_Bucket_0: 733128
Non-critical_ROB_Stalls_Percent_3_Bucket_0: 315204
Critical_ROB_Stalls_Percent_3_Bucket_1: 1049851
Non-critical_ROB_Stalls_Percent_3_Bucket_1: 466135
Critical_ROB_Stalls_Percent_3_Bucket_2: 324914
Non-critical_ROB_Stalls_Percent_3_Bucket_2: 145383
Critical_ROB_Stalls_Percent_3_Bucket_3: 168553
Non-critical_ROB_Stalls_Percent_3_Bucket_3: 105707
Critical_ROB_Stalls_Percent_3_Bucket_4: 141409
Non-critical_ROB_Stalls_Percent_3_Bucket_4: 87335
Critical_ROB_Stalls_Percent_3_Bucket_5: 167342
Non-critical_ROB_Stalls_Percent_3_Bucket_5: 136652
Critical_ROB_Stalls_Percent_3_Bucket_6: 109275
Non-critical_ROB_Stalls_Percent_3_Bucket_6: 80628
Critical_ROB_Stalls_Percent_4_Bucket_0: 733468
Non-critical_ROB_Stalls_Percent_4_Bucket_0: 314864
Critical_ROB_Stalls_Percent_4_Bucket_1: 1120689
Non-critical_ROB_Stalls_Percent_4_Bucket_1: 395297
Critical_ROB_Stalls_Percent_4_Bucket_2: 355122
Non-critical_ROB_Stalls_Percent_4_Bucket_2: 115175
Critical_ROB_Stalls_Percent_4_Bucket_3: 190180
Non-critical_ROB_Stalls_Percent_4_Bucket_3: 84080
Critical_ROB_Stalls_Percent_4_Bucket_4: 162919
Non-critical_ROB_Stalls_Percent_4_Bucket_4: 65825
Critical_ROB_Stalls_Percent_4_Bucket_5: 195072
Non-critical_ROB_Stalls_Percent_4_Bucket_5: 108922
Critical_ROB_Stalls_Percent_4_Bucket_6: 114256
Non-critical_ROB_Stalls_Percent_4_Bucket_6: 75647
Critical_ROB_Stalls_Percent_5_Bucket_0: 840532
Non-critical_ROB_Stalls_Percent_5_Bucket_0: 207800
Critical_ROB_Stalls_Percent_5_Bucket_1: 1152558
Non-critical_ROB_Stalls_Percent_5_Bucket_1: 363428
Critical_ROB_Stalls_Percent_5_Bucket_2: 363421
Non-critical_ROB_Stalls_Percent_5_Bucket_2: 106876
Critical_ROB_Stalls_Percent_5_Bucket_3: 194911
Non-critical_ROB_Stalls_Percent_5_Bucket_3: 79349
Critical_ROB_Stalls_Percent_5_Bucket_4: 167123
Non-critical_ROB_Stalls_Percent_5_Bucket_4: 61621
Critical_ROB_Stalls_Percent_5_Bucket_5: 200250
Non-critical_ROB_Stalls_Percent_5_Bucket_5: 103744
Critical_ROB_Stalls_Percent_5_Bucket_6: 117651
Non-critical_ROB_Stalls_Percent_5_Bucket_6: 72252
Critical_ROB_Stalls_Percent_6_Bucket_0: 952565
Non-critical_ROB_Stalls_Percent_6_Bucket_0: 95767
Critical_ROB_Stalls_Percent_6_Bucket_1: 1220871
Non-critical_ROB_Stalls_Percent_6_Bucket_1: 295115
Critical_ROB_Stalls_Percent_6_Bucket_2: 368308
Non-critical_ROB_Stalls_Percent_6_Bucket_2: 101989
Critical_ROB_Stalls_Percent_6_Bucket_3: 198139
Non-critical_ROB_Stalls_Percent_6_Bucket_3: 76121
Critical_ROB_Stalls_Percent_6_Bucket_4: 169468
Non-critical_ROB_Stalls_Percent_6_Bucket_4: 59276
Critical_ROB_Stalls_Percent_6_Bucket_5: 203252
Non-critical_ROB_Stalls_Percent_6_Bucket_5: 100742
Critical_ROB_Stalls_Percent_6_Bucket_6: 119947
Non-critical_ROB_Stalls_Percent_6_Bucket_6: 69956
Critical_ROB_Stalls_Percent_7_Bucket_0: 960510
Non-critical_ROB_Stalls_Percent_7_Bucket_0: 87822
Critical_ROB_Stalls_Percent_7_Bucket_1: 1258159
Non-critical_ROB_Stalls_Percent_7_Bucket_1: 257827
Critical_ROB_Stalls_Percent_7_Bucket_2: 393155
Non-critical_ROB_Stalls_Percent_7_Bucket_2: 77142
Critical_ROB_Stalls_Percent_7_Bucket_3: 232209
Non-critical_ROB_Stalls_Percent_7_Bucket_3: 42051
Critical_ROB_Stalls_Percent_7_Bucket_4: 188542
Non-critical_ROB_Stalls_Percent_7_Bucket_4: 40202
Critical_ROB_Stalls_Percent_7_Bucket_5: 259878
Non-critical_ROB_Stalls_Percent_7_Bucket_5: 44116
Critical_ROB_Stalls_Percent_7_Bucket_6: 152718
Non-critical_ROB_Stalls_Percent_7_Bucket_6: 37185
Critical_ROB_Stalls_Percent_8_Bucket_0: 1000751
Non-critical_ROB_Stalls_Percent_8_Bucket_0: 47581
Critical_ROB_Stalls_Percent_8_Bucket_1: 1334166
Non-critical_ROB_Stalls_Percent_8_Bucket_1: 181820
Critical_ROB_Stalls_Percent_8_Bucket_2: 409658
Non-critical_ROB_Stalls_Percent_8_Bucket_2: 60639
Critical_ROB_Stalls_Percent_8_Bucket_3: 248897
Non-critical_ROB_Stalls_Percent_8_Bucket_3: 25363
Critical_ROB_Stalls_Percent_8_Bucket_4: 200911
Non-critical_ROB_Stalls_Percent_8_Bucket_4: 27833
Critical_ROB_Stalls_Percent_8_Bucket_5: 281198
Non-critical_ROB_Stalls_Percent_8_Bucket_5: 22796
Critical_ROB_Stalls_Percent_8_Bucket_6: 165778
Non-critical_ROB_Stalls_Percent_8_Bucket_6: 24125
Average ROB occupancy Load Stall Begin: 96.5438
Average ROB occupancy Load Stall End: 109.974
Min ROB occupancy Load Stall Begin: 1
Max ROB occupancy Load Stall Begin: 352
Min ROB occupancy Load Stall End: 1
Max ROB occupancy Load Stall End: 352
Average ROB occupancy Critical Load Stall Begin: 97.2855
Average ROB occupancy Critical Load Stall End: 109.476
Min ROB occupancy Critical Load Stall Begin: 5
Max ROB occupancy Critical Load Stall Begin: 352
Min ROB occupancy Critical Load Stall End: 5
Max ROB occupancy Critical Load Stall End: 352
 ROB Load Stall Begin Bucket Count 0: 1551654
 ROB Load Stall End Bucket Count 0: 1048332
 ROB Critical Load Stall Begin Bucket Count 0: 1292032
 ROB Critical Load Stall End Bucket Count 0: 848654
 ROB Load Stall Begin Bucket Count 1: 1269662
 ROB Load Stall End Bucket Count 1: 1515986
 ROB Critical Load Stall Begin Bucket Count 1: 1135372
 ROB Critical Load Stall End Bucket Count 1: 1369668
 ROB Load Stall Begin Bucket Count 2: 333516
 ROB Load Stall End Bucket Count 2: 470297
 ROB Critical Load Stall Begin Bucket Count 2: 285958
 ROB Critical Load Stall End Bucket Count 2: 414619
 ROB Load Stall Begin Bucket Count 3: 245337
 ROB Load Stall End Bucket Count 3: 274260
 ROB Critical Load Stall Begin Bucket Count 3: 219295
 ROB Critical Load Stall End Bucket Count 3: 242474
 ROB Load Stall Begin Bucket Count 4: 250821
 ROB Load Stall End Bucket Count 4: 228744
 ROB Critical Load Stall Begin Bucket Count 4: 216294
 ROB Critical Load Stall End Bucket Count 4: 195880
 ROB Load Stall Begin Bucket Count 5: 251711
 ROB Load Stall End Bucket Count 5: 303994
 ROB Critical Load Stall Begin Bucket Count 5: 209046
 ROB Critical Load Stall End Bucket Count 5: 239527
 ROB Load Stall Begin Bucket Count 6: 128815
 ROB Load Stall End Bucket Count 6: 189903
 ROB Critical Load Stall Begin Bucket Count 6: 115914
 ROB Critical Load Stall End Bucket Count 6: 163089
PIST Tag Read Accesses: 857436
PIST Read Accesses: 428718
PIST Tag Write Accesses: 857436
PIST Write Accesses: 428718
Criticality detector called times: 561329
Max global_stall_cycles_count: 1575553
Threshold Modified: 1 times, factor: -1
Sturdy critical IP cache stats: 
 Unused entries: 0
CIC Tag Read Accesses: 0
CIC Read Accesses: 0
CIC Tag Write Accesses: 0
CIC Write Accesses: 0
Wobbly critical IP cache stats: 
 Unused entries: 61
CIC Tag Read Accesses: 220607972
CIC Read Accesses: 0
CIC Tag Write Accesses: 5506312
CIC Write Accesses: 0
ITLB TOTAL     ACCESS:   13935581  HIT:   13935565  MISS:         16  HIT %:    99.9999  MISS %: 0.000114814   MPKI: 0.00016
ITLB LOAD TRANSLATION ACCESS:   13935581  HIT:   13935565  MISS:         16  HIT %:    99.9999  MISS %: 0.000114814   MPKI: 0.00016
ITLB PREFETCH  REQUESTED:          0  ISSUED:          0  USEFUL:          0  USELESS:          0
ITLB USEFUL LOAD PREFETCHES:          0 PREFETCH ISSUED TO LOWER LEVEL:          0  ACCURACY: -nan
ITLB TIMELY PREFETCHES:          0 LATE PREFETCHES: 0 DROPPED PREFETCHES: 0
ITLB PREFETCHES SAME FILL-ORIGIN LEVEL: 0 DIFFERENT FILL-ORIGIN LEVEL: 0
ITLB AVERAGE MISS LATENCY: 252.188 cycles
ITLB RQ	ACCESS:   17675964	FORWARD:          0	MERGED:    3740380	TO_CACHE:   13935584

DTLB TOTAL     ACCESS:   26447703  HIT:   26414902  MISS:      32801  HIT %:     99.876  MISS %:   0.124022   MPKI: 0.32801
DTLB LOAD TRANSLATION ACCESS:   26447703  HIT:   26414902  MISS:      32801  HIT %:     99.876  MISS %:   0.124022   MPKI: 0.32801
DTLB PREFETCH  REQUESTED:          0  ISSUED:          0  USEFUL:          0  USELESS:          0
DTLB USEFUL LOAD PREFETCHES:          0 PREFETCH ISSUED TO LOWER LEVEL:          0  ACCURACY: -nan
DTLB TIMELY PREFETCHES:          0 LATE PREFETCHES: 0 DROPPED PREFETCHES: 0
DTLB PREFETCHES SAME FILL-ORIGIN LEVEL: 0 DIFFERENT FILL-ORIGIN LEVEL: 0
DTLB AVERAGE MISS LATENCY: 213.564 cycles
DTLB RQ	ACCESS:   30253839	FORWARD:          0	MERGED:    3761423	TO_CACHE:   26492416

STLB TOTAL     ACCESS:     748529  HIT:     733563  MISS:      14966  HIT %:    98.0006  MISS %:    1.99939   MPKI: 0.14966
STLB LOAD TRANSLATION ACCESS:      32817  HIT:      17851  MISS:      14966  HIT %:    54.3956  MISS %:    45.6044   MPKI: 0.14966
STLB TRANSLATION FROM L1D PREFETCHER ACCESS:     715712  HIT:     715712  MISS:          0  HIT %:        100  MISS %:          0   MPKI: 0
STLB PREFETCH  REQUESTED:          0  ISSUED:          0  USEFUL:          0  USELESS:          0
STLB USEFUL LOAD PREFETCHES:          0 PREFETCH ISSUED TO LOWER LEVEL:          0  ACCURACY: -nan
STLB TIMELY PREFETCHES:          0 LATE PREFETCHES: 0 DROPPED PREFETCHES: 0
STLB PREFETCHES SAME FILL-ORIGIN LEVEL: 0 DIFFERENT FILL-ORIGIN LEVEL: 0
STLB AVERAGE MISS LATENCY: 441.67 cycles
STLB RQ	ACCESS:    3137651	FORWARD:          0	MERGED:    2389122	TO_CACHE:     748529

STLB Hit, L1D data hit: 0
STLB Hit, L2C data hit: 0
STLB Hit, LLC data hit: 0
STLB Hit, LLC data miss: 0
STLB STLB hints to L2: 0
L1D TOTAL     ACCESS:   32661704  HIT:   31395221  MISS:    1266483  HIT %:    96.1224  MISS %:    3.87758   MPKI: 12.6648
L1D LOAD      ACCESS:   22190839  HIT:   22010551  MISS:     180288  HIT %:    99.1876  MISS %:   0.812443   MPKI: 1.80288
L1D RFO       ACCESS:    7369590  HIT:    6976455  MISS:     393135  HIT %:    94.6654  MISS %:    5.33456   MPKI: 3.93135
L1D PREFETCH  ACCESS:    3101275  HIT:    2408215  MISS:     693060  HIT %:    77.6524  MISS %:    22.3476   MPKI: 6.9306
L1D PREFETCH  REQUESTED:    6631902  ISSUED:    6209669  USEFUL:     657236  USELESS:      35760
L1D USEFUL LOAD PREFETCHES:     657236 PREFETCH ISSUED TO LOWER LEVEL:     693729  ACCURACY: 94.7396
L1D TIMELY PREFETCHES:     657236 LATE PREFETCHES: 667 DROPPED PREFETCHES: 0
L1D PREFETCHES SAME FILL-ORIGIN LEVEL: 693729 DIFFERENT FILL-ORIGIN LEVEL: 0
L1D AVERAGE MISS LATENCY: 40706.2 cycles
L1D RQ	ACCESS:   34194714	FORWARD:          0	MERGED:   11799862	TO_CACHE:   22245754
L1D WQ	ACCESS:    8008110	FORWARD:     149099	MERGED:         25	TO_CACHE:    8008085
L1D PQ	ACCESS:    3104835	FORWARD:          0	MERGED:          0	TO_CACHE:    3104834

L1D UNIQUE REGIONS ACCESSED: 0
L1D REGIONS CONFLICTS: 0
L1D Cross Page Prefetch Requests: 0
L1D Same Page Prefetch Requests: 3197183
L1D ROI Sum of L1D PQ occupancy: 45800315
L1D PREFETCHES PUSHED FROM L2C: 0
L1I TOTAL     ACCESS:   17675913  HIT:   17675740  MISS:        173  HIT %:     99.999  MISS %: 0.000978733   MPKI: 0.00173
L1I LOAD      ACCESS:   17675913  HIT:   17675740  MISS:        173  HIT %:     99.999  MISS %: 0.000978733   MPKI: 0.00173
L1I PREFETCH  REQUESTED:          0  ISSUED:          0  USEFUL:          0  USELESS:          0
L1I USEFUL LOAD PREFETCHES:          0 PREFETCH ISSUED TO LOWER LEVEL:          0  ACCURACY: -nan
L1I TIMELY PREFETCHES:          0 LATE PREFETCHES: 0 DROPPED PREFETCHES: 0
L1I PREFETCHES SAME FILL-ORIGIN LEVEL: 0 DIFFERENT FILL-ORIGIN LEVEL: 0
L1I AVERAGE MISS LATENCY: 196.884 cycles
L1I RQ	ACCESS:   23843970	FORWARD:          0	MERGED:    6168006	TO_CACHE:   17675964

BTB TOTAL     ACCESS:    2075454  HIT:    2075322  MISS:        132  HIT %:    99.9936  MISS %: 0.00636005   MPKI: 0.00132
BTB BRANCH_DIRECT_JUMP	ACCESS:         66  HIT:         53  MISS:         13
BTB BRANCH_INDIRECT	ACCESS:          0  HIT:          0  MISS:          0
BTB BRANCH_CONDITIONAL	ACCESS:    2075292  HIT:    2075233  MISS:         59
BTB BRANCH_DIRECT_CALL	ACCESS:         48  HIT:         18  MISS:         30
BTB BRANCH_INDIRECT_CALL	ACCESS:          0  HIT:          0  MISS:          0
BTB BRANCH_RETURN	ACCESS:         48  HIT:         18  MISS:         30
BTB BRANCH_OTHER ACCESS:          0  HIT:          0  MISS:          0

L2C TOTAL     ACCESS:    1691152  HIT:     568154  MISS:    1122998  HIT %:    33.5957  MISS %:    66.4043   MPKI: 11.23
L2C LOAD      ACCESS:     179790  HIT:      65640  MISS:     114150  HIT %:    36.5093  MISS %:    63.4907   MPKI: 1.1415
L2C DATA LOAD MPKI: 1.13977
L2C INSTRUCTION LOAD MPKI: 0.00173
L2C RFO       ACCESS:     393135  HIT:        264  MISS:     392871  HIT %:  0.0671525  MISS %:    99.9328   MPKI: 3.92871
L2C PREFETCH  ACCESS:     693719  HIT:     101040  MISS:     592679  HIT %:     14.565  MISS %:     85.435   MPKI: 5.92679
L2C DATA PREFETCH MPKI: 5.92679
L2C INSTRUCTION PREFETCH MPKI: 0
L2C WRITEBACK ACCESS:     402097  HIT:     388287  MISS:      13810  HIT %:    96.5655  MISS %:    3.43449   MPKI: 0.1381
L2C LOAD TRANSLATION ACCESS:      22411  HIT:      12923  MISS:       9488  HIT %:    57.6636  MISS %:    42.3364   MPKI: 0.09488
L2C PREFETCH  REQUESTED:          0  ISSUED:          0  USEFUL:      53205  USELESS:     532667
L2C USEFUL LOAD PREFETCHES:      53205 PREFETCH ISSUED TO LOWER LEVEL:     592681  ACCURACY: 8.977
L2C TIMELY PREFETCHES:      53205 LATE PREFETCHES: 0 DROPPED PREFETCHES: 0
L2C PREFETCHES SAME FILL-ORIGIN LEVEL: 0 DIFFERENT FILL-ORIGIN LEVEL: 0
L2C AVERAGE MISS LATENCY: 124.688 cycles
L2C RQ	ACCESS:     595340	FORWARD:          0	MERGED:          0	TO_CACHE:     595336
L2C WQ	ACCESS:     402097	FORWARD:         12	MERGED:          0	TO_CACHE:     402097
L2C PQ	ACCESS:     693729	FORWARD:          0	MERGED:          0	TO_CACHE:     693721

L2C Instructions Evicting Data 173
L2C Translations Evicting Data 9386
L2C Data Evicting Data 1090360
L2C Instructions Evicting Instructions 0
L2C Translations Evicting Instructions 9
L2C Data Evicting Instructions 159
L2C Instructions Evicting Translations 0
L2C Translations Evicting Translations 93
L2C Data Evicting Translations 9008
L2C Dense regions hint from L2: 0
PSCL5 TOTAL     ACCESS:      14966  HIT:      14966  MISS:          0  HIT %:        100  MISS %:          0   MPKI: 0
PSCL5 LOAD TRANSLATION ACCESS:      14966  HIT:      14966  MISS:          0  HIT %:        100  MISS %:          0   MPKI: 0
PSCL5 PREFETCH  REQUESTED:          0  ISSUED:          0  USEFUL:          0  USELESS:          0
PSCL5 USEFUL LOAD PREFETCHES:          0 PREFETCH ISSUED TO LOWER LEVEL:          0  ACCURACY: -nan
PSCL5 TIMELY PREFETCHES:          0 LATE PREFETCHES: 0 DROPPED PREFETCHES: 0
PSCL5 PREFETCHES SAME FILL-ORIGIN LEVEL: 0 DIFFERENT FILL-ORIGIN LEVEL: 0

PSCL4 TOTAL     ACCESS:      14966  HIT:      14966  MISS:          0  HIT %:        100  MISS %:          0   MPKI: 0
PSCL4 LOAD TRANSLATION ACCESS:      14966  HIT:      14966  MISS:          0  HIT %:        100  MISS %:          0   MPKI: 0
PSCL4 PREFETCH  REQUESTED:          0  ISSUED:          0  USEFUL:          0  USELESS:          0
PSCL4 USEFUL LOAD PREFETCHES:          0 PREFETCH ISSUED TO LOWER LEVEL:          0  ACCURACY: -nan
PSCL4 TIMELY PREFETCHES:          0 LATE PREFETCHES: 0 DROPPED PREFETCHES: 0
PSCL4 PREFETCHES SAME FILL-ORIGIN LEVEL: 0 DIFFERENT FILL-ORIGIN LEVEL: 0

PSCL3 TOTAL     ACCESS:      14956  HIT:      14824  MISS:        132  HIT %:    99.1174  MISS %:   0.882589   MPKI: 0.00132
PSCL3 LOAD TRANSLATION ACCESS:      14956  HIT:      14824  MISS:        132  HIT %:    99.1174  MISS %:   0.882589   MPKI: 0.00132
PSCL3 PREFETCH  REQUESTED:          0  ISSUED:          0  USEFUL:          0  USELESS:          0
PSCL3 USEFUL LOAD PREFETCHES:          0 PREFETCH ISSUED TO LOWER LEVEL:          0  ACCURACY: -nan
PSCL3 TIMELY PREFETCHES:          0 LATE PREFETCHES: 0 DROPPED PREFETCHES: 0
PSCL3 PREFETCHES SAME FILL-ORIGIN LEVEL: 0 DIFFERENT FILL-ORIGIN LEVEL: 0

PSCL2 TOTAL     ACCESS:      14966  HIT:       7505  MISS:       7461  HIT %:     50.147  MISS %:     49.853   MPKI: 0.07461
PSCL2 LOAD TRANSLATION ACCESS:      14966  HIT:       7505  MISS:       7461  HIT %:     50.147  MISS %:     49.853   MPKI: 0.07461
PSCL2 PREFETCH  REQUESTED:          0  ISSUED:          0  USEFUL:          0  USELESS:          0
PSCL2 USEFUL LOAD PREFETCHES:          0 PREFETCH ISSUED TO LOWER LEVEL:          0  ACCURACY: -nan
PSCL2 TIMELY PREFETCHES:          0 LATE PREFETCHES: 0 DROPPED PREFETCHES: 0
PSCL2 PREFETCHES SAME FILL-ORIGIN LEVEL: 0 DIFFERENT FILL-ORIGIN LEVEL: 0

LLC TOTAL     ACCESS:    1510336  HIT:     675022  MISS:     835314  HIT %:    44.6935  MISS %:    55.3065   MPKI: 8.35314
LLC LOAD      ACCESS:     114150  HIT:      13341  MISS:     100809  HIT %:    11.6873  MISS %:    88.3127   MPKI: 1.00809
LLC RFO       ACCESS:     392871  HIT:     219686  MISS:     173185  HIT %:    55.9181  MISS %:    44.0819   MPKI: 1.73185
LLC PREFETCH  ACCESS:     592679  HIT:     204171  MISS:     388508  HIT %:    34.4488  MISS %:    65.5512   MPKI: 3.88508
LLC WRITEBACK ACCESS:     401148  HIT:     236902  MISS:     164246  HIT %:     59.056  MISS %:     40.944   MPKI: 1.64246
LLC LOAD TRANSLATION ACCESS:       9488  HIT:        922  MISS:       8566  HIT %:    9.71754  MISS %:    90.2825   MPKI: 0.08566
LLC PREFETCH  REQUESTED:          0  ISSUED:          0  USEFUL:        448  USELESS:     363964
LLC USEFUL LOAD PREFETCHES:        448 PREFETCH ISSUED TO LOWER LEVEL:     388510  ACCURACY: 0.115312
LLC TIMELY PREFETCHES:        448 LATE PREFETCHES: 0 DROPPED PREFETCHES: 0
LLC PREFETCHES SAME FILL-ORIGIN LEVEL: 0 DIFFERENT FILL-ORIGIN LEVEL: 0
LLC AVERAGE MISS LATENCY: 126.661 cycles
LLC RQ	ACCESS:     516509	FORWARD:          0	MERGED:          0	TO_CACHE:     516509
LLC WQ	ACCESS:     401148	FORWARD:          0	MERGED:          0	TO_CACHE:     401148
LLC PQ	ACCESS:     592681	FORWARD:          0	MERGED:          0	TO_CACHE:     592681

LLC Dense regions hint to LLC: 0

RAW hits: 1276680
Loads Generated: 35471403
Loads sent to L1D: 34194714
Stores Generated: 8008104
Stores sent to L1D: 8008110
Major fault: 0 Minor fault: 20496
Allocated PAGES: 20496

stream: 
stream:times selected: 845775
stream:pref_filled: 752609
stream:pref_useful: 715180
stream:pref_late: 727
stream:misses: 460
stream:misses_by_poll: 0

CS: 
CS:times selected: 766026
CS:pref_filled: 3458
CS:pref_useful: 3390
CS:pref_late: 45
CS:misses: 70212
CS:misses_by_poll: 13

CPLX: 
CPLX:times selected: 79558
CPLX:pref_filled: 1202
CPLX:pref_useful: 1006
CPLX:pref_late: 0
CPLX:misses: 3356
CPLX:misses_by_poll: 1

NL_L1: 
NL:times selected: 43
NL:pref_filled: 28
NL:pref_useful: 28
NL:pref_late: 0
NL:misses: 9
NL:misses_by_poll: 0

total selections: 1691402
total_filled: 693060
total_useful: 657236
total_late: 792
total_polluted: 14
total_misses_after_warmup: 125841
conflicts: 518434
Degree Incremented Times: 100969
Degree Decremented Times: 0

L1 IP Table Write Accesses: 11648829
L1 IP Table Read Accesses: 11130395
L1 RST Write Accesses: 824585
L1 RST Read Accesses: 1649170
L1 CSPT Write Accesses: 824585
L1 CSPT Read Accesses: 996551
L1 RR Filter Tag Write Accesses: 3527068
L1 RR Filter Tag Read Accesses: 198589245
L1 IP Table Tag Write Accesses: 13236639
L1 IP Table Tag Read Accesses: 13236639
L1 RST Tag Write Accesses: 0
L1 RST Tag Read Accesses: 7489803
L1 RR Filter Write Accesses: 0
L1 RR Filter Read Accesses: 7052147
test: 23932

DRAM Statistics
 CHANNEL 0
 RQ ROW_BUFFER_HIT:     246467  ROW_BUFFER_MISS:     424587
 DBUS_CONGESTED:        532
 WQ ROW_BUFFER_HIT:      33812  ROW_BUFFER_MISS:     166314  FULL:          0

 AVG_CONGESTED_CYCLE: 4
 All warmup complete: 2
Channel 0 Bank busy for read cycles: 0
Channel 0 Bank busy for write cycles: 0
Channel 0
Rank 0
0banks busy for read cycles: 35813645
0banks busy for write cycles: 84285
1banks busy for read cycles: 22848125
1banks busy for write cycles: 11503813
2banks busy for read cycles: 12429109
2banks busy for write cycles: 3990905
3banks busy for read cycles: 3518841
3banks busy for write cycles: 1347502
4banks busy for read cycles: 1249122
4banks busy for write cycles: 606028
5banks busy for read cycles: 627607
5banks busy for write cycles: 373700
6banks busy for read cycles: 488722
6banks busy for write cycles: 308424
7banks busy for read cycles: 765355
7banks busy for write cycles: 324144
8banks busy for read cycles: 172818
8banks busy for write cycles: 1058239

CPU 0 Branch Prediction Accuracy: 99.8613% MPKI: 0.0288 Average ROB Occupancy at Mispredict: 80.7462
Branch types
NOT_BRANCH: 97923357 97.9234%
BRANCH_DIRECT_JUMP: 66 6.6e-05%
BRANCH_INDIRECT: 0 0%
BRANCH_CONDITIONAL: 2076421 2.07642%
BRANCH_DIRECT_CALL: 48 4.8e-05%
BRANCH_INDIRECT_CALL: 0 0%
BRANCH_RETURN: 48 4.8e-05%
BRANCH_OTHER: 0 0%

DRAM PAGES: 1048576
Allocated PAGES: 20496
