Initialize SIGNATURE TABLE
ST_SET: 1
ST_WAY: 16
ST_TAG_BIT: 16
ST_TAG_MASK: ffff

Initialize PATTERN TABLE
PT_SET: 16
PT_WAY: 4
SIG_DELTA_BIT: 7
C_SIG_BIT: 4
C_DELTA_BIT: 4

Initialize PREFETCH FILTER
FILTER_SET: 1024

Initialize PERCEPTRON
PERC_ENTRIES: 64
PERC_FEATURES: 9

*** ChampSim Multicore Out-of-Order Simulator ***

Warmup Instructions: 50000000
Simulation Instructions: 100000000
Number of CPUs: 1
LLC sets: 2048
LLC ways: 16
Off-chip DRAM Size: 4096 MB Channels: 1 Width: 64-bit Data Rate: 6400 MT/s
CPU 0 runs ../SPEC2017//654.roms_s-1390B.champsimtrace.xz
.xz
NUM_OF_IPS_IN_CRITICAL_IP_TRAINING: 64
NUM_OF_CRITICAL_IP_TRAINING_TABLE_WAYS: 2
NUM_OF_CRITICAL_IP_TRAINING_TABLE_SETS: 32
WOBBLY_CRITICAL_IP_CACHE_SETS: 32
WOBBLY_CRITICAL_IP_CACHE_WAYS: 4
BTB has LRU replacement policy
ITLB has LRU replacement policy
DTLB has LRU replacement policy
STLB has LRU replacement policy
L1I has LRU replacement policy
L1D has LRU replacement policy
Initialize SRRIP state for L2C
Initialize DRRIP state for LLC
Heartbeat CPU 0 instructions: 10000001 cycles: 3783090 heartbeat IPC: 2.64334 cumulative IPC: 2.64334 (Simulation time: 0 hr 7 min 4 sec) 
Heartbeat CPU 0 instructions: 20000000 cycles: 7287615 heartbeat IPC: 2.85345 cumulative IPC: 2.74438 (Simulation time: 0 hr 11 min 1 sec) 
Heartbeat CPU 0 instructions: 30000003 cycles: 10704339 heartbeat IPC: 2.92678 cumulative IPC: 2.8026 (Simulation time: 0 hr 13 min 49 sec) 
Heartbeat CPU 0 instructions: 40000001 cycles: 14498755 heartbeat IPC: 2.63545 cumulative IPC: 2.75886 (Simulation time: 0 hr 18 min 28 sec) 
Heartbeat CPU 0 instructions: 50000000 cycles: 18833147 heartbeat IPC: 2.30713 cumulative IPC: 2.65489 (Simulation time: 0 hr 23 min 9 sec) 

Warmup complete CPU 0 instructions: 50000004 cycles: 18833148 (Simulation time: 0 hr 23 min 9 sec) 

Heartbeat CPU 0 instructions: 60000001 cycles: 30831527 heartbeat IPC: 0.833446 cumulative IPC: 0.833446 (Simulation time: 0 hr 27 min 0 sec) 
Heartbeat CPU 0 instructions: 70000003 cycles: 42181010 heartbeat IPC: 0.881098 cumulative IPC: 0.856609 (Simulation time: 0 hr 30 min 31 sec) 
Heartbeat CPU 0 instructions: 80000002 cycles: 53526462 heartbeat IPC: 0.88141 cumulative IPC: 0.86472 (Simulation time: 0 hr 33 min 48 sec) 
Heartbeat CPU 0 instructions: 90000003 cycles: 66655472 heartbeat IPC: 0.761672 cumulative IPC: 0.836429 (Simulation time: 0 hr 37 min 53 sec) 
Heartbeat CPU 0 instructions: 100000000 cycles: 80246846 heartbeat IPC: 0.735761 cumulative IPC: 0.814151 (Simulation time: 0 hr 41 min 19 sec) 
Heartbeat CPU 0 instructions: 110000000 cycles: 92784734 heartbeat IPC: 0.797583 cumulative IPC: 0.811342 (Simulation time: 0 hr 44 min 10 sec) 
Heartbeat CPU 0 instructions: 120000001 cycles: 105009686 heartbeat IPC: 0.817999 cumulative IPC: 0.812286 (Simulation time: 0 hr 46 min 30 sec) 
Heartbeat CPU 0 instructions: 130000000 cycles: 116972372 heartbeat IPC: 0.835933 cumulative IPC: 0.815168 (Simulation time: 0 hr 48 min 49 sec) 
Heartbeat CPU 0 instructions: 140000001 cycles: 130541560 heartbeat IPC: 0.736964 cumulative IPC: 0.805669 (Simulation time: 0 hr 53 min 23 sec) 
Heartbeat CPU 0 instructions: 150000001 cycles: 142498181 heartbeat IPC: 0.836357 cumulative IPC: 0.808636 (Simulation time: 1 hr 1 min 35 sec) 
Finished CPU 0 instructions: 100000001 cycles: 123665034 cumulative IPC: 0.808636 (Simulation time: 1 hr 1 min 35 sec) 

ChampSim completed all CPUs

Region of Interest Statistics

CPU 0 cumulative IPC: 0.808636 instructions: 100000001 cycles: 123665034

CPU 0 Average Load ROB stall cycles: 2.60311e+07
CPU 0 Fraction of times ROB stalled by Loads: 34.5035
CPU 0 Percentage of Load stall cycles in Total stall cycles: 3.79968e+08
Issued all: 69242811
Issued LT all: 55349689
rob_not_full_when_issued_lt_all: 40975421
Issued LT one: 48091247
rob_not_full_when_issued_lt_one: 35687969
 Total stall cycles: 101112027
 Total load stall cycles: 384192855911207
CPU 0 NUM of IPS identified critical: 0
CPU 0 Num of Load IPs stalling ROB: 740
Threshold modification factor: 0
Max PIST entries: 52
Min PIST entries: 0
Avg PIST entries: 13.8867
Trouble in retire width: 0.873983
MaC = Marked as critical.
lt_50_percent_before_Mac: 0
gt_90_percent_before_Mac: 0
gt_75_percent_before_Mac: 0
gt_50_percent_before_Mac: 0
stall_proportion_bin_same_before_after: 0
stall_proportion_bin_lower_before_after: 0
stall_proportion_bin_upper_before_after: 0
average_stall_proportion_before: -nan
average_stall_proportion_after: -nan
Critical IP stalls, total frequency: 0
Non-critical IP stalls, total frequency: 5092359
Total Freq all stalling IPs: 5092359
stat_90_percent_critical_ip_stalls_freq: 4601776
stat_90_percent_non_critical_ip_stalls_freq: 490583
Critical_IP_ROB_Stalls_Bucket_0: 0
Non-critical_IP_ROB_Stalls_Bucket_0: 3613852
Critical_IP_ROB_Stalls_Bucket_1: 0
Non-critical_IP_ROB_Stalls_Bucket_1: 636544
Critical_IP_ROB_Stalls_Bucket_2: 0
Non-critical_IP_ROB_Stalls_Bucket_2: 122909
Critical_IP_ROB_Stalls_Bucket_3: 0
Non-critical_IP_ROB_Stalls_Bucket_3: 88253
Critical_IP_ROB_Stalls_Bucket_4: 0
Non-critical_IP_ROB_Stalls_Bucket_4: 72986
Critical_IP_ROB_Stalls_Bucket_5: 0
Non-critical_IP_ROB_Stalls_Bucket_5: 78560
Critical_IP_ROB_Stalls_Bucket_6: 0
Non-critical_IP_ROB_Stalls_Bucket_6: 479255
0 => IPs accounting for >50 percent of stalls, 1 => 55, 2 => 60, 3 => 65 and so on till 90.
percent50: 51.5737 num IPs:  21
percent55: 56.636 num IPs: 24
percent60: 61.6092 num IPs: 27
percent65: 65.8778 num IPs: 30
percent70: 70.6884 num IPs: 34
percent75: 75.5897 num IPs: 40
percent80: 80.1251 num IPs: 47
percent85: 85.2954 num IPs: 56
percent90: 90.3663 num IPs: 66
Critical_ROB_Stalls_Percent_0_Bucket_0: 2001929
Non-critical_ROB_Stalls_Percent_0_Bucket_0: 1611923
Critical_ROB_Stalls_Percent_0_Bucket_1: 331997
Non-critical_ROB_Stalls_Percent_0_Bucket_1: 304547
Critical_ROB_Stalls_Percent_0_Bucket_2: 34387
Non-critical_ROB_Stalls_Percent_0_Bucket_2: 88522
Critical_ROB_Stalls_Percent_0_Bucket_3: 34083
Non-critical_ROB_Stalls_Percent_0_Bucket_3: 54170
Critical_ROB_Stalls_Percent_0_Bucket_4: 27373
Non-critical_ROB_Stalls_Percent_0_Bucket_4: 45613
Critical_ROB_Stalls_Percent_0_Bucket_5: 22331
Non-critical_ROB_Stalls_Percent_0_Bucket_5: 56229
Critical_ROB_Stalls_Percent_0_Bucket_6: 174218
Non-critical_ROB_Stalls_Percent_0_Bucket_6: 305037
Critical_ROB_Stalls_Percent_1_Bucket_0: 2141675
Non-critical_ROB_Stalls_Percent_1_Bucket_0: 1472177
Critical_ROB_Stalls_Percent_1_Bucket_1: 401625
Non-critical_ROB_Stalls_Percent_1_Bucket_1: 234919
Critical_ROB_Stalls_Percent_1_Bucket_2: 65447
Non-critical_ROB_Stalls_Percent_1_Bucket_2: 57462
Critical_ROB_Stalls_Percent_1_Bucket_3: 42548
Non-critical_ROB_Stalls_Percent_1_Bucket_3: 45705
Critical_ROB_Stalls_Percent_1_Bucket_4: 30356
Non-critical_ROB_Stalls_Percent_1_Bucket_4: 42630
Critical_ROB_Stalls_Percent_1_Bucket_5: 25251
Non-critical_ROB_Stalls_Percent_1_Bucket_5: 53309
Critical_ROB_Stalls_Percent_1_Bucket_6: 177205
Non-critical_ROB_Stalls_Percent_1_Bucket_6: 302050
Critical_ROB_Stalls_Percent_2_Bucket_0: 2379526
Non-critical_ROB_Stalls_Percent_2_Bucket_0: 1234326
Critical_ROB_Stalls_Percent_2_Bucket_1: 412840
Non-critical_ROB_Stalls_Percent_2_Bucket_1: 223704
Critical_ROB_Stalls_Percent_2_Bucket_2: 66564
Non-critical_ROB_Stalls_Percent_2_Bucket_2: 56345
Critical_ROB_Stalls_Percent_2_Bucket_3: 43306
Non-critical_ROB_Stalls_Percent_2_Bucket_3: 44947
Critical_ROB_Stalls_Percent_2_Bucket_4: 31297
Non-critical_ROB_Stalls_Percent_2_Bucket_4: 41689
Critical_ROB_Stalls_Percent_2_Bucket_5: 26198
Non-critical_ROB_Stalls_Percent_2_Bucket_5: 52362
Critical_ROB_Stalls_Percent_2_Bucket_6: 177632
Non-critical_ROB_Stalls_Percent_2_Bucket_6: 301623
Critical_ROB_Stalls_Percent_3_Bucket_0: 2527069
Non-critical_ROB_Stalls_Percent_3_Bucket_0: 1086783
Critical_ROB_Stalls_Percent_3_Bucket_1: 438683
Non-critical_ROB_Stalls_Percent_3_Bucket_1: 197861
Critical_ROB_Stalls_Percent_3_Bucket_2: 73135
Non-critical_ROB_Stalls_Percent_3_Bucket_2: 49774
Critical_ROB_Stalls_Percent_3_Bucket_3: 48407
Non-critical_ROB_Stalls_Percent_3_Bucket_3: 39846
Critical_ROB_Stalls_Percent_3_Bucket_4: 36269
Non-critical_ROB_Stalls_Percent_3_Bucket_4: 36717
Critical_ROB_Stalls_Percent_3_Bucket_5: 33661
Non-critical_ROB_Stalls_Percent_3_Bucket_5: 44899
Critical_ROB_Stalls_Percent_3_Bucket_6: 197509
Non-critical_ROB_Stalls_Percent_3_Bucket_6: 281746
Critical_ROB_Stalls_Percent_4_Bucket_0: 2715581
Non-critical_ROB_Stalls_Percent_4_Bucket_0: 898271
Critical_ROB_Stalls_Percent_4_Bucket_1: 470627
Non-critical_ROB_Stalls_Percent_4_Bucket_1: 165917
Critical_ROB_Stalls_Percent_4_Bucket_2: 88479
Non-critical_ROB_Stalls_Percent_4_Bucket_2: 34430
Critical_ROB_Stalls_Percent_4_Bucket_3: 51799
Non-critical_ROB_Stalls_Percent_4_Bucket_3: 36454
Critical_ROB_Stalls_Percent_4_Bucket_4: 38316
Non-critical_ROB_Stalls_Percent_4_Bucket_4: 34670
Critical_ROB_Stalls_Percent_4_Bucket_5: 35341
Non-critical_ROB_Stalls_Percent_4_Bucket_5: 43219
Critical_ROB_Stalls_Percent_4_Bucket_6: 199563
Non-critical_ROB_Stalls_Percent_4_Bucket_6: 279692
Critical_ROB_Stalls_Percent_5_Bucket_0: 2880481
Non-critical_ROB_Stalls_Percent_5_Bucket_0: 733371
Critical_ROB_Stalls_Percent_5_Bucket_1: 491876
Non-critical_ROB_Stalls_Percent_5_Bucket_1: 144668
Critical_ROB_Stalls_Percent_5_Bucket_2: 93103
Non-critical_ROB_Stalls_Percent_5_Bucket_2: 29806
Critical_ROB_Stalls_Percent_5_Bucket_3: 56115
Non-critical_ROB_Stalls_Percent_5_Bucket_3: 32138
Critical_ROB_Stalls_Percent_5_Bucket_4: 42462
Non-critical_ROB_Stalls_Percent_5_Bucket_4: 30524
Critical_ROB_Stalls_Percent_5_Bucket_5: 38172
Non-critical_ROB_Stalls_Percent_5_Bucket_5: 40388
Critical_ROB_Stalls_Percent_5_Bucket_6: 247090
Non-critical_ROB_Stalls_Percent_5_Bucket_6: 232165
Critical_ROB_Stalls_Percent_6_Bucket_0: 3026761
Non-critical_ROB_Stalls_Percent_6_Bucket_0: 587091
Critical_ROB_Stalls_Percent_6_Bucket_1: 537541
Non-critical_ROB_Stalls_Percent_6_Bucket_1: 99003
Critical_ROB_Stalls_Percent_6_Bucket_2: 99346
Non-critical_ROB_Stalls_Percent_6_Bucket_2: 23563
Critical_ROB_Stalls_Percent_6_Bucket_3: 62464
Non-critical_ROB_Stalls_Percent_6_Bucket_3: 25789
Critical_ROB_Stalls_Percent_6_Bucket_4: 47639
Non-critical_ROB_Stalls_Percent_6_Bucket_4: 25347
Critical_ROB_Stalls_Percent_6_Bucket_5: 44069
Non-critical_ROB_Stalls_Percent_6_Bucket_5: 34491
Critical_ROB_Stalls_Percent_6_Bucket_6: 262439
Non-critical_ROB_Stalls_Percent_6_Bucket_6: 216816
Critical_ROB_Stalls_Percent_7_Bucket_0: 3242167
Non-critical_ROB_Stalls_Percent_7_Bucket_0: 371685
Critical_ROB_Stalls_Percent_7_Bucket_1: 544411
Non-critical_ROB_Stalls_Percent_7_Bucket_1: 92133
Critical_ROB_Stalls_Percent_7_Bucket_2: 101597
Non-critical_ROB_Stalls_Percent_7_Bucket_2: 21312
Critical_ROB_Stalls_Percent_7_Bucket_3: 65007
Non-critical_ROB_Stalls_Percent_7_Bucket_3: 23246
Critical_ROB_Stalls_Percent_7_Bucket_4: 51433
Non-critical_ROB_Stalls_Percent_7_Bucket_4: 21553
Critical_ROB_Stalls_Percent_7_Bucket_5: 45020
Non-critical_ROB_Stalls_Percent_7_Bucket_5: 33540
Critical_ROB_Stalls_Percent_7_Bucket_6: 293913
Non-critical_ROB_Stalls_Percent_7_Bucket_6: 185342
Critical_ROB_Stalls_Percent_8_Bucket_0: 3467112
Non-critical_ROB_Stalls_Percent_8_Bucket_0: 146740
Critical_ROB_Stalls_Percent_8_Bucket_1: 557970
Non-critical_ROB_Stalls_Percent_8_Bucket_1: 78574
Critical_ROB_Stalls_Percent_8_Bucket_2: 104465
Non-critical_ROB_Stalls_Percent_8_Bucket_2: 18444
Critical_ROB_Stalls_Percent_8_Bucket_3: 68371
Non-critical_ROB_Stalls_Percent_8_Bucket_3: 19882
Critical_ROB_Stalls_Percent_8_Bucket_4: 55295
Non-critical_ROB_Stalls_Percent_8_Bucket_4: 17691
Critical_ROB_Stalls_Percent_8_Bucket_5: 48151
Non-critical_ROB_Stalls_Percent_8_Bucket_5: 30409
Critical_ROB_Stalls_Percent_8_Bucket_6: 300412
Non-critical_ROB_Stalls_Percent_8_Bucket_6: 178843
Average ROB occupancy Load Stall Begin: 65.1787
Average ROB occupancy Load Stall End: 75.2235
Min ROB occupancy Load Stall Begin: 1
Max ROB occupancy Load Stall Begin: 352
Min ROB occupancy Load Stall End: 1
Max ROB occupancy Load Stall End: 352
Average ROB occupancy Critical Load Stall Begin: -nan
Average ROB occupancy Critical Load Stall End: -nan
Min ROB occupancy Critical Load Stall Begin: 400
Max ROB occupancy Critical Load Stall Begin: 0
Min ROB occupancy Critical Load Stall End: 400
Max ROB occupancy Critical Load Stall End: 0
 ROB Load Stall Begin Bucket Count 0: 3995717
 ROB Load Stall End Bucket Count 0: 3613852
 ROB Critical Load Stall Begin Bucket Count 0: 0
 ROB Critical Load Stall End Bucket Count 0: 0
 ROB Load Stall Begin Bucket Count 1: 315405
 ROB Load Stall End Bucket Count 1: 636544
 ROB Critical Load Stall Begin Bucket Count 1: 0
 ROB Critical Load Stall End Bucket Count 1: 0
 ROB Load Stall Begin Bucket Count 2: 114757
 ROB Load Stall End Bucket Count 2: 122909
 ROB Critical Load Stall Begin Bucket Count 2: 0
 ROB Critical Load Stall End Bucket Count 2: 0
 ROB Load Stall Begin Bucket Count 3: 80940
 ROB Load Stall End Bucket Count 3: 88253
 ROB Critical Load Stall Begin Bucket Count 3: 0
 ROB Critical Load Stall End Bucket Count 3: 0
 ROB Load Stall Begin Bucket Count 4: 64643
 ROB Load Stall End Bucket Count 4: 72986
 ROB Critical Load Stall Begin Bucket Count 4: 0
 ROB Critical Load Stall End Bucket Count 4: 0
 ROB Load Stall Begin Bucket Count 5: 96106
 ROB Load Stall End Bucket Count 5: 78560
 ROB Critical Load Stall Begin Bucket Count 5: 0
 ROB Critical Load Stall End Bucket Count 5: 0
 ROB Load Stall Begin Bucket Count 6: 424791
 ROB Load Stall End Bucket Count 6: 479255
 ROB Critical Load Stall Begin Bucket Count 6: 0
 ROB Critical Load Stall End Bucket Count 6: 0
PIST Tag Read Accesses: 93398
PIST Read Accesses: 46699
PIST Tag Write Accesses: 93398
PIST Write Accesses: 46699
Criticality detector called times: 641191
Max global_stall_cycles_count: 816550
Threshold Modified: 0 times, factor: 0
Sturdy critical IP cache stats: 
 Unused entries: 0
CIC Tag Read Accesses: 0
CIC Read Accesses: 0
CIC Tag Write Accesses: 0
CIC Write Accesses: 0
Wobbly critical IP cache stats: 
 Unused entries: 12
CIC Tag Read Accesses: 323168651
CIC Read Accesses: 0
CIC Tag Write Accesses: 2511466
CIC Write Accesses: 0
ITLB TOTAL     ACCESS:   14528711  HIT:   14528706  MISS:          5  HIT %:        100  MISS %: 3.44146e-05   MPKI: 5e-05
ITLB LOAD TRANSLATION ACCESS:   14528711  HIT:   14528706  MISS:          5  HIT %:        100  MISS %: 3.44146e-05   MPKI: 5e-05
ITLB PREFETCH  REQUESTED:          0  ISSUED:          0  USEFUL:          0  USELESS:          0
ITLB USEFUL LOAD PREFETCHES:          0 PREFETCH ISSUED TO LOWER LEVEL:          0  ACCURACY: -nan
ITLB TIMELY PREFETCHES:          0 LATE PREFETCHES: 0 DROPPED PREFETCHES: 0
ITLB PREFETCHES SAME FILL-ORIGIN LEVEL: 0 DIFFERENT FILL-ORIGIN LEVEL: 0
ITLB AVERAGE MISS LATENCY: 362.2 cycles
ITLB RQ	ACCESS:   17917513	FORWARD:          0	MERGED:    3388802	TO_CACHE:   14528711

DTLB TOTAL     ACCESS:   21216889  HIT:   21169963  MISS:      46926  HIT %:    99.7788  MISS %:   0.221173   MPKI: 0.46926
DTLB LOAD TRANSLATION ACCESS:   21216889  HIT:   21169963  MISS:      46926  HIT %:    99.7788  MISS %:   0.221173   MPKI: 0.46926
DTLB PREFETCH  REQUESTED:          0  ISSUED:          0  USEFUL:          0  USELESS:          0
DTLB USEFUL LOAD PREFETCHES:          0 PREFETCH ISSUED TO LOWER LEVEL:          0  ACCURACY: -nan
DTLB TIMELY PREFETCHES:          0 LATE PREFETCHES: 0 DROPPED PREFETCHES: 0
DTLB PREFETCHES SAME FILL-ORIGIN LEVEL: 0 DIFFERENT FILL-ORIGIN LEVEL: 0
DTLB AVERAGE MISS LATENCY: 117.08 cycles
DTLB RQ	ACCESS:   22554354	FORWARD:          0	MERGED:    1304506	TO_CACHE:   21249848

STLB TOTAL     ACCESS:      46931  HIT:       1834  MISS:      45097  HIT %:    3.90786  MISS %:    96.0921   MPKI: 0.45097
STLB LOAD TRANSLATION ACCESS:      46931  HIT:       1834  MISS:      45097  HIT %:    3.90786  MISS %:    96.0921   MPKI: 0.45097
STLB PREFETCH  REQUESTED:          0  ISSUED:          0  USEFUL:          0  USELESS:          0
STLB USEFUL LOAD PREFETCHES:          0 PREFETCH ISSUED TO LOWER LEVEL:          0  ACCURACY: -nan
STLB TIMELY PREFETCHES:          0 LATE PREFETCHES: 0 DROPPED PREFETCHES: 0
STLB PREFETCHES SAME FILL-ORIGIN LEVEL: 0 DIFFERENT FILL-ORIGIN LEVEL: 0
STLB AVERAGE MISS LATENCY: 112.322 cycles
STLB RQ	ACCESS:      46931	FORWARD:          0	MERGED:          0	TO_CACHE:      46931

STLB Hit, L1D data hit: 0
STLB Hit, L2C data hit: 0
STLB Hit, LLC data hit: 0
STLB Hit, LLC data miss: 0
STLB STLB hints to L2: 0
L1D TOTAL     ACCESS:   19601970  HIT:   17053306  MISS:    2548664  HIT %:    86.9979  MISS %:    13.0021   MPKI: 25.4866
L1D LOAD      ACCESS:   18167193  HIT:   16214476  MISS:    1952717  HIT %:    89.2514  MISS %:    10.7486   MPKI: 19.5272
L1D RFO       ACCESS:    1434777  HIT:     838830  MISS:     595947  HIT %:    58.4641  MISS %:    41.5359   MPKI: 5.95947
L1D PREFETCH  REQUESTED:          0  ISSUED:          0  USEFUL:          0  USELESS:          0
L1D USEFUL LOAD PREFETCHES:          0 PREFETCH ISSUED TO LOWER LEVEL:          0  ACCURACY: -nan
L1D TIMELY PREFETCHES:          0 LATE PREFETCHES: 0 DROPPED PREFETCHES: 0
L1D PREFETCHES SAME FILL-ORIGIN LEVEL: 0 DIFFERENT FILL-ORIGIN LEVEL: 0
L1D AVERAGE MISS LATENCY: 91.9354 cycles
L1D RQ	ACCESS:   29526084	FORWARD:          0	MERGED:   11068793	TO_CACHE:   18456190
L1D WQ	ACCESS:    4098164	FORWARD:       1101	MERGED:          0	TO_CACHE:    4098164

L1D UNIQUE REGIONS ACCESSED: 0
L1D REGIONS CONFLICTS: 0
L1D Cross Page Prefetch Requests: 0
L1D Same Page Prefetch Requests: 0
L1D ROI Sum of L1D PQ occupancy: 0
L1D PREFETCHES PUSHED FROM L2C: 0
L1I TOTAL     ACCESS:   17917336  HIT:   17917004  MISS:        332  HIT %:    99.9981  MISS %: 0.00185295   MPKI: 0.00332
L1I LOAD      ACCESS:   17917336  HIT:   17917004  MISS:        332  HIT %:    99.9981  MISS %: 0.00185295   MPKI: 0.00332
L1I PREFETCH  REQUESTED:          0  ISSUED:          0  USEFUL:          0  USELESS:          0
L1I USEFUL LOAD PREFETCHES:          0 PREFETCH ISSUED TO LOWER LEVEL:          0  ACCURACY: -nan
L1I TIMELY PREFETCHES:          0 LATE PREFETCHES: 0 DROPPED PREFETCHES: 0
L1I PREFETCHES SAME FILL-ORIGIN LEVEL: 0 DIFFERENT FILL-ORIGIN LEVEL: 0
L1I AVERAGE MISS LATENCY: 251.852 cycles
L1I RQ	ACCESS:   25627231	FORWARD:          0	MERGED:    7709718	TO_CACHE:   17917513

BTB TOTAL     ACCESS:    3186002  HIT:    3185933  MISS:         69  HIT %:    99.9978  MISS %: 0.00216572   MPKI: 0.00069
BTB BRANCH_DIRECT_JUMP	ACCESS:        512  HIT:        511  MISS:          1
BTB BRANCH_INDIRECT	ACCESS:          0  HIT:          0  MISS:          0
BTB BRANCH_CONDITIONAL	ACCESS:    3185484  HIT:    3185422  MISS:         62
BTB BRANCH_DIRECT_CALL	ACCESS:          3  HIT:          0  MISS:          3
BTB BRANCH_INDIRECT_CALL	ACCESS:          0  HIT:          0  MISS:          0
BTB BRANCH_RETURN	ACCESS:          3  HIT:          0  MISS:          3
BTB BRANCH_OTHER ACCESS:          0  HIT:          0  MISS:          0

L2C TOTAL     ACCESS:    5323518  HIT:    2925595  MISS:    2397923  HIT %:     54.956  MISS %:     45.044   MPKI: 23.9792
L2C LOAD      ACCESS:    1953047  HIT:    1821284  MISS:     131763  HIT %:    93.2535  MISS %:    6.74654   MPKI: 1.31763
L2C DATA LOAD MPKI: 1.31431
L2C INSTRUCTION LOAD MPKI: 0.00332
L2C RFO       ACCESS:     595947  HIT:          3  MISS:     595944  HIT %:  0.0005034  MISS %:    99.9995   MPKI: 5.95944
L2C PREFETCH  ACCESS:    1998530  HIT:     361460  MISS:    1637070  HIT %:    18.0863  MISS %:    81.9137   MPKI: 16.3707
L2C DATA PREFETCH MPKI: 16.3707
L2C INSTRUCTION PREFETCH MPKI: 0
L2C WRITEBACK ACCESS:     730816  HIT:     706349  MISS:      24467  HIT %:    96.6521  MISS %:     3.3479   MPKI: 0.24467
L2C LOAD TRANSLATION ACCESS:      45178  HIT:      36499  MISS:       8679  HIT %:    80.7893  MISS %:    19.2107   MPKI: 0.08679
L2C PREFETCH  REQUESTED:    2122131  ISSUED:    2122130  USEFUL:    1563716  USELESS:      73009
L2C USEFUL LOAD PREFETCHES:    1563716 PREFETCH ISSUED TO LOWER LEVEL:    1693526  ACCURACY: 92.3349
L2C TIMELY PREFETCHES:    1563716 LATE PREFETCHES: 56406 DROPPED PREFETCHES: 0
L2C PREFETCHES SAME FILL-ORIGIN LEVEL: 1693482 DIFFERENT FILL-ORIGIN LEVEL: 44
L2C AVERAGE MISS LATENCY: 277.245 cycles
L2C RQ	ACCESS:    2594176	FORWARD:          0	MERGED:          0	TO_CACHE:    2594174
L2C WQ	ACCESS:     730816	FORWARD:          2	MERGED:          0	TO_CACHE:     730816
L2C PQ	ACCESS:    2122130	FORWARD:          0	MERGED:      10306	TO_CACHE:    2111824

L2C Instructions Evicting Data 331
L2C Translations Evicting Data 8655
L2C Data Evicting Data 2355542
L2C Instructions Evicting Instructions 0
L2C Translations Evicting Instructions 2
L2C Data Evicting Instructions 329
L2C Instructions Evicting Translations 1
L2C Translations Evicting Translations 22
L2C Data Evicting Translations 8574
L2C Dense regions hint from L2: 0
PSCL5 TOTAL     ACCESS:      45097  HIT:      45097  MISS:          0  HIT %:        100  MISS %:          0   MPKI: 0
PSCL5 LOAD TRANSLATION ACCESS:      45097  HIT:      45097  MISS:          0  HIT %:        100  MISS %:          0   MPKI: 0
PSCL5 PREFETCH  REQUESTED:          0  ISSUED:          0  USEFUL:          0  USELESS:          0
PSCL5 USEFUL LOAD PREFETCHES:          0 PREFETCH ISSUED TO LOWER LEVEL:          0  ACCURACY: -nan
PSCL5 TIMELY PREFETCHES:          0 LATE PREFETCHES: 0 DROPPED PREFETCHES: 0
PSCL5 PREFETCHES SAME FILL-ORIGIN LEVEL: 0 DIFFERENT FILL-ORIGIN LEVEL: 0

PSCL4 TOTAL     ACCESS:      45097  HIT:      45097  MISS:          0  HIT %:        100  MISS %:          0   MPKI: 0
PSCL4 LOAD TRANSLATION ACCESS:      45097  HIT:      45097  MISS:          0  HIT %:        100  MISS %:          0   MPKI: 0
PSCL4 PREFETCH  REQUESTED:          0  ISSUED:          0  USEFUL:          0  USELESS:          0
PSCL4 USEFUL LOAD PREFETCHES:          0 PREFETCH ISSUED TO LOWER LEVEL:          0  ACCURACY: -nan
PSCL4 TIMELY PREFETCHES:          0 LATE PREFETCHES: 0 DROPPED PREFETCHES: 0
PSCL4 PREFETCHES SAME FILL-ORIGIN LEVEL: 0 DIFFERENT FILL-ORIGIN LEVEL: 0

PSCL3 TOTAL     ACCESS:      44836  HIT:      44834  MISS:          2  HIT %:    99.9955  MISS %:  0.0044607   MPKI: 2e-05
PSCL3 LOAD TRANSLATION ACCESS:      44836  HIT:      44834  MISS:          2  HIT %:    99.9955  MISS %:  0.0044607   MPKI: 2e-05
PSCL3 PREFETCH  REQUESTED:          0  ISSUED:          0  USEFUL:          0  USELESS:          0
PSCL3 USEFUL LOAD PREFETCHES:          0 PREFETCH ISSUED TO LOWER LEVEL:          0  ACCURACY: -nan
PSCL3 TIMELY PREFETCHES:          0 LATE PREFETCHES: 0 DROPPED PREFETCHES: 0
PSCL3 PREFETCHES SAME FILL-ORIGIN LEVEL: 0 DIFFERENT FILL-ORIGIN LEVEL: 0

PSCL2 TOTAL     ACCESS:      45097  HIT:      44993  MISS:        104  HIT %:    99.7694  MISS %:   0.230614   MPKI: 0.00104
PSCL2 LOAD TRANSLATION ACCESS:      45097  HIT:      44993  MISS:        104  HIT %:    99.7694  MISS %:   0.230614   MPKI: 0.00104
PSCL2 PREFETCH  REQUESTED:          0  ISSUED:          0  USEFUL:          0  USELESS:          0
PSCL2 USEFUL LOAD PREFETCHES:          0 PREFETCH ISSUED TO LOWER LEVEL:          0  ACCURACY: -nan
PSCL2 TIMELY PREFETCHES:          0 LATE PREFETCHES: 0 DROPPED PREFETCHES: 0
PSCL2 PREFETCHES SAME FILL-ORIGIN LEVEL: 0 DIFFERENT FILL-ORIGIN LEVEL: 0

LLC TOTAL     ACCESS:    3106852  HIT:     343990  MISS:    2762862  HIT %:     11.072  MISS %:     88.928   MPKI: 27.6286
LLC LOAD      ACCESS:      75357  HIT:       1793  MISS:      73564  HIT %:    2.37934  MISS %:    97.6207   MPKI: 0.73564
LLC RFO       ACCESS:     595944  HIT:       5763  MISS:     590181  HIT %:   0.967037  MISS %:     99.033   MPKI: 5.90181
LLC PREFETCH  ACCESS:    1693510  HIT:      12747  MISS:    1680763  HIT %:   0.752697  MISS %:    99.2473   MPKI: 16.8076
LLC WRITEBACK ACCESS:     733362  HIT:     323535  MISS:     409827  HIT %:    44.1167  MISS %:    55.8833   MPKI: 4.09827
LLC LOAD TRANSLATION ACCESS:       8679  HIT:        152  MISS:       8527  HIT %:    1.75135  MISS %:    98.2486   MPKI: 0.08527
LLC PREFETCH  REQUESTED:          0  ISSUED:          0  USEFUL:        619  USELESS:    1676239
LLC USEFUL LOAD PREFETCHES:        619 PREFETCH ISSUED TO LOWER LEVEL:    1680768  ACCURACY: 0.0368284
LLC TIMELY PREFETCHES:        619 LATE PREFETCHES: 0 DROPPED PREFETCHES: 0
LLC PREFETCHES SAME FILL-ORIGIN LEVEL: 44 DIFFERENT FILL-ORIGIN LEVEL: 0
LLC AVERAGE MISS LATENCY: 220.996 cycles
LLC RQ	ACCESS:     679981	FORWARD:          0	MERGED:          0	TO_CACHE:     679981
LLC WQ	ACCESS:     733362	FORWARD:          0	MERGED:          0	TO_CACHE:     733362
LLC PQ	ACCESS:    1693526	FORWARD:          0	MERGED:          0	TO_CACHE:    1693526

LLC Dense regions hint to LLC: 0

RAW hits: 8877
Loads Generated: 29534974
Loads sent to L1D: 29526084
Stores Generated: 4098296
Stores sent to L1D: 4098297
Major fault: 0 Minor fault: 39258
Allocated PAGES: 39258
------------------
Depth Distribution
------------------
depth 0: 1618
depth 1: 54
depth 2: 1126
depth 3: 8614
depth 4: 6956
depth 5: 41059
depth 6: 51315
depth 7: 259313
depth 8: 385150
depth 9: 503345
depth 10: 68059
depth 11: 196738
depth 12: 84392
depth 13: 15521
depth 14: 77323
depth 15: 7798
depth 16: 4459
depth 17: 1772
depth 18: 792
depth 19: 64
depth 20: 3
depth 21: 6
depth 22: 1
depth 23: 0
depth 24: 0
depth 25: 0
depth 26: 0
depth 27: 0
depth 28: 0
depth 29: 0
Total: 1715478
------------------
ST read accesses: 1678360
ST write accesses: 37118
PT read accesses: 85485825
PT write accesses: 2504587
FILTER read accesses: 18171052
FILTER write accesses: 8516642
GHR read accesses: 7152631
GHR write accesses: 1308925
PERC read accesses: 617905224
PERC write accesses: 18057988
GHR counter read accesses: 3430956
GHR counter write accesses: 5576392
GHR ip read accesses: 11513049
GHR ip write accesses: 6861912
ST tag read accesses: 43227012
ST tag write accesses: 7205968

DRAM Statistics
 CHANNEL 0
 RQ ROW_BUFFER_HIT:     347296  ROW_BUFFER_MISS:    2005658
 DBUS_CONGESTED:        461
 WQ ROW_BUFFER_HIT:     138922  ROW_BUFFER_MISS:     574108  FULL:        340

 AVG_CONGESTED_CYCLE: 4
 All warmup complete: 2
Channel 0 Bank busy for read cycles: 0
Channel 0 Bank busy for write cycles: 0
Channel 0
Rank 0
0banks busy for read cycles: 8074599
0banks busy for write cycles: 11343
1banks busy for read cycles: 17029681
1banks busy for write cycles: 1619257
2banks busy for read cycles: 21517406
2banks busy for write cycles: 506023
3banks busy for read cycles: 16534357
3banks busy for write cycles: 283749
4banks busy for read cycles: 11847792
4banks busy for write cycles: 266955
5banks busy for read cycles: 8322424
5banks busy for write cycles: 280475
6banks busy for read cycles: 6113303
6banks busy for write cycles: 341184
7banks busy for read cycles: 4671418
7banks busy for write cycles: 1374627
8banks busy for read cycles: 7517478
8banks busy for write cycles: 17352964

CPU 0 Branch Prediction Accuracy: 99.74% MPKI: 0.08327 Average ROB Occupancy at Mispredict: 93.9942
Branch types
NOT_BRANCH: 96797544 96.7975%
BRANCH_DIRECT_JUMP: 512 0.000512%
BRANCH_INDIRECT: 0 0%
BRANCH_CONDITIONAL: 3202245 3.20224%
BRANCH_DIRECT_CALL: 3 3e-06%
BRANCH_INDIRECT_CALL: 0 0%
BRANCH_RETURN: 3 3e-06%
BRANCH_OTHER: 0 0%

DRAM PAGES: 1048576
Allocated PAGES: 39258
