
*** ChampSim Multicore Out-of-Order Simulator ***

Warmup Instructions: 50000000
Simulation Instructions: 100000000
Number of CPUs: 1
LLC sets: 2048
LLC ways: 16
Off-chip DRAM Size: 4096 MB Channels: 1 Width: 64-bit Data Rate: 6400 MT/s
CPU 0 runs ../SPEC2017//654.roms_s-1390B.champsimtrace.xz
.xz
NUM_OF_IPS_IN_CRITICAL_IP_TRAINING: 64
NUM_OF_CRITICAL_IP_TRAINING_TABLE_WAYS: 2
NUM_OF_CRITICAL_IP_TRAINING_TABLE_SETS: 32
WOBBLY_CRITICAL_IP_CACHE_SETS: 32
WOBBLY_CRITICAL_IP_CACHE_WAYS: 4
BTB has LRU replacement policy
ITLB has LRU replacement policy
DTLB has LRU replacement policy
STLB has LRU replacement policy
L1I has LRU replacement policy
L1D has LRU replacement policy
Bingo PHT WAYS: 16 and PHT_SIZE: 16384
Initialize SRRIP state for L2C
Initialize DRRIP state for LLC
Heartbeat CPU 0 instructions: 10000001 cycles: 3756764 heartbeat IPC: 2.66187 cumulative IPC: 2.66187 (Simulation time: 0 hr 5 min 49 sec) 
Heartbeat CPU 0 instructions: 20000000 cycles: 7250617 heartbeat IPC: 2.86217 cumulative IPC: 2.75839 (Simulation time: 0 hr 9 min 44 sec) 
Heartbeat CPU 0 instructions: 30000003 cycles: 10667341 heartbeat IPC: 2.92678 cumulative IPC: 2.81232 (Simulation time: 0 hr 12 min 34 sec) 
Heartbeat CPU 0 instructions: 40000002 cycles: 14439439 heartbeat IPC: 2.65104 cumulative IPC: 2.77019 (Simulation time: 0 hr 16 min 55 sec) 
Heartbeat CPU 0 instructions: 50000000 cycles: 18778556 heartbeat IPC: 2.30462 cumulative IPC: 2.66261 (Simulation time: 0 hr 21 min 5 sec) 

Warmup complete CPU 0 instructions: 50000002 cycles: 18778557 (Simulation time: 0 hr 21 min 5 sec) 

% increase in all ip prefetch 268.059
% increase in all ip prefetch -2.13567
Heartbeat CPU 0 instructions: 60000001 cycles: 31090602 heartbeat IPC: 0.812213 cumulative IPC: 0.812213 (Simulation time: 0 hr 24 min 39 sec) 
Heartbeat CPU 0 instructions: 70000003 cycles: 42497623 heartbeat IPC: 0.876653 cumulative IPC: 0.843204 (Simulation time: 0 hr 27 min 56 sec) 
Heartbeat CPU 0 instructions: 80000002 cycles: 53897793 heartbeat IPC: 0.87718 cumulative IPC: 0.854233 (Simulation time: 0 hr 31 min 7 sec) 
Heartbeat CPU 0 instructions: 90000003 cycles: 66340383 heartbeat IPC: 0.803691 cumulative IPC: 0.841011 (Simulation time: 0 hr 35 min 3 sec) 
Heartbeat CPU 0 instructions: 100000000 cycles: 80230789 heartbeat IPC: 0.719921 cumulative IPC: 0.81364 (Simulation time: 0 hr 38 min 39 sec) 
Heartbeat CPU 0 instructions: 110000000 cycles: 93182812 heartbeat IPC: 0.77208 cumulative IPC: 0.806405 (Simulation time: 0 hr 41 min 48 sec) 
Heartbeat CPU 0 instructions: 120000001 cycles: 105430955 heartbeat IPC: 0.81645 cumulative IPC: 0.807825 (Simulation time: 0 hr 44 min 23 sec) 
Heartbeat CPU 0 instructions: 130000000 cycles: 117469793 heartbeat IPC: 0.830645 cumulative IPC: 0.810609 (Simulation time: 0 hr 46 min 54 sec) 
Heartbeat CPU 0 instructions: 140000001 cycles: 131546966 heartbeat IPC: 0.71037 cumulative IPC: 0.798096 (Simulation time: 0 hr 51 min 18 sec) 
Heartbeat CPU 0 instructions: 150000001 cycles: 144080798 heartbeat IPC: 0.797841 cumulative IPC: 0.79807 (Simulation time: 0 hr 58 min 6 sec) 
Finished CPU 0 instructions: 100000003 cycles: 125302242 cumulative IPC: 0.79807 (Simulation time: 0 hr 58 min 6 sec) 

ChampSim completed all CPUs

Region of Interest Statistics

CPU 0 cumulative IPC: 0.79807 instructions: 100000003 cycles: 125302242

CPU 0 Average Load ROB stall cycles: 2.62911e+07
CPU 0 Fraction of times ROB stalled by Loads: 34.4527
CPU 0 Percentage of Load stall cycles in Total stall cycles: 3.69268e+08
Issued all: 71214198
Issued LT all: 57354622
rob_not_full_when_issued_lt_all: 40789878
Issued LT one: 50028009
rob_not_full_when_issued_lt_one: 35505266
 Total stall cycles: 102686520
 Total load stall cycles: 379188563226795
CPU 0 NUM of IPS identified critical: 0
CPU 0 Num of Load IPs stalling ROB: 749
Threshold modification factor: -1
Max PIST entries: 56
Min PIST entries: 0
Avg PIST entries: 14.88
Trouble in retire width: 0.866509
MaC = Marked as critical.
lt_50_percent_before_Mac: 0
gt_90_percent_before_Mac: 0
gt_75_percent_before_Mac: 0
gt_50_percent_before_Mac: 0
stall_proportion_bin_same_before_after: 0
stall_proportion_bin_lower_before_after: 0
stall_proportion_bin_upper_before_after: 0
average_stall_proportion_before: -nan
average_stall_proportion_after: -nan
Critical IP stalls, total frequency: 0
Non-critical IP stalls, total frequency: 4969012
Total Freq all stalling IPs: 4969012
stat_90_percent_critical_ip_stalls_freq: 4488468
stat_90_percent_non_critical_ip_stalls_freq: 480544
Critical_IP_ROB_Stalls_Bucket_0: 0
Non-critical_IP_ROB_Stalls_Bucket_0: 3415001
Critical_IP_ROB_Stalls_Bucket_1: 0
Non-critical_IP_ROB_Stalls_Bucket_1: 626590
Critical_IP_ROB_Stalls_Bucket_2: 0
Non-critical_IP_ROB_Stalls_Bucket_2: 132319
Critical_IP_ROB_Stalls_Bucket_3: 0
Non-critical_IP_ROB_Stalls_Bucket_3: 112904
Critical_IP_ROB_Stalls_Bucket_4: 0
Non-critical_IP_ROB_Stalls_Bucket_4: 92739
Critical_IP_ROB_Stalls_Bucket_5: 0
Non-critical_IP_ROB_Stalls_Bucket_5: 80162
Critical_IP_ROB_Stalls_Bucket_6: 0
Non-critical_IP_ROB_Stalls_Bucket_6: 509297
0 => IPs accounting for >50 percent of stalls, 1 => 55, 2 => 60, 3 => 65 and so on till 90.
percent50: 50.4747 num IPs:  21
percent55: 55.5502 num IPs: 24
percent60: 60.5107 num IPs: 27
percent65: 66.2076 num IPs: 31
percent70: 70.5104 num IPs: 35
percent75: 75.5389 num IPs: 41
percent80: 80.146 num IPs: 48
percent85: 85.3014 num IPs: 57
percent90: 90.3292 num IPs: 67
Critical_ROB_Stalls_Percent_0_Bucket_0: 1765399
Non-critical_ROB_Stalls_Percent_0_Bucket_0: 1649602
Critical_ROB_Stalls_Percent_0_Bucket_1: 353790
Non-critical_ROB_Stalls_Percent_0_Bucket_1: 272800
Critical_ROB_Stalls_Percent_0_Bucket_2: 51788
Non-critical_ROB_Stalls_Percent_0_Bucket_2: 80531
Critical_ROB_Stalls_Percent_0_Bucket_3: 52817
Non-critical_ROB_Stalls_Percent_0_Bucket_3: 60087
Critical_ROB_Stalls_Percent_0_Bucket_4: 39861
Non-critical_ROB_Stalls_Percent_0_Bucket_4: 52878
Critical_ROB_Stalls_Percent_0_Bucket_5: 30354
Non-critical_ROB_Stalls_Percent_0_Bucket_5: 49808
Critical_ROB_Stalls_Percent_0_Bucket_6: 214085
Non-critical_ROB_Stalls_Percent_0_Bucket_6: 295212
Critical_ROB_Stalls_Percent_1_Bucket_0: 1898968
Non-critical_ROB_Stalls_Percent_1_Bucket_0: 1516033
Critical_ROB_Stalls_Percent_1_Bucket_1: 421402
Non-critical_ROB_Stalls_Percent_1_Bucket_1: 205188
Critical_ROB_Stalls_Percent_1_Bucket_2: 80891
Non-critical_ROB_Stalls_Percent_1_Bucket_2: 51428
Critical_ROB_Stalls_Percent_1_Bucket_3: 60682
Non-critical_ROB_Stalls_Percent_1_Bucket_3: 52222
Critical_ROB_Stalls_Percent_1_Bucket_4: 44021
Non-critical_ROB_Stalls_Percent_1_Bucket_4: 48718
Critical_ROB_Stalls_Percent_1_Bucket_5: 35338
Non-critical_ROB_Stalls_Percent_1_Bucket_5: 44824
Critical_ROB_Stalls_Percent_1_Bucket_6: 218996
Non-critical_ROB_Stalls_Percent_1_Bucket_6: 290301
Critical_ROB_Stalls_Percent_2_Bucket_0: 2136007
Non-critical_ROB_Stalls_Percent_2_Bucket_0: 1278994
Critical_ROB_Stalls_Percent_2_Bucket_1: 426523
Non-critical_ROB_Stalls_Percent_2_Bucket_1: 200067
Critical_ROB_Stalls_Percent_2_Bucket_2: 81747
Non-critical_ROB_Stalls_Percent_2_Bucket_2: 50572
Critical_ROB_Stalls_Percent_2_Bucket_3: 62331
Non-critical_ROB_Stalls_Percent_2_Bucket_3: 50573
Critical_ROB_Stalls_Percent_2_Bucket_4: 45140
Non-critical_ROB_Stalls_Percent_2_Bucket_4: 47599
Critical_ROB_Stalls_Percent_2_Bucket_5: 35641
Non-critical_ROB_Stalls_Percent_2_Bucket_5: 44521
Critical_ROB_Stalls_Percent_2_Bucket_6: 219395
Non-critical_ROB_Stalls_Percent_2_Bucket_6: 289902
Critical_ROB_Stalls_Percent_3_Bucket_0: 2398778
Non-critical_ROB_Stalls_Percent_3_Bucket_0: 1016223
Critical_ROB_Stalls_Percent_3_Bucket_1: 436841
Non-critical_ROB_Stalls_Percent_3_Bucket_1: 189749
Critical_ROB_Stalls_Percent_3_Bucket_2: 83330
Non-critical_ROB_Stalls_Percent_3_Bucket_2: 48989
Critical_ROB_Stalls_Percent_3_Bucket_3: 64115
Non-critical_ROB_Stalls_Percent_3_Bucket_3: 48789
Critical_ROB_Stalls_Percent_3_Bucket_4: 48298
Non-critical_ROB_Stalls_Percent_3_Bucket_4: 44441
Critical_ROB_Stalls_Percent_3_Bucket_5: 37534
Non-critical_ROB_Stalls_Percent_3_Bucket_5: 42628
Critical_ROB_Stalls_Percent_3_Bucket_6: 220966
Non-critical_ROB_Stalls_Percent_3_Bucket_6: 288331
Critical_ROB_Stalls_Percent_4_Bucket_0: 2559683
Non-critical_ROB_Stalls_Percent_4_Bucket_0: 855318
Critical_ROB_Stalls_Percent_4_Bucket_1: 462838
Non-critical_ROB_Stalls_Percent_4_Bucket_1: 163752
Critical_ROB_Stalls_Percent_4_Bucket_2: 97655
Non-critical_ROB_Stalls_Percent_4_Bucket_2: 34664
Critical_ROB_Stalls_Percent_4_Bucket_3: 69167
Non-critical_ROB_Stalls_Percent_4_Bucket_3: 43737
Critical_ROB_Stalls_Percent_4_Bucket_4: 50501
Non-critical_ROB_Stalls_Percent_4_Bucket_4: 42238
Critical_ROB_Stalls_Percent_4_Bucket_5: 39851
Non-critical_ROB_Stalls_Percent_4_Bucket_5: 40311
Critical_ROB_Stalls_Percent_4_Bucket_6: 223974
Non-critical_ROB_Stalls_Percent_4_Bucket_6: 285323
Critical_ROB_Stalls_Percent_5_Bucket_0: 2688736
Non-critical_ROB_Stalls_Percent_5_Bucket_0: 726265
Critical_ROB_Stalls_Percent_5_Bucket_1: 492901
Non-critical_ROB_Stalls_Percent_5_Bucket_1: 133689
Critical_ROB_Stalls_Percent_5_Bucket_2: 105272
Non-critical_ROB_Stalls_Percent_5_Bucket_2: 27047
Critical_ROB_Stalls_Percent_5_Bucket_3: 76168
Non-critical_ROB_Stalls_Percent_5_Bucket_3: 36736
Critical_ROB_Stalls_Percent_5_Bucket_4: 55105
Non-critical_ROB_Stalls_Percent_5_Bucket_4: 37634
Critical_ROB_Stalls_Percent_5_Bucket_5: 45138
Non-critical_ROB_Stalls_Percent_5_Bucket_5: 35024
Critical_ROB_Stalls_Percent_5_Bucket_6: 290215
Non-critical_ROB_Stalls_Percent_5_Bucket_6: 219082
Critical_ROB_Stalls_Percent_6_Bucket_0: 2861878
Non-critical_ROB_Stalls_Percent_6_Bucket_0: 553123
Critical_ROB_Stalls_Percent_6_Bucket_1: 531970
Non-critical_ROB_Stalls_Percent_6_Bucket_1: 94620
Critical_ROB_Stalls_Percent_6_Bucket_2: 108003
Non-critical_ROB_Stalls_Percent_6_Bucket_2: 24316
Critical_ROB_Stalls_Percent_6_Bucket_3: 80131
Non-critical_ROB_Stalls_Percent_6_Bucket_3: 32773
Critical_ROB_Stalls_Percent_6_Bucket_4: 59549
Non-critical_ROB_Stalls_Percent_6_Bucket_4: 33190
Critical_ROB_Stalls_Percent_6_Bucket_5: 46826
Non-critical_ROB_Stalls_Percent_6_Bucket_5: 33336
Critical_ROB_Stalls_Percent_6_Bucket_6: 294110
Non-critical_ROB_Stalls_Percent_6_Bucket_6: 215187
Critical_ROB_Stalls_Percent_7_Bucket_0: 3054116
Non-critical_ROB_Stalls_Percent_7_Bucket_0: 360885
Critical_ROB_Stalls_Percent_7_Bucket_1: 541051
Non-critical_ROB_Stalls_Percent_7_Bucket_1: 85539
Critical_ROB_Stalls_Percent_7_Bucket_2: 111180
Non-critical_ROB_Stalls_Percent_7_Bucket_2: 21139
Critical_ROB_Stalls_Percent_7_Bucket_3: 85772
Non-critical_ROB_Stalls_Percent_7_Bucket_3: 27132
Critical_ROB_Stalls_Percent_7_Bucket_4: 65189
Non-critical_ROB_Stalls_Percent_7_Bucket_4: 27550
Critical_ROB_Stalls_Percent_7_Bucket_5: 48240
Non-critical_ROB_Stalls_Percent_7_Bucket_5: 31922
Critical_ROB_Stalls_Percent_7_Bucket_6: 333091
Non-critical_ROB_Stalls_Percent_7_Bucket_6: 176206
Critical_ROB_Stalls_Percent_8_Bucket_0: 3278005
Non-critical_ROB_Stalls_Percent_8_Bucket_0: 136996
Critical_ROB_Stalls_Percent_8_Bucket_1: 548649
Non-critical_ROB_Stalls_Percent_8_Bucket_1: 77941
Critical_ROB_Stalls_Percent_8_Bucket_2: 113450
Non-critical_ROB_Stalls_Percent_8_Bucket_2: 18869
Critical_ROB_Stalls_Percent_8_Bucket_3: 89920
Non-critical_ROB_Stalls_Percent_8_Bucket_3: 22984
Critical_ROB_Stalls_Percent_8_Bucket_4: 71175
Non-critical_ROB_Stalls_Percent_8_Bucket_4: 21564
Critical_ROB_Stalls_Percent_8_Bucket_5: 49993
Non-critical_ROB_Stalls_Percent_8_Bucket_5: 30169
Critical_ROB_Stalls_Percent_8_Bucket_6: 337276
Non-critical_ROB_Stalls_Percent_8_Bucket_6: 172021
Average ROB occupancy Load Stall Begin: 69.3427
Average ROB occupancy Load Stall End: 79.6977
Min ROB occupancy Load Stall Begin: 1
Max ROB occupancy Load Stall Begin: 352
Min ROB occupancy Load Stall End: 1
Max ROB occupancy Load Stall End: 352
Average ROB occupancy Critical Load Stall Begin: -nan
Average ROB occupancy Critical Load Stall End: -nan
Min ROB occupancy Critical Load Stall Begin: 400
Max ROB occupancy Critical Load Stall Begin: 0
Min ROB occupancy Critical Load Stall End: 400
Max ROB occupancy Critical Load Stall End: 0
 ROB Load Stall Begin Bucket Count 0: 3786624
 ROB Load Stall End Bucket Count 0: 3415001
 ROB Critical Load Stall Begin Bucket Count 0: 0
 ROB Critical Load Stall End Bucket Count 0: 0
 ROB Load Stall Begin Bucket Count 1: 327742
 ROB Load Stall End Bucket Count 1: 626590
 ROB Critical Load Stall Begin Bucket Count 1: 0
 ROB Critical Load Stall End Bucket Count 1: 0
 ROB Load Stall Begin Bucket Count 2: 126578
 ROB Load Stall End Bucket Count 2: 132319
 ROB Critical Load Stall Begin Bucket Count 2: 0
 ROB Critical Load Stall End Bucket Count 2: 0
 ROB Load Stall Begin Bucket Count 3: 99226
 ROB Load Stall End Bucket Count 3: 112904
 ROB Critical Load Stall Begin Bucket Count 3: 0
 ROB Critical Load Stall End Bucket Count 3: 0
 ROB Load Stall Begin Bucket Count 4: 75200
 ROB Load Stall End Bucket Count 4: 92739
 ROB Critical Load Stall Begin Bucket Count 4: 0
 ROB Critical Load Stall End Bucket Count 4: 0
 ROB Load Stall Begin Bucket Count 5: 101942
 ROB Load Stall End Bucket Count 5: 80162
 ROB Critical Load Stall Begin Bucket Count 5: 0
 ROB Critical Load Stall End Bucket Count 5: 0
 ROB Load Stall Begin Bucket Count 6: 451700
 ROB Load Stall End Bucket Count 6: 509297
 ROB Critical Load Stall Begin Bucket Count 6: 0
 ROB Critical Load Stall End Bucket Count 6: 0
PIST Tag Read Accesses: 111110
PIST Read Accesses: 55555
PIST Tag Write Accesses: 111110
PIST Write Accesses: 55555
Criticality detector called times: 315899
Max global_stall_cycles_count: 768760
Threshold Modified: 1 times, factor: -1
Sturdy critical IP cache stats: 
 Unused entries: 0
CIC Tag Read Accesses: 0
CIC Read Accesses: 0
CIC Tag Write Accesses: 0
CIC Write Accesses: 0
Wobbly critical IP cache stats: 
 Unused entries: 8
CIC Tag Read Accesses: 218586009
CIC Read Accesses: 0
CIC Tag Write Accesses: 3017231
CIC Write Accesses: 0
ITLB TOTAL     ACCESS:   14501915  HIT:   14501910  MISS:          5  HIT %:        100  MISS %: 3.44782e-05   MPKI: 5e-05
ITLB LOAD TRANSLATION ACCESS:   14501915  HIT:   14501910  MISS:          5  HIT %:        100  MISS %: 3.44782e-05   MPKI: 5e-05
ITLB PREFETCH  REQUESTED:          0  ISSUED:          0  USEFUL:          0  USELESS:          0
ITLB USEFUL LOAD PREFETCHES:          0 PREFETCH ISSUED TO LOWER LEVEL:          0  ACCURACY: -nan
ITLB TIMELY PREFETCHES:          0 LATE PREFETCHES: 0 DROPPED PREFETCHES: 0
ITLB PREFETCHES SAME FILL-ORIGIN LEVEL: 0 DIFFERENT FILL-ORIGIN LEVEL: 0
ITLB AVERAGE MISS LATENCY: 328.2 cycles
ITLB RQ	ACCESS:   17889925	FORWARD:          0	MERGED:    3388010	TO_CACHE:   14501915

DTLB TOTAL     ACCESS:   21157462  HIT:   21110529  MISS:      46933  HIT %:    99.7782  MISS %:   0.221827   MPKI: 0.46933
DTLB LOAD TRANSLATION ACCESS:   21157462  HIT:   21110529  MISS:      46933  HIT %:    99.7782  MISS %:   0.221827   MPKI: 0.46933
DTLB PREFETCH  REQUESTED:          0  ISSUED:          0  USEFUL:          0  USELESS:          0
DTLB USEFUL LOAD PREFETCHES:          0 PREFETCH ISSUED TO LOWER LEVEL:          0  ACCURACY: -nan
DTLB TIMELY PREFETCHES:          0 LATE PREFETCHES: 0 DROPPED PREFETCHES: 0
DTLB PREFETCHES SAME FILL-ORIGIN LEVEL: 0 DIFFERENT FILL-ORIGIN LEVEL: 0
DTLB AVERAGE MISS LATENCY: 113.969 cycles
DTLB RQ	ACCESS:   22519147	FORWARD:          0	MERGED:    1327347	TO_CACHE:   21191800

STLB TOTAL     ACCESS:      46938  HIT:       1841  MISS:      45097  HIT %:     3.9222  MISS %:    96.0778   MPKI: 0.45097
STLB LOAD TRANSLATION ACCESS:      46938  HIT:       1841  MISS:      45097  HIT %:     3.9222  MISS %:    96.0778   MPKI: 0.45097
STLB PREFETCH  REQUESTED:          0  ISSUED:          0  USEFUL:          0  USELESS:          0
STLB USEFUL LOAD PREFETCHES:          0 PREFETCH ISSUED TO LOWER LEVEL:          0  ACCURACY: -nan
STLB TIMELY PREFETCHES:          0 LATE PREFETCHES: 0 DROPPED PREFETCHES: 0
STLB PREFETCHES SAME FILL-ORIGIN LEVEL: 0 DIFFERENT FILL-ORIGIN LEVEL: 0
STLB AVERAGE MISS LATENCY: 109.1 cycles
STLB RQ	ACCESS:      46938	FORWARD:          0	MERGED:          0	TO_CACHE:      46938

STLB Hit, L1D data hit: 0
STLB Hit, L2C data hit: 0
STLB Hit, LLC data hit: 0
STLB Hit, LLC data miss: 0
STLB STLB hints to L2: 0
L1D TOTAL     ACCESS:   19624206  HIT:   17075497  MISS:    2548709  HIT %:    87.0124  MISS %:    12.9876   MPKI: 25.4871
L1D LOAD      ACCESS:   18095376  HIT:   16142620  MISS:    1952756  HIT %:    89.2085  MISS %:    10.7915   MPKI: 19.5276
L1D RFO       ACCESS:    1528830  HIT:     932877  MISS:     595953  HIT %:     61.019  MISS %:     38.981   MPKI: 5.95953
L1D PREFETCH  REQUESTED:          0  ISSUED:          0  USEFUL:          0  USELESS:          0
L1D USEFUL LOAD PREFETCHES:          0 PREFETCH ISSUED TO LOWER LEVEL:          0  ACCURACY: -nan
L1D TIMELY PREFETCHES:          0 LATE PREFETCHES: 0 DROPPED PREFETCHES: 0
L1D PREFETCHES SAME FILL-ORIGIN LEVEL: 0 DIFFERENT FILL-ORIGIN LEVEL: 0
L1D AVERAGE MISS LATENCY: 89.027 cycles
L1D RQ	ACCESS:   29525950	FORWARD:          0	MERGED:   11103867	TO_CACHE:   18421015
L1D WQ	ACCESS:    4098132	FORWARD:       1068	MERGED:          0	TO_CACHE:    4098132

L1D UNIQUE REGIONS ACCESSED: 0
L1D REGIONS CONFLICTS: 0
L1D Cross Page Prefetch Requests: 0
L1D Same Page Prefetch Requests: 0
L1D ROI Sum of L1D PQ occupancy: 0
L1D PREFETCHES PUSHED FROM L2C: 0
L1I TOTAL     ACCESS:   17889752  HIT:   17889420  MISS:        332  HIT %:    99.9981  MISS %: 0.00185581   MPKI: 0.00332
L1I LOAD      ACCESS:   17889752  HIT:   17889420  MISS:        332  HIT %:    99.9981  MISS %: 0.00185581   MPKI: 0.00332
L1I PREFETCH  REQUESTED:          0  ISSUED:          0  USEFUL:          0  USELESS:          0
L1I USEFUL LOAD PREFETCHES:          0 PREFETCH ISSUED TO LOWER LEVEL:          0  ACCURACY: -nan
L1I TIMELY PREFETCHES:          0 LATE PREFETCHES: 0 DROPPED PREFETCHES: 0
L1I PREFETCHES SAME FILL-ORIGIN LEVEL: 0 DIFFERENT FILL-ORIGIN LEVEL: 0
L1I AVERAGE MISS LATENCY: 238.295 cycles
L1I RQ	ACCESS:   25640949	FORWARD:          0	MERGED:    7751024	TO_CACHE:   17889925

BTB TOTAL     ACCESS:    3186003  HIT:    3185934  MISS:         69  HIT %:    99.9978  MISS %: 0.00216572   MPKI: 0.00069
BTB BRANCH_DIRECT_JUMP	ACCESS:        512  HIT:        511  MISS:          1
BTB BRANCH_INDIRECT	ACCESS:          0  HIT:          0  MISS:          0
BTB BRANCH_CONDITIONAL	ACCESS:    3185485  HIT:    3185423  MISS:         62
BTB BRANCH_DIRECT_CALL	ACCESS:          3  HIT:          0  MISS:          3
BTB BRANCH_INDIRECT_CALL	ACCESS:          0  HIT:          0  MISS:          0
BTB BRANCH_RETURN	ACCESS:          3  HIT:          0  MISS:          3
BTB BRANCH_OTHER ACCESS:          0  HIT:          0  MISS:          0

L2C TOTAL     ACCESS:    5079842  HIT:    2613956  MISS:    2465886  HIT %:    51.4574  MISS %:    48.5426   MPKI: 24.6589
L2C LOAD      ACCESS:    1953086  HIT:    1801277  MISS:     151809  HIT %:    92.2272  MISS %:    7.77278   MPKI: 1.51809
L2C DATA LOAD MPKI: 1.51477
L2C INSTRUCTION LOAD MPKI: 0.00332
L2C RFO       ACCESS:     595953  HIT:          3  MISS:     595950  HIT %: 0.000503395  MISS %:    99.9995   MPKI: 5.9595
L2C PREFETCH  ACCESS:    1754802  HIT:      66542  MISS:    1688260  HIT %:    3.79199  MISS %:     96.208   MPKI: 16.8826
L2C DATA PREFETCH MPKI: 16.8826
L2C INSTRUCTION PREFETCH MPKI: 0
L2C WRITEBACK ACCESS:     730823  HIT:     709635  MISS:      21188  HIT %:    97.1008  MISS %:     2.8992   MPKI: 0.21188
L2C LOAD TRANSLATION ACCESS:      45178  HIT:      36499  MISS:       8679  HIT %:    80.7893  MISS %:    19.2107   MPKI: 0.08679
L2C PREFETCH  REQUESTED:    1796470  ISSUED:    1796470  USEFUL:    1543956  USELESS:     143734
L2C USEFUL LOAD PREFETCHES:    1543956 PREFETCH ISSUED TO LOWER LEVEL:    1721840  ACCURACY: 89.669
L2C TIMELY PREFETCHES:    1543956 LATE PREFETCHES: 33580 DROPPED PREFETCHES: 0
L2C PREFETCHES SAME FILL-ORIGIN LEVEL: 1721840 DIFFERENT FILL-ORIGIN LEVEL: 0
L2C AVERAGE MISS LATENCY: 266.438 cycles
L2C RQ	ACCESS:    2594220	FORWARD:          0	MERGED:          0	TO_CACHE:    2594218
L2C WQ	ACCESS:     730823	FORWARD:          2	MERGED:          0	TO_CACHE:     730823
L2C PQ	ACCESS:    1796470	FORWARD:          0	MERGED:          0	TO_CACHE:    1796470

L2C Instructions Evicting Data 332
L2C Translations Evicting Data 8653
L2C Data Evicting Data 2426805
L2C Instructions Evicting Instructions 0
L2C Translations Evicting Instructions 4
L2C Data Evicting Instructions 327
L2C Instructions Evicting Translations 0
L2C Translations Evicting Translations 22
L2C Data Evicting Translations 8555
L2C Dense regions hint from L2: 0
PSCL5 TOTAL     ACCESS:      45097  HIT:      45097  MISS:          0  HIT %:        100  MISS %:          0   MPKI: 0
PSCL5 LOAD TRANSLATION ACCESS:      45097  HIT:      45097  MISS:          0  HIT %:        100  MISS %:          0   MPKI: 0
PSCL5 PREFETCH  REQUESTED:          0  ISSUED:          0  USEFUL:          0  USELESS:          0
PSCL5 USEFUL LOAD PREFETCHES:          0 PREFETCH ISSUED TO LOWER LEVEL:          0  ACCURACY: -nan
PSCL5 TIMELY PREFETCHES:          0 LATE PREFETCHES: 0 DROPPED PREFETCHES: 0
PSCL5 PREFETCHES SAME FILL-ORIGIN LEVEL: 0 DIFFERENT FILL-ORIGIN LEVEL: 0

PSCL4 TOTAL     ACCESS:      45097  HIT:      45097  MISS:          0  HIT %:        100  MISS %:          0   MPKI: 0
PSCL4 LOAD TRANSLATION ACCESS:      45097  HIT:      45097  MISS:          0  HIT %:        100  MISS %:          0   MPKI: 0
PSCL4 PREFETCH  REQUESTED:          0  ISSUED:          0  USEFUL:          0  USELESS:          0
PSCL4 USEFUL LOAD PREFETCHES:          0 PREFETCH ISSUED TO LOWER LEVEL:          0  ACCURACY: -nan
PSCL4 TIMELY PREFETCHES:          0 LATE PREFETCHES: 0 DROPPED PREFETCHES: 0
PSCL4 PREFETCHES SAME FILL-ORIGIN LEVEL: 0 DIFFERENT FILL-ORIGIN LEVEL: 0

PSCL3 TOTAL     ACCESS:      44836  HIT:      44834  MISS:          2  HIT %:    99.9955  MISS %:  0.0044607   MPKI: 2e-05
PSCL3 LOAD TRANSLATION ACCESS:      44836  HIT:      44834  MISS:          2  HIT %:    99.9955  MISS %:  0.0044607   MPKI: 2e-05
PSCL3 PREFETCH  REQUESTED:          0  ISSUED:          0  USEFUL:          0  USELESS:          0
PSCL3 USEFUL LOAD PREFETCHES:          0 PREFETCH ISSUED TO LOWER LEVEL:          0  ACCURACY: -nan
PSCL3 TIMELY PREFETCHES:          0 LATE PREFETCHES: 0 DROPPED PREFETCHES: 0
PSCL3 PREFETCHES SAME FILL-ORIGIN LEVEL: 0 DIFFERENT FILL-ORIGIN LEVEL: 0

PSCL2 TOTAL     ACCESS:      45097  HIT:      44993  MISS:        104  HIT %:    99.7694  MISS %:   0.230614   MPKI: 0.00104
PSCL2 LOAD TRANSLATION ACCESS:      45097  HIT:      44993  MISS:        104  HIT %:    99.7694  MISS %:   0.230614   MPKI: 0.00104
PSCL2 PREFETCH  REQUESTED:          0  ISSUED:          0  USEFUL:          0  USELESS:          0
PSCL2 USEFUL LOAD PREFETCHES:          0 PREFETCH ISSUED TO LOWER LEVEL:          0  ACCURACY: -nan
PSCL2 TIMELY PREFETCHES:          0 LATE PREFETCHES: 0 DROPPED PREFETCHES: 0
PSCL2 PREFETCHES SAME FILL-ORIGIN LEVEL: 0 DIFFERENT FILL-ORIGIN LEVEL: 0

LLC TOTAL     ACCESS:    3176406  HIT:      73040  MISS:    3103366  HIT %:    2.29945  MISS %:    97.7005   MPKI: 31.0337
LLC LOAD      ACCESS:     118229  HIT:       2556  MISS:     115673  HIT %:    2.16191  MISS %:    97.8381   MPKI: 1.15673
LLC RFO       ACCESS:     595950  HIT:       8848  MISS:     587102  HIT %:    1.48469  MISS %:    98.5153   MPKI: 5.87102
LLC PREFETCH  ACCESS:    1721840  HIT:      18248  MISS:    1703592  HIT %:     1.0598  MISS %:    98.9402   MPKI: 17.0359
LLC WRITEBACK ACCESS:     731708  HIT:      43276  MISS:     688432  HIT %:    5.91438  MISS %:    94.0856   MPKI: 6.88432
LLC LOAD TRANSLATION ACCESS:       8679  HIT:        112  MISS:       8567  HIT %:    1.29047  MISS %:    98.7095   MPKI: 0.08567
LLC PREFETCH  REQUESTED:          0  ISSUED:          0  USEFUL:       1414  USELESS:    1700508
LLC USEFUL LOAD PREFETCHES:       1414 PREFETCH ISSUED TO LOWER LEVEL:    1703592  ACCURACY: 0.0830011
LLC TIMELY PREFETCHES:       1414 LATE PREFETCHES: 0 DROPPED PREFETCHES: 0
LLC PREFETCHES SAME FILL-ORIGIN LEVEL: 0 DIFFERENT FILL-ORIGIN LEVEL: 0
LLC AVERAGE MISS LATENCY: 189.968 cycles
LLC RQ	ACCESS:     722858	FORWARD:          0	MERGED:          0	TO_CACHE:     722858
LLC WQ	ACCESS:     731708	FORWARD:          0	MERGED:          0	TO_CACHE:     731708
LLC PQ	ACCESS:    1721840	FORWARD:          0	MERGED:          0	TO_CACHE:    1721840

LLC Dense regions hint to LLC: 0

RAW hits: 9012
Loads Generated: 29534975
Loads sent to L1D: 29525950
Stores Generated: 4098297
Stores sent to L1D: 4098298
Major fault: 0 Minor fault: 39258
Allocated PAGES: 39258
[Bingo] PHT Access: 67924
[Bingo] PHT Hit PC+Addr: 117
[Bingo] PHT Hit PC+Offs: 63485
[Bingo] PHT Miss: 4322
[Bingo] Prefetch PC+Addr: 0
[Bingo] Prefetch PC+Offs: 0
[Bingo] Useful PC+Addr: 0
[Bingo] Useful PC+Offs: 0
[Bingo] Useless PC+Addr: 0
[Bingo] Useless PC+Offs: 0
[Bingo] L1 Prefetch per Region: 0
[Bingo] L2 Prefetch per Region: 29.4835
[Bingo] L3 Prefetch per Region: 0
[Bingo] No Prefetch per Region: 2.51651
[Bingo] Number of Voters Mean: 14.0539
[Bingo] Number of Voters SD: 13.9137
PHT read accesses: 1036128
PHT write accesses: 65039
AT read accesses: 1930189
AT write accesses: 1950166
FT read accesses: 199002
FT write accesses: 67924
PS read accesses: 226087
PS write accesses: 63602
PHT tag read accesses: 3132776
PHT tag write accesses: 65156
AT tag read accesses: 73462452
AT tag write accesses: 1995807
FT tag read accesses: 43830694
FT tag write accesses: 201026
PS tag read accesses: 33779607
PS tag write accesses: 288931

DRAM Statistics
 CHANNEL 0
 RQ ROW_BUFFER_HIT:    1129584  ROW_BUFFER_MISS:    1285273
 DBUS_CONGESTED:        469
 WQ ROW_BUFFER_HIT:     219637  ROW_BUFFER_MISS:     505355  FULL:       5667

 AVG_CONGESTED_CYCLE: 4
 All warmup complete: 2
Channel 0 Bank busy for read cycles: 0
Channel 0 Bank busy for write cycles: 0
Channel 0
Rank 0
0banks busy for read cycles: 22528838
0banks busy for write cycles: 29431
1banks busy for read cycles: 33109830
1banks busy for write cycles: 4127863
2banks busy for read cycles: 13034712
2banks busy for write cycles: 1517250
3banks busy for read cycles: 3874465
3banks busy for write cycles: 1104322
4banks busy for read cycles: 2186356
4banks busy for write cycles: 920570
5banks busy for read cycles: 1465487
5banks busy for write cycles: 851995
6banks busy for read cycles: 1546946
6banks busy for write cycles: 893558
7banks busy for read cycles: 3227601
7banks busy for write cycles: 1871855
8banks busy for read cycles: 16920279
8banks busy for write cycles: 16090885

CPU 0 Branch Prediction Accuracy: 99.74% MPKI: 0.08327 Average ROB Occupancy at Mispredict: 92.0679
Branch types
NOT_BRANCH: 96797549 96.7975%
BRANCH_DIRECT_JUMP: 512 0.000512%
BRANCH_INDIRECT: 0 0%
BRANCH_CONDITIONAL: 3202246 3.20225%
BRANCH_DIRECT_CALL: 3 3e-06%
BRANCH_INDIRECT_CALL: 0 0%
BRANCH_RETURN: 3 3e-06%
BRANCH_OTHER: 0 0%

DRAM PAGES: 1048576
Allocated PAGES: 39258
