Initialize SIGNATURE TABLE
ST_SET: 1
ST_WAY: 256
ST_TAG_BIT: 16
ST_TAG_MASK: ffff

Initialize PATTERN TABLE
PT_SET: 512
PT_WAY: 4
SIG_DELTA_BIT: 7
C_SIG_BIT: 4
C_DELTA_BIT: 4

Initialize PREFETCH FILTER
FILTER_SET: 1024

*** ChampSim Multicore Out-of-Order Simulator ***

Warmup Instructions: 50000000
Simulation Instructions: 100000000
Number of CPUs: 1
LLC sets: 2048
LLC ways: 16
Off-chip DRAM Size: 4096 MB Channels: 1 Width: 64-bit Data Rate: 6400 MT/s
CPU 0 runs ../SPEC2017//654.roms_s-1613B.champsimtrace.xz
.xz
NUM_OF_IPS_IN_CRITICAL_IP_TRAINING: 128
NUM_OF_CRITICAL_IP_TRAINING_TABLE_WAYS: 8
NUM_OF_CRITICAL_IP_TRAINING_TABLE_SETS: 16
BTB has LRU replacement policy
ITLB has LRU replacement policy
DTLB has LRU replacement policy
STLB has LRU replacement policy
L1I has LRU replacement policy
L1D has LRU replacement policy
Initialize SRRIP state for L2C
Initialize DRRIP state for LLC
Heartbeat CPU 0 instructions: 10000001 cycles: 2913171 heartbeat IPC: 3.43269 cumulative IPC: 3.43269 (Simulation time: 0 hr 6 min 13 sec) 
Heartbeat CPU 0 instructions: 20000000 cycles: 5826307 heartbeat IPC: 3.43273 cumulative IPC: 3.43271 (Simulation time: 0 hr 11 min 42 sec) 
Heartbeat CPU 0 instructions: 30000000 cycles: 8739317 heartbeat IPC: 3.43288 cumulative IPC: 3.43276 (Simulation time: 0 hr 16 min 34 sec) 
Heartbeat CPU 0 instructions: 40000000 cycles: 11652449 heartbeat IPC: 3.43273 cumulative IPC: 3.43275 (Simulation time: 0 hr 20 min 42 sec) 
Heartbeat CPU 0 instructions: 50000001 cycles: 15140630 heartbeat IPC: 2.86682 cumulative IPC: 3.30237 (Simulation time: 0 hr 24 min 42 sec) 

Warmup complete CPU 0 instructions: 50000001 cycles: 15140630 (Simulation time: 0 hr 24 min 42 sec) 

% increase in all ip prefetch 405.065
% increase in all ip prefetch -0.0361936
Heartbeat CPU 0 instructions: 60000001 cycles: 31791228 heartbeat IPC: 0.600579 cumulative IPC: 0.600579 (Simulation time: 0 hr 28 min 24 sec) 
Heartbeat CPU 0 instructions: 70000003 cycles: 48440210 heartbeat IPC: 0.600637 cumulative IPC: 0.600608 (Simulation time: 0 hr 31 min 49 sec) 
Heartbeat CPU 0 instructions: 80000000 cycles: 65078145 heartbeat IPC: 0.601036 cumulative IPC: 0.600751 (Simulation time: 0 hr 35 min 9 sec) 
Heartbeat CPU 0 instructions: 90000001 cycles: 81707366 heartbeat IPC: 0.601351 cumulative IPC: 0.600901 (Simulation time: 0 hr 38 min 27 sec) 
Heartbeat CPU 0 instructions: 100000000 cycles: 98338876 heartbeat IPC: 0.601268 cumulative IPC: 0.600974 (Simulation time: 0 hr 41 min 23 sec) 
Heartbeat CPU 0 instructions: 110000000 cycles: 114971180 heartbeat IPC: 0.60124 cumulative IPC: 0.601018 (Simulation time: 0 hr 44 min 9 sec) 
Heartbeat CPU 0 instructions: 120000001 cycles: 136606062 heartbeat IPC: 0.462217 cumulative IPC: 0.576296 (Simulation time: 0 hr 47 min 36 sec) 
Heartbeat CPU 0 instructions: 130000000 cycles: 153236055 heartbeat IPC: 0.601323 cumulative IPC: 0.57931 (Simulation time: 0 hr 50 min 7 sec) 
Heartbeat CPU 0 instructions: 140000003 cycles: 169873948 heartbeat IPC: 0.601038 cumulative IPC: 0.581646 (Simulation time: 0 hr 52 min 20 sec) 
Heartbeat CPU 0 instructions: 150000001 cycles: 186510756 heartbeat IPC: 0.601077 cumulative IPC: 0.583532 (Simulation time: 0 hr 54 min 23 sec) 
Finished CPU 0 instructions: 100000000 cycles: 171370126 cumulative IPC: 0.583532 (Simulation time: 0 hr 54 min 23 sec) 

ChampSim completed all CPUs

Region of Interest Statistics

CPU 0 cumulative IPC: 0.583532 instructions: 100000000 cycles: 171370126

CPU 0 Average Load ROB stall cycles: 9.81042e+06
CPU 0 Fraction of times ROB stalled by Loads: 9.86241
CPU 0 Percentage of Load stall cycles in Total stall cycles: 2.13523e+08
 Total stall cycles: 117624453
 Total load stall cycles: 251155561628742
CPU 0 NUM of IPS identified critical: 4

Threshold modification factor: -1
Max PIST entries: 22
Min PIST entries: 0
Avg PIST entries: 6.56
Average ROB occupancy Load Stall Begin: 41.054
Average ROB occupancy Load Stall End: 42.851
Min ROB occupancy Load Stall Begin: 1
Max ROB occupancy Load Stall Begin: 351
Min ROB occupancy Load Stall End: 1
Max ROB occupancy Load Stall End: 352
Average ROB occupancy Critical Load Stall Begin: 56.9683
Average ROB occupancy Critical Load Stall End: 60.6012
Min ROB occupancy Critical Load Stall Begin: 8
Max ROB occupancy Critical Load Stall Begin: 351
Min ROB occupancy Critical Load Stall End: 8
Max ROB occupancy Critical Load Stall End: 352
 ROB Load Stall Begin Bucket Count 0: 1394715
 ROB Load Stall End Bucket Count 0: 1354806
 ROB Critical Load Stall Begin Bucket Count 0: 44364
 ROB Critical Load Stall End Bucket Count 0: 9867
 ROB Load Stall Begin Bucket Count 1: 1126766
 ROB Load Stall End Bucket Count 1: 1165201
 ROB Critical Load Stall Begin Bucket Count 1: 1066671
 ROB Critical Load Stall End Bucket Count 1: 1100622
 ROB Load Stall Begin Bucket Count 2: 800
 ROB Load Stall End Bucket Count 2: 1677
 ROB Critical Load Stall Begin Bucket Count 2: 551
 ROB Critical Load Stall End Bucket Count 2: 569
 ROB Load Stall Begin Bucket Count 3: 784
 ROB Load Stall End Bucket Count 3: 837
 ROB Critical Load Stall Begin Bucket Count 3: 578
 ROB Critical Load Stall End Bucket Count 3: 638
 ROB Load Stall Begin Bucket Count 4: 699
 ROB Load Stall End Bucket Count 4: 758
 ROB Critical Load Stall Begin Bucket Count 4: 523
 ROB Critical Load Stall End Bucket Count 4: 587
 ROB Load Stall Begin Bucket Count 5: 438
 ROB Load Stall End Bucket Count 5: 557
 ROB Critical Load Stall Begin Bucket Count 5: 346
 ROB Critical Load Stall End Bucket Count 5: 446
 ROB Load Stall Begin Bucket Count 6: 663
 ROB Load Stall End Bucket Count 6: 1029
 ROB Critical Load Stall Begin Bucket Count 6: 294
 ROB Critical Load Stall End Bucket Count 6: 598
Threshold Modified: 1 times, factor: -1
ITLB TOTAL     ACCESS:   15214523  HIT:   15214515  MISS:          8  HIT %:    99.9999  MISS %: 5.25813e-05   MPKI: 8e-05
ITLB LOAD TRANSLATION ACCESS:   15214523  HIT:   15214515  MISS:          8  HIT %:    99.9999  MISS %: 5.25813e-05   MPKI: 8e-05
ITLB AVERAGE MISS LATENCY: 283.75 cycles
ITLB RQ	ACCESS:   19844719	FORWARD:          0	MERGED:    4630196	TO_CACHE:   15214523

DTLB TOTAL     ACCESS:   20741883  HIT:   20735772  MISS:       6111  HIT %:    99.9705  MISS %:  0.0294621   MPKI: 0.06111
DTLB LOAD TRANSLATION ACCESS:   20741883  HIT:   20735772  MISS:       6111  HIT %:    99.9705  MISS %:  0.0294621   MPKI: 0.06111
DTLB AVERAGE MISS LATENCY: 105.091 cycles
DTLB RQ	ACCESS:   24827654	FORWARD:          0	MERGED:    4079197	TO_CACHE:   20748457

STLB TOTAL     ACCESS:       6119  HIT:        411  MISS:       5708  HIT %:    6.71678  MISS %:    93.2832   MPKI: 0.05708
STLB LOAD TRANSLATION ACCESS:       6119  HIT:        411  MISS:       5708  HIT %:    6.71678  MISS %:    93.2832   MPKI: 0.05708
STLB AVERAGE MISS LATENCY: 103.242 cycles
STLB RQ	ACCESS:       6119	FORWARD:          0	MERGED:          0	TO_CACHE:       6119

STLB Hit, L1D data hit: 0
STLB Hit, L2C data hit: 0
STLB Hit, LLC data hit: 0
STLB Hit, LLC data miss: 0
STLB STLB hints to L2: 0
L1D TOTAL     ACCESS:   24312395  HIT:   24032960  MISS:     279435  HIT %:    98.8506  MISS %:    1.14935   MPKI: 2.79435
L1D LOAD      ACCESS:   14627344  HIT:   14459486  MISS:     167858  HIT %:    98.8524  MISS %:    1.14756   MPKI: 1.67858
L1D RFO       ACCESS:    9685051  HIT:    9573474  MISS:     111577  HIT %:    98.8479  MISS %:    1.15205   MPKI: 1.11577
L1D AVERAGE MISS LATENCY: 125.317 cycles
L1D RQ	ACCESS:   20046658	FORWARD:          0	MERGED:    5347118	TO_CACHE:   14686406
L1D WQ	ACCESS:   10855420	FORWARD:      13134	MERGED:     714172	TO_CACHE:   10141248

L1D UNIQUE REGIONS ACCESSED: 0
L1D REGIONS CONFLICTS: 0
L1D Cross Page Prefetch Requests: 0
L1D Same Page Prefetch Requests: 0
L1D ROI Sum of L1D PQ occupancy: 0
L1D PREFETCHES PUSHED FROM L2C: 0
L1I TOTAL     ACCESS:   19844704  HIT:   19844598  MISS:        106  HIT %:    99.9995  MISS %: 0.000534148   MPKI: 0.00106
L1I LOAD      ACCESS:   19844704  HIT:   19844598  MISS:        106  HIT %:    99.9995  MISS %: 0.000534148   MPKI: 0.00106
L1I AVERAGE MISS LATENCY: 158.83 cycles
L1I RQ	ACCESS:   28927788	FORWARD:          0	MERGED:    9083069	TO_CACHE:   19844719

BTB TOTAL     ACCESS:    6673576  HIT:    5961136  MISS:     712440  HIT %:    89.3245  MISS %:    10.6755   MPKI: 7.1244
BTB BRANCH_DIRECT_JUMP	ACCESS:     712598  HIT:     712560  MISS:         38
BTB BRANCH_INDIRECT	ACCESS:         16  HIT:         15  MISS:          1
BTB BRANCH_CONDITIONAL	ACCESS:    3111182  HIT:    3111055  MISS:        127
BTB BRANCH_DIRECT_CALL	ACCESS:    1424889  HIT:    1424844  MISS:         45
BTB BRANCH_INDIRECT_CALL	ACCESS:          0  HIT:          0  MISS:          0
BTB BRANCH_RETURN	ACCESS:    1424891  HIT:     712662  MISS:     712229
BTB BRANCH_OTHER ACCESS:          0  HIT:          0  MISS:          0

L2C TOTAL     ACCESS:     507914  HIT:     222662  MISS:     285252  HIT %:    43.8385  MISS %:    56.1615   MPKI: 2.85252
L2C LOAD      ACCESS:     167964  HIT:     109832  MISS:      58132  HIT %:    65.3902  MISS %:    34.6098   MPKI: 0.58132
L2C DATA LOAD MPKI: 0.58026
L2C INSTRUCTION LOAD MPKI: 0.00106
L2C RFO       ACCESS:     111577  HIT:          0  MISS:     111577  HIT %:          0  MISS %:        100   MPKI: 1.11577
L2C PREFETCH  ACCESS:     111081  HIT:          9  MISS:     111072  HIT %:  0.0081022  MISS %:    99.9919   MPKI: 1.11072
L2C DATA PREFETCH MPKI: 1.11072
L2C INSTRUCTION PREFETCH MPKI: 0
L2C WRITEBACK ACCESS:     111581  HIT:     108175  MISS:       3406  HIT %:    96.9475  MISS %:    3.05249   MPKI: 0.03406
L2C LOAD TRANSLATION ACCESS:       5711  HIT:       4646  MISS:       1065  HIT %:    81.3518  MISS %:    18.6482   MPKI: 0.01065
L2C PREFETCH  REQUESTED:    1475658  ISSUED:    1465627  USEFUL:     109829  USELESS:       1245
L2C USEFUL LOAD PREFETCHES:     109829 PREFETCH ISSUED TO LOWER LEVEL:    1429498  ACCURACY: 7.68305
L2C TIMELY PREFETCHES:     109829 LATE PREFETCHES: 5559 DROPPED PREFETCHES: 0
L2C PREFETCHES SAME FILL-ORIGIN LEVEL: 116631 DIFFERENT FILL-ORIGIN LEVEL: 1312867
L2C AVERAGE MISS LATENCY: 123.032 cycles
L2C RQ	ACCESS:     285252	FORWARD:          0	MERGED:          0	TO_CACHE:     285252
L2C WQ	ACCESS:     111581	FORWARD:          0	MERGED:          0	TO_CACHE:     111581
L2C PQ	ACCESS:    1465627	FORWARD:          0	MERGED:      31915	TO_CACHE:    1433712

L2C Instructions Evicting Data104
L2C Translations Evicting Data1050
L2C Data Evicting Data279536
L2C Instructions Evicting Instructions0
L2C Translations Evicting Instructions0
L2C Data Evicting Instructions114
L2C Instructions Evicting Translations2
L2C Translations Evicting Translations15
L2C Data Evicting Translations1025
L2C Dense regions hint from L2: 0
PSCL5 TOTAL     ACCESS:       5708  HIT:       5708  MISS:          0  HIT %:        100  MISS %:          0   MPKI: 0
PSCL5 LOAD TRANSLATION ACCESS:       5708  HIT:       5708  MISS:          0  HIT %:        100  MISS %:          0   MPKI: 0

PSCL4 TOTAL     ACCESS:       5708  HIT:       5708  MISS:          0  HIT %:        100  MISS %:          0   MPKI: 0
PSCL4 LOAD TRANSLATION ACCESS:       5708  HIT:       5708  MISS:          0  HIT %:        100  MISS %:          0   MPKI: 0

PSCL3 TOTAL     ACCESS:       5708  HIT:       5708  MISS:          0  HIT %:        100  MISS %:          0   MPKI: 0
PSCL3 LOAD TRANSLATION ACCESS:       5708  HIT:       5708  MISS:          0  HIT %:        100  MISS %:          0   MPKI: 0

PSCL2 TOTAL     ACCESS:       5708  HIT:       5700  MISS:          8  HIT %:    99.8598  MISS %:   0.140154   MPKI: 8e-05
PSCL2 LOAD TRANSLATION ACCESS:       5708  HIT:       5700  MISS:          8  HIT %:    99.8598  MISS %:   0.140154   MPKI: 8e-05

LLC TOTAL     ACCESS:    1541652  HIT:    1224041  MISS:     317611  HIT %:     79.398  MISS %:     20.602   MPKI: 3.17611
LLC LOAD      ACCESS:      52573  HIT:      44188  MISS:       8385  HIT %:    84.0507  MISS %:    15.9493   MPKI: 0.08385
LLC RFO       ACCESS:     111577  HIT:          6  MISS:     111571  HIT %: 0.00537745  MISS %:    99.9946   MPKI: 1.11571
LLC PREFETCH  ACCESS:    1264455  HIT:    1089684  MISS:     174771  HIT %:    86.1782  MISS %:    13.8218   MPKI: 1.74771
LLC WRITEBACK ACCESS:     111982  HIT:      90156  MISS:      21826  HIT %:    80.5094  MISS %:    19.4906   MPKI: 0.21826
LLC LOAD TRANSLATION ACCESS:       1065  HIT:          7  MISS:       1058  HIT %:   0.657277  MISS %:    99.3427   MPKI: 0.01058
LLC AVERAGE MISS LATENCY: 198.913 cycles
LLC RQ	ACCESS:     165215	FORWARD:          0	MERGED:          0	TO_CACHE:     165215
LLC WQ	ACCESS:     111982	FORWARD:          0	MERGED:          0	TO_CACHE:     111982
LLC PQ	ACCESS:    1429498	FORWARD:          0	MERGED:       6654	TO_CACHE:    1422844

LLC Dense regions hint to LLC: 0

RAW hits: 2837403
Loads Generated: 22884063
Loads sent to L1D: 20046658
Stores Generated: 10855417
Stores sent to L1D: 10855420
Major fault: 0 Minor fault: 6008
Allocated PAGES: 6008
------------------
Depth Distribution
------------------
depth 0: 0
depth 1: 291084
depth 2: 286647
depth 3: 281947
depth 4: 277286
depth 5: 272437
depth 6: 266886
depth 7: 259677
depth 8: 224402
depth 9: 186636
depth 10: 135354
depth 11: 82849
depth 12: 52189
depth 13: 21246
depth 14: 5015
depth 15: 4885
depth 16: 15
depth 17: 0
depth 18: 0
depth 19: 0
depth 20: 0
depth 21: 0
depth 22: 0
depth 23: 0
depth 24: 0
depth 25: 0
depth 26: 0
depth 27: 0
depth 28: 0
depth 29: 0
Total: 2648555
-----------------------------
-----------------------------
	Captured at Filter
-----------------------------
depth 0: 0
depth 1: 1686
depth 2: 1383
depth 3: 1369
depth 4: 1326
depth 5: 1296
depth 6: 1274
depth 7: 1243
depth 8: 1082
depth 9: 927
depth 10: 667
depth 11: 399
depth 12: 237
depth 13: 99
depth 14: 15
depth 15: 18
depth 16: 0
depth 17: 0
depth 18: 0
depth 19: 0
depth 20: 0
depth 21: 0
depth 22: 0
depth 23: 0
depth 24: 0
depth 25: 0
depth 26: 0
depth 27: 0
depth 28: 0
depth 29: 0
-----------------------------
-----------------------------
		Lost at Page
-----------------------------
depth 0: 0
depth 1: 4648
depth 2: 9292
depth 3: 13932
depth 4: 18574
depth 5: 23213
depth 6: 27822
depth 7: 32349
depth 8: 32989
depth 9: 31609
depth 10: 26114
depth 11: 18212
depth 12: 12427
depth 13: 5489
depth 14: 1402
depth 15: 1499
depth 16: 2
depth 17: 0
depth 18: 0
depth 19: 0
depth 20: 0
depth 21: 0
depth 22: 0
depth 23: 0
depth 24: 0
depth 25: 0
depth 26: 0
depth 27: 0
depth 28: 0
depth 29: 0
-----------------------------
-----------------------------
	Lost due to PQ Size
-----------------------------
24385
-----------------------------
ST read accesses: 163511
ST write accesses: 4347
PT read accesses: 8954163
PT write accesses: 242860
FILTER read accesses: 1935947
FILTER write accesses: 523142
GHR read accesses: 610390
GHR write accesses: 142315
GHR counter read accesses: 7500600
GHR counter write accesses: 407138
ST tag read accesses: 66789406
ST tag write accesses: 1332455

DRAM Statistics
 CHANNEL 0
 RQ ROW_BUFFER_HIT:      64593  ROW_BUFFER_MISS:     231192
 DBUS_CONGESTED:         10
 WQ ROW_BUFFER_HIT:      15409  ROW_BUFFER_MISS:      94720  FULL:          0

 AVG_CONGESTED_CYCLE: 4
 All warmup complete: 2
Channel 0 Bank busy for read cycles: 0
Channel 0 Bank busy for write cycles: 0
Channel 0
Rank 0
0banks busy for read cycles: 146956043
0banks busy for write cycles: 31473
1banks busy for read cycles: 9482149
1banks busy for write cycles: 4339513
2banks busy for read cycles: 4465802
2banks busy for write cycles: 557786
3banks busy for read cycles: 571529
3banks busy for write cycles: 111444
4banks busy for read cycles: 729918
4banks busy for write cycles: 73813
5banks busy for read cycles: 340093
5banks busy for write cycles: 58421
6banks busy for read cycles: 343260
6banks busy for write cycles: 43999
7banks busy for read cycles: 401602
7banks busy for write cycles: 131868
8banks busy for read cycles: 1154778
8banks busy for write cycles: 1576636

CPU 0 Branch Prediction Accuracy: 99.978% MPKI: 0.02252 Average ROB Occupancy at Mispredict: 34.3441
Branch types
NOT_BRANCH: 89756089 89.7561%
BRANCH_DIRECT_JUMP: 712598 0.712598%
BRANCH_INDIRECT: 16 1.6e-05%
BRANCH_CONDITIONAL: 6681200 6.6812%
BRANCH_DIRECT_CALL: 1424889 1.42489%
BRANCH_INDIRECT_CALL: 0 0%
BRANCH_RETURN: 1424891 1.42489%
BRANCH_OTHER: 0 0%

DRAM PAGES: 1048576
Allocated PAGES: 6008
