Initialize SIGNATURE TABLE
ST_SET: 1
ST_WAY: 256
ST_TAG_BIT: 16
ST_TAG_MASK: ffff

Initialize PATTERN TABLE
PT_SET: 512
PT_WAY: 4
SIG_DELTA_BIT: 7
C_SIG_BIT: 4
C_DELTA_BIT: 4

Initialize PREFETCH FILTER
FILTER_SET: 1024

Initialize PERCEPTRON
PERC_ENTRIES: 4096
PERC_FEATURES: 9

*** ChampSim Multicore Out-of-Order Simulator ***

Warmup Instructions: 50000000
Simulation Instructions: 100000000
Number of CPUs: 1
LLC sets: 2048
LLC ways: 16
Off-chip DRAM Size: 4096 MB Channels: 1 Width: 64-bit Data Rate: 6400 MT/s
CPU 0 runs ../SPEC2017//654.roms_s-1007B.champsimtrace.xz
.xz
NUM_OF_IPS_IN_CRITICAL_IP_TRAINING: 64
NUM_OF_CRITICAL_IP_TRAINING_TABLE_WAYS: 2
NUM_OF_CRITICAL_IP_TRAINING_TABLE_SETS: 32
WOBBLY_CRITICAL_IP_CACHE_SETS: 32
WOBBLY_CRITICAL_IP_CACHE_WAYS: 4
BTB has LRU replacement policy
ITLB has LRU replacement policy
DTLB has LRU replacement policy
STLB has LRU replacement policy
L1I has LRU replacement policy
L1D has LRU replacement policy
Initialize SRRIP state for L2C
Initialize DRRIP state for LLC
Heartbeat CPU 0 instructions: 10000000 cycles: 3016809 heartbeat IPC: 3.31476 cumulative IPC: 3.31476 (Simulation time: 0 hr 4 min 52 sec) 
Heartbeat CPU 0 instructions: 20000002 cycles: 6033480 heartbeat IPC: 3.31491 cumulative IPC: 3.31484 (Simulation time: 0 hr 9 min 15 sec) 
Heartbeat CPU 0 instructions: 30000000 cycles: 9050225 heartbeat IPC: 3.31483 cumulative IPC: 3.31483 (Simulation time: 0 hr 13 min 16 sec) 
Heartbeat CPU 0 instructions: 40000000 cycles: 12066953 heartbeat IPC: 3.31485 cumulative IPC: 3.31484 (Simulation time: 0 hr 17 min 1 sec) 
Heartbeat CPU 0 instructions: 50000003 cycles: 15198917 heartbeat IPC: 3.19289 cumulative IPC: 3.28971 (Simulation time: 0 hr 20 min 56 sec) 

Warmup complete CPU 0 instructions: 50000003 cycles: 15198917 (Simulation time: 0 hr 20 min 56 sec) 

% increase in all ip prefetch 286.518
% increase in all ip prefetch 11.0967
% increase in all ip prefetch 6.91205
% increase in all ip prefetch 0.00984089
Heartbeat CPU 0 instructions: 60000002 cycles: 32530348 heartbeat IPC: 0.576986 cumulative IPC: 0.576986 (Simulation time: 0 hr 25 min 15 sec) 
Heartbeat CPU 0 instructions: 70000000 cycles: 52032331 heartbeat IPC: 0.512768 cumulative IPC: 0.542985 (Simulation time: 0 hr 29 min 9 sec) 
Heartbeat CPU 0 instructions: 80000000 cycles: 71525670 heartbeat IPC: 0.512996 cumulative IPC: 0.532607 (Simulation time: 0 hr 32 min 49 sec) 
Heartbeat CPU 0 instructions: 90000000 cycles: 91013990 heartbeat IPC: 0.513128 cumulative IPC: 0.5276 (Simulation time: 0 hr 36 min 10 sec) 
Heartbeat CPU 0 instructions: 100000000 cycles: 110498619 heartbeat IPC: 0.513225 cumulative IPC: 0.524661 (Simulation time: 0 hr 39 min 21 sec) 
Heartbeat CPU 0 instructions: 110000000 cycles: 129985441 heartbeat IPC: 0.513167 cumulative IPC: 0.522709 (Simulation time: 0 hr 42 min 24 sec) 
Heartbeat CPU 0 instructions: 120000001 cycles: 147621069 heartbeat IPC: 0.567034 cumulative IPC: 0.528612 (Simulation time: 0 hr 45 min 28 sec) 
Heartbeat CPU 0 instructions: 130000002 cycles: 162291354 heartbeat IPC: 0.68165 cumulative IPC: 0.543876 (Simulation time: 0 hr 48 min 58 sec) 
Heartbeat CPU 0 instructions: 140000000 cycles: 181782497 heartbeat IPC: 0.513053 cumulative IPC: 0.540269 (Simulation time: 0 hr 54 min 59 sec) 
Heartbeat CPU 0 instructions: 150000000 cycles: 201275866 heartbeat IPC: 0.512995 cumulative IPC: 0.537412 (Simulation time: 1 hr 0 min 27 sec) 
Finished CPU 0 instructions: 100000001 cycles: 186076951 cumulative IPC: 0.537412 (Simulation time: 1 hr 0 min 27 sec) 

ChampSim completed all CPUs

Region of Interest Statistics

CPU 0 cumulative IPC: 0.537412 instructions: 100000001 cycles: 186076951

CPU 0 Average Load ROB stall cycles: 3.30458e+07
CPU 0 Fraction of times ROB stalled by Loads: 30.5131
CPU 0 Percentage of Load stall cycles in Total stall cycles: 5.86845e+08
Issued all: 60136655
Issued LT all: 47210572
rob_not_full_when_issued_lt_all: 45493720
Issued LT one: 38341976
rob_not_full_when_issued_lt_one: 36705722
 Total stall cycles: 164600884
 Total load stall cycles: 965952748345999
CPU 0 NUM of IPS identified critical: 0
CPU 0 Num of Load IPs stalling ROB: 162
Threshold modification factor: -3
Max PIST entries: 39
Min PIST entries: 0
Avg PIST entries: 11.6333
Trouble in retire width: 0.997517
MaC = Marked as critical.
lt_50_percent_before_Mac: 0
gt_90_percent_before_Mac: 0
gt_75_percent_before_Mac: 0
gt_50_percent_before_Mac: 0
stall_proportion_bin_same_before_after: 0
stall_proportion_bin_lower_before_after: 0
stall_proportion_bin_upper_before_after: 0
average_stall_proportion_before: -nan
average_stall_proportion_after: -nan
Critical IP stalls, total frequency: 0
Non-critical IP stalls, total frequency: 8919189
Total Freq all stalling IPs: 8919189
stat_90_percent_critical_ip_stalls_freq: 8116019
stat_90_percent_non_critical_ip_stalls_freq: 803170
Critical_IP_ROB_Stalls_Bucket_0: 0
Non-critical_IP_ROB_Stalls_Bucket_0: 4383553
Critical_IP_ROB_Stalls_Bucket_1: 0
Non-critical_IP_ROB_Stalls_Bucket_1: 4430445
Critical_IP_ROB_Stalls_Bucket_2: 0
Non-critical_IP_ROB_Stalls_Bucket_2: 27024
Critical_IP_ROB_Stalls_Bucket_3: 0
Non-critical_IP_ROB_Stalls_Bucket_3: 18400
Critical_IP_ROB_Stalls_Bucket_4: 0
Non-critical_IP_ROB_Stalls_Bucket_4: 18872
Critical_IP_ROB_Stalls_Bucket_5: 0
Non-critical_IP_ROB_Stalls_Bucket_5: 18725
Critical_IP_ROB_Stalls_Bucket_6: 0
Non-critical_IP_ROB_Stalls_Bucket_6: 22170
0 => IPs accounting for >50 percent of stalls, 1 => 55, 2 => 60, 3 => 65 and so on till 90.
percent50: 55.3344 num IPs:  7
percent55: 55.3344 num IPs: 7
percent60: 63.1816 num IPs: 8
percent65: 69.9056 num IPs: 9
percent70: 73.8629 num IPs: 10
percent75: 77.8202 num IPs: 11
percent80: 81.7775 num IPs: 12
percent85: 87.4319 num IPs: 14
percent90: 90.995 num IPs: 16
Critical_ROB_Stalls_Percent_0_Bucket_0: 2100507
Non-critical_ROB_Stalls_Percent_0_Bucket_0: 2283046
Critical_ROB_Stalls_Percent_0_Bucket_1: 2834824
Non-critical_ROB_Stalls_Percent_0_Bucket_1: 1595621
Critical_ROB_Stalls_Percent_0_Bucket_2: 48
Non-critical_ROB_Stalls_Percent_0_Bucket_2: 26976
Critical_ROB_Stalls_Percent_0_Bucket_3: 3
Non-critical_ROB_Stalls_Percent_0_Bucket_3: 18397
Critical_ROB_Stalls_Percent_0_Bucket_4: 1
Non-critical_ROB_Stalls_Percent_0_Bucket_4: 18871
Critical_ROB_Stalls_Percent_0_Bucket_5: 0
Non-critical_ROB_Stalls_Percent_0_Bucket_5: 18725
Critical_ROB_Stalls_Percent_0_Bucket_6: 0
Non-critical_ROB_Stalls_Percent_0_Bucket_6: 22170
Critical_ROB_Stalls_Percent_1_Bucket_0: 2100507
Non-critical_ROB_Stalls_Percent_1_Bucket_0: 2283046
Critical_ROB_Stalls_Percent_1_Bucket_1: 2834824
Non-critical_ROB_Stalls_Percent_1_Bucket_1: 1595621
Critical_ROB_Stalls_Percent_1_Bucket_2: 48
Non-critical_ROB_Stalls_Percent_1_Bucket_2: 26976
Critical_ROB_Stalls_Percent_1_Bucket_3: 3
Non-critical_ROB_Stalls_Percent_1_Bucket_3: 18397
Critical_ROB_Stalls_Percent_1_Bucket_4: 1
Non-critical_ROB_Stalls_Percent_1_Bucket_4: 18871
Critical_ROB_Stalls_Percent_1_Bucket_5: 0
Non-critical_ROB_Stalls_Percent_1_Bucket_5: 18725
Critical_ROB_Stalls_Percent_1_Bucket_6: 0
Non-critical_ROB_Stalls_Percent_1_Bucket_6: 22170
Critical_ROB_Stalls_Percent_2_Bucket_0: 2100507
Non-critical_ROB_Stalls_Percent_2_Bucket_0: 2283046
Critical_ROB_Stalls_Percent_2_Bucket_1: 3534730
Non-critical_ROB_Stalls_Percent_2_Bucket_1: 895715
Critical_ROB_Stalls_Percent_2_Bucket_2: 48
Non-critical_ROB_Stalls_Percent_2_Bucket_2: 26976
Critical_ROB_Stalls_Percent_2_Bucket_3: 4
Non-critical_ROB_Stalls_Percent_2_Bucket_3: 18396
Critical_ROB_Stalls_Percent_2_Bucket_4: 1
Non-critical_ROB_Stalls_Percent_2_Bucket_4: 18871
Critical_ROB_Stalls_Percent_2_Bucket_5: 0
Non-critical_ROB_Stalls_Percent_2_Bucket_5: 18725
Critical_ROB_Stalls_Percent_2_Bucket_6: 0
Non-critical_ROB_Stalls_Percent_2_Bucket_6: 22170
Critical_ROB_Stalls_Percent_3_Bucket_0: 2620675
Non-critical_ROB_Stalls_Percent_3_Bucket_0: 1762878
Critical_ROB_Stalls_Percent_3_Bucket_1: 3614237
Non-critical_ROB_Stalls_Percent_3_Bucket_1: 816208
Critical_ROB_Stalls_Percent_3_Bucket_2: 95
Non-critical_ROB_Stalls_Percent_3_Bucket_2: 26929
Critical_ROB_Stalls_Percent_3_Bucket_3: 4
Non-critical_ROB_Stalls_Percent_3_Bucket_3: 18396
Critical_ROB_Stalls_Percent_3_Bucket_4: 1
Non-critical_ROB_Stalls_Percent_3_Bucket_4: 18871
Critical_ROB_Stalls_Percent_3_Bucket_5: 0
Non-critical_ROB_Stalls_Percent_3_Bucket_5: 18725
Critical_ROB_Stalls_Percent_3_Bucket_6: 0
Non-critical_ROB_Stalls_Percent_3_Bucket_6: 22170
Critical_ROB_Stalls_Percent_4_Bucket_0: 2897520
Non-critical_ROB_Stalls_Percent_4_Bucket_0: 1486033
Critical_ROB_Stalls_Percent_4_Bucket_1: 3690335
Non-critical_ROB_Stalls_Percent_4_Bucket_1: 740110
Critical_ROB_Stalls_Percent_4_Bucket_2: 112
Non-critical_ROB_Stalls_Percent_4_Bucket_2: 26912
Critical_ROB_Stalls_Percent_4_Bucket_3: 4
Non-critical_ROB_Stalls_Percent_4_Bucket_3: 18396
Critical_ROB_Stalls_Percent_4_Bucket_4: 1
Non-critical_ROB_Stalls_Percent_4_Bucket_4: 18871
Critical_ROB_Stalls_Percent_4_Bucket_5: 0
Non-critical_ROB_Stalls_Percent_4_Bucket_5: 18725
Critical_ROB_Stalls_Percent_4_Bucket_6: 0
Non-critical_ROB_Stalls_Percent_4_Bucket_6: 22170
Critical_ROB_Stalls_Percent_5_Bucket_0: 2967270
Non-critical_ROB_Stalls_Percent_5_Bucket_0: 1416283
Critical_ROB_Stalls_Percent_5_Bucket_1: 3973525
Non-critical_ROB_Stalls_Percent_5_Bucket_1: 456920
Critical_ROB_Stalls_Percent_5_Bucket_2: 132
Non-critical_ROB_Stalls_Percent_5_Bucket_2: 26892
Critical_ROB_Stalls_Percent_5_Bucket_3: 4
Non-critical_ROB_Stalls_Percent_5_Bucket_3: 18396
Critical_ROB_Stalls_Percent_5_Bucket_4: 1
Non-critical_ROB_Stalls_Percent_5_Bucket_4: 18871
Critical_ROB_Stalls_Percent_5_Bucket_5: 0
Non-critical_ROB_Stalls_Percent_5_Bucket_5: 18725
Critical_ROB_Stalls_Percent_5_Bucket_6: 0
Non-critical_ROB_Stalls_Percent_5_Bucket_6: 22170
Critical_ROB_Stalls_Percent_6_Bucket_0: 3034486
Non-critical_ROB_Stalls_Percent_6_Bucket_0: 1349067
Critical_ROB_Stalls_Percent_6_Bucket_1: 4252217
Non-critical_ROB_Stalls_Percent_6_Bucket_1: 178228
Critical_ROB_Stalls_Percent_6_Bucket_2: 7184
Non-critical_ROB_Stalls_Percent_6_Bucket_2: 19840
Critical_ROB_Stalls_Percent_6_Bucket_3: 4
Non-critical_ROB_Stalls_Percent_6_Bucket_3: 18396
Critical_ROB_Stalls_Percent_6_Bucket_4: 1
Non-critical_ROB_Stalls_Percent_6_Bucket_4: 18871
Critical_ROB_Stalls_Percent_6_Bucket_5: 0
Non-critical_ROB_Stalls_Percent_6_Bucket_5: 18725
Critical_ROB_Stalls_Percent_6_Bucket_6: 0
Non-critical_ROB_Stalls_Percent_6_Bucket_6: 22170
Critical_ROB_Stalls_Percent_7_Bucket_0: 3441149
Non-critical_ROB_Stalls_Percent_7_Bucket_0: 942404
Critical_ROB_Stalls_Percent_7_Bucket_1: 4316398
Non-critical_ROB_Stalls_Percent_7_Bucket_1: 114047
Critical_ROB_Stalls_Percent_7_Bucket_2: 14268
Non-critical_ROB_Stalls_Percent_7_Bucket_2: 12756
Critical_ROB_Stalls_Percent_7_Bucket_3: 6588
Non-critical_ROB_Stalls_Percent_7_Bucket_3: 11812
Critical_ROB_Stalls_Percent_7_Bucket_4: 6875
Non-critical_ROB_Stalls_Percent_7_Bucket_4: 11997
Critical_ROB_Stalls_Percent_7_Bucket_5: 7189
Non-critical_ROB_Stalls_Percent_7_Bucket_5: 11536
Critical_ROB_Stalls_Percent_7_Bucket_6: 5751
Non-critical_ROB_Stalls_Percent_7_Bucket_6: 16419
Critical_ROB_Stalls_Percent_8_Bucket_0: 3671010
Non-critical_ROB_Stalls_Percent_8_Bucket_0: 712543
Critical_ROB_Stalls_Percent_8_Bucket_1: 4370173
Non-critical_ROB_Stalls_Percent_8_Bucket_1: 60272
Critical_ROB_Stalls_Percent_8_Bucket_2: 20935
Non-critical_ROB_Stalls_Percent_8_Bucket_2: 6089
Critical_ROB_Stalls_Percent_8_Bucket_3: 13099
Non-critical_ROB_Stalls_Percent_8_Bucket_3: 5301
Critical_ROB_Stalls_Percent_8_Bucket_4: 13221
Non-critical_ROB_Stalls_Percent_8_Bucket_4: 5651
Critical_ROB_Stalls_Percent_8_Bucket_5: 14119
Non-critical_ROB_Stalls_Percent_8_Bucket_5: 4606
Critical_ROB_Stalls_Percent_8_Bucket_6: 13462
Non-critical_ROB_Stalls_Percent_8_Bucket_6: 8708
Average ROB occupancy Load Stall Begin: 46.4048
Average ROB occupancy Load Stall End: 52.3587
Min ROB occupancy Load Stall Begin: 1
Max ROB occupancy Load Stall Begin: 352
Min ROB occupancy Load Stall End: 1
Max ROB occupancy Load Stall End: 352
Average ROB occupancy Critical Load Stall Begin: -nan
Average ROB occupancy Critical Load Stall End: -nan
Min ROB occupancy Critical Load Stall Begin: 400
Max ROB occupancy Critical Load Stall Begin: 0
Min ROB occupancy Critical Load Stall End: 400
Max ROB occupancy Critical Load Stall End: 0
 ROB Load Stall Begin Bucket Count 0: 5143336
 ROB Load Stall End Bucket Count 0: 4383553
 ROB Critical Load Stall Begin Bucket Count 0: 0
 ROB Critical Load Stall End Bucket Count 0: 0
 ROB Load Stall Begin Bucket Count 1: 3691072
 ROB Load Stall End Bucket Count 1: 4430445
 ROB Critical Load Stall Begin Bucket Count 1: 0
 ROB Critical Load Stall End Bucket Count 1: 0
 ROB Load Stall Begin Bucket Count 2: 19550
 ROB Load Stall End Bucket Count 2: 27024
 ROB Critical Load Stall Begin Bucket Count 2: 0
 ROB Critical Load Stall End Bucket Count 2: 0
 ROB Load Stall Begin Bucket Count 3: 17491
 ROB Load Stall End Bucket Count 3: 18400
 ROB Critical Load Stall Begin Bucket Count 3: 0
 ROB Critical Load Stall End Bucket Count 3: 0
 ROB Load Stall Begin Bucket Count 4: 16816
 ROB Load Stall End Bucket Count 4: 18872
 ROB Critical Load Stall Begin Bucket Count 4: 0
 ROB Critical Load Stall End Bucket Count 4: 0
 ROB Load Stall Begin Bucket Count 5: 17042
 ROB Load Stall End Bucket Count 5: 18725
 ROB Critical Load Stall Begin Bucket Count 5: 0
 ROB Critical Load Stall End Bucket Count 5: 0
 ROB Load Stall Begin Bucket Count 6: 13882
 ROB Load Stall End Bucket Count 6: 22170
 ROB Critical Load Stall Begin Bucket Count 6: 0
 ROB Critical Load Stall End Bucket Count 6: 0
PIST Tag Read Accesses: 143912
PIST Read Accesses: 71956
PIST Tag Write Accesses: 143912
PIST Write Accesses: 71956
Criticality detector called times: 484821
Max global_stall_cycles_count: 216726
Threshold Modified: 3 times, factor: -3
Sturdy critical IP cache stats: 
 Unused entries: 0
CIC Tag Read Accesses: 0
CIC Read Accesses: 0
CIC Tag Write Accesses: 0
CIC Write Accesses: 0
Wobbly critical IP cache stats: 
 Unused entries: 98
CIC Tag Read Accesses: 207974711
CIC Read Accesses: 0
CIC Tag Write Accesses: 3543099
CIC Write Accesses: 0
ITLB TOTAL     ACCESS:   16849287  HIT:   16849285  MISS:          2  HIT %:        100  MISS %: 1.18699e-05   MPKI: 2e-05
ITLB LOAD TRANSLATION ACCESS:   16849287  HIT:   16849285  MISS:          2  HIT %:        100  MISS %: 1.18699e-05   MPKI: 2e-05
ITLB PREFETCH  REQUESTED:          0  ISSUED:          0  USEFUL:          0  USELESS:          0
ITLB USEFUL LOAD PREFETCHES:          0 PREFETCH ISSUED TO LOWER LEVEL:          0  ACCURACY: -nan
ITLB TIMELY PREFETCHES:          0 LATE PREFETCHES: 0 DROPPED PREFETCHES: 0
ITLB PREFETCHES SAME FILL-ORIGIN LEVEL: 0 DIFFERENT FILL-ORIGIN LEVEL: 0
ITLB AVERAGE MISS LATENCY: 378.5 cycles
ITLB RQ	ACCESS:   21395082	FORWARD:          0	MERGED:    4545796	TO_CACHE:   16849286

DTLB TOTAL     ACCESS:   28378957  HIT:   28361606  MISS:      17351  HIT %:    99.9389  MISS %:  0.0611404   MPKI: 0.17351
DTLB LOAD TRANSLATION ACCESS:   28378957  HIT:   28361606  MISS:      17351  HIT %:    99.9389  MISS %:  0.0611404   MPKI: 0.17351
DTLB PREFETCH  REQUESTED:          0  ISSUED:          0  USEFUL:          0  USELESS:          0
DTLB USEFUL LOAD PREFETCHES:          0 PREFETCH ISSUED TO LOWER LEVEL:          0  ACCURACY: -nan
DTLB TIMELY PREFETCHES:          0 LATE PREFETCHES: 0 DROPPED PREFETCHES: 0
DTLB PREFETCHES SAME FILL-ORIGIN LEVEL: 0 DIFFERENT FILL-ORIGIN LEVEL: 0
DTLB AVERAGE MISS LATENCY: 159.791 cycles
DTLB RQ	ACCESS:   31940096	FORWARD:          0	MERGED:    3541899	TO_CACHE:   28398197

STLB TOTAL     ACCESS:      17353  HIT:        580  MISS:      16773  HIT %:    3.34236  MISS %:    96.6576   MPKI: 0.16773
STLB LOAD TRANSLATION ACCESS:      17353  HIT:        580  MISS:      16773  HIT %:    3.34236  MISS %:    96.6576   MPKI: 0.16773
STLB PREFETCH  REQUESTED:          0  ISSUED:          0  USEFUL:          0  USELESS:          0
STLB USEFUL LOAD PREFETCHES:          0 PREFETCH ISSUED TO LOWER LEVEL:          0  ACCURACY: -nan
STLB TIMELY PREFETCHES:          0 LATE PREFETCHES: 0 DROPPED PREFETCHES: 0
STLB PREFETCHES SAME FILL-ORIGIN LEVEL: 0 DIFFERENT FILL-ORIGIN LEVEL: 0
STLB AVERAGE MISS LATENCY: 155.776 cycles
STLB RQ	ACCESS:      17353	FORWARD:          0	MERGED:          0	TO_CACHE:      17353

STLB Hit, L1D data hit: 0
STLB Hit, L2C data hit: 0
STLB Hit, LLC data hit: 0
STLB Hit, LLC data miss: 0
STLB STLB hints to L2: 0
L1D TOTAL     ACCESS:   30667524  HIT:   29974723  MISS:     692801  HIT %:    97.7409  MISS %:    2.25907   MPKI: 6.92801
L1D LOAD      ACCESS:   20085857  HIT:   19631369  MISS:     454488  HIT %:    97.7373  MISS %:    2.26273   MPKI: 4.54488
L1D RFO       ACCESS:   10581667  HIT:   10343354  MISS:     238313  HIT %:    97.7479  MISS %:    2.25213   MPKI: 2.38313
L1D PREFETCH  REQUESTED:          0  ISSUED:          0  USEFUL:          0  USELESS:          0
L1D USEFUL LOAD PREFETCHES:          0 PREFETCH ISSUED TO LOWER LEVEL:          0  ACCURACY: -nan
L1D TIMELY PREFETCHES:          0 LATE PREFETCHES: 0 DROPPED PREFETCHES: 0
L1D PREFETCHES SAME FILL-ORIGIN LEVEL: 0 DIFFERENT FILL-ORIGIN LEVEL: 0
L1D AVERAGE MISS LATENCY: 119.562 cycles
L1D RQ	ACCESS:   24458213	FORWARD:          0	MERGED:    4273926	TO_CACHE:   20169394
L1D WQ	ACCESS:   12476628	FORWARD:      14893	MERGED:     705926	TO_CACHE:   11770702

L1D UNIQUE REGIONS ACCESSED: 0
L1D REGIONS CONFLICTS: 0
L1D Cross Page Prefetch Requests: 0
L1D Same Page Prefetch Requests: 0
L1D ROI Sum of L1D PQ occupancy: 0
L1D PREFETCHES PUSHED FROM L2C: 0
L1I TOTAL     ACCESS:   21395072  HIT:   21395036  MISS:         36  HIT %:    99.9998  MISS %: 0.000168263   MPKI: 0.00036
L1I LOAD      ACCESS:   21395072  HIT:   21395036  MISS:         36  HIT %:    99.9998  MISS %: 0.000168263   MPKI: 0.00036
L1I PREFETCH  REQUESTED:          0  ISSUED:          0  USEFUL:          0  USELESS:          0
L1I USEFUL LOAD PREFETCHES:          0 PREFETCH ISSUED TO LOWER LEVEL:          0  ACCURACY: -nan
L1I TIMELY PREFETCHES:          0 LATE PREFETCHES: 0 DROPPED PREFETCHES: 0
L1I PREFETCHES SAME FILL-ORIGIN LEVEL: 0 DIFFERENT FILL-ORIGIN LEVEL: 0
L1I AVERAGE MISS LATENCY: 230.167 cycles
L1I RQ	ACCESS:   28130224	FORWARD:          0	MERGED:    6735142	TO_CACHE:   21395082

BTB TOTAL     ACCESS:    6508269  HIT:    5802287  MISS:     705982  HIT %:    89.1525  MISS %:    10.8475   MPKI: 7.05982
BTB BRANCH_DIRECT_JUMP	ACCESS:     705946  HIT:     705938  MISS:          8
BTB BRANCH_INDIRECT	ACCESS:          0  HIT:          0  MISS:          0
BTB BRANCH_CONDITIONAL	ACCESS:    2978604  HIT:    2978573  MISS:         31
BTB BRANCH_DIRECT_CALL	ACCESS:    1411860  HIT:    1411850  MISS:         10
BTB BRANCH_INDIRECT_CALL	ACCESS:          0  HIT:          0  MISS:          0
BTB BRANCH_RETURN	ACCESS:    1411859  HIT:     705926  MISS:     705933
BTB BRANCH_OTHER ACCESS:          0  HIT:          0  MISS:          0

L2C TOTAL     ACCESS:    1487783  HIT:     740311  MISS:     747472  HIT %:    49.7593  MISS %:    50.2407   MPKI: 7.47472
L2C LOAD      ACCESS:     454524  HIT:     428047  MISS:      26477  HIT %:    94.1748  MISS %:    5.82521   MPKI: 0.26477
L2C DATA LOAD MPKI: 0.26441
L2C INSTRUCTION LOAD MPKI: 0.00036
L2C RFO       ACCESS:     238313  HIT:          0  MISS:     238313  HIT %:          0  MISS %:        100   MPKI: 2.38313
L2C PREFETCH  ACCESS:     539959  HIT:      74951  MISS:     465008  HIT %:    13.8809  MISS %:    86.1191   MPKI: 4.65008
L2C DATA PREFETCH MPKI: 4.65008
L2C INSTRUCTION PREFETCH MPKI: 0
L2C WRITEBACK ACCESS:     238161  HIT:     224164  MISS:      13997  HIT %:    94.1229  MISS %:    5.87712   MPKI: 0.13997
L2C LOAD TRANSLATION ACCESS:      16826  HIT:      13149  MISS:       3677  HIT %:    78.1469  MISS %:    21.8531   MPKI: 0.03677
L2C PREFETCH  REQUESTED:     560268  ISSUED:     560268  USEFUL:     428043  USELESS:      36998
L2C USEFUL LOAD PREFETCHES:     428043 PREFETCH ISSUED TO LOWER LEVEL:     471050  ACCURACY: 90.87
L2C TIMELY PREFETCHES:     428043 LATE PREFETCHES: 6042 DROPPED PREFETCHES: 0
L2C PREFETCHES SAME FILL-ORIGIN LEVEL: 471050 DIFFERENT FILL-ORIGIN LEVEL: 0
L2C AVERAGE MISS LATENCY: 286.127 cycles
L2C RQ	ACCESS:     709663	FORWARD:          0	MERGED:          0	TO_CACHE:     709663
L2C WQ	ACCESS:     238161	FORWARD:          0	MERGED:          0	TO_CACHE:     238161
L2C PQ	ACCESS:     560268	FORWARD:          0	MERGED:        293	TO_CACHE:     559975

L2C Instructions Evicting Data 36
L2C Translations Evicting Data 3670
L2C Data Evicting Data 726123
L2C Instructions Evicting Instructions 0
L2C Translations Evicting Instructions 0
L2C Data Evicting Instructions 36
L2C Instructions Evicting Translations 0
L2C Translations Evicting Translations 7
L2C Data Evicting Translations 3603
L2C Dense regions hint from L2: 0
PSCL5 TOTAL     ACCESS:      16773  HIT:      16773  MISS:          0  HIT %:        100  MISS %:          0   MPKI: 0
PSCL5 LOAD TRANSLATION ACCESS:      16773  HIT:      16773  MISS:          0  HIT %:        100  MISS %:          0   MPKI: 0
PSCL5 PREFETCH  REQUESTED:          0  ISSUED:          0  USEFUL:          0  USELESS:          0
PSCL5 USEFUL LOAD PREFETCHES:          0 PREFETCH ISSUED TO LOWER LEVEL:          0  ACCURACY: -nan
PSCL5 TIMELY PREFETCHES:          0 LATE PREFETCHES: 0 DROPPED PREFETCHES: 0
PSCL5 PREFETCHES SAME FILL-ORIGIN LEVEL: 0 DIFFERENT FILL-ORIGIN LEVEL: 0

PSCL4 TOTAL     ACCESS:      16773  HIT:      16773  MISS:          0  HIT %:        100  MISS %:          0   MPKI: 0
PSCL4 LOAD TRANSLATION ACCESS:      16773  HIT:      16773  MISS:          0  HIT %:        100  MISS %:          0   MPKI: 0
PSCL4 PREFETCH  REQUESTED:          0  ISSUED:          0  USEFUL:          0  USELESS:          0
PSCL4 USEFUL LOAD PREFETCHES:          0 PREFETCH ISSUED TO LOWER LEVEL:          0  ACCURACY: -nan
PSCL4 TIMELY PREFETCHES:          0 LATE PREFETCHES: 0 DROPPED PREFETCHES: 0
PSCL4 PREFETCHES SAME FILL-ORIGIN LEVEL: 0 DIFFERENT FILL-ORIGIN LEVEL: 0

PSCL3 TOTAL     ACCESS:      16423  HIT:      16417  MISS:          6  HIT %:    99.9635  MISS %:  0.0365341   MPKI: 6e-05
PSCL3 LOAD TRANSLATION ACCESS:      16423  HIT:      16417  MISS:          6  HIT %:    99.9635  MISS %:  0.0365341   MPKI: 6e-05
PSCL3 PREFETCH  REQUESTED:          0  ISSUED:          0  USEFUL:          0  USELESS:          0
PSCL3 USEFUL LOAD PREFETCHES:          0 PREFETCH ISSUED TO LOWER LEVEL:          0  ACCURACY: -nan
PSCL3 TIMELY PREFETCHES:          0 LATE PREFETCHES: 0 DROPPED PREFETCHES: 0
PSCL3 PREFETCHES SAME FILL-ORIGIN LEVEL: 0 DIFFERENT FILL-ORIGIN LEVEL: 0

PSCL2 TOTAL     ACCESS:      16773  HIT:      16697  MISS:         76  HIT %:    99.5469  MISS %:   0.453109   MPKI: 0.00076
PSCL2 LOAD TRANSLATION ACCESS:      16773  HIT:      16697  MISS:         76  HIT %:    99.5469  MISS %:   0.453109   MPKI: 0.00076
PSCL2 PREFETCH  REQUESTED:          0  ISSUED:          0  USEFUL:          0  USELESS:          0
PSCL2 USEFUL LOAD PREFETCHES:          0 PREFETCH ISSUED TO LOWER LEVEL:          0  ACCURACY: -nan
PSCL2 TIMELY PREFETCHES:          0 LATE PREFETCHES: 0 DROPPED PREFETCHES: 0
PSCL2 PREFETCHES SAME FILL-ORIGIN LEVEL: 0 DIFFERENT FILL-ORIGIN LEVEL: 0

LLC TOTAL     ACCESS:     970992  HIT:     234253  MISS:     736739  HIT %:    24.1251  MISS %:    75.8749   MPKI: 7.36739
LLC LOAD      ACCESS:      20435  HIT:         18  MISS:      20417  HIT %:  0.0880842  MISS %:    99.9119   MPKI: 0.20417
LLC RFO       ACCESS:     238313  HIT:          0  MISS:     238313  HIT %:          0  MISS %:        100   MPKI: 2.38313
LLC PREFETCH  ACCESS:     471050  HIT:        393  MISS:     470657  HIT %:  0.0834306  MISS %:    99.9166   MPKI: 4.70657
LLC WRITEBACK ACCESS:     237517  HIT:     233739  MISS:       3778  HIT %:    98.4094  MISS %:    1.59062   MPKI: 0.03778
LLC LOAD TRANSLATION ACCESS:       3677  HIT:        103  MISS:       3574  HIT %:     2.8012  MISS %:    97.1988   MPKI: 0.03574
LLC PREFETCH  REQUESTED:          0  ISSUED:          0  USEFUL:         12  USELESS:     472591
LLC USEFUL LOAD PREFETCHES:         12 PREFETCH ISSUED TO LOWER LEVEL:     470657  ACCURACY: 0.00254963
LLC TIMELY PREFETCHES:         12 LATE PREFETCHES: 0 DROPPED PREFETCHES: 0
LLC PREFETCHES SAME FILL-ORIGIN LEVEL: 0 DIFFERENT FILL-ORIGIN LEVEL: 0
LLC AVERAGE MISS LATENCY: 261.661 cycles
LLC RQ	ACCESS:     262425	FORWARD:          0	MERGED:          0	TO_CACHE:     262425
LLC WQ	ACCESS:     237517	FORWARD:          0	MERGED:          0	TO_CACHE:     237517
LLC PQ	ACCESS:     471050	FORWARD:          0	MERGED:          0	TO_CACHE:     471050

LLC Dense regions hint to LLC: 0

RAW hits: 2886459
Loads Generated: 27344671
Loads sent to L1D: 24458213
Stores Generated: 12476624
Stores sent to L1D: 12476628
Major fault: 0 Minor fault: 14234
Allocated PAGES: 14234
------------------
Depth Distribution
------------------
depth 0: 5875
depth 1: 22
depth 2: 1
depth 3: 53
depth 4: 234
depth 5: 247
depth 6: 383
depth 7: 78868
depth 8: 325247
depth 9: 144506
depth 10: 18223
depth 11: 48004
depth 12: 6649
depth 13: 1276
depth 14: 4280
depth 15: 223
depth 16: 82
depth 17: 26
depth 18: 9
depth 19: 0
depth 20: 0
depth 21: 0
depth 22: 0
depth 23: 0
depth 24: 0
depth 25: 0
depth 26: 0
depth 27: 0
depth 28: 0
depth 29: 0
Total: 634208
------------------
ST read accesses: 442708
ST write accesses: 11780
PT read accesses: 21380593
PT write accesses: 657759
FILTER read accesses: 4612724
FILTER write accesses: 2476952
GHR read accesses: 1229582
GHR write accesses: 294131
PERC read accesses: 154920906
PERC write accesses: 4999522
GHR counter read accesses: 908976
GHR counter write accesses: 1481452
GHR ip read accesses: 3044268
GHR ip write accesses: 1817952
ST tag read accesses: 180596083
ST tag write accesses: 4770996

DRAM Statistics
 CHANNEL 0
 RQ ROW_BUFFER_HIT:     230241  ROW_BUFFER_MISS:     502720
 DBUS_CONGESTED:         23
 WQ ROW_BUFFER_HIT:      29069  ROW_BUFFER_MISS:     207231  FULL:          0

 AVG_CONGESTED_CYCLE: 5
 All warmup complete: 2
Channel 0 Bank busy for read cycles: 0
Channel 0 Bank busy for write cycles: 0
Channel 0
Rank 0
0banks busy for read cycles: 149754627
0banks busy for write cycles: 30914
1banks busy for read cycles: 9909455
1banks busy for write cycles: 4391077
2banks busy for read cycles: 2422622
2banks busy for write cycles: 404014
3banks busy for read cycles: 2258287
3banks busy for write cycles: 125578
4banks busy for read cycles: 2615223
4banks busy for write cycles: 85112
5banks busy for read cycles: 2594970
5banks busy for write cycles: 64684
6banks busy for read cycles: 2275811
6banks busy for write cycles: 62592
7banks busy for read cycles: 1948763
7banks busy for write cycles: 380188
8banks busy for read cycles: 2327516
8banks busy for write cycles: 4425519

CPU 0 Branch Prediction Accuracy: 99.971% MPKI: 0.03111 Average ROB Occupancy at Mispredict: 51.8795
Branch types
NOT_BRANCH: 89254039 89.254%
BRANCH_DIRECT_JUMP: 705946 0.705946%
BRANCH_INDIRECT: 0 0%
BRANCH_CONDITIONAL: 7215955 7.21595%
BRANCH_DIRECT_CALL: 1411860 1.41186%
BRANCH_INDIRECT_CALL: 0 0%
BRANCH_RETURN: 1411859 1.41186%
BRANCH_OTHER: 0 0%

DRAM PAGES: 1048576
Allocated PAGES: 14234
