Initialize SIGNATURE TABLE
ST_SET: 1
ST_WAY: 256
ST_TAG_BIT: 16
ST_TAG_MASK: ffff

Initialize PATTERN TABLE
PT_SET: 512
PT_WAY: 4
SIG_DELTA_BIT: 7
C_SIG_BIT: 4
C_DELTA_BIT: 4

Initialize PREFETCH FILTER
FILTER_SET: 1024

*** ChampSim Multicore Out-of-Order Simulator ***

Warmup Instructions: 50000000
Simulation Instructions: 100000000
Number of CPUs: 1
LLC sets: 2048
LLC ways: 16
Off-chip DRAM Size: 4096 MB Channels: 1 Width: 64-bit Data Rate: 6400 MT/s
CPU 0 runs ../SPEC2017//654.roms_s-1390B.champsimtrace.xz
.xz
NUM_OF_IPS_IN_CRITICAL_IP_TRAINING: 128
NUM_OF_CRITICAL_IP_TRAINING_TABLE_WAYS: 8
NUM_OF_CRITICAL_IP_TRAINING_TABLE_SETS: 16
BTB has LRU replacement policy
ITLB has LRU replacement policy
DTLB has LRU replacement policy
STLB has LRU replacement policy
L1I has LRU replacement policy
L1D has LRU replacement policy
Initialize SRRIP state for L2C
Initialize DRRIP state for LLC
Heartbeat CPU 0 instructions: 10000001 cycles: 3758323 heartbeat IPC: 2.66076 cumulative IPC: 2.66076 (Simulation time: 0 hr 8 min 6 sec) 
Heartbeat CPU 0 instructions: 20000000 cycles: 7254013 heartbeat IPC: 2.86067 cumulative IPC: 2.75709 (Simulation time: 0 hr 12 min 53 sec) 
Heartbeat CPU 0 instructions: 30000003 cycles: 10670739 heartbeat IPC: 2.92678 cumulative IPC: 2.81143 (Simulation time: 0 hr 16 min 29 sec) 
Heartbeat CPU 0 instructions: 40000002 cycles: 14444294 heartbeat IPC: 2.65002 cumulative IPC: 2.76926 (Simulation time: 0 hr 21 min 54 sec) 
Heartbeat CPU 0 instructions: 50000000 cycles: 18781286 heartbeat IPC: 2.30575 cumulative IPC: 2.66222 (Simulation time: 0 hr 27 min 5 sec) 

Warmup complete CPU 0 instructions: 50000002 cycles: 18781287 (Simulation time: 0 hr 27 min 5 sec) 

% increase in all ip prefetch 229.706
% increase in all ip prefetch -0.322432
Heartbeat CPU 0 instructions: 60000001 cycles: 30764193 heartbeat IPC: 0.834522 cumulative IPC: 0.834522 (Simulation time: 0 hr 31 min 6 sec) 
Heartbeat CPU 0 instructions: 70000003 cycles: 42108818 heartbeat IPC: 0.881475 cumulative IPC: 0.857356 (Simulation time: 0 hr 34 min 48 sec) 
Heartbeat CPU 0 instructions: 80000002 cycles: 53446855 heartbeat IPC: 0.881987 cumulative IPC: 0.865412 (Simulation time: 0 hr 38 min 18 sec) 
Heartbeat CPU 0 instructions: 90000003 cycles: 65416743 heartbeat IPC: 0.83543 cumulative IPC: 0.857717 (Simulation time: 0 hr 42 min 36 sec) 
Heartbeat CPU 0 instructions: 100000000 cycles: 78897449 heartbeat IPC: 0.741801 cumulative IPC: 0.831723 (Simulation time: 0 hr 46 min 26 sec) 
Heartbeat CPU 0 instructions: 110000000 cycles: 91774595 heartbeat IPC: 0.77657 cumulative IPC: 0.821993 (Simulation time: 0 hr 49 min 39 sec) 
Heartbeat CPU 0 instructions: 120000001 cycles: 103963709 heartbeat IPC: 0.820404 cumulative IPC: 0.821766 (Simulation time: 0 hr 52 min 7 sec) 
Heartbeat CPU 0 instructions: 130000000 cycles: 115910490 heartbeat IPC: 0.837045 cumulative IPC: 0.823645 (Simulation time: 0 hr 54 min 30 sec) 
Heartbeat CPU 0 instructions: 140000002 cycles: 130016910 heartbeat IPC: 0.708897 cumulative IPC: 0.809093 (Simulation time: 0 hr 57 min 39 sec) 
Heartbeat CPU 0 instructions: 150000001 cycles: 142394309 heartbeat IPC: 0.807924 cumulative IPC: 0.808976 (Simulation time: 0 hr 59 min 34 sec) 
Finished CPU 0 instructions: 100000003 cycles: 123613023 cumulative IPC: 0.808976 (Simulation time: 0 hr 59 min 34 sec) 

ChampSim completed all CPUs

Region of Interest Statistics

CPU 0 cumulative IPC: 0.808976 instructions: 100000003 cycles: 123613023

CPU 0 Average Load ROB stall cycles: 8.43164e+06
CPU 0 Fraction of times ROB stalled by Loads: 11.191
CPU 0 Percentage of Load stall cycles in Total stall cycles: 1.2035e+08
 Total stall cycles: 79332955
 Total load stall cycles: 95476857087306
CPU 0 NUM of IPS identified critical: 105

Threshold modification factor: -1
Max PIST entries: 37
Min PIST entries: 0
Avg PIST entries: 11.6333
Average ROB occupancy Load Stall Begin: 64.775
Average ROB occupancy Load Stall End: 76.91
Min ROB occupancy Load Stall Begin: 1
Max ROB occupancy Load Stall Begin: 351
Min ROB occupancy Load Stall End: 1
Max ROB occupancy Load Stall End: 352
Average ROB occupancy Critical Load Stall Begin: 71.2482
Average ROB occupancy Critical Load Stall End: 85.0604
Min ROB occupancy Critical Load Stall Begin: 5
Max ROB occupancy Critical Load Stall Begin: 351
Min ROB occupancy Critical Load Stall End: 5
Max ROB occupancy Critical Load Stall End: 352
 ROB Load Stall Begin Bucket Count 0: 985342
 ROB Load Stall End Bucket Count 0: 794443
 ROB Critical Load Stall Begin Bucket Count 0: 748583
 ROB Critical Load Stall End Bucket Count 0: 572075
 ROB Load Stall Begin Bucket Count 1: 93397
 ROB Load Stall End Bucket Count 1: 269110
 ROB Critical Load Stall Begin Bucket Count 1: 77621
 ROB Critical Load Stall End Bucket Count 1: 239778
 ROB Load Stall Begin Bucket Count 2: 27232
 ROB Load Stall End Bucket Count 2: 27211
 ROB Critical Load Stall Begin Bucket Count 2: 22238
 ROB Critical Load Stall End Bucket Count 2: 22165
 ROB Load Stall Begin Bucket Count 3: 24140
 ROB Load Stall End Bucket Count 3: 23212
 ROB Critical Load Stall Begin Bucket Count 3: 20617
 ROB Critical Load Stall End Bucket Count 3: 19627
 ROB Load Stall Begin Bucket Count 4: 23937
 ROB Load Stall End Bucket Count 4: 24768
 ROB Critical Load Stall Begin Bucket Count 4: 21030
 ROB Critical Load Stall End Bucket Count 4: 21845
 ROB Load Stall Begin Bucket Count 5: 32309
 ROB Load Stall End Bucket Count 5: 26648
 ROB Critical Load Stall Begin Bucket Count 5: 29671
 ROB Critical Load Stall End Bucket Count 5: 24188
 ROB Load Stall Begin Bucket Count 6: 80869
 ROB Load Stall End Bucket Count 6: 101834
 ROB Critical Load Stall Begin Bucket Count 6: 75177
 ROB Critical Load Stall End Bucket Count 6: 95259
Threshold Modified: 1 times, factor: -1
ITLB TOTAL     ACCESS:   14498235  HIT:   14498230  MISS:          5  HIT %:        100  MISS %: 3.4487e-05   MPKI: 5e-05
ITLB LOAD TRANSLATION ACCESS:   14498235  HIT:   14498230  MISS:          5  HIT %:        100  MISS %: 3.4487e-05   MPKI: 5e-05
ITLB AVERAGE MISS LATENCY: 389.2 cycles
ITLB RQ	ACCESS:   17888931	FORWARD:          0	MERGED:    3390696	TO_CACHE:   14498235

DTLB TOTAL     ACCESS:   20958013  HIT:   20911108  MISS:      46905  HIT %:    99.7762  MISS %:   0.223805   MPKI: 0.46905
DTLB LOAD TRANSLATION ACCESS:   20958013  HIT:   20911108  MISS:      46905  HIT %:    99.7762  MISS %:   0.223805   MPKI: 0.46905
DTLB AVERAGE MISS LATENCY: 118.486 cycles
DTLB RQ	ACCESS:   22272033	FORWARD:          0	MERGED:    1280146	TO_CACHE:   20991887

STLB TOTAL     ACCESS:      46910  HIT:       1813  MISS:      45097  HIT %:    3.86485  MISS %:    96.1352   MPKI: 0.45097
STLB LOAD TRANSLATION ACCESS:      46910  HIT:       1813  MISS:      45097  HIT %:    3.86485  MISS %:    96.1352   MPKI: 0.45097
STLB AVERAGE MISS LATENCY: 113.671 cycles
STLB RQ	ACCESS:      46910	FORWARD:          0	MERGED:          0	TO_CACHE:      46910

STLB Hit, L1D data hit: 0
STLB Hit, L2C data hit: 0
STLB Hit, LLC data hit: 0
STLB Hit, LLC data miss: 0
STLB STLB hints to L2: 0
L1D TOTAL     ACCESS:   19076875  HIT:   16528849  MISS:    2548026  HIT %:    86.6434  MISS %:    13.3566   MPKI: 25.4803
L1D LOAD      ACCESS:   17646032  HIT:   15693944  MISS:    1952088  HIT %:    88.9375  MISS %:    11.0625   MPKI: 19.5209
L1D RFO       ACCESS:    1430843  HIT:     834905  MISS:     595938  HIT %:    58.3506  MISS %:    41.6494   MPKI: 5.95938
L1D AVERAGE MISS LATENCY: 99.444 cycles
L1D RQ	ACCESS:   29525892	FORWARD:          0	MERGED:   11350992	TO_CACHE:   18173895
L1D WQ	ACCESS:    4098138	FORWARD:       1005	MERGED:          0	TO_CACHE:    4098138

L1D UNIQUE REGIONS ACCESSED: 0
L1D REGIONS CONFLICTS: 0
L1D Cross Page Prefetch Requests: 0
L1D Same Page Prefetch Requests: 0
L1D ROI Sum of L1D PQ occupancy: 0
L1D PREFETCHES PUSHED FROM L2C: 0
L1I TOTAL     ACCESS:   17888755  HIT:   17888423  MISS:        332  HIT %:    99.9981  MISS %: 0.00185591   MPKI: 0.00332
L1I LOAD      ACCESS:   17888755  HIT:   17888423  MISS:        332  HIT %:    99.9981  MISS %: 0.00185591   MPKI: 0.00332
L1I AVERAGE MISS LATENCY: 278.575 cycles
L1I RQ	ACCESS:   25645693	FORWARD:          0	MERGED:    7756762	TO_CACHE:   17888931

BTB TOTAL     ACCESS:    3186003  HIT:    3185934  MISS:         69  HIT %:    99.9978  MISS %: 0.00216572   MPKI: 0.00069
BTB BRANCH_DIRECT_JUMP	ACCESS:        512  HIT:        511  MISS:          1
BTB BRANCH_INDIRECT	ACCESS:          0  HIT:          0  MISS:          0
BTB BRANCH_CONDITIONAL	ACCESS:    3185485  HIT:    3185423  MISS:         62
BTB BRANCH_DIRECT_CALL	ACCESS:          3  HIT:          0  MISS:          3
BTB BRANCH_INDIRECT_CALL	ACCESS:          0  HIT:          0  MISS:          0
BTB BRANCH_RETURN	ACCESS:          3  HIT:          0  MISS:          3
BTB BRANCH_OTHER ACCESS:          0  HIT:          0  MISS:          0

L2C TOTAL     ACCESS:    5758265  HIT:    3430736  MISS:    2327529  HIT %:    59.5793  MISS %:    40.4207   MPKI: 23.2753
L2C LOAD      ACCESS:    1952419  HIT:    1270417  MISS:     682002  HIT %:    65.0689  MISS %:    34.9311   MPKI: 6.82002
L2C DATA LOAD MPKI: 6.8167
L2C INSTRUCTION LOAD MPKI: 0.00332
L2C RFO       ACCESS:     595938  HIT:          8  MISS:     595930  HIT %: 0.00134242  MISS %:    99.9987   MPKI: 5.9593
L2C PREFETCH  ACCESS:    2433938  HIT:    1408242  MISS:    1025696  HIT %:    57.8586  MISS %:    42.1414   MPKI: 10.257
L2C DATA PREFETCH MPKI: 10.257
L2C INSTRUCTION PREFETCH MPKI: 0
L2C WRITEBACK ACCESS:     730792  HIT:     715520  MISS:      15272  HIT %:    97.9102  MISS %:    2.08979   MPKI: 0.15272
L2C LOAD TRANSLATION ACCESS:      45178  HIT:      36549  MISS:       8629  HIT %:       80.9  MISS %:       19.1   MPKI: 0.08629
L2C PREFETCH  REQUESTED:   15297852  ISSUED:   14459538  USEFUL:    1017730  USELESS:       7917
L2C USEFUL LOAD PREFETCHES:    1017730 PREFETCH ISSUED TO LOWER LEVEL:   12339114  ACCURACY: 8.248
L2C TIMELY PREFETCHES:    1017730 LATE PREFETCHES: 94390 DROPPED PREFETCHES: 0
L2C PREFETCHES SAME FILL-ORIGIN LEVEL: 1120086 DIFFERENT FILL-ORIGIN LEVEL: 11219028
L2C AVERAGE MISS LATENCY: 110.311 cycles
L2C RQ	ACCESS:    2593538	FORWARD:          0	MERGED:          0	TO_CACHE:    2593537
L2C WQ	ACCESS:     730792	FORWARD:          1	MERGED:          0	TO_CACHE:     730792
L2C PQ	ACCESS:   14459538	FORWARD:          0	MERGED:     604132	TO_CACHE:   13855406

L2C Instructions Evicting Data331
L2C Translations Evicting Data8585
L2C Data Evicting Data2294476
L2C Instructions Evicting Instructions0
L2C Translations Evicting Instructions7
L2C Data Evicting Instructions324
L2C Instructions Evicting Translations1
L2C Translations Evicting Translations37
L2C Data Evicting Translations8496
L2C Dense regions hint from L2: 0
PSCL5 TOTAL     ACCESS:      45097  HIT:      45097  MISS:          0  HIT %:        100  MISS %:          0   MPKI: 0
PSCL5 LOAD TRANSLATION ACCESS:      45097  HIT:      45097  MISS:          0  HIT %:        100  MISS %:          0   MPKI: 0

PSCL4 TOTAL     ACCESS:      45097  HIT:      45097  MISS:          0  HIT %:        100  MISS %:          0   MPKI: 0
PSCL4 LOAD TRANSLATION ACCESS:      45097  HIT:      45097  MISS:          0  HIT %:        100  MISS %:          0   MPKI: 0

PSCL3 TOTAL     ACCESS:      44836  HIT:      44834  MISS:          2  HIT %:    99.9955  MISS %:  0.0044607   MPKI: 2e-05
PSCL3 LOAD TRANSLATION ACCESS:      44836  HIT:      44834  MISS:          2  HIT %:    99.9955  MISS %:  0.0044607   MPKI: 2e-05

PSCL2 TOTAL     ACCESS:      45097  HIT:      44993  MISS:        104  HIT %:    99.7694  MISS %:   0.230614   MPKI: 0.00104
PSCL2 LOAD TRANSLATION ACCESS:      45097  HIT:      44993  MISS:        104  HIT %:    99.7694  MISS %:   0.230614   MPKI: 0.00104

LLC TOTAL     ACCESS:   12979316  HIT:   10481432  MISS:    2497884  HIT %:    80.7549  MISS %:    19.2451   MPKI: 24.9788
LLC LOAD      ACCESS:     587612  HIT:     479916  MISS:     107696  HIT %:    81.6723  MISS %:    18.3277   MPKI: 1.07696
LLC RFO       ACCESS:     595930  HIT:         34  MISS:     595896  HIT %: 0.00570537  MISS %:    99.9943   MPKI: 5.95896
LLC PREFETCH  ACCESS:   11055488  HIT:    9385404  MISS:    1670084  HIT %:    84.8936  MISS %:    15.1064   MPKI: 16.7008
LLC WRITEBACK ACCESS:     731657  HIT:     615939  MISS:     115718  HIT %:    84.1841  MISS %:    15.8159   MPKI: 1.15718
LLC LOAD TRANSLATION ACCESS:       8629  HIT:        139  MISS:       8490  HIT %:    1.61085  MISS %:    98.3892   MPKI: 0.0849
LLC AVERAGE MISS LATENCY: 236.046 cycles
LLC RQ	ACCESS:    1192172	FORWARD:          0	MERGED:          0	TO_CACHE:    1192172
LLC WQ	ACCESS:     731657	FORWARD:          0	MERGED:          0	TO_CACHE:     731657
LLC PQ	ACCESS:   12339114	FORWARD:          0	MERGED:     181811	TO_CACHE:   12157303

LLC Dense regions hint to LLC: 0

RAW hits: 9070
Loads Generated: 29534975
Loads sent to L1D: 29525892
Stores Generated: 4098297
Stores sent to L1D: 4098298
Major fault: 0 Minor fault: 39257
Allocated PAGES: 39257
------------------
Depth Distribution
------------------
depth 0: 0
depth 1: 3115146
depth 2: 3027982
depth 3: 2942058
depth 4: 2851562
depth 5: 2728615
depth 6: 2534611
depth 7: 2208125
depth 8: 1696924
depth 9: 1197601
depth 10: 748482
depth 11: 407039
depth 12: 203001
depth 13: 76150
depth 14: 19832
depth 15: 19306
depth 16: 48
depth 17: 0
depth 18: 0
depth 19: 0
depth 20: 0
depth 21: 0
depth 22: 0
depth 23: 0
depth 24: 0
depth 25: 0
depth 26: 0
depth 27: 0
depth 28: 0
depth 29: 0
Total: 23776482
-----------------------------
-----------------------------
	Captured at Filter
-----------------------------
depth 0: 0
depth 1: 96159
depth 2: 89736
depth 3: 86609
depth 4: 83742
depth 5: 79501
depth 6: 73358
depth 7: 63953
depth 8: 46710
depth 9: 32834
depth 10: 15590
depth 11: 5773
depth 12: 1600
depth 13: 358
depth 14: 95
depth 15: 89
depth 16: 0
depth 17: 0
depth 18: 0
depth 19: 0
depth 20: 0
depth 21: 0
depth 22: 0
depth 23: 0
depth 24: 0
depth 25: 0
depth 26: 0
depth 27: 0
depth 28: 0
depth 29: 0
-----------------------------
-----------------------------
		Lost at Page
-----------------------------
depth 0: 0
depth 1: 52246
depth 2: 103151
depth 3: 154163
depth 4: 205200
depth 5: 255331
depth 6: 297309
depth 7: 313166
depth 8: 288974
depth 9: 241222
depth 10: 168539
depth 11: 101114
depth 12: 53354
depth 13: 20002
depth 14: 5701
depth 15: 6090
depth 16: 2
depth 17: 0
depth 18: 0
depth 19: 0
depth 20: 0
depth 21: 0
depth 22: 0
depth 23: 0
depth 24: 0
depth 25: 0
depth 26: 0
depth 27: 0
depth 28: 0
depth 29: 0
-----------------------------
-----------------------------
	Lost due to PQ Size
-----------------------------
1853517
-----------------------------
ST read accesses: 1915499
ST write accesses: 36588
PT read accesses: 95212448
PT write accesses: 2859359
FILTER read accesses: 19981192
FILTER write accesses: 4937488
GHR read accesses: 7721783
GHR write accesses: 1385103
GHR counter read accesses: 80030982
GHR counter write accesses: 4599398
ST tag read accesses: 769059945
ST tag write accesses: 18486745

DRAM Statistics
 CHANNEL 0
 RQ ROW_BUFFER_HIT:     324416  ROW_BUFFER_MISS:    2057750
 DBUS_CONGESTED:        163
 WQ ROW_BUFFER_HIT:     132613  ROW_BUFFER_MISS:     604178  FULL:          0

 AVG_CONGESTED_CYCLE: 4
 All warmup complete: 2
Channel 0 Bank busy for read cycles: 0
Channel 0 Bank busy for write cycles: 0
Channel 0
Rank 0
0banks busy for read cycles: 8997152
0banks busy for write cycles: 12651
1banks busy for read cycles: 18439601
1banks busy for write cycles: 1784547
2banks busy for read cycles: 16875142
2banks busy for write cycles: 694909
3banks busy for read cycles: 13925837
3banks busy for write cycles: 561702
4banks busy for read cycles: 12020334
4banks busy for write cycles: 540214
5banks busy for read cycles: 8864694
5banks busy for write cycles: 588805
6banks busy for read cycles: 5778468
6banks busy for write cycles: 704767
7banks busy for read cycles: 4728303
7banks busy for write cycles: 1866790
8banks busy for read cycles: 10137548
8banks busy for write cycles: 17091560

CPU 0 Branch Prediction Accuracy: 99.74% MPKI: 0.08327 Average ROB Occupancy at Mispredict: 108.938
Branch types
NOT_BRANCH: 96797549 96.7975%
BRANCH_DIRECT_JUMP: 512 0.000512%
BRANCH_INDIRECT: 0 0%
BRANCH_CONDITIONAL: 3202246 3.20225%
BRANCH_DIRECT_CALL: 3 3e-06%
BRANCH_INDIRECT_CALL: 0 0%
BRANCH_RETURN: 3 3e-06%
BRANCH_OTHER: 0 0%

DRAM PAGES: 1048576
Allocated PAGES: 39257
