Initialize SIGNATURE TABLE
ST_SET: 1
ST_WAY: 256
ST_TAG_BIT: 16
ST_TAG_MASK: ffff

Initialize PATTERN TABLE
PT_SET: 512
PT_WAY: 4
SIG_DELTA_BIT: 7
C_SIG_BIT: 4
C_DELTA_BIT: 4

Initialize PREFETCH FILTER
FILTER_SET: 1024

*** ChampSim Multicore Out-of-Order Simulator ***

Warmup Instructions: 50000000
Simulation Instructions: 100000000
Number of CPUs: 1
LLC sets: 2048
LLC ways: 16
Off-chip DRAM Size: 4096 MB Channels: 1 Width: 64-bit Data Rate: 6400 MT/s
CPU 0 runs ../SPEC2017//654.roms_s-1070B.champsimtrace.xz
.xz
NUM_OF_IPS_IN_CRITICAL_IP_TRAINING: 128
NUM_OF_CRITICAL_IP_TRAINING_TABLE_WAYS: 8
NUM_OF_CRITICAL_IP_TRAINING_TABLE_SETS: 16
BTB has LRU replacement policy
ITLB has LRU replacement policy
DTLB has LRU replacement policy
STLB has LRU replacement policy
L1I has LRU replacement policy
L1D has LRU replacement policy
Initialize SRRIP state for L2C
Initialize DRRIP state for LLC
Heartbeat CPU 0 instructions: 10000002 cycles: 3115449 heartbeat IPC: 3.20981 cumulative IPC: 3.20981 (Simulation time: 0 hr 6 min 35 sec) 
Heartbeat CPU 0 instructions: 20000002 cycles: 6334705 heartbeat IPC: 3.10631 cumulative IPC: 3.15721 (Simulation time: 0 hr 12 min 37 sec) 
Heartbeat CPU 0 instructions: 30000003 cycles: 9366909 heartbeat IPC: 3.29793 cumulative IPC: 3.20276 (Simulation time: 0 hr 17 min 45 sec) 
Heartbeat CPU 0 instructions: 40000001 cycles: 12671456 heartbeat IPC: 3.02613 cumulative IPC: 3.1567 (Simulation time: 0 hr 22 min 38 sec) 
Heartbeat CPU 0 instructions: 50000001 cycles: 15858629 heartbeat IPC: 3.13758 cumulative IPC: 3.15286 (Simulation time: 0 hr 27 min 0 sec) 

Warmup complete CPU 0 instructions: 50000001 cycles: 15858629 (Simulation time: 0 hr 27 min 0 sec) 

% increase in all ip prefetch 188.139
% increase in all ip prefetch 6.22175
% increase in all ip prefetch 30.8888
% increase in all ip prefetch -0.0897018
Heartbeat CPU 0 instructions: 60000000 cycles: 30480284 heartbeat IPC: 0.683917 cumulative IPC: 0.683917 (Simulation time: 0 hr 33 min 16 sec) 
Heartbeat CPU 0 instructions: 70000002 cycles: 39739162 heartbeat IPC: 1.08004 cumulative IPC: 0.837502 (Simulation time: 0 hr 37 min 30 sec) 
Heartbeat CPU 0 instructions: 80000003 cycles: 50290540 heartbeat IPC: 0.947744 cumulative IPC: 0.871285 (Simulation time: 0 hr 41 min 46 sec) 
Heartbeat CPU 0 instructions: 90000000 cycles: 63634940 heartbeat IPC: 0.749378 cumulative IPC: 0.837235 (Simulation time: 0 hr 46 min 25 sec) 
Heartbeat CPU 0 instructions: 100000003 cycles: 72258971 heartbeat IPC: 1.15955 cumulative IPC: 0.886519 (Simulation time: 0 hr 49 min 23 sec) 
Heartbeat CPU 0 instructions: 110000000 cycles: 87405311 heartbeat IPC: 0.660225 cumulative IPC: 0.838613 (Simulation time: 0 hr 53 min 30 sec) 
Heartbeat CPU 0 instructions: 120000002 cycles: 96135165 heartbeat IPC: 1.14549 cumulative IPC: 0.871986 (Simulation time: 0 hr 55 min 48 sec) 
Heartbeat CPU 0 instructions: 130000002 cycles: 107695829 heartbeat IPC: 0.865002 cumulative IPC: 0.871107 (Simulation time: 0 hr 58 min 6 sec) 
Heartbeat CPU 0 instructions: 140000001 cycles: 120003356 heartbeat IPC: 0.812511 cumulative IPC: 0.864182 (Simulation time: 0 hr 59 min 44 sec) 
Heartbeat CPU 0 instructions: 150000003 cycles: 128714080 heartbeat IPC: 1.14801 cumulative IPC: 0.886089 (Simulation time: 1 hr 0 min 47 sec) 
Finished CPU 0 instructions: 100000002 cycles: 112855451 cumulative IPC: 0.886089 (Simulation time: 1 hr 0 min 47 sec) 

ChampSim completed all CPUs

Region of Interest Statistics

CPU 0 cumulative IPC: 0.886089 instructions: 100000002 cycles: 112855451

CPU 0 Average Load ROB stall cycles: 8.17709e+06
CPU 0 Fraction of times ROB stalled by Loads: 10.8711
CPU 0 Percentage of Load stall cycles in Total stall cycles: 1.08082e+08
 Total stall cycles: 61890600
 Total load stall cycles: 66892640125240
CPU 0 NUM of IPS identified critical: 24

Threshold modification factor: -3
Max PIST entries: 19
Min PIST entries: 0
Avg PIST entries: 3.84667
Average ROB occupancy Load Stall Begin: 92.79
Average ROB occupancy Load Stall End: 108.993
Min ROB occupancy Load Stall Begin: 4
Max ROB occupancy Load Stall Begin: 351
Min ROB occupancy Load Stall End: 4
Max ROB occupancy Load Stall End: 352
Average ROB occupancy Critical Load Stall Begin: 92.4636
Average ROB occupancy Critical Load Stall End: 108.953
Min ROB occupancy Critical Load Stall Begin: 5
Max ROB occupancy Critical Load Stall Begin: 351
Min ROB occupancy Critical Load Stall End: 5
Max ROB occupancy Critical Load Stall End: 352
 ROB Load Stall Begin Bucket Count 0: 392039
 ROB Load Stall End Bucket Count 0: 311730
 ROB Critical Load Stall Begin Bucket Count 0: 386345
 ROB Critical Load Stall End Bucket Count 0: 306571
 ROB Load Stall Begin Bucket Count 1: 276994
 ROB Load Stall End Bucket Count 1: 309753
 ROB Critical Load Stall Begin Bucket Count 1: 267607
 ROB Critical Load Stall End Bucket Count 1: 300099
 ROB Load Stall Begin Bucket Count 2: 47289
 ROB Load Stall End Bucket Count 2: 72487
 ROB Critical Load Stall Begin Bucket Count 2: 44972
 ROB Critical Load Stall End Bucket Count 2: 70050
 ROB Load Stall Begin Bucket Count 3: 37643
 ROB Load Stall End Bucket Count 3: 36486
 ROB Critical Load Stall Begin Bucket Count 3: 36237
 ROB Critical Load Stall End Bucket Count 3: 35092
 ROB Load Stall Begin Bucket Count 4: 45027
 ROB Load Stall End Bucket Count 4: 43014
 ROB Critical Load Stall Begin Bucket Count 4: 43870
 ROB Critical Load Stall End Bucket Count 4: 41833
 ROB Load Stall Begin Bucket Count 5: 38220
 ROB Load Stall End Bucket Count 5: 38446
 ROB Critical Load Stall Begin Bucket Count 5: 37221
 ROB Critical Load Stall End Bucket Count 5: 37432
 ROB Load Stall Begin Bucket Count 6: 52096
 ROB Load Stall End Bucket Count 6: 77392
 ROB Critical Load Stall Begin Bucket Count 6: 50717
 ROB Critical Load Stall End Bucket Count 6: 75892
Threshold Modified: 3 times, factor: -3
ITLB TOTAL     ACCESS:   15086266  HIT:   15086266  MISS:          0  HIT %:        100  MISS %:          0   MPKI: 0
ITLB LOAD TRANSLATION ACCESS:   15086266  HIT:   15086266  MISS:          0  HIT %:        100  MISS %:          0   MPKI: 0
ITLB AVERAGE MISS LATENCY: -nan cycles
ITLB RQ	ACCESS:   16167474	FORWARD:          0	MERGED:    1081209	TO_CACHE:   15086265

DTLB TOTAL     ACCESS:   25384757  HIT:   25336010  MISS:      48747  HIT %:     99.808  MISS %:   0.192033   MPKI: 0.48747
DTLB LOAD TRANSLATION ACCESS:   25384757  HIT:   25336010  MISS:      48747  HIT %:     99.808  MISS %:   0.192033   MPKI: 0.48747
DTLB AVERAGE MISS LATENCY: 191.353 cycles
DTLB RQ	ACCESS:   28186863	FORWARD:          0	MERGED:    2752860	TO_CACHE:   25434003

STLB TOTAL     ACCESS:      48747  HIT:         40  MISS:      48707  HIT %:  0.0820563  MISS %:    99.9179   MPKI: 0.48707
STLB LOAD TRANSLATION ACCESS:      48747  HIT:         40  MISS:      48707  HIT %:  0.0820563  MISS %:    99.9179   MPKI: 0.48707
STLB AVERAGE MISS LATENCY: 181.888 cycles
STLB RQ	ACCESS:      48747	FORWARD:          0	MERGED:          0	TO_CACHE:      48747

STLB Hit, L1D data hit: 0
STLB Hit, L2C data hit: 0
STLB Hit, LLC data hit: 0
STLB Hit, LLC data miss: 0
STLB STLB hints to L2: 0
L1D TOTAL     ACCESS:   23825585  HIT:   21643129  MISS:    2182456  HIT %:    90.8399  MISS %:    9.16014   MPKI: 21.8246
L1D LOAD      ACCESS:   22277850  HIT:   20777891  MISS:    1499959  HIT %:     93.267  MISS %:    6.73296   MPKI: 14.9996
L1D RFO       ACCESS:    1547735  HIT:     865238  MISS:     682497  HIT %:    55.9035  MISS %:    44.0965   MPKI: 6.82497
L1D AVERAGE MISS LATENCY: 128.5 cycles
L1D RQ	ACCESS:   37614371	FORWARD:          0	MERGED:   14856042	TO_CACHE:   22758329
L1D WQ	ACCESS:    5428534	FORWARD:          0	MERGED:          0	TO_CACHE:    5428534

L1D UNIQUE REGIONS ACCESSED: 0
L1D REGIONS CONFLICTS: 0
L1D Cross Page Prefetch Requests: 0
L1D Same Page Prefetch Requests: 0
L1D ROI Sum of L1D PQ occupancy: 0
L1D PREFETCHES PUSHED FROM L2C: 0
L1I TOTAL     ACCESS:   16167473  HIT:   16167473  MISS:          0  HIT %:        100  MISS %:          0   MPKI: 0
L1I LOAD      ACCESS:   16167473  HIT:   16167473  MISS:          0  HIT %:        100  MISS %:          0   MPKI: 0
L1I AVERAGE MISS LATENCY: -nan cycles
L1I RQ	ACCESS:   25986879	FORWARD:          0	MERGED:    9819405	TO_CACHE:   16167474

BTB TOTAL     ACCESS:    5346356  HIT:    5346347  MISS:          9  HIT %:    99.9998  MISS %: 0.000168339   MPKI: 9e-05
BTB BRANCH_DIRECT_JUMP	ACCESS:          0  HIT:          0  MISS:          0
BTB BRANCH_INDIRECT	ACCESS:          0  HIT:          0  MISS:          0
BTB BRANCH_CONDITIONAL	ACCESS:    5346356  HIT:    5346347  MISS:          9
BTB BRANCH_DIRECT_CALL	ACCESS:          0  HIT:          0  MISS:          0
BTB BRANCH_INDIRECT_CALL	ACCESS:          0  HIT:          0  MISS:          0
BTB BRANCH_RETURN	ACCESS:          0  HIT:          0  MISS:          0
BTB BRANCH_OTHER ACCESS:          0  HIT:          0  MISS:          0

L2C TOTAL     ACCESS:    3900419  HIT:    1685754  MISS:    2214665  HIT %:    43.2198  MISS %:    56.7802   MPKI: 22.1466
L2C LOAD      ACCESS:    1499959  HIT:     976687  MISS:     523272  HIT %:    65.1142  MISS %:    34.8858   MPKI: 5.23272
L2C DATA LOAD MPKI: 5.23272
L2C INSTRUCTION LOAD MPKI: 0
L2C RFO       ACCESS:     682497  HIT:          0  MISS:     682497  HIT %:          0  MISS %:        100   MPKI: 6.82497
L2C PREFETCH  ACCESS:     986958  HIT:       1255  MISS:     985703  HIT %:   0.127158  MISS %:    99.8728   MPKI: 9.85703
L2C DATA PREFETCH MPKI: 9.85703
L2C INSTRUCTION PREFETCH MPKI: 0
L2C WRITEBACK ACCESS:     682233  HIT:     669173  MISS:      13060  HIT %:    98.0857  MISS %:     1.9143   MPKI: 0.1306
L2C LOAD TRANSLATION ACCESS:      48772  HIT:      38639  MISS:      10133  HIT %:    79.2237  MISS %:    20.7763   MPKI: 0.10133
L2C PREFETCH  REQUESTED:   10523392  ISSUED:    9421325  USEFUL:     976683  USELESS:       9030
L2C USEFUL LOAD PREFETCHES:     976683 PREFETCH ISSUED TO LOWER LEVEL:    9354885  ACCURACY: 10.4404
L2C TIMELY PREFETCHES:     976683 LATE PREFETCHES: 42435 DROPPED PREFETCHES: 0
L2C PREFETCHES SAME FILL-ORIGIN LEVEL: 1028140 DIFFERENT FILL-ORIGIN LEVEL: 8326745
L2C AVERAGE MISS LATENCY: 130.552 cycles
L2C RQ	ACCESS:    2231234	FORWARD:          0	MERGED:          0	TO_CACHE:    2231234
L2C WQ	ACCESS:     682233	FORWARD:          0	MERGED:          0	TO_CACHE:     682233
L2C PQ	ACCESS:    9421325	FORWARD:          0	MERGED:      52896	TO_CACHE:    9368429

L2C Instructions Evicting Data0
L2C Translations Evicting Data10100
L2C Data Evicting Data2181464
L2C Instructions Evicting Instructions0
L2C Translations Evicting Instructions0
L2C Data Evicting Instructions0
L2C Instructions Evicting Translations0
L2C Translations Evicting Translations33
L2C Data Evicting Translations10008
L2C Dense regions hint from L2: 0
PSCL5 TOTAL     ACCESS:      48707  HIT:      48707  MISS:          0  HIT %:        100  MISS %:          0   MPKI: 0
PSCL5 LOAD TRANSLATION ACCESS:      48707  HIT:      48707  MISS:          0  HIT %:        100  MISS %:          0   MPKI: 0

PSCL4 TOTAL     ACCESS:      48707  HIT:      48707  MISS:          0  HIT %:        100  MISS %:          0   MPKI: 0
PSCL4 LOAD TRANSLATION ACCESS:      48707  HIT:      48707  MISS:          0  HIT %:        100  MISS %:          0   MPKI: 0

PSCL3 TOTAL     ACCESS:      48707  HIT:      48707  MISS:          0  HIT %:        100  MISS %:          0   MPKI: 0
PSCL3 LOAD TRANSLATION ACCESS:      48707  HIT:      48707  MISS:          0  HIT %:        100  MISS %:          0   MPKI: 0

PSCL2 TOTAL     ACCESS:      48707  HIT:      48570  MISS:        137  HIT %:    99.7187  MISS %:   0.281274   MPKI: 0.00137
PSCL2 LOAD TRANSLATION ACCESS:      48707  HIT:      48570  MISS:        137  HIT %:    99.7187  MISS %:   0.281274   MPKI: 0.00137

LLC TOTAL     ACCESS:   10358301  HIT:    7973414  MISS:    2384887  HIT %:    76.9761  MISS %:    23.0239   MPKI: 23.8489
LLC LOAD      ACCESS:     480837  HIT:     410949  MISS:      69888  HIT %:    85.4653  MISS %:    14.5347   MPKI: 0.69888
LLC RFO       ACCESS:     682497  HIT:          2  MISS:     682495  HIT %: 0.000293042  MISS %:    99.9997   MPKI: 6.82495
LLC PREFETCH  ACCESS:    8505900  HIT:    6998212  MISS:    1507688  HIT %:    82.2748  MISS %:    17.7252   MPKI: 15.0769
LLC WRITEBACK ACCESS:     678934  HIT:     564129  MISS:     114805  HIT %:    83.0904  MISS %:    16.9096   MPKI: 1.14805
LLC LOAD TRANSLATION ACCESS:      10133  HIT:        122  MISS:      10011  HIT %:    1.20399  MISS %:     98.796   MPKI: 0.10011
LLC AVERAGE MISS LATENCY: 250 cycles
LLC RQ	ACCESS:    1173472	FORWARD:          0	MERGED:          0	TO_CACHE:    1173472
LLC WQ	ACCESS:     678934	FORWARD:          0	MERGED:          0	TO_CACHE:     678934
LLC PQ	ACCESS:    9354885	FORWARD:          0	MERGED:      13953	TO_CACHE:    9340932

LLC Dense regions hint to LLC: 0

RAW hits: 10
Loads Generated: 37614385
Loads sent to L1D: 37614371
Stores Generated: 5428539
Stores sent to L1D: 5428534
Major fault: 0 Minor fault: 32209
Allocated PAGES: 32209
------------------
Depth Distribution
------------------
depth 0: 0
depth 1: 2094274
depth 2: 2004011
depth 3: 1931986
depth 4: 1857735
depth 5: 1762404
depth 6: 1577572
depth 7: 1159716
depth 8: 811116
depth 9: 372733
depth 10: 273305
depth 11: 217993
depth 12: 152522
depth 13: 87595
depth 14: 18262
depth 15: 17719
depth 16: 2
depth 17: 0
depth 18: 0
depth 19: 0
depth 20: 0
depth 21: 0
depth 22: 0
depth 23: 0
depth 24: 0
depth 25: 0
depth 26: 0
depth 27: 0
depth 28: 0
depth 29: 0
Total: 14338945
-----------------------------
-----------------------------
	Captured at Filter
-----------------------------
depth 0: 0
depth 1: 11841
depth 2: 11290
depth 3: 11218
depth 4: 10848
depth 5: 10667
depth 6: 9749
depth 7: 6744
depth 8: 4743
depth 9: 1997
depth 10: 1325
depth 11: 1014
depth 12: 709
depth 13: 452
depth 14: 74
depth 15: 102
depth 16: 0
depth 17: 0
depth 18: 0
depth 19: 0
depth 20: 0
depth 21: 0
depth 22: 0
depth 23: 0
depth 24: 0
depth 25: 0
depth 26: 0
depth 27: 0
depth 28: 0
depth 29: 0
-----------------------------
-----------------------------
		Lost at Page
-----------------------------
depth 0: 0
depth 1: 34871
depth 2: 69636
depth 3: 104459
depth 4: 139281
depth 5: 174083
depth 6: 194915
depth 7: 167935
depth 8: 141300
depth 9: 75942
depth 10: 55734
depth 11: 49261
depth 12: 35519
depth 13: 23303
depth 14: 4087
depth 15: 4449
depth 16: 0
depth 17: 0
depth 18: 0
depth 19: 0
depth 20: 0
depth 21: 0
depth 22: 0
depth 23: 0
depth 24: 0
depth 25: 0
depth 26: 0
depth 27: 0
depth 28: 0
depth 29: 0
-----------------------------
-----------------------------
	Lost due to PQ Size
-----------------------------
1768393
-----------------------------
ST read accesses: 1463978
ST write accesses: 35981
PT read accesses: 64376120
PT write accesses: 2179474
FILTER read accesses: 14292308
FILTER write accesses: 4274851
GHR read accesses: 3183940
GHR write accesses: 816924
GHR counter read accesses: 54525682
GHR counter write accesses: 3619627
ST tag read accesses: 595175275
ST tag write accesses: 16415343

DRAM Statistics
 CHANNEL 0
 RQ ROW_BUFFER_HIT:     446907  ROW_BUFFER_MISS:    1823176
 DBUS_CONGESTED:        363
 WQ ROW_BUFFER_HIT:     203794  ROW_BUFFER_MISS:     469548  FULL:          0

 AVG_CONGESTED_CYCLE: 4
 All warmup complete: 2
Channel 0 Bank busy for read cycles: 0
Channel 0 Bank busy for write cycles: 0
Channel 0
Rank 0
0banks busy for read cycles: 193447
0banks busy for write cycles: 0
1banks busy for read cycles: 17094475
1banks busy for write cycles: 188791
2banks busy for read cycles: 23661758
2banks busy for write cycles: 188183
3banks busy for read cycles: 15627515
3banks busy for write cycles: 187206
4banks busy for read cycles: 12154326
4banks busy for write cycles: 187246
5banks busy for read cycles: 6232989
5banks busy for write cycles: 196724
6banks busy for read cycles: 3924503
6banks busy for write cycles: 253865
7banks busy for read cycles: 3602978
7banks busy for write cycles: 1644962
8banks busy for read cycles: 7866046
8banks busy for write cycles: 19650438

CPU 0 Branch Prediction Accuracy: 99.8815% MPKI: 0.0634 Average ROB Occupancy at Mispredict: 219.718
Branch types
NOT_BRANCH: 94651526 94.6515%
BRANCH_DIRECT_JUMP: 0 0%
BRANCH_INDIRECT: 0 0%
BRANCH_CONDITIONAL: 5348418 5.34842%
BRANCH_DIRECT_CALL: 0 0%
BRANCH_INDIRECT_CALL: 0 0%
BRANCH_RETURN: 0 0%
BRANCH_OTHER: 0 0%

DRAM PAGES: 1048576
Allocated PAGES: 32209
