
*** ChampSim Multicore Out-of-Order Simulator ***

Warmup Instructions: 50000000
Simulation Instructions: 100000000
Number of CPUs: 1
LLC sets: 2048
LLC ways: 16
Off-chip DRAM Size: 4096 MB Channels: 1 Width: 64-bit Data Rate: 6400 MT/s
CPU 0 runs ../SPEC2017//654.roms_s-294B.champsimtrace.xz
.xz
NUM_OF_IPS_IN_CRITICAL_IP_TRAINING: 64
NUM_OF_CRITICAL_IP_TRAINING_TABLE_WAYS: 2
NUM_OF_CRITICAL_IP_TRAINING_TABLE_SETS: 32
WOBBLY_CRITICAL_IP_CACHE_SETS: 32
WOBBLY_CRITICAL_IP_CACHE_WAYS: 4
BTB has LRU replacement policy
ITLB has LRU replacement policy
DTLB has LRU replacement policy
STLB has LRU replacement policy
L1I has LRU replacement policy
IP Table Entries: 256
L1D has LRU replacement policy
Initialize SRRIP state for L2C
Initialize DRRIP state for LLC
Heartbeat CPU 0 instructions: 10000001 cycles: 3208748 heartbeat IPC: 3.11648 cumulative IPC: 3.11648 (Simulation time: 0 hr 6 min 44 sec) 
Heartbeat CPU 0 instructions: 20000000 cycles: 6417552 heartbeat IPC: 3.11643 cumulative IPC: 3.11645 (Simulation time: 0 hr 12 min 57 sec) 
Heartbeat CPU 0 instructions: 30000003 cycles: 9626218 heartbeat IPC: 3.11656 cumulative IPC: 3.11649 (Simulation time: 0 hr 18 min 20 sec) 
Heartbeat CPU 0 instructions: 40000001 cycles: 12834670 heartbeat IPC: 3.11677 cumulative IPC: 3.11656 (Simulation time: 0 hr 23 min 22 sec) 
Heartbeat CPU 0 instructions: 50000001 cycles: 16043059 heartbeat IPC: 3.11683 cumulative IPC: 3.11661 (Simulation time: 0 hr 27 min 56 sec) 

Warmup complete CPU 0 instructions: 50000001 cycles: 16043059 (Simulation time: 0 hr 27 min 56 sec) 

% increase in all ip prefetch 190.602
% increase in all ip prefetch 0.0686438
Heartbeat CPU 0 instructions: 60000002 cycles: 25650029 heartbeat IPC: 1.04091 cumulative IPC: 1.04091 (Simulation time: 0 hr 31 min 38 sec) 
Heartbeat CPU 0 instructions: 70000000 cycles: 35245296 heartbeat IPC: 1.04218 cumulative IPC: 1.04155 (Simulation time: 0 hr 35 min 2 sec) 
Heartbeat CPU 0 instructions: 80000001 cycles: 44833226 heartbeat IPC: 1.04298 cumulative IPC: 1.04202 (Simulation time: 0 hr 38 min 7 sec) 
Heartbeat CPU 0 instructions: 90000001 cycles: 54426652 heartbeat IPC: 1.04238 cumulative IPC: 1.04211 (Simulation time: 0 hr 41 min 12 sec) 
Heartbeat CPU 0 instructions: 100000002 cycles: 64024348 heartbeat IPC: 1.04192 cumulative IPC: 1.04207 (Simulation time: 0 hr 44 min 11 sec) 
Heartbeat CPU 0 instructions: 110000000 cycles: 73620444 heartbeat IPC: 1.04209 cumulative IPC: 1.04208 (Simulation time: 0 hr 46 min 57 sec) 
Heartbeat CPU 0 instructions: 120000002 cycles: 83216019 heartbeat IPC: 1.04215 cumulative IPC: 1.04209 (Simulation time: 0 hr 49 min 42 sec) 
Heartbeat CPU 0 instructions: 130000001 cycles: 92808693 heartbeat IPC: 1.04246 cumulative IPC: 1.04213 (Simulation time: 0 hr 52 min 17 sec) 
Heartbeat CPU 0 instructions: 140000000 cycles: 102400045 heartbeat IPC: 1.04261 cumulative IPC: 1.04219 (Simulation time: 0 hr 57 min 38 sec) 
Heartbeat CPU 0 instructions: 150000000 cycles: 111997619 heartbeat IPC: 1.04193 cumulative IPC: 1.04216 (Simulation time: 1 hr 3 min 15 sec) 
Finished CPU 0 instructions: 100000003 cycles: 95954561 cumulative IPC: 1.04216 (Simulation time: 1 hr 3 min 15 sec) 

ChampSim completed all CPUs

Region of Interest Statistics

CPU 0 cumulative IPC: 1.04216 instructions: 100000003 cycles: 95954561

CPU 0 Average Load ROB stall cycles: 2.44125e+07
CPU 0 Fraction of times ROB stalled by Loads: 38.1294
CPU 0 Percentage of Load stall cycles in Total stall cycles: 3.17427e+08
Issued all: 51069895
Issued LT all: 37830880
rob_not_full_when_issued_lt_all: 34991765
Issued LT one: 32640373
rob_not_full_when_issued_lt_one: 29942190
 Total stall cycles: 71949830
 Total load stall cycles: 228388186863630
CPU 0 NUM of IPS identified critical: 0
CPU 0 Num of Load IPs stalling ROB: 74
Threshold modification factor: -1
Max PIST entries: 36
Min PIST entries: 0
Avg PIST entries: 15.78
Trouble in retire width: 0.883627
MaC = Marked as critical.
lt_50_percent_before_Mac: 0
gt_90_percent_before_Mac: 0
gt_75_percent_before_Mac: 0
gt_50_percent_before_Mac: 0
stall_proportion_bin_same_before_after: 0
stall_proportion_bin_lower_before_after: 0
stall_proportion_bin_upper_before_after: 0
average_stall_proportion_before: -nan
average_stall_proportion_after: -nan
Critical IP stalls, total frequency: 0
Non-critical IP stalls, total frequency: 3567143
Total Freq all stalling IPs: 3567143
stat_90_percent_critical_ip_stalls_freq: 3224430
stat_90_percent_non_critical_ip_stalls_freq: 342713
Critical_IP_ROB_Stalls_Bucket_0: 0
Non-critical_IP_ROB_Stalls_Bucket_0: 33818
Critical_IP_ROB_Stalls_Bucket_1: 0
Non-critical_IP_ROB_Stalls_Bucket_1: 2980977
Critical_IP_ROB_Stalls_Bucket_2: 0
Non-critical_IP_ROB_Stalls_Bucket_2: 280390
Critical_IP_ROB_Stalls_Bucket_3: 0
Non-critical_IP_ROB_Stalls_Bucket_3: 97733
Critical_IP_ROB_Stalls_Bucket_4: 0
Non-critical_IP_ROB_Stalls_Bucket_4: 55167
Critical_IP_ROB_Stalls_Bucket_5: 0
Non-critical_IP_ROB_Stalls_Bucket_5: 61999
Critical_IP_ROB_Stalls_Bucket_6: 0
Non-critical_IP_ROB_Stalls_Bucket_6: 57059
0 => IPs accounting for >50 percent of stalls, 1 => 55, 2 => 60, 3 => 65 and so on till 90.
percent50: 73.2513 num IPs:  2
percent55: 73.2513 num IPs: 2
percent60: 73.2513 num IPs: 2
percent65: 73.2513 num IPs: 2
percent70: 73.2513 num IPs: 2
percent75: 81.8423 num IPs: 3
percent80: 81.8423 num IPs: 3
percent85: 86.6702 num IPs: 4
percent90: 90.3925 num IPs: 5
Critical_ROB_Stalls_Percent_0_Bucket_0: 7348
Non-critical_ROB_Stalls_Percent_0_Bucket_0: 26470
Critical_ROB_Stalls_Percent_0_Bucket_1: 2283720
Non-critical_ROB_Stalls_Percent_0_Bucket_1: 697257
Critical_ROB_Stalls_Percent_0_Bucket_2: 185032
Non-critical_ROB_Stalls_Percent_0_Bucket_2: 95358
Critical_ROB_Stalls_Percent_0_Bucket_3: 47015
Non-critical_ROB_Stalls_Percent_0_Bucket_3: 50718
Critical_ROB_Stalls_Percent_0_Bucket_4: 31490
Non-critical_ROB_Stalls_Percent_0_Bucket_4: 23677
Critical_ROB_Stalls_Percent_0_Bucket_5: 35295
Non-critical_ROB_Stalls_Percent_0_Bucket_5: 26704
Critical_ROB_Stalls_Percent_0_Bucket_6: 23080
Non-critical_ROB_Stalls_Percent_0_Bucket_6: 33979
Critical_ROB_Stalls_Percent_1_Bucket_0: 7348
Non-critical_ROB_Stalls_Percent_1_Bucket_0: 26470
Critical_ROB_Stalls_Percent_1_Bucket_1: 2283720
Non-critical_ROB_Stalls_Percent_1_Bucket_1: 697257
Critical_ROB_Stalls_Percent_1_Bucket_2: 185032
Non-critical_ROB_Stalls_Percent_1_Bucket_2: 95358
Critical_ROB_Stalls_Percent_1_Bucket_3: 47015
Non-critical_ROB_Stalls_Percent_1_Bucket_3: 50718
Critical_ROB_Stalls_Percent_1_Bucket_4: 31490
Non-critical_ROB_Stalls_Percent_1_Bucket_4: 23677
Critical_ROB_Stalls_Percent_1_Bucket_5: 35295
Non-critical_ROB_Stalls_Percent_1_Bucket_5: 26704
Critical_ROB_Stalls_Percent_1_Bucket_6: 23080
Non-critical_ROB_Stalls_Percent_1_Bucket_6: 33979
Critical_ROB_Stalls_Percent_2_Bucket_0: 7348
Non-critical_ROB_Stalls_Percent_2_Bucket_0: 26470
Critical_ROB_Stalls_Percent_2_Bucket_1: 2283720
Non-critical_ROB_Stalls_Percent_2_Bucket_1: 697257
Critical_ROB_Stalls_Percent_2_Bucket_2: 185032
Non-critical_ROB_Stalls_Percent_2_Bucket_2: 95358
Critical_ROB_Stalls_Percent_2_Bucket_3: 47015
Non-critical_ROB_Stalls_Percent_2_Bucket_3: 50718
Critical_ROB_Stalls_Percent_2_Bucket_4: 31490
Non-critical_ROB_Stalls_Percent_2_Bucket_4: 23677
Critical_ROB_Stalls_Percent_2_Bucket_5: 35295
Non-critical_ROB_Stalls_Percent_2_Bucket_5: 26704
Critical_ROB_Stalls_Percent_2_Bucket_6: 23080
Non-critical_ROB_Stalls_Percent_2_Bucket_6: 33979
Critical_ROB_Stalls_Percent_3_Bucket_0: 7348
Non-critical_ROB_Stalls_Percent_3_Bucket_0: 26470
Critical_ROB_Stalls_Percent_3_Bucket_1: 2283720
Non-critical_ROB_Stalls_Percent_3_Bucket_1: 697257
Critical_ROB_Stalls_Percent_3_Bucket_2: 185032
Non-critical_ROB_Stalls_Percent_3_Bucket_2: 95358
Critical_ROB_Stalls_Percent_3_Bucket_3: 47015
Non-critical_ROB_Stalls_Percent_3_Bucket_3: 50718
Critical_ROB_Stalls_Percent_3_Bucket_4: 31490
Non-critical_ROB_Stalls_Percent_3_Bucket_4: 23677
Critical_ROB_Stalls_Percent_3_Bucket_5: 35295
Non-critical_ROB_Stalls_Percent_3_Bucket_5: 26704
Critical_ROB_Stalls_Percent_3_Bucket_6: 23080
Non-critical_ROB_Stalls_Percent_3_Bucket_6: 33979
Critical_ROB_Stalls_Percent_4_Bucket_0: 7348
Non-critical_ROB_Stalls_Percent_4_Bucket_0: 26470
Critical_ROB_Stalls_Percent_4_Bucket_1: 2283720
Non-critical_ROB_Stalls_Percent_4_Bucket_1: 697257
Critical_ROB_Stalls_Percent_4_Bucket_2: 185032
Non-critical_ROB_Stalls_Percent_4_Bucket_2: 95358
Critical_ROB_Stalls_Percent_4_Bucket_3: 47015
Non-critical_ROB_Stalls_Percent_4_Bucket_3: 50718
Critical_ROB_Stalls_Percent_4_Bucket_4: 31490
Non-critical_ROB_Stalls_Percent_4_Bucket_4: 23677
Critical_ROB_Stalls_Percent_4_Bucket_5: 35295
Non-critical_ROB_Stalls_Percent_4_Bucket_5: 26704
Critical_ROB_Stalls_Percent_4_Bucket_6: 23080
Non-critical_ROB_Stalls_Percent_4_Bucket_6: 33979
Critical_ROB_Stalls_Percent_5_Bucket_0: 7954
Non-critical_ROB_Stalls_Percent_5_Bucket_0: 25864
Critical_ROB_Stalls_Percent_5_Bucket_1: 2529415
Non-critical_ROB_Stalls_Percent_5_Bucket_1: 451562
Critical_ROB_Stalls_Percent_5_Bucket_2: 201825
Non-critical_ROB_Stalls_Percent_5_Bucket_2: 78565
Critical_ROB_Stalls_Percent_5_Bucket_3: 66927
Non-critical_ROB_Stalls_Percent_5_Bucket_3: 30806
Critical_ROB_Stalls_Percent_5_Bucket_4: 39976
Non-critical_ROB_Stalls_Percent_5_Bucket_4: 15191
Critical_ROB_Stalls_Percent_5_Bucket_5: 43950
Non-critical_ROB_Stalls_Percent_5_Bucket_5: 18049
Critical_ROB_Stalls_Percent_5_Bucket_6: 29384
Non-critical_ROB_Stalls_Percent_5_Bucket_6: 27675
Critical_ROB_Stalls_Percent_6_Bucket_0: 7954
Non-critical_ROB_Stalls_Percent_6_Bucket_0: 25864
Critical_ROB_Stalls_Percent_6_Bucket_1: 2529415
Non-critical_ROB_Stalls_Percent_6_Bucket_1: 451562
Critical_ROB_Stalls_Percent_6_Bucket_2: 201825
Non-critical_ROB_Stalls_Percent_6_Bucket_2: 78565
Critical_ROB_Stalls_Percent_6_Bucket_3: 66927
Non-critical_ROB_Stalls_Percent_6_Bucket_3: 30806
Critical_ROB_Stalls_Percent_6_Bucket_4: 39976
Non-critical_ROB_Stalls_Percent_6_Bucket_4: 15191
Critical_ROB_Stalls_Percent_6_Bucket_5: 43950
Non-critical_ROB_Stalls_Percent_6_Bucket_5: 18049
Critical_ROB_Stalls_Percent_6_Bucket_6: 29384
Non-critical_ROB_Stalls_Percent_6_Bucket_6: 27675
Critical_ROB_Stalls_Percent_7_Bucket_0: 8015
Non-critical_ROB_Stalls_Percent_7_Bucket_0: 25803
Critical_ROB_Stalls_Percent_7_Bucket_1: 2674992
Non-critical_ROB_Stalls_Percent_7_Bucket_1: 305985
Critical_ROB_Stalls_Percent_7_Bucket_2: 208125
Non-critical_ROB_Stalls_Percent_7_Bucket_2: 72265
Critical_ROB_Stalls_Percent_7_Bucket_3: 72490
Non-critical_ROB_Stalls_Percent_7_Bucket_3: 25243
Critical_ROB_Stalls_Percent_7_Bucket_4: 44475
Non-critical_ROB_Stalls_Percent_7_Bucket_4: 10692
Critical_ROB_Stalls_Percent_7_Bucket_5: 48558
Non-critical_ROB_Stalls_Percent_7_Bucket_5: 13441
Critical_ROB_Stalls_Percent_7_Bucket_6: 34993
Non-critical_ROB_Stalls_Percent_7_Bucket_6: 22066
Critical_ROB_Stalls_Percent_8_Bucket_0: 8241
Non-critical_ROB_Stalls_Percent_8_Bucket_0: 25577
Critical_ROB_Stalls_Percent_8_Bucket_1: 2750431
Non-critical_ROB_Stalls_Percent_8_Bucket_1: 230546
Critical_ROB_Stalls_Percent_8_Bucket_2: 246620
Non-critical_ROB_Stalls_Percent_8_Bucket_2: 33770
Critical_ROB_Stalls_Percent_8_Bucket_3: 79608
Non-critical_ROB_Stalls_Percent_8_Bucket_3: 18125
Critical_ROB_Stalls_Percent_8_Bucket_4: 46715
Non-critical_ROB_Stalls_Percent_8_Bucket_4: 8452
Critical_ROB_Stalls_Percent_8_Bucket_5: 51906
Non-critical_ROB_Stalls_Percent_8_Bucket_5: 10093
Critical_ROB_Stalls_Percent_8_Bucket_6: 40909
Non-critical_ROB_Stalls_Percent_8_Bucket_6: 16150
Average ROB occupancy Load Stall Begin: 68.8601
Average ROB occupancy Load Stall End: 83.1395
Min ROB occupancy Load Stall Begin: 3
Max ROB occupancy Load Stall Begin: 352
Min ROB occupancy Load Stall End: 5
Max ROB occupancy Load Stall End: 352
Average ROB occupancy Critical Load Stall Begin: -nan
Average ROB occupancy Critical Load Stall End: -nan
Min ROB occupancy Critical Load Stall Begin: 400
Max ROB occupancy Critical Load Stall Begin: 0
Min ROB occupancy Critical Load Stall End: 400
Max ROB occupancy Critical Load Stall End: 0
 ROB Load Stall Begin Bucket Count 0: 1080722
 ROB Load Stall End Bucket Count 0: 33818
 ROB Critical Load Stall Begin Bucket Count 0: 0
 ROB Critical Load Stall End Bucket Count 0: 0
 ROB Load Stall Begin Bucket Count 1: 2119512
 ROB Load Stall End Bucket Count 1: 2980977
 ROB Critical Load Stall Begin Bucket Count 1: 0
 ROB Critical Load Stall End Bucket Count 1: 0
 ROB Load Stall Begin Bucket Count 2: 125129
 ROB Load Stall End Bucket Count 2: 280390
 ROB Critical Load Stall Begin Bucket Count 2: 0
 ROB Critical Load Stall End Bucket Count 2: 0
 ROB Load Stall Begin Bucket Count 3: 92754
 ROB Load Stall End Bucket Count 3: 97733
 ROB Critical Load Stall Begin Bucket Count 3: 0
 ROB Critical Load Stall End Bucket Count 3: 0
 ROB Load Stall Begin Bucket Count 4: 53849
 ROB Load Stall End Bucket Count 4: 55167
 ROB Critical Load Stall Begin Bucket Count 4: 0
 ROB Critical Load Stall End Bucket Count 4: 0
 ROB Load Stall Begin Bucket Count 5: 52176
 ROB Load Stall End Bucket Count 5: 61999
 ROB Critical Load Stall Begin Bucket Count 5: 0
 ROB Critical Load Stall End Bucket Count 5: 0
 ROB Load Stall Begin Bucket Count 6: 43001
 ROB Load Stall End Bucket Count 6: 57059
 ROB Critical Load Stall Begin Bucket Count 6: 0
 ROB Critical Load Stall End Bucket Count 6: 0
PIST Tag Read Accesses: 164864
PIST Read Accesses: 82432
PIST Tag Write Accesses: 164864
PIST Write Accesses: 82432
Criticality detector called times: 87969
Max global_stall_cycles_count: 306747
Threshold Modified: 1 times, factor: -1
Sturdy critical IP cache stats: 
 Unused entries: 0
CIC Tag Read Accesses: 0
CIC Read Accesses: 0
CIC Tag Write Accesses: 0
CIC Write Accesses: 0
Wobbly critical IP cache stats: 
 Unused entries: 114
CIC Tag Read Accesses: 202104131
CIC Read Accesses: 0
CIC Tag Write Accesses: 172
CIC Write Accesses: 0
ITLB TOTAL     ACCESS:   13386827  HIT:   13386827  MISS:          0  HIT %:        100  MISS %:          0   MPKI: 0
ITLB LOAD TRANSLATION ACCESS:   13386827  HIT:   13386827  MISS:          0  HIT %:        100  MISS %:          0   MPKI: 0
ITLB PREFETCH  REQUESTED:          0  ISSUED:          0  USEFUL:          0  USELESS:          0
ITLB USEFUL LOAD PREFETCHES:          0 PREFETCH ISSUED TO LOWER LEVEL:          0  ACCURACY: -nan
ITLB TIMELY PREFETCHES:          0 LATE PREFETCHES: 0 DROPPED PREFETCHES: 0
ITLB PREFETCHES SAME FILL-ORIGIN LEVEL: 0 DIFFERENT FILL-ORIGIN LEVEL: 0
ITLB AVERAGE MISS LATENCY: -nan cycles
ITLB RQ	ACCESS:   16711298	FORWARD:          0	MERGED:    3324472	TO_CACHE:   13386826

DTLB TOTAL     ACCESS:   26962864  HIT:   26921424  MISS:      41440  HIT %:    99.8463  MISS %:   0.153693   MPKI: 0.4144
DTLB LOAD TRANSLATION ACCESS:   26962864  HIT:   26921424  MISS:      41440  HIT %:    99.8463  MISS %:   0.153693   MPKI: 0.4144
DTLB PREFETCH  REQUESTED:          0  ISSUED:          0  USEFUL:          0  USELESS:          0
DTLB USEFUL LOAD PREFETCHES:          0 PREFETCH ISSUED TO LOWER LEVEL:          0  ACCURACY: -nan
DTLB TIMELY PREFETCHES:          0 LATE PREFETCHES: 0 DROPPED PREFETCHES: 0
DTLB PREFETCHES SAME FILL-ORIGIN LEVEL: 0 DIFFERENT FILL-ORIGIN LEVEL: 0
DTLB AVERAGE MISS LATENCY: 385.063 cycles
DTLB RQ	ACCESS:   29090291	FORWARD:          0	MERGED:    2122246	TO_CACHE:   26968045

STLB TOTAL     ACCESS:    1730248  HIT:    1697372  MISS:      32876  HIT %:    98.0999  MISS %:    1.90007   MPKI: 0.32876
STLB LOAD TRANSLATION ACCESS:      41440  HIT:       8564  MISS:      32876  HIT %:     20.666  MISS %:     79.334   MPKI: 0.32876
STLB TRANSLATION FROM L1D PREFETCHER ACCESS:    1688808  HIT:    1688808  MISS:          0  HIT %:        100  MISS %:          0   MPKI: 0
STLB PREFETCH  REQUESTED:          0  ISSUED:          0  USEFUL:          0  USELESS:          0
STLB USEFUL LOAD PREFETCHES:          0 PREFETCH ISSUED TO LOWER LEVEL:          0  ACCURACY: -nan
STLB TIMELY PREFETCHES:          0 LATE PREFETCHES: 0 DROPPED PREFETCHES: 0
STLB PREFETCHES SAME FILL-ORIGIN LEVEL: 0 DIFFERENT FILL-ORIGIN LEVEL: 0
STLB AVERAGE MISS LATENCY: 472.925 cycles
STLB RQ	ACCESS:    9141027	FORWARD:          0	MERGED:    7410780	TO_CACHE:    1730247

STLB Hit, L1D data hit: 0
STLB Hit, L2C data hit: 0
STLB Hit, LLC data hit: 0
STLB Hit, LLC data miss: 0
STLB STLB hints to L2: 0
L1D TOTAL     ACCESS:   38106910  HIT:   36665957  MISS:    1440953  HIT %:    96.2187  MISS %:    3.78134   MPKI: 14.4095
L1D LOAD      ACCESS:   25658492  HIT:   25535181  MISS:     123311  HIT %:    99.5194  MISS %:   0.480586   MPKI: 1.23311
L1D RFO       ACCESS:    3355299  HIT:    3345667  MISS:       9632  HIT %:    99.7129  MISS %:   0.287068   MPKI: 0.09632
L1D PREFETCH  ACCESS:    9093119  HIT:    7785109  MISS:    1308010  HIT %:    85.6154  MISS %:    14.3846   MPKI: 13.0801
L1D PREFETCH  REQUESTED:   19694593  ISSUED:   18199174  USEFUL:    1197453  USELESS:     110554
L1D USEFUL LOAD PREFETCHES:    1197453 PREFETCH ISSUED TO LOWER LEVEL:    1330160  ACCURACY: 90.0232
L1D TIMELY PREFETCHES:    1197453 LATE PREFETCHES: 609 DROPPED PREFETCHES: 0
L1D PREFETCHES SAME FILL-ORIGIN LEVEL: 1330160 DIFFERENT FILL-ORIGIN LEVEL: 0
L1D AVERAGE MISS LATENCY: 27767 cycles
L1D RQ	ACCESS:   38223718	FORWARD:          0	MERGED:   12533771	TO_CACHE:   25689942
L1D WQ	ACCESS:    3400349	FORWARD:          5	MERGED:          0	TO_CACHE:    3400349
L1D PQ	ACCESS:    9099587	FORWARD:          0	MERGED:          0	TO_CACHE:    9099587

L1D UNIQUE REGIONS ACCESSED: 0
L1D REGIONS CONFLICTS: 0
L1D Cross Page Prefetch Requests: 0
L1D Same Page Prefetch Requests: 13948819
L1D ROI Sum of L1D PQ occupancy: 133470287
L1D PREFETCHES PUSHED FROM L2C: 0
L1I TOTAL     ACCESS:   16711298  HIT:   16711298  MISS:          0  HIT %:        100  MISS %:          0   MPKI: 0
L1I LOAD      ACCESS:   16711298  HIT:   16711298  MISS:          0  HIT %:        100  MISS %:          0   MPKI: 0
L1I PREFETCH  REQUESTED:          0  ISSUED:          0  USEFUL:          0  USELESS:          0
L1I USEFUL LOAD PREFETCHES:          0 PREFETCH ISSUED TO LOWER LEVEL:          0  ACCURACY: -nan
L1I TIMELY PREFETCHES:          0 LATE PREFETCHES: 0 DROPPED PREFETCHES: 0
L1I PREFETCHES SAME FILL-ORIGIN LEVEL: 0 DIFFERENT FILL-ORIGIN LEVEL: 0
L1I AVERAGE MISS LATENCY: -nan cycles
L1I RQ	ACCESS:   26746869	FORWARD:          0	MERGED:   10035571	TO_CACHE:   16711298

BTB TOTAL     ACCESS:    5002840  HIT:    5002829  MISS:         11  HIT %:    99.9998  MISS %: 0.000219875   MPKI: 0.00011
BTB BRANCH_DIRECT_JUMP	ACCESS:         81  HIT:         80  MISS:          1
BTB BRANCH_INDIRECT	ACCESS:          0  HIT:          0  MISS:          0
BTB BRANCH_CONDITIONAL	ACCESS:    5002597  HIT:    5002589  MISS:          8
BTB BRANCH_DIRECT_CALL	ACCESS:         81  HIT:         80  MISS:          1
BTB BRANCH_INDIRECT_CALL	ACCESS:          0  HIT:          0  MISS:          0
BTB BRANCH_RETURN	ACCESS:         81  HIT:         80  MISS:          1
BTB BRANCH_OTHER ACCESS:          0  HIT:          0  MISS:          0

L2C TOTAL     ACCESS:    6696753  HIT:    5175191  MISS:    1521562  HIT %:    77.2791  MISS %:    22.7209   MPKI: 15.2156
L2C LOAD      ACCESS:     122700  HIT:      72380  MISS:      50320  HIT %:    58.9894  MISS %:    41.0106   MPKI: 0.5032
L2C DATA LOAD MPKI: 0.5032
L2C INSTRUCTION LOAD MPKI: 0
L2C RFO       ACCESS:       9632  HIT:        820  MISS:       8812  HIT %:    8.51329  MISS %:    91.4867   MPKI: 0.08812
L2C PREFETCH  ACCESS:    6474941  HIT:    5043811  MISS:    1431130  HIT %:    77.8974  MISS %:    22.1026   MPKI: 14.3113
L2C DATA PREFETCH MPKI: 14.3113
L2C INSTRUCTION PREFETCH MPKI: 0
L2C WRITEBACK ACCESS:      40146  HIT:      34952  MISS:       5194  HIT %:    87.0622  MISS %:    12.9378   MPKI: 0.05194
L2C LOAD TRANSLATION ACCESS:      49334  HIT:      23228  MISS:      26106  HIT %:    47.0831  MISS %:    52.9169   MPKI: 0.26106
L2C PREFETCH  REQUESTED:    6469776  ISSUED:    6089764  USEFUL:      66316  USELESS:    1365275
L2C USEFUL LOAD PREFETCHES:      66316 PREFETCH ISSUED TO LOWER LEVEL:    1431218  ACCURACY: 4.63354
L2C TIMELY PREFETCHES:      66316 LATE PREFETCHES: 86 DROPPED PREFETCHES: 0
L2C PREFETCHES SAME FILL-ORIGIN LEVEL: 1165277 DIFFERENT FILL-ORIGIN LEVEL: 0
L2C AVERAGE MISS LATENCY: 117.156 cycles
L2C RQ	ACCESS:     181668	FORWARD:          0	MERGED:          0	TO_CACHE:     181666
L2C WQ	ACCESS:      40146	FORWARD:         36	MERGED:          0	TO_CACHE:      40146
L2C PQ	ACCESS:    7398383	FORWARD:          0	MERGED:     901178	TO_CACHE:    6497171

L2C Instructions Evicting Data 0
L2C Translations Evicting Data 25662
L2C Data Evicting Data 1464694
L2C Instructions Evicting Instructions 0
L2C Translations Evicting Instructions 0
L2C Data Evicting Instructions 0
L2C Instructions Evicting Translations 0
L2C Translations Evicting Translations 444
L2C Data Evicting Translations 25568
L2C Dense regions hint from L2: 0
PSCL5 TOTAL     ACCESS:      32876  HIT:      32876  MISS:          0  HIT %:        100  MISS %:          0   MPKI: 0
PSCL5 LOAD TRANSLATION ACCESS:      32876  HIT:      32876  MISS:          0  HIT %:        100  MISS %:          0   MPKI: 0
PSCL5 PREFETCH  REQUESTED:          0  ISSUED:          0  USEFUL:          0  USELESS:          0
PSCL5 USEFUL LOAD PREFETCHES:          0 PREFETCH ISSUED TO LOWER LEVEL:          0  ACCURACY: -nan
PSCL5 TIMELY PREFETCHES:          0 LATE PREFETCHES: 0 DROPPED PREFETCHES: 0
PSCL5 PREFETCHES SAME FILL-ORIGIN LEVEL: 0 DIFFERENT FILL-ORIGIN LEVEL: 0

PSCL4 TOTAL     ACCESS:      32876  HIT:      32876  MISS:          0  HIT %:        100  MISS %:          0   MPKI: 0
PSCL4 LOAD TRANSLATION ACCESS:      32876  HIT:      32876  MISS:          0  HIT %:        100  MISS %:          0   MPKI: 0
PSCL4 PREFETCH  REQUESTED:          0  ISSUED:          0  USEFUL:          0  USELESS:          0
PSCL4 USEFUL LOAD PREFETCHES:          0 PREFETCH ISSUED TO LOWER LEVEL:          0  ACCURACY: -nan
PSCL4 TIMELY PREFETCHES:          0 LATE PREFETCHES: 0 DROPPED PREFETCHES: 0
PSCL4 PREFETCHES SAME FILL-ORIGIN LEVEL: 0 DIFFERENT FILL-ORIGIN LEVEL: 0

PSCL3 TOTAL     ACCESS:      32876  HIT:      32849  MISS:         27  HIT %:    99.9179  MISS %:  0.0821268   MPKI: 0.00027
PSCL3 LOAD TRANSLATION ACCESS:      32876  HIT:      32849  MISS:         27  HIT %:    99.9179  MISS %:  0.0821268   MPKI: 0.00027
PSCL3 PREFETCH  REQUESTED:          0  ISSUED:          0  USEFUL:          0  USELESS:          0
PSCL3 USEFUL LOAD PREFETCHES:          0 PREFETCH ISSUED TO LOWER LEVEL:          0  ACCURACY: -nan
PSCL3 TIMELY PREFETCHES:          0 LATE PREFETCHES: 0 DROPPED PREFETCHES: 0
PSCL3 PREFETCHES SAME FILL-ORIGIN LEVEL: 0 DIFFERENT FILL-ORIGIN LEVEL: 0

PSCL2 TOTAL     ACCESS:      32876  HIT:      16315  MISS:      16561  HIT %:    49.6259  MISS %:    50.3741   MPKI: 0.16561
PSCL2 LOAD TRANSLATION ACCESS:      32876  HIT:      16315  MISS:      16561  HIT %:    49.6259  MISS %:    50.3741   MPKI: 0.16561
PSCL2 PREFETCH  REQUESTED:          0  ISSUED:          0  USEFUL:          0  USELESS:          0
PSCL2 USEFUL LOAD PREFETCHES:          0 PREFETCH ISSUED TO LOWER LEVEL:          0  ACCURACY: -nan
PSCL2 TIMELY PREFETCHES:          0 LATE PREFETCHES: 0 DROPPED PREFETCHES: 0
PSCL2 PREFETCHES SAME FILL-ORIGIN LEVEL: 0 DIFFERENT FILL-ORIGIN LEVEL: 0

LLC TOTAL     ACCESS:    1527577  HIT:     247250  MISS:    1280327  HIT %:    16.1858  MISS %:    83.8142   MPKI: 12.8033
LLC LOAD      ACCESS:      50234  HIT:       7031  MISS:      43203  HIT %:    13.9965  MISS %:    86.0035   MPKI: 0.43203
LLC RFO       ACCESS:       8812  HIT:         83  MISS:       8729  HIT %:   0.941897  MISS %:    99.0581   MPKI: 0.08729
LLC PREFETCH  ACCESS:    1431216  HIT:     216988  MISS:    1214228  HIT %:    15.1611  MISS %:    84.8389   MPKI: 12.1423
LLC WRITEBACK ACCESS:      11209  HIT:       6650  MISS:       4559  HIT %:    59.3273  MISS %:    40.6727   MPKI: 0.04559
LLC LOAD TRANSLATION ACCESS:      26106  HIT:      16498  MISS:       9608  HIT %:    63.1962  MISS %:    36.8038   MPKI: 0.09608
LLC PREFETCH  REQUESTED:          0  ISSUED:          0  USEFUL:        196  USELESS:    1214002
LLC USEFUL LOAD PREFETCHES:        196 PREFETCH ISSUED TO LOWER LEVEL:    1214231  ACCURACY: 0.0161419
LLC TIMELY PREFETCHES:        196 LATE PREFETCHES: 0 DROPPED PREFETCHES: 0
LLC PREFETCHES SAME FILL-ORIGIN LEVEL: 0 DIFFERENT FILL-ORIGIN LEVEL: 0
LLC AVERAGE MISS LATENCY: 100.713 cycles
LLC RQ	ACCESS:      85152	FORWARD:          0	MERGED:          0	TO_CACHE:      85152
LLC WQ	ACCESS:      11209	FORWARD:          0	MERGED:          0	TO_CACHE:      11209
LLC PQ	ACCESS:    1431218	FORWARD:          0	MERGED:          0	TO_CACHE:    1431218

LLC Dense regions hint to LLC: 0

RAW hits: 152
Loads Generated: 38223880
Loads sent to L1D: 38223718
Stores Generated: 3400349
Stores sent to L1D: 3400349
Major fault: 0 Minor fault: 49795
Allocated PAGES: 49795

stream: 
stream:times selected: 3157612
stream:pref_filled: 2003217
stream:pref_useful: 1831740
stream:pref_late: 1130
stream:misses: 30
stream:misses_by_poll: 0

CS: 
CS:times selected: 3153660
CS:pref_filled: 3246
CS:pref_useful: 3163
CS:pref_late: 16
CS:misses: 175853
CS:misses_by_poll: 5

CPLX: 
CPLX:times selected: 3911
CPLX:pref_filled: 97
CPLX:pref_useful: 22
CPLX:pref_late: 0
CPLX:misses: 1039
CPLX:misses_by_poll: 0

NL_L1: 
NL:times selected: 2
NL:pref_filled: 2
NL:pref_useful: 2
NL:pref_late: 0
NL:misses: 0
NL:misses_by_poll: 0

total selections: 6315185
total_filled: 1308010
total_useful: 1197453
total_late: 1152
total_polluted: 5
total_misses_after_warmup: 154766
conflicts: 36
Degree Incremented Times: 240853
Degree Decremented Times: 0

L1 IP Table Write Accesses: 25689505
L1 IP Table Read Accesses: 25689469
L1 RST Write Accesses: 2108938
L1 RST Read Accesses: 4217876
L1 CSPT Write Accesses: 2108938
L1 CSPT Read Accesses: 2117621
L1 RR Filter Tag Write Accesses: 10595006
L1 RR Filter Tag Read Accesses: 523796698
L1 IP Table Tag Write Accesses: 25689947
L1 IP Table Tag Read Accesses: 25689947
L1 RST Tag Write Accesses: 0
L1 RST Tag Read Accesses: 18969057
L1 RR Filter Write Accesses: 0
L1 RR Filter Read Accesses: 18067468
test: 87782
L2 IP Table Read Accesses: 2298981
L2 IP Table Write Accesses: 2176284
L2 IP Table Tag Read Accesses: 1149492
L2 IP Table Tag Write Accesses: 1149492

DRAM Statistics
 CHANNEL 0
 RQ ROW_BUFFER_HIT:    1033072  ROW_BUFFER_MISS:     242697
 DBUS_CONGESTED:        155
 WQ ROW_BUFFER_HIT:       1809  ROW_BUFFER_MISS:       8856  FULL:          0

 AVG_CONGESTED_CYCLE: 5
 All warmup complete: 2
Channel 0 Bank busy for read cycles: 0
Channel 0 Bank busy for write cycles: 0
Channel 0
Rank 0
0banks busy for read cycles: 53474524
0banks busy for write cycles: 8080
1banks busy for read cycles: 24060170
1banks busy for write cycles: 1344199
2banks busy for read cycles: 7046951
2banks busy for write cycles: 227384
3banks busy for read cycles: 2771098
3banks busy for write cycles: 72539
4banks busy for read cycles: 1540004
4banks busy for write cycles: 24817
5banks busy for read cycles: 1050235
5banks busy for write cycles: 8236
6banks busy for read cycles: 1037406
6banks busy for write cycles: 3041
7banks busy for read cycles: 2313162
7banks busy for write cycles: 1383
8banks busy for read cycles: 971051
8banks busy for write cycles: 282

CPU 0 Branch Prediction Accuracy: 99.9308% MPKI: 0.03474 Average ROB Occupancy at Mispredict: 65.8221
Branch types
NOT_BRANCH: 94977433 94.9774%
BRANCH_DIRECT_JUMP: 81 8.1e-05%
BRANCH_INDIRECT: 0 0%
BRANCH_CONDITIONAL: 5022049 5.02205%
BRANCH_DIRECT_CALL: 81 8.1e-05%
BRANCH_INDIRECT_CALL: 0 0%
BRANCH_RETURN: 81 8.1e-05%
BRANCH_OTHER: 0 0%

DRAM PAGES: 1048576
Allocated PAGES: 49795
