
*** ChampSim Multicore Out-of-Order Simulator ***

Warmup Instructions: 50000000
Simulation Instructions: 100000000
Number of CPUs: 1
LLC sets: 2048
LLC ways: 16
Off-chip DRAM Size: 4096 MB Channels: 1 Width: 64-bit Data Rate: 6400 MT/s
CPU 0 runs ../SPEC2017//654.roms_s-1390B.champsimtrace.xz
.xz
BTB has LRU replacement policy
ITLB has LRU replacement policy
DTLB has LRU replacement policy
STLB has LRU replacement policy
L1I has LRU replacement policy
L1D has LRU replacement policy
Bingo PHT WAYS: 16 and PHT_SIZE: 16384
Initialize SRRIP state for L2C
Initialize DRRIP state for LLC
Heartbeat CPU 0 instructions: 10000001 cycles: 3756570 heartbeat IPC: 2.662 cumulative IPC: 2.662 (Simulation time: 0 hr 8 min 32 sec) 
Heartbeat CPU 0 instructions: 20000000 cycles: 7250516 heartbeat IPC: 2.86209 cumulative IPC: 2.75842 (Simulation time: 0 hr 14 min 9 sec) 
Heartbeat CPU 0 instructions: 30000003 cycles: 10667240 heartbeat IPC: 2.92678 cumulative IPC: 2.81235 (Simulation time: 0 hr 18 min 52 sec) 
Heartbeat CPU 0 instructions: 40000002 cycles: 14446240 heartbeat IPC: 2.6462 cumulative IPC: 2.76889 (Simulation time: 0 hr 26 min 28 sec) 
Heartbeat CPU 0 instructions: 50000000 cycles: 18782713 heartbeat IPC: 2.30602 cumulative IPC: 2.66202 (Simulation time: 0 hr 33 min 28 sec) 

Warmup complete CPU 0 instructions: 50000004 cycles: 18782714 (Simulation time: 0 hr 33 min 28 sec) 

Heartbeat CPU 0 instructions: 60000001 cycles: 36246317 heartbeat IPC: 0.57262 cumulative IPC: 0.572619 (Simulation time: 0 hr 40 min 53 sec) 
Heartbeat CPU 0 instructions: 70000002 cycles: 52931324 heartbeat IPC: 0.599341 cumulative IPC: 0.585675 (Simulation time: 0 hr 47 min 23 sec) 
Heartbeat CPU 0 instructions: 80000001 cycles: 69557721 heartbeat IPC: 0.601453 cumulative IPC: 0.590842 (Simulation time: 0 hr 53 min 36 sec) 
Heartbeat CPU 0 instructions: 90000001 cycles: 92474366 heartbeat IPC: 0.436364 cumulative IPC: 0.542802 (Simulation time: 1 hr 0 min 36 sec) 
Heartbeat CPU 0 instructions: 100000001 cycles: 117675601 heartbeat IPC: 0.396806 cumulative IPC: 0.505598 (Simulation time: 1 hr 7 min 8 sec) 
Heartbeat CPU 0 instructions: 110000000 cycles: 139983277 heartbeat IPC: 0.448276 cumulative IPC: 0.495047 (Simulation time: 1 hr 12 min 42 sec) 
Heartbeat CPU 0 instructions: 120000001 cycles: 158098797 heartbeat IPC: 0.552013 cumulative IPC: 0.502455 (Simulation time: 1 hr 17 min 40 sec) 
Heartbeat CPU 0 instructions: 130000000 cycles: 176132377 heartbeat IPC: 0.554521 cumulative IPC: 0.508422 (Simulation time: 1 hr 22 min 18 sec) 
Heartbeat CPU 0 instructions: 140000001 cycles: 207470498 heartbeat IPC: 0.3191 cumulative IPC: 0.476978 (Simulation time: 1 hr 27 min 39 sec) 
Heartbeat CPU 0 instructions: 150000000 cycles: 233199953 heartbeat IPC: 0.38866 cumulative IPC: 0.46638 (Simulation time: 1 hr 30 min 46 sec) 
Finished CPU 0 instructions: 100000000 cycles: 214417240 cumulative IPC: 0.46638 (Simulation time: 1 hr 30 min 46 sec) 

ChampSim completed all CPUs

Region of Interest Statistics

CPU 0 cumulative IPC: 0.46638 instructions: 100000000 cycles: 214417240

CPU 0 Average Load ROB stall cycles: 4.3098e+07
CPU 0 Fraction of times ROB stalled by Loads: 35.6963
CPU 0 Percentage of Load stall cycles in Total stall cycles: 1.91969e+08
Issued all: 169236567
Issued LT all: 158583568
rob_not_full_when_issued_lt_all: 32265371
Issued LT one: 144613290
rob_not_full_when_issued_lt_one: 27740059
 Total stall cycles: 190369567
 Total load stall cycles: 365449658206479
Unique Load IPs: 1142
CPU 0 NUM of IPS identified critical: 4
CPU 0 Num of Load IPs stalling ROB: 0
Threshold modification factor: 0
Trouble in retire width: -nan
MaC = Marked as critical.
lt_50_percent_before_Mac: 3
gt_90_percent_before_Mac: 0
gt_75_percent_before_Mac: 0
gt_50_percent_before_Mac: 1
stall_proportion_bin_same_before_after: 0
stall_proportion_bin_lower_before_after: 0
stall_proportion_bin_upper_before_after: 0
average_stall_proportion_before: 0.0137453
average_stall_proportion_after: 0.0152113
Critical_IP_Detector_Accuracy_70: 0
Critical_IP_Detector_Accuracy_80: 0
Critical_IP_Detector_Accuracy_90: 0
Critical_IP_Detector_Coverage_70: 0
Critical_IP_Detector_Coverage_80: 0
Critical_IP_Detector_Coverage_90: 0
stat_90_percent_critical_ip_stalls_freq: 125961
stat_90_percent_non_critical_ip_stalls_freq: 18446744073709425655
AVERAGE_ROB_Occupancy_90_Percent_Critical_IP_Stalls: 349.033
AVERAGE_ROB_Occupancy_90_Percent_Non_Critical_IP_Stalls: 4.68452e-11
Critical_IP_ROB_Stalls_Bucket_0: 174
Non-critical_IP_ROB_Stalls_Bucket_0: 188570
Critical_IP_ROB_Stalls_Bucket_1: 505
Non-critical_IP_ROB_Stalls_Bucket_1: 88305
Critical_IP_ROB_Stalls_Bucket_2: 139
Non-critical_IP_ROB_Stalls_Bucket_2: 69132
Critical_IP_ROB_Stalls_Bucket_3: 362
Non-critical_IP_ROB_Stalls_Bucket_3: 41831
Critical_IP_ROB_Stalls_Bucket_4: 188
Non-critical_IP_ROB_Stalls_Bucket_4: 108340
Critical_IP_ROB_Stalls_Bucket_5: 7758
Non-critical_IP_ROB_Stalls_Bucket_5: 288985
Critical_IP_ROB_Stalls_Bucket_6: 24904
Non-critical_IP_ROB_Stalls_Bucket_6: 2207681
0 => IPs accounting for >50 percent of stalls, 1 => 55, 2 => 60, 3 => 65 and so on till 90.
percent50: inf num IPs:  1
percent55: inf num IPs: 1
percent60: inf num IPs: 1
percent65: inf num IPs: 1
percent70: inf num IPs: 1
percent75: inf num IPs: 1
percent80: inf num IPs: 1
percent85: inf num IPs: 1
percent90: inf num IPs: 1
Critical_ROB_Stalls_Percent_0_Bucket_0: 19
Non-critical_ROB_Stalls_Percent_0_Bucket_0: 188725
Critical_ROB_Stalls_Percent_0_Bucket_1: 126
Non-critical_ROB_Stalls_Percent_0_Bucket_1: 88684
Critical_ROB_Stalls_Percent_0_Bucket_2: 507
Non-critical_ROB_Stalls_Percent_0_Bucket_2: 68764
Critical_ROB_Stalls_Percent_0_Bucket_3: 244
Non-critical_ROB_Stalls_Percent_0_Bucket_3: 41949
Critical_ROB_Stalls_Percent_0_Bucket_4: 526
Non-critical_ROB_Stalls_Percent_0_Bucket_4: 108002
Critical_ROB_Stalls_Percent_0_Bucket_5: 568
Non-critical_ROB_Stalls_Percent_0_Bucket_5: 296175
Critical_ROB_Stalls_Percent_0_Bucket_6: 123971
Non-critical_ROB_Stalls_Percent_0_Bucket_6: 2108614
Critical_ROB_Stalls_Percent_1_Bucket_0: 19
Non-critical_ROB_Stalls_Percent_1_Bucket_0: 188725
Critical_ROB_Stalls_Percent_1_Bucket_1: 126
Non-critical_ROB_Stalls_Percent_1_Bucket_1: 88684
Critical_ROB_Stalls_Percent_1_Bucket_2: 507
Non-critical_ROB_Stalls_Percent_1_Bucket_2: 68764
Critical_ROB_Stalls_Percent_1_Bucket_3: 244
Non-critical_ROB_Stalls_Percent_1_Bucket_3: 41949
Critical_ROB_Stalls_Percent_1_Bucket_4: 526
Non-critical_ROB_Stalls_Percent_1_Bucket_4: 108002
Critical_ROB_Stalls_Percent_1_Bucket_5: 568
Non-critical_ROB_Stalls_Percent_1_Bucket_5: 296175
Critical_ROB_Stalls_Percent_1_Bucket_6: 123971
Non-critical_ROB_Stalls_Percent_1_Bucket_6: 2108614
Critical_ROB_Stalls_Percent_2_Bucket_0: 19
Non-critical_ROB_Stalls_Percent_2_Bucket_0: 188725
Critical_ROB_Stalls_Percent_2_Bucket_1: 126
Non-critical_ROB_Stalls_Percent_2_Bucket_1: 88684
Critical_ROB_Stalls_Percent_2_Bucket_2: 507
Non-critical_ROB_Stalls_Percent_2_Bucket_2: 68764
Critical_ROB_Stalls_Percent_2_Bucket_3: 244
Non-critical_ROB_Stalls_Percent_2_Bucket_3: 41949
Critical_ROB_Stalls_Percent_2_Bucket_4: 526
Non-critical_ROB_Stalls_Percent_2_Bucket_4: 108002
Critical_ROB_Stalls_Percent_2_Bucket_5: 568
Non-critical_ROB_Stalls_Percent_2_Bucket_5: 296175
Critical_ROB_Stalls_Percent_2_Bucket_6: 123971
Non-critical_ROB_Stalls_Percent_2_Bucket_6: 2108614
Critical_ROB_Stalls_Percent_3_Bucket_0: 19
Non-critical_ROB_Stalls_Percent_3_Bucket_0: 188725
Critical_ROB_Stalls_Percent_3_Bucket_1: 126
Non-critical_ROB_Stalls_Percent_3_Bucket_1: 88684
Critical_ROB_Stalls_Percent_3_Bucket_2: 507
Non-critical_ROB_Stalls_Percent_3_Bucket_2: 68764
Critical_ROB_Stalls_Percent_3_Bucket_3: 244
Non-critical_ROB_Stalls_Percent_3_Bucket_3: 41949
Critical_ROB_Stalls_Percent_3_Bucket_4: 526
Non-critical_ROB_Stalls_Percent_3_Bucket_4: 108002
Critical_ROB_Stalls_Percent_3_Bucket_5: 568
Non-critical_ROB_Stalls_Percent_3_Bucket_5: 296175
Critical_ROB_Stalls_Percent_3_Bucket_6: 123971
Non-critical_ROB_Stalls_Percent_3_Bucket_6: 2108614
Critical_ROB_Stalls_Percent_4_Bucket_0: 19
Non-critical_ROB_Stalls_Percent_4_Bucket_0: 188725
Critical_ROB_Stalls_Percent_4_Bucket_1: 126
Non-critical_ROB_Stalls_Percent_4_Bucket_1: 88684
Critical_ROB_Stalls_Percent_4_Bucket_2: 507
Non-critical_ROB_Stalls_Percent_4_Bucket_2: 68764
Critical_ROB_Stalls_Percent_4_Bucket_3: 244
Non-critical_ROB_Stalls_Percent_4_Bucket_3: 41949
Critical_ROB_Stalls_Percent_4_Bucket_4: 526
Non-critical_ROB_Stalls_Percent_4_Bucket_4: 108002
Critical_ROB_Stalls_Percent_4_Bucket_5: 568
Non-critical_ROB_Stalls_Percent_4_Bucket_5: 296175
Critical_ROB_Stalls_Percent_4_Bucket_6: 123971
Non-critical_ROB_Stalls_Percent_4_Bucket_6: 2108614
Critical_ROB_Stalls_Percent_5_Bucket_0: 19
Non-critical_ROB_Stalls_Percent_5_Bucket_0: 188725
Critical_ROB_Stalls_Percent_5_Bucket_1: 126
Non-critical_ROB_Stalls_Percent_5_Bucket_1: 88684
Critical_ROB_Stalls_Percent_5_Bucket_2: 507
Non-critical_ROB_Stalls_Percent_5_Bucket_2: 68764
Critical_ROB_Stalls_Percent_5_Bucket_3: 244
Non-critical_ROB_Stalls_Percent_5_Bucket_3: 41949
Critical_ROB_Stalls_Percent_5_Bucket_4: 526
Non-critical_ROB_Stalls_Percent_5_Bucket_4: 108002
Critical_ROB_Stalls_Percent_5_Bucket_5: 568
Non-critical_ROB_Stalls_Percent_5_Bucket_5: 296175
Critical_ROB_Stalls_Percent_5_Bucket_6: 123971
Non-critical_ROB_Stalls_Percent_5_Bucket_6: 2108614
Critical_ROB_Stalls_Percent_6_Bucket_0: 19
Non-critical_ROB_Stalls_Percent_6_Bucket_0: 188725
Critical_ROB_Stalls_Percent_6_Bucket_1: 126
Non-critical_ROB_Stalls_Percent_6_Bucket_1: 88684
Critical_ROB_Stalls_Percent_6_Bucket_2: 507
Non-critical_ROB_Stalls_Percent_6_Bucket_2: 68764
Critical_ROB_Stalls_Percent_6_Bucket_3: 244
Non-critical_ROB_Stalls_Percent_6_Bucket_3: 41949
Critical_ROB_Stalls_Percent_6_Bucket_4: 526
Non-critical_ROB_Stalls_Percent_6_Bucket_4: 108002
Critical_ROB_Stalls_Percent_6_Bucket_5: 568
Non-critical_ROB_Stalls_Percent_6_Bucket_5: 296175
Critical_ROB_Stalls_Percent_6_Bucket_6: 123971
Non-critical_ROB_Stalls_Percent_6_Bucket_6: 2108614
Critical_ROB_Stalls_Percent_7_Bucket_0: 19
Non-critical_ROB_Stalls_Percent_7_Bucket_0: 188725
Critical_ROB_Stalls_Percent_7_Bucket_1: 126
Non-critical_ROB_Stalls_Percent_7_Bucket_1: 88684
Critical_ROB_Stalls_Percent_7_Bucket_2: 507
Non-critical_ROB_Stalls_Percent_7_Bucket_2: 68764
Critical_ROB_Stalls_Percent_7_Bucket_3: 244
Non-critical_ROB_Stalls_Percent_7_Bucket_3: 41949
Critical_ROB_Stalls_Percent_7_Bucket_4: 526
Non-critical_ROB_Stalls_Percent_7_Bucket_4: 108002
Critical_ROB_Stalls_Percent_7_Bucket_5: 568
Non-critical_ROB_Stalls_Percent_7_Bucket_5: 296175
Critical_ROB_Stalls_Percent_7_Bucket_6: 123971
Non-critical_ROB_Stalls_Percent_7_Bucket_6: 2108614
Critical_ROB_Stalls_Percent_8_Bucket_0: 19
Non-critical_ROB_Stalls_Percent_8_Bucket_0: 188725
Critical_ROB_Stalls_Percent_8_Bucket_1: 126
Non-critical_ROB_Stalls_Percent_8_Bucket_1: 88684
Critical_ROB_Stalls_Percent_8_Bucket_2: 507
Non-critical_ROB_Stalls_Percent_8_Bucket_2: 68764
Critical_ROB_Stalls_Percent_8_Bucket_3: 244
Non-critical_ROB_Stalls_Percent_8_Bucket_3: 41949
Critical_ROB_Stalls_Percent_8_Bucket_4: 526
Non-critical_ROB_Stalls_Percent_8_Bucket_4: 108002
Critical_ROB_Stalls_Percent_8_Bucket_5: 568
Non-critical_ROB_Stalls_Percent_8_Bucket_5: 296175
Critical_ROB_Stalls_Percent_8_Bucket_6: 123971
Non-critical_ROB_Stalls_Percent_8_Bucket_6: 2108614
Average ROB occupancy Load Stall Begin: 282.559
Average ROB occupancy Load Stall End: 300.015
Min ROB occupancy Load Stall Begin: 1
Max ROB occupancy Load Stall Begin: 352
Min ROB occupancy Load Stall End: 1
Max ROB occupancy Load Stall End: 352
Average ROB occupancy Critical Load Stall Begin: 306.303
Average ROB occupancy Critical Load Stall End: 317.439
Min ROB occupancy Critical Load Stall Begin: 20
Max ROB occupancy Critical Load Stall Begin: 352
Min ROB occupancy Critical Load Stall End: 38
Max ROB occupancy Critical Load Stall End: 352
 ROB Load Stall Begin Bucket Count 0: 259002
 ROB Load Stall End Bucket Count 0: 188744
 ROB Critical Load Stall Begin Bucket Count 0: 143
 ROB Critical Load Stall End Bucket Count 0: 131
 ROB Load Stall Begin Bucket Count 1: 65007
 ROB Load Stall End Bucket Count 1: 88810
 ROB Critical Load Stall Begin Bucket Count 1: 387
 ROB Critical Load Stall End Bucket Count 1: 373
 ROB Load Stall Begin Bucket Count 2: 72648
 ROB Load Stall End Bucket Count 2: 69271
 ROB Critical Load Stall Begin Bucket Count 2: 88
 ROB Critical Load Stall End Bucket Count 2: 82
 ROB Load Stall Begin Bucket Count 3: 45798
 ROB Load Stall End Bucket Count 3: 42193
 ROB Critical Load Stall Begin Bucket Count 3: 228
 ROB Critical Load Stall End Bucket Count 3: 229
 ROB Load Stall Begin Bucket Count 4: 131408
 ROB Load Stall End Bucket Count 4: 108528
 ROB Critical Load Stall Begin Bucket Count 4: 108
 ROB Critical Load Stall End Bucket Count 4: 78
 ROB Load Stall Begin Bucket Count 5: 581626
 ROB Load Stall End Bucket Count 5: 296743
 ROB Critical Load Stall Begin Bucket Count 5: 7282
 ROB Critical Load Stall End Bucket Count 5: 4585
 ROB Load Stall Begin Bucket Count 6: 1871385
 ROB Load Stall End Bucket Count 6: 2232585
 ROB Critical Load Stall Begin Bucket Count 6: 9566
 ROB Critical Load Stall End Bucket Count 6: 12324
PIST Tag Read Accesses: 0
PIST Read Accesses: 0
PIST Tag Write Accesses: 0
PIST Write Accesses: 0
Criticality detector called times: 0
Max global_stall_cycles_count: 0
Threshold Modified: 0 times, factor: 0
Sturdy critical IP cache stats: 
 Unused entries: 0
CIC Tag Read Accesses: 0
CIC Read Accesses: 0
CIC Tag Write Accesses: 0
CIC Write Accesses: 0
Wobbly critical IP cache stats: 
 Unused entries: 9
CIC Tag Read Accesses: 285525165
CIC Read Accesses: 0
CIC Tag Write Accesses: 616090
CIC Write Accesses: 0
ITLB TOTAL     ACCESS:   15197312  HIT:   15197307  MISS:          5  HIT %:        100  MISS %: 3.29006e-05   MPKI: 5e-05
ITLB LOAD TRANSLATION ACCESS:   15197312  HIT:   15197307  MISS:          5  HIT %:        100  MISS %: 3.29006e-05   MPKI: 5e-05
ITLB PREFETCH  REQUESTED:          0  ISSUED:          0  USEFUL:          0  USELESS:          0
ITLB USEFUL LOAD PREFETCHES:          0 PREFETCH ISSUED TO LOWER LEVEL:          0  ACCURACY: -nan
ITLB TIMELY PREFETCHES:          0 LATE PREFETCHES: 0 DROPPED PREFETCHES: 0
ITLB PREFETCHES SAME FILL-ORIGIN LEVEL: 0 DIFFERENT FILL-ORIGIN LEVEL: 0
ITLB AVERAGE MISS LATENCY: 362.2 cycles
ITLB RQ	ACCESS:   18543402	FORWARD:          0	MERGED:    3346090	TO_CACHE:   15197312

DTLB TOTAL     ACCESS:   18436050  HIT:   18389089  MISS:      46961  HIT %:    99.7453  MISS %:   0.254724   MPKI: 0.46961
DTLB LOAD TRANSLATION ACCESS:   18436050  HIT:   18389089  MISS:      46961  HIT %:    99.7453  MISS %:   0.254724   MPKI: 0.46961
DTLB PREFETCH  REQUESTED:          0  ISSUED:          0  USEFUL:          0  USELESS:          0
DTLB USEFUL LOAD PREFETCHES:          0 PREFETCH ISSUED TO LOWER LEVEL:          0  ACCURACY: -nan
DTLB TIMELY PREFETCHES:          0 LATE PREFETCHES: 0 DROPPED PREFETCHES: 0
DTLB PREFETCHES SAME FILL-ORIGIN LEVEL: 0 DIFFERENT FILL-ORIGIN LEVEL: 0
DTLB AVERAGE MISS LATENCY: 105.566 cycles
DTLB RQ	ACCESS:   19878745	FORWARD:          0	MERGED:    1413164	TO_CACHE:   18465581

STLB TOTAL     ACCESS:      46966  HIT:       1869  MISS:      45097  HIT %:    3.97947  MISS %:    96.0205   MPKI: 0.45097
STLB LOAD TRANSLATION ACCESS:      46966  HIT:       1869  MISS:      45097  HIT %:    3.97947  MISS %:    96.0205   MPKI: 0.45097
STLB PREFETCH  REQUESTED:          0  ISSUED:          0  USEFUL:          0  USELESS:          0
STLB USEFUL LOAD PREFETCHES:          0 PREFETCH ISSUED TO LOWER LEVEL:          0  ACCURACY: -nan
STLB TIMELY PREFETCHES:          0 LATE PREFETCHES: 0 DROPPED PREFETCHES: 0
STLB PREFETCHES SAME FILL-ORIGIN LEVEL: 0 DIFFERENT FILL-ORIGIN LEVEL: 0
STLB AVERAGE MISS LATENCY: 100.054 cycles
STLB RQ	ACCESS:      46966	FORWARD:          0	MERGED:          0	TO_CACHE:      46966

STLB Hit, L1D data hit: 0
STLB Hit, L2C data hit: 0
STLB Hit, LLC data hit: 0
STLB Hit, LLC data miss: 0
STLB STLB hints to L2: 0
L1D TOTAL     ACCESS:   16724449  HIT:   14176810  MISS:    2547639  HIT %:     84.767  MISS %:     15.233   MPKI: 25.4764
L1D LOAD      ACCESS:   14281904  HIT:   12330219  MISS:    1951685  HIT %:    86.3346  MISS %:    13.6654   MPKI: 19.5169
L1D RFO       ACCESS:    2442545  HIT:    1846591  MISS:     595954  HIT %:    75.6011  MISS %:    24.3989   MPKI: 5.95954
L1D PREFETCH  REQUESTED:          0  ISSUED:          0  USEFUL:          0  USELESS:          0
L1D USEFUL LOAD PREFETCHES:          0 PREFETCH ISSUED TO LOWER LEVEL:          0  ACCURACY: -nan
L1D TIMELY PREFETCHES:          0 LATE PREFETCHES: 0 DROPPED PREFETCHES: 0
L1D PREFETCHES SAME FILL-ORIGIN LEVEL: 0 DIFFERENT FILL-ORIGIN LEVEL: 0
L1D AVERAGE MISS LATENCY: 209.979 cycles
L1D RQ	ACCESS:   29523306	FORWARD:          0	MERGED:   13742077	TO_CACHE:   15780596
L1D WQ	ACCESS:    4098149	FORWARD:        633	MERGED:          0	TO_CACHE:    4098149

L1D UNIQUE REGIONS ACCESSED: 0
L1D REGIONS CONFLICTS: 0
L1D Cross Page Prefetch Requests: 0
L1D Same Page Prefetch Requests: 0
L1D ROI Sum of L1D PQ occupancy: 0
L1D PREFETCHES PUSHED FROM L2C: 0
L1I TOTAL     ACCESS:   18543227  HIT:   18542895  MISS:        332  HIT %:    99.9982  MISS %: 0.00179041   MPKI: 0.00332
L1I LOAD      ACCESS:   18543227  HIT:   18542895  MISS:        332  HIT %:    99.9982  MISS %: 0.00179041   MPKI: 0.00332
L1I PREFETCH  REQUESTED:          0  ISSUED:          0  USEFUL:          0  USELESS:          0
L1I USEFUL LOAD PREFETCHES:          0 PREFETCH ISSUED TO LOWER LEVEL:          0  ACCURACY: -nan
L1I TIMELY PREFETCHES:          0 LATE PREFETCHES: 0 DROPPED PREFETCHES: 0
L1I PREFETCHES SAME FILL-ORIGIN LEVEL: 0 DIFFERENT FILL-ORIGIN LEVEL: 0
L1I AVERAGE MISS LATENCY: 231.41 cycles
L1I RQ	ACCESS:   27128110	FORWARD:          0	MERGED:    8584708	TO_CACHE:   18543402

BTB TOTAL     ACCESS:    3186002  HIT:    3185933  MISS:         69  HIT %:    99.9978  MISS %: 0.00216572   MPKI: 0.00069
BTB BRANCH_DIRECT_JUMP	ACCESS:        512  HIT:        511  MISS:          1
BTB BRANCH_INDIRECT	ACCESS:          0  HIT:          0  MISS:          0
BTB BRANCH_CONDITIONAL	ACCESS:    3185484  HIT:    3185422  MISS:         62
BTB BRANCH_DIRECT_CALL	ACCESS:          3  HIT:          0  MISS:          3
BTB BRANCH_INDIRECT_CALL	ACCESS:          0  HIT:          0  MISS:          0
BTB BRANCH_RETURN	ACCESS:          3  HIT:          0  MISS:          3
BTB BRANCH_OTHER ACCESS:          0  HIT:          0  MISS:          0

L2C TOTAL     ACCESS:    3364001  HIT:    1047392  MISS:    2316609  HIT %:    31.1353  MISS %:    68.8647   MPKI: 23.1661
L2C LOAD      ACCESS:    1952017  HIT:     281223  MISS:    1670794  HIT %:    14.4068  MISS %:    85.5932   MPKI: 16.7079
L2C DATA LOAD MPKI: 16.7046
L2C INSTRUCTION LOAD MPKI: 0.00332
L2C RFO       ACCESS:     595954  HIT:          3  MISS:     595951  HIT %: 0.000503395  MISS %:    99.9995   MPKI: 5.95951
L2C PREFETCH  ACCESS:      40030  HIT:        505  MISS:      39525  HIT %:    1.26155  MISS %:    98.7384   MPKI: 0.39525
L2C DATA PREFETCH MPKI: 0.39525
L2C INSTRUCTION PREFETCH MPKI: 0
L2C WRITEBACK ACCESS:     730822  HIT:     729006  MISS:       1816  HIT %:    99.7515  MISS %:   0.248487   MPKI: 0.01816
L2C LOAD TRANSLATION ACCESS:      45178  HIT:      36655  MISS:       8523  HIT %:    81.1346  MISS %:    18.8654   MPKI: 0.08523
L2C PREFETCH  REQUESTED:      40030  ISSUED:      40030  USEFUL:      35771  USELESS:       3754
L2C USEFUL LOAD PREFETCHES:      35771 PREFETCH ISSUED TO LOWER LEVEL:      39525  ACCURACY: 90.5022
L2C TIMELY PREFETCHES:      35771 LATE PREFETCHES: 0 DROPPED PREFETCHES: 0
L2C PREFETCHES SAME FILL-ORIGIN LEVEL: 39525 DIFFERENT FILL-ORIGIN LEVEL: 0
L2C AVERAGE MISS LATENCY: 219.075 cycles
L2C RQ	ACCESS:    2593150	FORWARD:          0	MERGED:          0	TO_CACHE:    2593150
L2C WQ	ACCESS:     730822	FORWARD:          0	MERGED:          0	TO_CACHE:     730822
L2C PQ	ACCESS:      40030	FORWARD:          0	MERGED:          0	TO_CACHE:      40030

L2C Instructions Evicting Data 328
L2C Translations Evicting Data 8497
L2C Data Evicting Data 2297147
L2C Instructions Evicting Instructions 0
L2C Translations Evicting Instructions 1
L2C Data Evicting Instructions 331
L2C Instructions Evicting Translations 4
L2C Translations Evicting Translations 25
L2C Data Evicting Translations 8460
L2C Dense regions hint from L2: 0
PSCL5 TOTAL     ACCESS:      45097  HIT:      45097  MISS:          0  HIT %:        100  MISS %:          0   MPKI: 0
PSCL5 LOAD TRANSLATION ACCESS:      45097  HIT:      45097  MISS:          0  HIT %:        100  MISS %:          0   MPKI: 0
PSCL5 PREFETCH  REQUESTED:          0  ISSUED:          0  USEFUL:          0  USELESS:          0
PSCL5 USEFUL LOAD PREFETCHES:          0 PREFETCH ISSUED TO LOWER LEVEL:          0  ACCURACY: -nan
PSCL5 TIMELY PREFETCHES:          0 LATE PREFETCHES: 0 DROPPED PREFETCHES: 0
PSCL5 PREFETCHES SAME FILL-ORIGIN LEVEL: 0 DIFFERENT FILL-ORIGIN LEVEL: 0

PSCL4 TOTAL     ACCESS:      45097  HIT:      45097  MISS:          0  HIT %:        100  MISS %:          0   MPKI: 0
PSCL4 LOAD TRANSLATION ACCESS:      45097  HIT:      45097  MISS:          0  HIT %:        100  MISS %:          0   MPKI: 0
PSCL4 PREFETCH  REQUESTED:          0  ISSUED:          0  USEFUL:          0  USELESS:          0
PSCL4 USEFUL LOAD PREFETCHES:          0 PREFETCH ISSUED TO LOWER LEVEL:          0  ACCURACY: -nan
PSCL4 TIMELY PREFETCHES:          0 LATE PREFETCHES: 0 DROPPED PREFETCHES: 0
PSCL4 PREFETCHES SAME FILL-ORIGIN LEVEL: 0 DIFFERENT FILL-ORIGIN LEVEL: 0

PSCL3 TOTAL     ACCESS:      44836  HIT:      44834  MISS:          2  HIT %:    99.9955  MISS %:  0.0044607   MPKI: 2e-05
PSCL3 LOAD TRANSLATION ACCESS:      44836  HIT:      44834  MISS:          2  HIT %:    99.9955  MISS %:  0.0044607   MPKI: 2e-05
PSCL3 PREFETCH  REQUESTED:          0  ISSUED:          0  USEFUL:          0  USELESS:          0
PSCL3 USEFUL LOAD PREFETCHES:          0 PREFETCH ISSUED TO LOWER LEVEL:          0  ACCURACY: -nan
PSCL3 TIMELY PREFETCHES:          0 LATE PREFETCHES: 0 DROPPED PREFETCHES: 0
PSCL3 PREFETCHES SAME FILL-ORIGIN LEVEL: 0 DIFFERENT FILL-ORIGIN LEVEL: 0

PSCL2 TOTAL     ACCESS:      45097  HIT:      44993  MISS:        104  HIT %:    99.7694  MISS %:   0.230614   MPKI: 0.00104
PSCL2 LOAD TRANSLATION ACCESS:      45097  HIT:      44993  MISS:        104  HIT %:    99.7694  MISS %:   0.230614   MPKI: 0.00104
PSCL2 PREFETCH  REQUESTED:          0  ISSUED:          0  USEFUL:          0  USELESS:          0
PSCL2 USEFUL LOAD PREFETCHES:          0 PREFETCH ISSUED TO LOWER LEVEL:          0  ACCURACY: -nan
PSCL2 TIMELY PREFETCHES:          0 LATE PREFETCHES: 0 DROPPED PREFETCHES: 0
PSCL2 PREFETCHES SAME FILL-ORIGIN LEVEL: 0 DIFFERENT FILL-ORIGIN LEVEL: 0

LLC TOTAL     ACCESS:    3046945  HIT:     220828  MISS:    2826117  HIT %:    7.24752  MISS %:    92.7525   MPKI: 28.2612
LLC LOAD      ACCESS:    1670794  HIT:      31347  MISS:    1639447  HIT %:    1.87617  MISS %:    98.1238   MPKI: 16.3945
LLC RFO       ACCESS:     595951  HIT:      14112  MISS:     581839  HIT %:    2.36798  MISS %:     97.632   MPKI: 5.81839
LLC PREFETCH  ACCESS:      39525  HIT:         32  MISS:      39493  HIT %:  0.0809614  MISS %:     99.919   MPKI: 0.39493
LLC WRITEBACK ACCESS:     732152  HIT:     175302  MISS:     556850  HIT %:    23.9434  MISS %:    76.0566   MPKI: 5.5685
LLC LOAD TRANSLATION ACCESS:       8523  HIT:         35  MISS:       8488  HIT %:   0.410654  MISS %:    99.5893   MPKI: 0.08488
LLC PREFETCH  REQUESTED:          0  ISSUED:          0  USEFUL:        868  USELESS:      39093
LLC USEFUL LOAD PREFETCHES:        868 PREFETCH ISSUED TO LOWER LEVEL:      39493  ACCURACY: 2.19786
LLC TIMELY PREFETCHES:        868 LATE PREFETCHES: 0 DROPPED PREFETCHES: 0
LLC PREFETCHES SAME FILL-ORIGIN LEVEL: 0 DIFFERENT FILL-ORIGIN LEVEL: 0
LLC AVERAGE MISS LATENCY: 154.957 cycles
LLC RQ	ACCESS:    2275268	FORWARD:          0	MERGED:          0	TO_CACHE:    2275268
LLC WQ	ACCESS:     732152	FORWARD:          0	MERGED:          0	TO_CACHE:     732152
LLC PQ	ACCESS:      39525	FORWARD:          0	MERGED:          0	TO_CACHE:      39525

LLC Dense regions hint to LLC: 0

RAW hits: 11655
Loads Generated: 29534969
Loads sent to L1D: 29523306
Stores Generated: 4098298
Stores sent to L1D: 4098297
Major fault: 0 Minor fault: 39257
Allocated PAGES: 39257
[Bingo] PHT Access: 1866
[Bingo] PHT Hit PC+Addr: 1
[Bingo] PHT Hit PC+Offs: 1647
[Bingo] PHT Miss: 218
[Bingo] Prefetch PC+Addr: 0
[Bingo] Prefetch PC+Offs: 0
[Bingo] Useful PC+Addr: 0
[Bingo] Useful PC+Offs: 0
[Bingo] Useless PC+Addr: 0
[Bingo] Useless PC+Offs: 0
[Bingo] L1 Prefetch per Region: 0
[Bingo] L2 Prefetch per Region: 25.3883
[Bingo] L3 Prefetch per Region: 0
[Bingo] No Prefetch per Region: 6.61165
[Bingo] Number of Voters Mean: 13.3358
[Bingo] Number of Voters SD: 78.3802
PHT read accesses: 25562
PHT write accesses: 1735
AT read accesses: 23880
AT write accesses: 23880
FT read accesses: 5336
FT write accesses: 1866
PS read accesses: 4724
PS write accesses: 1648
PHT tag read accesses: 83390
PHT tag write accesses: 1736
AT tag read accesses: 35598661
AT tag write accesses: 25615
FT tag read accesses: 35270491
FT tag write accesses: 5467
PS tag read accesses: 445355
PS tag write accesses: 6365

DRAM Statistics
 CHANNEL 0
 RQ ROW_BUFFER_HIT:     165093  ROW_BUFFER_MISS:    2104146
 DBUS_CONGESTED:        217
 WQ ROW_BUFFER_HIT:     458964  ROW_BUFFER_MISS:     260870  FULL:         44

 AVG_CONGESTED_CYCLE: 6
 All warmup complete: 2
Channel 0 Bank busy for read cycles: 0
Channel 0 Bank busy for write cycles: 0
Channel 0
Rank 0
0banks busy for read cycles: 12395650
0banks busy for write cycles: 34897
1banks busy for read cycles: 60322748
1banks busy for write cycles: 7491571
2banks busy for read cycles: 45701083
2banks busy for write cycles: 5385349
3banks busy for read cycles: 24972455
3banks busy for write cycles: 3827317
4banks busy for read cycles: 12829267
4banks busy for write cycles: 3058851
5banks busy for read cycles: 2373448
5banks busy for write cycles: 2726218
6banks busy for read cycles: 2973591
6banks busy for write cycles: 2843176
7banks busy for read cycles: 2133371
7banks busy for write cycles: 4531213
8banks busy for read cycles: 253621
8banks busy for write cycles: 20563415

CPU 0 Branch Prediction Accuracy: 99.74% MPKI: 0.08327 Average ROB Occupancy at Mispredict: 306.516
Branch types
NOT_BRANCH: 96797559 96.7976%
BRANCH_DIRECT_JUMP: 512 0.000512%
BRANCH_INDIRECT: 0 0%
BRANCH_CONDITIONAL: 3202245 3.20225%
BRANCH_DIRECT_CALL: 3 3e-06%
BRANCH_INDIRECT_CALL: 0 0%
BRANCH_RETURN: 3 3e-06%
BRANCH_OTHER: 0 0%

DRAM PAGES: 1048576
Allocated PAGES: 39257
