
*** ChampSim Multicore Out-of-Order Simulator ***

Warmup Instructions: 50000000
Simulation Instructions: 100000000
Number of CPUs: 1
LLC sets: 2048
LLC ways: 16
Off-chip DRAM Size: 4096 MB Channels: 1 Width: 64-bit Data Rate: 6400 MT/s
CPU 0 runs ../SPEC_2006_2017//657.xz_s-2302B.champsimtrace.xz
.xz
NUM_OF_IPS_IN_CRITICAL_IP_TRAINING: 64
NUM_OF_CRITICAL_IP_TRAINING_TABLE_WAYS: 2
NUM_OF_CRITICAL_IP_TRAINING_TABLE_SETS: 32
WOBBLY_CRITICAL_IP_CACHE_SETS: 32
WOBBLY_CRITICAL_IP_CACHE_WAYS: 4
BTB has LRU replacement policy
ITLB has LRU replacement policy
DTLB has LRU replacement policy
STLB has LRU replacement policy
L1I has LRU replacement policy
IP Table Entries: 64
L1D has LRU replacement policy
Initialize SRRIP state for L2C
Initialize DRRIP state for LLC
Heartbeat CPU 0 instructions: 10000003 cycles: 2790778 heartbeat IPC: 3.58323 cumulative IPC: 3.58323 (Simulation time: 0 hr 4 min 48 sec) 
Heartbeat CPU 0 instructions: 20000002 cycles: 5585770 heartbeat IPC: 3.57783 cumulative IPC: 3.58053 (Simulation time: 0 hr 9 min 26 sec) 
Heartbeat CPU 0 instructions: 30000000 cycles: 8411752 heartbeat IPC: 3.53859 cumulative IPC: 3.56644 (Simulation time: 0 hr 13 min 58 sec) 
Heartbeat CPU 0 instructions: 40000003 cycles: 11197895 heartbeat IPC: 3.58919 cumulative IPC: 3.5721 (Simulation time: 0 hr 18 min 19 sec) 
Heartbeat CPU 0 instructions: 50000000 cycles: 13989886 heartbeat IPC: 3.58167 cumulative IPC: 3.57401 (Simulation time: 0 hr 22 min 22 sec) 

Warmup complete CPU 0 instructions: 50000004 cycles: 13989887 (Simulation time: 0 hr 22 min 22 sec) 

% increase in all ip prefetch 473.807
% increase in all ip prefetch 9.72015
% increase in all ip prefetch -6.49658
Heartbeat CPU 0 instructions: 60000002 cycles: 31682428 heartbeat IPC: 0.56521 cumulative IPC: 0.56521 (Simulation time: 0 hr 26 min 4 sec) 
Heartbeat CPU 0 instructions: 70000000 cycles: 48683440 heartbeat IPC: 0.5882 cumulative IPC: 0.576476 (Simulation time: 0 hr 29 min 40 sec) 
Heartbeat CPU 0 instructions: 80000003 cycles: 66115714 heartbeat IPC: 0.573649 cumulative IPC: 0.57553 (Simulation time: 0 hr 33 min 2 sec) 
Heartbeat CPU 0 instructions: 90000002 cycles: 83804153 heartbeat IPC: 0.565341 cumulative IPC: 0.572949 (Simulation time: 0 hr 36 min 18 sec) 
Heartbeat CPU 0 instructions: 100000001 cycles: 100800183 heartbeat IPC: 0.588373 cumulative IPC: 0.575969 (Simulation time: 0 hr 39 min 31 sec) 
Heartbeat CPU 0 instructions: 110000000 cycles: 118444141 heartbeat IPC: 0.566766 cumulative IPC: 0.574414 (Simulation time: 0 hr 42 min 39 sec) 
Heartbeat CPU 0 instructions: 120000003 cycles: 136282467 heartbeat IPC: 0.560591 cumulative IPC: 0.572398 (Simulation time: 0 hr 45 min 40 sec) 
Heartbeat CPU 0 instructions: 130000000 cycles: 154198752 heartbeat IPC: 0.558151 cumulative IPC: 0.570577 (Simulation time: 0 hr 48 min 33 sec) 
Heartbeat CPU 0 instructions: 140000000 cycles: 170718012 heartbeat IPC: 0.605354 cumulative IPC: 0.574243 (Simulation time: 0 hr 51 min 18 sec) 
Heartbeat CPU 0 instructions: 150000003 cycles: 188561599 heartbeat IPC: 0.560426 cumulative IPC: 0.57283 (Simulation time: 0 hr 53 min 59 sec) 
Finished CPU 0 instructions: 100000002 cycles: 174571713 cumulative IPC: 0.57283 (Simulation time: 0 hr 53 min 59 sec) 

ChampSim completed all CPUs

Region of Interest Statistics

CPU 0 cumulative IPC: 0.57283 instructions: 100000002 cycles: 174571713

CPU 0 Average Load ROB stall cycles: 4.28415e+07
CPU 0 Fraction of times ROB stalled by Loads: 42.0786
CPU 0 Percentage of Load stall cycles in Total stall cycles: 5.76627e+08
Issued all: 56042949
Issued LT all: 42926853
rob_not_full_when_issued_lt_all: 40650459
Issued LT one: 35954165
rob_not_full_when_issued_lt_one: 33882818
 Total stall cycles: 139300045
 Total load stall cycles: 803242006234086
CPU 0 NUM of IPS identified critical: 0
CPU 0 Num of Load IPs stalling ROB: 1005
Threshold modification factor: -2
Max PIST entries: 64
Min PIST entries: 0
Avg PIST entries: 42.66
Trouble in retire width: 0.924794
MaC = Marked as critical.
lt_50_percent_before_Mac: 0
gt_90_percent_before_Mac: 0
gt_75_percent_before_Mac: 0
gt_50_percent_before_Mac: 0
stall_proportion_bin_same_before_after: 0
stall_proportion_bin_lower_before_after: 0
stall_proportion_bin_upper_before_after: 0
average_stall_proportion_before: -nan
average_stall_proportion_after: -nan
Critical IP stalls, total frequency: 0
Non-critical IP stalls, total frequency: 7889387
Total Freq all stalling IPs: 7889387
stat_90_percent_critical_ip_stalls_freq: 7100555
stat_90_percent_non_critical_ip_stalls_freq: 788832
Critical_IP_ROB_Stalls_Bucket_0: 0
Non-critical_IP_ROB_Stalls_Bucket_0: 6589423
Critical_IP_ROB_Stalls_Bucket_1: 0
Non-critical_IP_ROB_Stalls_Bucket_1: 809330
Critical_IP_ROB_Stalls_Bucket_2: 0
Non-critical_IP_ROB_Stalls_Bucket_2: 195587
Critical_IP_ROB_Stalls_Bucket_3: 0
Non-critical_IP_ROB_Stalls_Bucket_3: 115849
Critical_IP_ROB_Stalls_Bucket_4: 0
Non-critical_IP_ROB_Stalls_Bucket_4: 46753
Critical_IP_ROB_Stalls_Bucket_5: 0
Non-critical_IP_ROB_Stalls_Bucket_5: 6282
Critical_IP_ROB_Stalls_Bucket_6: 0
Non-critical_IP_ROB_Stalls_Bucket_6: 126163
0 => IPs accounting for >50 percent of stalls, 1 => 55, 2 => 60, 3 => 65 and so on till 90.
percent50: 50.712 num IPs:  16
percent55: 55.4139 num IPs: 20
percent60: 60.6101 num IPs: 26
percent65: 65.4689 num IPs: 33
percent70: 70.1632 num IPs: 42
percent75: 75.0519 num IPs: 53
percent80: 80.0284 num IPs: 66
percent85: 85.0971 num IPs: 85
percent90: 90.0013 num IPs: 117
Critical_ROB_Stalls_Percent_0_Bucket_0: 3682608
Non-critical_ROB_Stalls_Percent_0_Bucket_0: 2906815
Critical_ROB_Stalls_Percent_0_Bucket_1: 259888
Non-critical_ROB_Stalls_Percent_0_Bucket_1: 549442
Critical_ROB_Stalls_Percent_0_Bucket_2: 46864
Non-critical_ROB_Stalls_Percent_0_Bucket_2: 148723
Critical_ROB_Stalls_Percent_0_Bucket_3: 7089
Non-critical_ROB_Stalls_Percent_0_Bucket_3: 108760
Critical_ROB_Stalls_Percent_0_Bucket_4: 2757
Non-critical_ROB_Stalls_Percent_0_Bucket_4: 43996
Critical_ROB_Stalls_Percent_0_Bucket_5: 977
Non-critical_ROB_Stalls_Percent_0_Bucket_5: 5305
Critical_ROB_Stalls_Percent_0_Bucket_6: 680
Non-critical_ROB_Stalls_Percent_0_Bucket_6: 125483
Critical_ROB_Stalls_Percent_1_Bucket_0: 3987284
Non-critical_ROB_Stalls_Percent_1_Bucket_0: 2602139
Critical_ROB_Stalls_Percent_1_Bucket_1: 323822
Non-critical_ROB_Stalls_Percent_1_Bucket_1: 485508
Critical_ROB_Stalls_Percent_1_Bucket_2: 48611
Non-critical_ROB_Stalls_Percent_1_Bucket_2: 146976
Critical_ROB_Stalls_Percent_1_Bucket_3: 7567
Non-critical_ROB_Stalls_Percent_1_Bucket_3: 108282
Critical_ROB_Stalls_Percent_1_Bucket_4: 2845
Non-critical_ROB_Stalls_Percent_1_Bucket_4: 43908
Critical_ROB_Stalls_Percent_1_Bucket_5: 998
Non-critical_ROB_Stalls_Percent_1_Bucket_5: 5284
Critical_ROB_Stalls_Percent_1_Bucket_6: 689
Non-critical_ROB_Stalls_Percent_1_Bucket_6: 125474
Critical_ROB_Stalls_Percent_2_Bucket_0: 4348938
Non-critical_ROB_Stalls_Percent_2_Bucket_0: 2240485
Critical_ROB_Stalls_Percent_2_Bucket_1: 369206
Non-critical_ROB_Stalls_Percent_2_Bucket_1: 440124
Critical_ROB_Stalls_Percent_2_Bucket_2: 50940
Non-critical_ROB_Stalls_Percent_2_Bucket_2: 144647
Critical_ROB_Stalls_Percent_2_Bucket_3: 7934
Non-critical_ROB_Stalls_Percent_2_Bucket_3: 107915
Critical_ROB_Stalls_Percent_2_Bucket_4: 3036
Non-critical_ROB_Stalls_Percent_2_Bucket_4: 43717
Critical_ROB_Stalls_Percent_2_Bucket_5: 1023
Non-critical_ROB_Stalls_Percent_2_Bucket_5: 5259
Critical_ROB_Stalls_Percent_2_Bucket_6: 692
Non-critical_ROB_Stalls_Percent_2_Bucket_6: 125471
Critical_ROB_Stalls_Percent_3_Bucket_0: 4689029
Non-critical_ROB_Stalls_Percent_3_Bucket_0: 1900394
Critical_ROB_Stalls_Percent_3_Bucket_1: 394684
Non-critical_ROB_Stalls_Percent_3_Bucket_1: 414646
Critical_ROB_Stalls_Percent_3_Bucket_2: 64123
Non-critical_ROB_Stalls_Percent_3_Bucket_2: 131464
Critical_ROB_Stalls_Percent_3_Bucket_3: 12326
Non-critical_ROB_Stalls_Percent_3_Bucket_3: 103523
Critical_ROB_Stalls_Percent_3_Bucket_4: 3200
Non-critical_ROB_Stalls_Percent_3_Bucket_4: 43553
Critical_ROB_Stalls_Percent_3_Bucket_5: 1041
Non-critical_ROB_Stalls_Percent_3_Bucket_5: 5241
Critical_ROB_Stalls_Percent_3_Bucket_6: 693
Non-critical_ROB_Stalls_Percent_3_Bucket_6: 125470
Critical_ROB_Stalls_Percent_4_Bucket_0: 4994812
Non-critical_ROB_Stalls_Percent_4_Bucket_0: 1594611
Critical_ROB_Stalls_Percent_4_Bucket_1: 434327
Non-critical_ROB_Stalls_Percent_4_Bucket_1: 375003
Critical_ROB_Stalls_Percent_4_Bucket_2: 66958
Non-critical_ROB_Stalls_Percent_4_Bucket_2: 128629
Critical_ROB_Stalls_Percent_4_Bucket_3: 32734
Non-critical_ROB_Stalls_Percent_4_Bucket_3: 83115
Critical_ROB_Stalls_Percent_4_Bucket_4: 4742
Non-critical_ROB_Stalls_Percent_4_Bucket_4: 42011
Critical_ROB_Stalls_Percent_4_Bucket_5: 1087
Non-critical_ROB_Stalls_Percent_4_Bucket_5: 5195
Critical_ROB_Stalls_Percent_4_Bucket_6: 783
Non-critical_ROB_Stalls_Percent_4_Bucket_6: 125380
Critical_ROB_Stalls_Percent_5_Bucket_0: 5141607
Non-critical_ROB_Stalls_Percent_5_Bucket_0: 1447816
Critical_ROB_Stalls_Percent_5_Bucket_1: 541580
Non-critical_ROB_Stalls_Percent_5_Bucket_1: 267750
Critical_ROB_Stalls_Percent_5_Bucket_2: 152259
Non-critical_ROB_Stalls_Percent_5_Bucket_2: 43328
Critical_ROB_Stalls_Percent_5_Bucket_3: 57478
Non-critical_ROB_Stalls_Percent_5_Bucket_3: 58371
Critical_ROB_Stalls_Percent_5_Bucket_4: 24535
Non-critical_ROB_Stalls_Percent_5_Bucket_4: 22218
Critical_ROB_Stalls_Percent_5_Bucket_5: 2381
Non-critical_ROB_Stalls_Percent_5_Bucket_5: 3901
Critical_ROB_Stalls_Percent_5_Bucket_6: 1299
Non-critical_ROB_Stalls_Percent_5_Bucket_6: 124864
Critical_ROB_Stalls_Percent_6_Bucket_0: 5352882
Non-critical_ROB_Stalls_Percent_6_Bucket_0: 1236541
Critical_ROB_Stalls_Percent_6_Bucket_1: 615088
Non-critical_ROB_Stalls_Percent_6_Bucket_1: 194242
Critical_ROB_Stalls_Percent_6_Bucket_2: 158368
Non-critical_ROB_Stalls_Percent_6_Bucket_2: 37219
Critical_ROB_Stalls_Percent_6_Bucket_3: 80178
Non-critical_ROB_Stalls_Percent_6_Bucket_3: 35671
Critical_ROB_Stalls_Percent_6_Bucket_4: 29379
Non-critical_ROB_Stalls_Percent_6_Bucket_4: 17374
Critical_ROB_Stalls_Percent_6_Bucket_5: 4755
Non-critical_ROB_Stalls_Percent_6_Bucket_5: 1527
Critical_ROB_Stalls_Percent_6_Bucket_6: 73102
Non-critical_ROB_Stalls_Percent_6_Bucket_6: 53061
Critical_ROB_Stalls_Percent_7_Bucket_0: 5653200
Non-critical_ROB_Stalls_Percent_7_Bucket_0: 936223
Critical_ROB_Stalls_Percent_7_Bucket_1: 639301
Non-critical_ROB_Stalls_Percent_7_Bucket_1: 170029
Critical_ROB_Stalls_Percent_7_Bucket_2: 160665
Non-critical_ROB_Stalls_Percent_7_Bucket_2: 34922
Critical_ROB_Stalls_Percent_7_Bucket_3: 95211
Non-critical_ROB_Stalls_Percent_7_Bucket_3: 20638
Critical_ROB_Stalls_Percent_7_Bucket_4: 34685
Non-critical_ROB_Stalls_Percent_7_Bucket_4: 12068
Critical_ROB_Stalls_Percent_7_Bucket_5: 5040
Non-critical_ROB_Stalls_Percent_7_Bucket_5: 1242
Critical_ROB_Stalls_Percent_7_Bucket_6: 125541
Non-critical_ROB_Stalls_Percent_7_Bucket_6: 622
Critical_ROB_Stalls_Percent_8_Bucket_0: 5977699
Non-critical_ROB_Stalls_Percent_8_Bucket_0: 611724
Critical_ROB_Stalls_Percent_8_Bucket_1: 685675
Non-critical_ROB_Stalls_Percent_8_Bucket_1: 123655
Critical_ROB_Stalls_Percent_8_Bucket_2: 166022
Non-critical_ROB_Stalls_Percent_8_Bucket_2: 29565
Critical_ROB_Stalls_Percent_8_Bucket_3: 101629
Non-critical_ROB_Stalls_Percent_8_Bucket_3: 14220
Critical_ROB_Stalls_Percent_8_Bucket_4: 38541
Non-critical_ROB_Stalls_Percent_8_Bucket_4: 8212
Critical_ROB_Stalls_Percent_8_Bucket_5: 5389
Non-critical_ROB_Stalls_Percent_8_Bucket_5: 893
Critical_ROB_Stalls_Percent_8_Bucket_6: 125600
Non-critical_ROB_Stalls_Percent_8_Bucket_6: 563
Average ROB occupancy Load Stall Begin: 29.466
Average ROB occupancy Load Stall End: 35.6673
Min ROB occupancy Load Stall Begin: 1
Max ROB occupancy Load Stall Begin: 352
Min ROB occupancy Load Stall End: 1
Max ROB occupancy Load Stall End: 352
Average ROB occupancy Critical Load Stall Begin: -nan
Average ROB occupancy Critical Load Stall End: -nan
Min ROB occupancy Critical Load Stall Begin: 400
Max ROB occupancy Critical Load Stall Begin: 0
Min ROB occupancy Critical Load Stall End: 400
Max ROB occupancy Critical Load Stall End: 0
 ROB Load Stall Begin Bucket Count 0: 6975478
 ROB Load Stall End Bucket Count 0: 6589423
 ROB Critical Load Stall Begin Bucket Count 0: 0
 ROB Critical Load Stall End Bucket Count 0: 0
 ROB Load Stall Begin Bucket Count 1: 523465
 ROB Load Stall End Bucket Count 1: 809330
 ROB Critical Load Stall Begin Bucket Count 1: 0
 ROB Critical Load Stall End Bucket Count 1: 0
 ROB Load Stall Begin Bucket Count 2: 136547
 ROB Load Stall End Bucket Count 2: 195587
 ROB Critical Load Stall Begin Bucket Count 2: 0
 ROB Critical Load Stall End Bucket Count 2: 0
 ROB Load Stall Begin Bucket Count 3: 105827
 ROB Load Stall End Bucket Count 3: 115849
 ROB Critical Load Stall Begin Bucket Count 3: 0
 ROB Critical Load Stall End Bucket Count 3: 0
 ROB Load Stall Begin Bucket Count 4: 19462
 ROB Load Stall End Bucket Count 4: 46753
 ROB Critical Load Stall Begin Bucket Count 4: 0
 ROB Critical Load Stall End Bucket Count 4: 0
 ROB Load Stall Begin Bucket Count 5: 3409
 ROB Load Stall End Bucket Count 5: 6282
 ROB Critical Load Stall Begin Bucket Count 5: 0
 ROB Critical Load Stall End Bucket Count 5: 0
 ROB Load Stall Begin Bucket Count 6: 125199
 ROB Load Stall End Bucket Count 6: 126163
 ROB Critical Load Stall Begin Bucket Count 6: 0
 ROB Critical Load Stall End Bucket Count 6: 0
PIST Tag Read Accesses: 3381412
PIST Read Accesses: 1690706
PIST Tag Write Accesses: 3381412
PIST Write Accesses: 1690706
Criticality detector called times: 5875821
Max global_stall_cycles_count: 1785306
Threshold Modified: 2 times, factor: -2
Sturdy critical IP cache stats: 
 Unused entries: 0
CIC Tag Read Accesses: 0
CIC Read Accesses: 0
CIC Tag Write Accesses: 0
CIC Write Accesses: 0
Wobbly critical IP cache stats: 
 Unused entries: 107
CIC Tag Read Accesses: 154841688
CIC Read Accesses: 0
CIC Tag Write Accesses: 135943
CIC Write Accesses: 0
ITLB TOTAL     ACCESS:   14519236  HIT:   14519236  MISS:          0  HIT %:        100  MISS %:          0   MPKI: 0
ITLB LOAD TRANSLATION ACCESS:   14519236  HIT:   14519236  MISS:          0  HIT %:        100  MISS %:          0   MPKI: 0
ITLB PREFETCH  REQUESTED:          0  ISSUED:          0  USEFUL:          0  USELESS:          0
ITLB USEFUL LOAD PREFETCHES:          0 PREFETCH ISSUED TO LOWER LEVEL:          0  ACCURACY: -nan
ITLB TIMELY PREFETCHES:          0 LATE PREFETCHES: 0 DROPPED PREFETCHES: 0
ITLB PREFETCHES SAME FILL-ORIGIN LEVEL: 0 DIFFERENT FILL-ORIGIN LEVEL: 0
ITLB AVERAGE MISS LATENCY: -nan cycles
ITLB RQ	ACCESS:   17182438	FORWARD:          0	MERGED:    2663202	TO_CACHE:   14519236

DTLB TOTAL     ACCESS:   19502513  HIT:   18880296  MISS:     622217  HIT %:    96.8096  MISS %:    3.19045   MPKI: 6.22217
DTLB LOAD TRANSLATION ACCESS:   19502513  HIT:   18880296  MISS:     622217  HIT %:    96.8096  MISS %:    3.19045   MPKI: 6.22217
DTLB PREFETCH  REQUESTED:          0  ISSUED:          0  USEFUL:          0  USELESS:          0
DTLB USEFUL LOAD PREFETCHES:          0 PREFETCH ISSUED TO LOWER LEVEL:          0  ACCURACY: -nan
DTLB TIMELY PREFETCHES:          0 LATE PREFETCHES: 0 DROPPED PREFETCHES: 0
DTLB PREFETCHES SAME FILL-ORIGIN LEVEL: 0 DIFFERENT FILL-ORIGIN LEVEL: 0
DTLB AVERAGE MISS LATENCY: 14.2076 cycles
DTLB RQ	ACCESS:   23324368	FORWARD:          0	MERGED:    3817124	TO_CACHE:   19507244

STLB TOTAL     ACCESS:    1224635  HIT:    1126060  MISS:      98575  HIT %:    91.9507  MISS %:    8.04934   MPKI: 0.98575
STLB LOAD TRANSLATION ACCESS:     622217  HIT:     523642  MISS:      98575  HIT %:    84.1575  MISS %:    15.8425   MPKI: 0.98575
STLB TRANSLATION FROM L1D PREFETCHER ACCESS:     602418  HIT:     602418  MISS:          0  HIT %:        100  MISS %:          0   MPKI: 0
STLB PREFETCH  REQUESTED:          0  ISSUED:          0  USEFUL:          0  USELESS:          0
STLB USEFUL LOAD PREFETCHES:          0 PREFETCH ISSUED TO LOWER LEVEL:          0  ACCURACY: -nan
STLB TIMELY PREFETCHES:          0 LATE PREFETCHES: 0 DROPPED PREFETCHES: 0
STLB PREFETCHES SAME FILL-ORIGIN LEVEL: 0 DIFFERENT FILL-ORIGIN LEVEL: 0
STLB AVERAGE MISS LATENCY: 32.7994 cycles
STLB RQ	ACCESS:    1293357	FORWARD:          0	MERGED:      68722	TO_CACHE:    1224635

STLB Hit, L1D data hit: 0
STLB Hit, L2C data hit: 0
STLB Hit, LLC data hit: 0
STLB Hit, LLC data miss: 0
STLB STLB hints to L2: 0
L1D TOTAL     ACCESS:   23896359  HIT:   22846752  MISS:    1049607  HIT %:    95.6077  MISS %:    4.39233   MPKI: 10.4961
L1D LOAD      ACCESS:   15957939  HIT:   15346265  MISS:     611674  HIT %:     96.167  MISS %:    3.83304   MPKI: 6.11674
L1D RFO       ACCESS:    7268261  HIT:    7172182  MISS:      96079  HIT %:    98.6781  MISS %:     1.3219   MPKI: 0.96079
L1D PREFETCH  ACCESS:     670159  HIT:     328305  MISS:     341854  HIT %:    48.9891  MISS %:    51.0109   MPKI: 3.41854
L1D PREFETCH  REQUESTED:    1342347  ISSUED:    1342347  USEFUL:      33407  USELESS:     308421
L1D USEFUL LOAD PREFETCHES:      33407 PREFETCH ISSUED TO LOWER LEVEL:     342450  ACCURACY: 9.75529
L1D TIMELY PREFETCHES:      33407 LATE PREFETCHES: 593 DROPPED PREFETCHES: 0
L1D PREFETCHES SAME FILL-ORIGIN LEVEL: 342450 DIFFERENT FILL-ORIGIN LEVEL: 0
L1D AVERAGE MISS LATENCY: 69840.1 cycles
L1D RQ	ACCESS:   22482222	FORWARD:          0	MERGED:    6403316	TO_CACHE:   16027984
L1D WQ	ACCESS:    7421072	FORWARD:      50989	MERGED:     124688	TO_CACHE:    7296384
L1D PQ	ACCESS:     671207	FORWARD:          0	MERGED:          0	TO_CACHE:     671140

L1D UNIQUE REGIONS ACCESSED: 0
L1D REGIONS CONFLICTS: 0
L1D Cross Page Prefetch Requests: 0
L1D Same Page Prefetch Requests: 1634709
L1D ROI Sum of L1D PQ occupancy: 8752129
L1D PREFETCHES PUSHED FROM L2C: 0
L1I TOTAL     ACCESS:   17182327  HIT:   17182109  MISS:        218  HIT %:    99.9987  MISS %: 0.00126875   MPKI: 0.00218
L1I LOAD      ACCESS:   17182327  HIT:   17182109  MISS:        218  HIT %:    99.9987  MISS %: 0.00126875   MPKI: 0.00218
L1I PREFETCH  REQUESTED:          0  ISSUED:          0  USEFUL:          0  USELESS:          0
L1I USEFUL LOAD PREFETCHES:          0 PREFETCH ISSUED TO LOWER LEVEL:          0  ACCURACY: -nan
L1I TIMELY PREFETCHES:          0 LATE PREFETCHES: 0 DROPPED PREFETCHES: 0
L1I PREFETCHES SAME FILL-ORIGIN LEVEL: 0 DIFFERENT FILL-ORIGIN LEVEL: 0
L1I AVERAGE MISS LATENCY: 137.335 cycles
L1I RQ	ACCESS:   26113417	FORWARD:          0	MERGED:    8930979	TO_CACHE:   17182438

BTB TOTAL     ACCESS:   12852734  HIT:   12753229  MISS:      99505  HIT %:    99.2258  MISS %:   0.774193   MPKI: 0.99505
BTB BRANCH_DIRECT_JUMP	ACCESS:    1234013  HIT:    1233935  MISS:         78
BTB BRANCH_INDIRECT	ACCESS:     174583  HIT:      79437  MISS:      95146
BTB BRANCH_CONDITIONAL	ACCESS:   11233583  HIT:   11233341  MISS:        242
BTB BRANCH_DIRECT_CALL	ACCESS:      66557  HIT:      66538  MISS:         19
BTB BRANCH_INDIRECT_CALL	ACCESS:      38721  HIT:      38714  MISS:          7
BTB BRANCH_RETURN	ACCESS:     105277  HIT:     101264  MISS:       4013
BTB BRANCH_OTHER ACCESS:          0  HIT:          0  MISS:          0

L2C TOTAL     ACCESS:    1628818  HIT:    1026488  MISS:     602330  HIT %:    63.0204  MISS %:    36.9796   MPKI: 6.0233
L2C LOAD      ACCESS:     611298  HIT:     282192  MISS:     329106  HIT %:    46.1628  MISS %:    53.8372   MPKI: 3.29106
L2C DATA LOAD MPKI: 3.28888
L2C INSTRUCTION LOAD MPKI: 0.00218
L2C RFO       ACCESS:      96075  HIT:      65248  MISS:      30827  HIT %:    67.9136  MISS %:    32.0864   MPKI: 0.30827
L2C PREFETCH  ACCESS:     342449  HIT:     130195  MISS:     212254  HIT %:    38.0188  MISS %:    61.9812   MPKI: 2.12254
L2C DATA PREFETCH MPKI: 2.12254
L2C INSTRUCTION PREFETCH MPKI: 0
L2C WRITEBACK ACCESS:     480372  HIT:     473112  MISS:       7260  HIT %:    98.4887  MISS %:    1.51133   MPKI: 0.0726
L2C LOAD TRANSLATION ACCESS:      98624  HIT:      75741  MISS:      22883  HIT %:    76.7977  MISS %:    23.2023   MPKI: 0.22883
L2C PREFETCH  REQUESTED:          0  ISSUED:          0  USEFUL:      15265  USELESS:     196948
L2C USEFUL LOAD PREFETCHES:      15265 PREFETCH ISSUED TO LOWER LEVEL:     212255  ACCURACY: 7.19182
L2C TIMELY PREFETCHES:      15265 LATE PREFETCHES: 0 DROPPED PREFETCHES: 0
L2C PREFETCHES SAME FILL-ORIGIN LEVEL: 0 DIFFERENT FILL-ORIGIN LEVEL: 0
L2C AVERAGE MISS LATENCY: 109.138 cycles
L2C RQ	ACCESS:     806000	FORWARD:          0	MERGED:          0	TO_CACHE:     805997
L2C WQ	ACCESS:     480372	FORWARD:          3	MERGED:          0	TO_CACHE:     480372
L2C PQ	ACCESS:     342450	FORWARD:          0	MERGED:          0	TO_CACHE:     342450

L2C Instructions Evicting Data 211
L2C Translations Evicting Data 22051
L2C Data Evicting Data 549984
L2C Instructions Evicting Instructions 1
L2C Translations Evicting Instructions 13
L2C Data Evicting Instructions 202
L2C Instructions Evicting Translations 6
L2C Translations Evicting Translations 819
L2C Data Evicting Translations 21783
L2C Dense regions hint from L2: 0
PSCL5 TOTAL     ACCESS:      98575  HIT:      98575  MISS:          0  HIT %:        100  MISS %:          0   MPKI: 0
PSCL5 LOAD TRANSLATION ACCESS:      98575  HIT:      98575  MISS:          0  HIT %:        100  MISS %:          0   MPKI: 0
PSCL5 PREFETCH  REQUESTED:          0  ISSUED:          0  USEFUL:          0  USELESS:          0
PSCL5 USEFUL LOAD PREFETCHES:          0 PREFETCH ISSUED TO LOWER LEVEL:          0  ACCURACY: -nan
PSCL5 TIMELY PREFETCHES:          0 LATE PREFETCHES: 0 DROPPED PREFETCHES: 0
PSCL5 PREFETCHES SAME FILL-ORIGIN LEVEL: 0 DIFFERENT FILL-ORIGIN LEVEL: 0

PSCL4 TOTAL     ACCESS:      98575  HIT:      98575  MISS:          0  HIT %:        100  MISS %:          0   MPKI: 0
PSCL4 LOAD TRANSLATION ACCESS:      98575  HIT:      98575  MISS:          0  HIT %:        100  MISS %:          0   MPKI: 0
PSCL4 PREFETCH  REQUESTED:          0  ISSUED:          0  USEFUL:          0  USELESS:          0
PSCL4 USEFUL LOAD PREFETCHES:          0 PREFETCH ISSUED TO LOWER LEVEL:          0  ACCURACY: -nan
PSCL4 TIMELY PREFETCHES:          0 LATE PREFETCHES: 0 DROPPED PREFETCHES: 0
PSCL4 PREFETCHES SAME FILL-ORIGIN LEVEL: 0 DIFFERENT FILL-ORIGIN LEVEL: 0

PSCL3 TOTAL     ACCESS:      98575  HIT:      98575  MISS:          0  HIT %:        100  MISS %:          0   MPKI: 0
PSCL3 LOAD TRANSLATION ACCESS:      98575  HIT:      98575  MISS:          0  HIT %:        100  MISS %:          0   MPKI: 0
PSCL3 PREFETCH  REQUESTED:          0  ISSUED:          0  USEFUL:          0  USELESS:          0
PSCL3 USEFUL LOAD PREFETCHES:          0 PREFETCH ISSUED TO LOWER LEVEL:          0  ACCURACY: -nan
PSCL3 TIMELY PREFETCHES:          0 LATE PREFETCHES: 0 DROPPED PREFETCHES: 0
PSCL3 PREFETCHES SAME FILL-ORIGIN LEVEL: 0 DIFFERENT FILL-ORIGIN LEVEL: 0

PSCL2 TOTAL     ACCESS:      98575  HIT:      98526  MISS:         49  HIT %:    99.9503  MISS %:  0.0497083   MPKI: 0.00049
PSCL2 LOAD TRANSLATION ACCESS:      98575  HIT:      98526  MISS:         49  HIT %:    99.9503  MISS %:  0.0497083   MPKI: 0.00049
PSCL2 PREFETCH  REQUESTED:          0  ISSUED:          0  USEFUL:          0  USELESS:          0
PSCL2 USEFUL LOAD PREFETCHES:          0 PREFETCH ISSUED TO LOWER LEVEL:          0  ACCURACY: -nan
PSCL2 TIMELY PREFETCHES:          0 LATE PREFETCHES: 0 DROPPED PREFETCHES: 0
PSCL2 PREFETCHES SAME FILL-ORIGIN LEVEL: 0 DIFFERENT FILL-ORIGIN LEVEL: 0

LLC TOTAL     ACCESS:     858413  HIT:     576855  MISS:     281558  HIT %:    67.2002  MISS %:    32.7998   MPKI: 2.81558
LLC LOAD      ACCESS:     329106  HIT:     172107  MISS:     156999  HIT %:    52.2953  MISS %:    47.7047   MPKI: 1.56999
LLC RFO       ACCESS:      30827  HIT:      10915  MISS:      19912  HIT %:    35.4073  MISS %:    64.5927   MPKI: 0.19912
LLC PREFETCH  ACCESS:     212254  HIT:     116111  MISS:      96143  HIT %:    54.7038  MISS %:    45.2962   MPKI: 0.96143
LLC WRITEBACK ACCESS:     263343  HIT:     256966  MISS:       6377  HIT %:    97.5784  MISS %:    2.42156   MPKI: 0.06377
LLC LOAD TRANSLATION ACCESS:      22883  HIT:      20756  MISS:       2127  HIT %:    90.7049  MISS %:    9.29511   MPKI: 0.02127
LLC PREFETCH  REQUESTED:          0  ISSUED:          0  USEFUL:      12128  USELESS:      84345
LLC USEFUL LOAD PREFETCHES:      12128 PREFETCH ISSUED TO LOWER LEVEL:      96144  ACCURACY: 12.6144
LLC TIMELY PREFETCHES:      12128 LATE PREFETCHES: 0 DROPPED PREFETCHES: 0
LLC PREFETCHES SAME FILL-ORIGIN LEVEL: 0 DIFFERENT FILL-ORIGIN LEVEL: 0
LLC AVERAGE MISS LATENCY: 169.99 cycles
LLC RQ	ACCESS:     382816	FORWARD:          0	MERGED:          0	TO_CACHE:     382816
LLC WQ	ACCESS:     263343	FORWARD:          0	MERGED:          0	TO_CACHE:     263343
LLC PQ	ACCESS:     212255	FORWARD:          0	MERGED:          0	TO_CACHE:     212255

LLC Dense regions hint to LLC: 0

RAW hits: 911981
Loads Generated: 23394204
Loads sent to L1D: 22482222
Stores Generated: 7421071
Stores sent to L1D: 7421072
Major fault: 0 Minor fault: 7620
Allocated PAGES: 7620

stream: 
stream:times selected: 2418799
stream:pref_filled: 481903
stream:pref_useful: 48698
stream:pref_late: 644
stream:misses: 79839
stream:misses_by_poll: 0

CS: 
CS:times selected: 116419
CS:pref_filled: 19651
CS:pref_useful: 13807
CS:pref_late: 25
CS:misses: 1165
CS:misses_by_poll: 5

CPLX: 
CPLX:times selected: 2286270
CPLX:pref_filled: 139470
CPLX:pref_useful: 8825
CPLX:pref_late: 34
CPLX:misses: 296124
CPLX:misses_by_poll: 232

NL_L1: 
NL:times selected: 14821
NL:pref_filled: 5299
NL:pref_useful: 788
NL:pref_late: 7
NL:misses: 3391
NL:misses_by_poll: 1

total selections: 4836309
total_filled: 341854
total_useful: 33407
total_late: 776
total_polluted: 238
total_misses_after_warmup: 218164
conflicts: 71662
Degree Incremented Times: 21170
Degree Decremented Times: 126371

L1 IP Table Write Accesses: 2990383
L1 IP Table Read Accesses: 2918721
L1 RST Write Accesses: 1103900
L1 RST Read Accesses: 2207800
L1 CSPT Write Accesses: 1103900
L1 CSPT Read Accesses: 2171015
L1 RR Filter Tag Write Accesses: 671207
L1 RR Filter Tag Read Accesses: 34694224
L1 IP Table Tag Write Accesses: 3091064
L1 IP Table Tag Read Accesses: 3091064
L1 RST Tag Write Accesses: 0
L1 RST Tag Read Accesses: 10069253
L1 RR Filter Write Accesses: 0
L1 RR Filter Read Accesses: 1358459
test: 1068250

DRAM Statistics
 CHANNEL 0
 RQ ROW_BUFFER_HIT:       4750  ROW_BUFFER_MISS:     270427
 DBUS_CONGESTED:          8
 WQ ROW_BUFFER_HIT:      32449  ROW_BUFFER_MISS:     131347  FULL:          0

 AVG_CONGESTED_CYCLE: 5
 All warmup complete: 2
Channel 0 Bank busy for read cycles: 0
Channel 0 Bank busy for write cycles: 0
Channel 0
Rank 0
0banks busy for read cycles: 126033412
0banks busy for write cycles: 87440
1banks busy for read cycles: 20657334
1banks busy for write cycles: 12548257
2banks busy for read cycles: 7179347
2banks busy for write cycles: 4110945
3banks busy for read cycles: 1292796
3banks busy for write cycles: 1387553
4banks busy for read cycles: 343740
4banks busy for write cycles: 499322
5banks busy for read cycles: 75615
5banks busy for write cycles: 184133
6banks busy for read cycles: 20223
6banks busy for write cycles: 64598
7banks busy for read cycles: 3991
7banks busy for write cycles: 32869
8banks busy for read cycles: 625
8banks busy for write cycles: 49514

CPU 0 Branch Prediction Accuracy: 92.2625% MPKI: 10.436 Average ROB Occupancy at Mispredict: 25.9945
Branch types
NOT_BRANCH: 86512123 86.5121%
BRANCH_DIRECT_JUMP: 1234013 1.23401%
BRANCH_INDIRECT: 174583 0.174583%
BRANCH_CONDITIONAL: 11868384 11.8684%
BRANCH_DIRECT_CALL: 66557 0.066557%
BRANCH_INDIRECT_CALL: 38721 0.038721%
BRANCH_RETURN: 105277 0.105277%
BRANCH_OTHER: 0 0%

DRAM PAGES: 1048576
Allocated PAGES: 7620
