Initialize SIGNATURE TABLE
ST_SET: 1
ST_WAY: 256
ST_TAG_BIT: 16
ST_TAG_MASK: ffff

Initialize PATTERN TABLE
PT_SET: 512
PT_WAY: 4
SIG_DELTA_BIT: 7
C_SIG_BIT: 4
C_DELTA_BIT: 4

Initialize PREFETCH FILTER
FILTER_SET: 1024

*** ChampSim Multicore Out-of-Order Simulator ***

Warmup Instructions: 50000000
Simulation Instructions: 100000000
Number of CPUs: 1
LLC sets: 2048
LLC ways: 16
Off-chip DRAM Size: 4096 MB Channels: 1 Width: 64-bit Data Rate: 6400 MT/s
CPU 0 runs ../SPEC2017//657.xz_s-2302B.champsimtrace.xz
.xz
BTB has LRU replacement policy
ITLB has LRU replacement policy
DTLB has LRU replacement policy
STLB has LRU replacement policy
L1I has LRU replacement policy
L1D has LRU replacement policy
Initialize SRRIP state for L2C
Initialize DRRIP state for LLC
Heartbeat CPU 0 instructions: 10000003 cycles: 2791411 heartbeat IPC: 3.58242 cumulative IPC: 3.58242 (Simulation time: 0 hr 5 min 33 sec) 
Heartbeat CPU 0 instructions: 20000002 cycles: 5586923 heartbeat IPC: 3.57716 cumulative IPC: 3.57979 (Simulation time: 0 hr 11 min 8 sec) 
Heartbeat CPU 0 instructions: 30000000 cycles: 8416612 heartbeat IPC: 3.53396 cumulative IPC: 3.56438 (Simulation time: 0 hr 16 min 6 sec) 
Heartbeat CPU 0 instructions: 40000003 cycles: 11203335 heartbeat IPC: 3.58845 cumulative IPC: 3.57037 (Simulation time: 0 hr 20 min 29 sec) 
Heartbeat CPU 0 instructions: 50000000 cycles: 13995827 heartbeat IPC: 3.58103 cumulative IPC: 3.57249 (Simulation time: 0 hr 24 min 43 sec) 

Warmup complete CPU 0 instructions: 50000004 cycles: 13995828 (Simulation time: 0 hr 24 min 43 sec) 

Heartbeat CPU 0 instructions: 60000002 cycles: 31660155 heartbeat IPC: 0.566113 cumulative IPC: 0.566113 (Simulation time: 0 hr 29 min 50 sec) 
Heartbeat CPU 0 instructions: 70000000 cycles: 48652728 heartbeat IPC: 0.588492 cumulative IPC: 0.577086 (Simulation time: 0 hr 34 min 17 sec) 
Heartbeat CPU 0 instructions: 80000003 cycles: 66079286 heartbeat IPC: 0.573837 cumulative IPC: 0.575999 (Simulation time: 0 hr 38 min 39 sec) 
Heartbeat CPU 0 instructions: 90000002 cycles: 83765282 heartbeat IPC: 0.565419 cumulative IPC: 0.573317 (Simulation time: 0 hr 42 min 56 sec) 
Heartbeat CPU 0 instructions: 100000001 cycles: 100728322 heartbeat IPC: 0.589517 cumulative IPC: 0.576485 (Simulation time: 0 hr 47 min 1 sec) 
Heartbeat CPU 0 instructions: 110000000 cycles: 118373120 heartbeat IPC: 0.566739 cumulative IPC: 0.574838 (Simulation time: 0 hr 50 min 46 sec) 
Heartbeat CPU 0 instructions: 120000003 cycles: 136208679 heartbeat IPC: 0.560678 cumulative IPC: 0.572771 (Simulation time: 0 hr 54 min 23 sec) 
Heartbeat CPU 0 instructions: 130000000 cycles: 154077043 heartbeat IPC: 0.559648 cumulative IPC: 0.571097 (Simulation time: 0 hr 57 min 48 sec) 
Heartbeat CPU 0 instructions: 140000000 cycles: 170579155 heartbeat IPC: 0.605983 cumulative IPC: 0.574774 (Simulation time: 1 hr 0 min 55 sec) 
Heartbeat CPU 0 instructions: 150000003 cycles: 188436915 heartbeat IPC: 0.559981 cumulative IPC: 0.573259 (Simulation time: 1 hr 4 min 1 sec) 
Finished CPU 0 instructions: 100000002 cycles: 174441088 cumulative IPC: 0.573259 (Simulation time: 1 hr 4 min 1 sec) 

ChampSim completed all CPUs

Region of Interest Statistics

CPU 0 cumulative IPC: 0.573259 instructions: 100000002 cycles: 174441088

CPU 0 Average Load ROB stall cycles: 4.27629e+07
CPU 0 Fraction of times ROB stalled by Loads: 42.0596
CPU 0 Percentage of Load stall cycles in Total stall cycles: 5.75607e+08
Issued all: 56225524
Issued LT all: 43109353
rob_not_full_when_issued_lt_all: 40650000
Issued LT one: 36136858
rob_not_full_when_issued_lt_one: 33882345
 Total stall cycles: 139156546
 Total load stall cycles: 800994547278816
Unique Load IPs: 1125
CPU 0 NUM of IPS identified critical: 7
CPU 0 Num of Load IPs stalling ROB: 0
Threshold modification factor: 0
Trouble in retire width: -nan
MaC = Marked as critical.
lt_50_percent_before_Mac: 3
gt_90_percent_before_Mac: 2
gt_75_percent_before_Mac: 0
gt_50_percent_before_Mac: 2
stall_proportion_bin_same_before_after: 0
stall_proportion_bin_lower_before_after: 0
stall_proportion_bin_upper_before_after: 0
average_stall_proportion_before: 0.0641354
average_stall_proportion_after: 0.0638701
Critical_IP_Detector_Accuracy_70: 0.142857
Critical_IP_Detector_Accuracy_80: 0.142857
Critical_IP_Detector_Accuracy_90: 0.142857
Critical_IP_Detector_Coverage_70: 1
Critical_IP_Detector_Coverage_80: 1
Critical_IP_Detector_Coverage_90: 1
stat_90_percent_critical_ip_stalls_freq: 864646
stat_90_percent_non_critical_ip_stalls_freq: 18446744073708686970
AVERAGE_ROB_Occupancy_90_Percent_Critical_IP_Stalls: 11.5529
AVERAGE_ROB_Occupancy_90_Percent_Non_Critical_IP_Stalls: 1.47046e-11
Critical_IP_ROB_Stalls_Bucket_0: 1215606
Non-critical_IP_ROB_Stalls_Bucket_0: 5360415
Critical_IP_ROB_Stalls_Bucket_1: 35438
Non-critical_IP_ROB_Stalls_Bucket_1: 776809
Critical_IP_ROB_Stalls_Bucket_2: 4172
Non-critical_IP_ROB_Stalls_Bucket_2: 191183
Critical_IP_ROB_Stalls_Bucket_3: 1777
Non-critical_IP_ROB_Stalls_Bucket_3: 113828
Critical_IP_ROB_Stalls_Bucket_4: 700
Non-critical_IP_ROB_Stalls_Bucket_4: 46066
Critical_IP_ROB_Stalls_Bucket_5: 597
Non-critical_IP_ROB_Stalls_Bucket_5: 5489
Critical_IP_ROB_Stalls_Bucket_6: 432
Non-critical_IP_ROB_Stalls_Bucket_6: 125712
0 => IPs accounting for >50 percent of stalls, 1 => 55, 2 => 60, 3 => 65 and so on till 90.
percent50: inf num IPs:  1
percent55: inf num IPs: 1
percent60: inf num IPs: 1
percent65: inf num IPs: 1
percent70: inf num IPs: 1
percent75: inf num IPs: 1
percent80: inf num IPs: 1
percent85: inf num IPs: 1
percent90: inf num IPs: 1
Critical_ROB_Stalls_Percent_0_Bucket_0: 861697
Non-critical_ROB_Stalls_Percent_0_Bucket_0: 5714324
Critical_ROB_Stalls_Percent_0_Bucket_1: 1454
Non-critical_ROB_Stalls_Percent_0_Bucket_1: 810793
Critical_ROB_Stalls_Percent_0_Bucket_2: 882
Non-critical_ROB_Stalls_Percent_0_Bucket_2: 194473
Critical_ROB_Stalls_Percent_0_Bucket_3: 505
Non-critical_ROB_Stalls_Percent_0_Bucket_3: 115100
Critical_ROB_Stalls_Percent_0_Bucket_4: 69
Non-critical_ROB_Stalls_Percent_0_Bucket_4: 46697
Critical_ROB_Stalls_Percent_0_Bucket_5: 29
Non-critical_ROB_Stalls_Percent_0_Bucket_5: 6057
Critical_ROB_Stalls_Percent_0_Bucket_6: 10
Non-critical_ROB_Stalls_Percent_0_Bucket_6: 126134
Critical_ROB_Stalls_Percent_1_Bucket_0: 861697
Non-critical_ROB_Stalls_Percent_1_Bucket_0: 5714324
Critical_ROB_Stalls_Percent_1_Bucket_1: 1454
Non-critical_ROB_Stalls_Percent_1_Bucket_1: 810793
Critical_ROB_Stalls_Percent_1_Bucket_2: 882
Non-critical_ROB_Stalls_Percent_1_Bucket_2: 194473
Critical_ROB_Stalls_Percent_1_Bucket_3: 505
Non-critical_ROB_Stalls_Percent_1_Bucket_3: 115100
Critical_ROB_Stalls_Percent_1_Bucket_4: 69
Non-critical_ROB_Stalls_Percent_1_Bucket_4: 46697
Critical_ROB_Stalls_Percent_1_Bucket_5: 29
Non-critical_ROB_Stalls_Percent_1_Bucket_5: 6057
Critical_ROB_Stalls_Percent_1_Bucket_6: 10
Non-critical_ROB_Stalls_Percent_1_Bucket_6: 126134
Critical_ROB_Stalls_Percent_2_Bucket_0: 861697
Non-critical_ROB_Stalls_Percent_2_Bucket_0: 5714324
Critical_ROB_Stalls_Percent_2_Bucket_1: 1454
Non-critical_ROB_Stalls_Percent_2_Bucket_1: 810793
Critical_ROB_Stalls_Percent_2_Bucket_2: 882
Non-critical_ROB_Stalls_Percent_2_Bucket_2: 194473
Critical_ROB_Stalls_Percent_2_Bucket_3: 505
Non-critical_ROB_Stalls_Percent_2_Bucket_3: 115100
Critical_ROB_Stalls_Percent_2_Bucket_4: 69
Non-critical_ROB_Stalls_Percent_2_Bucket_4: 46697
Critical_ROB_Stalls_Percent_2_Bucket_5: 29
Non-critical_ROB_Stalls_Percent_2_Bucket_5: 6057
Critical_ROB_Stalls_Percent_2_Bucket_6: 10
Non-critical_ROB_Stalls_Percent_2_Bucket_6: 126134
Critical_ROB_Stalls_Percent_3_Bucket_0: 861697
Non-critical_ROB_Stalls_Percent_3_Bucket_0: 5714324
Critical_ROB_Stalls_Percent_3_Bucket_1: 1454
Non-critical_ROB_Stalls_Percent_3_Bucket_1: 810793
Critical_ROB_Stalls_Percent_3_Bucket_2: 882
Non-critical_ROB_Stalls_Percent_3_Bucket_2: 194473
Critical_ROB_Stalls_Percent_3_Bucket_3: 505
Non-critical_ROB_Stalls_Percent_3_Bucket_3: 115100
Critical_ROB_Stalls_Percent_3_Bucket_4: 69
Non-critical_ROB_Stalls_Percent_3_Bucket_4: 46697
Critical_ROB_Stalls_Percent_3_Bucket_5: 29
Non-critical_ROB_Stalls_Percent_3_Bucket_5: 6057
Critical_ROB_Stalls_Percent_3_Bucket_6: 10
Non-critical_ROB_Stalls_Percent_3_Bucket_6: 126134
Critical_ROB_Stalls_Percent_4_Bucket_0: 861697
Non-critical_ROB_Stalls_Percent_4_Bucket_0: 5714324
Critical_ROB_Stalls_Percent_4_Bucket_1: 1454
Non-critical_ROB_Stalls_Percent_4_Bucket_1: 810793
Critical_ROB_Stalls_Percent_4_Bucket_2: 882
Non-critical_ROB_Stalls_Percent_4_Bucket_2: 194473
Critical_ROB_Stalls_Percent_4_Bucket_3: 505
Non-critical_ROB_Stalls_Percent_4_Bucket_3: 115100
Critical_ROB_Stalls_Percent_4_Bucket_4: 69
Non-critical_ROB_Stalls_Percent_4_Bucket_4: 46697
Critical_ROB_Stalls_Percent_4_Bucket_5: 29
Non-critical_ROB_Stalls_Percent_4_Bucket_5: 6057
Critical_ROB_Stalls_Percent_4_Bucket_6: 10
Non-critical_ROB_Stalls_Percent_4_Bucket_6: 126134
Critical_ROB_Stalls_Percent_5_Bucket_0: 861697
Non-critical_ROB_Stalls_Percent_5_Bucket_0: 5714324
Critical_ROB_Stalls_Percent_5_Bucket_1: 1454
Non-critical_ROB_Stalls_Percent_5_Bucket_1: 810793
Critical_ROB_Stalls_Percent_5_Bucket_2: 882
Non-critical_ROB_Stalls_Percent_5_Bucket_2: 194473
Critical_ROB_Stalls_Percent_5_Bucket_3: 505
Non-critical_ROB_Stalls_Percent_5_Bucket_3: 115100
Critical_ROB_Stalls_Percent_5_Bucket_4: 69
Non-critical_ROB_Stalls_Percent_5_Bucket_4: 46697
Critical_ROB_Stalls_Percent_5_Bucket_5: 29
Non-critical_ROB_Stalls_Percent_5_Bucket_5: 6057
Critical_ROB_Stalls_Percent_5_Bucket_6: 10
Non-critical_ROB_Stalls_Percent_5_Bucket_6: 126134
Critical_ROB_Stalls_Percent_6_Bucket_0: 861697
Non-critical_ROB_Stalls_Percent_6_Bucket_0: 5714324
Critical_ROB_Stalls_Percent_6_Bucket_1: 1454
Non-critical_ROB_Stalls_Percent_6_Bucket_1: 810793
Critical_ROB_Stalls_Percent_6_Bucket_2: 882
Non-critical_ROB_Stalls_Percent_6_Bucket_2: 194473
Critical_ROB_Stalls_Percent_6_Bucket_3: 505
Non-critical_ROB_Stalls_Percent_6_Bucket_3: 115100
Critical_ROB_Stalls_Percent_6_Bucket_4: 69
Non-critical_ROB_Stalls_Percent_6_Bucket_4: 46697
Critical_ROB_Stalls_Percent_6_Bucket_5: 29
Non-critical_ROB_Stalls_Percent_6_Bucket_5: 6057
Critical_ROB_Stalls_Percent_6_Bucket_6: 10
Non-critical_ROB_Stalls_Percent_6_Bucket_6: 126134
Critical_ROB_Stalls_Percent_7_Bucket_0: 861697
Non-critical_ROB_Stalls_Percent_7_Bucket_0: 5714324
Critical_ROB_Stalls_Percent_7_Bucket_1: 1454
Non-critical_ROB_Stalls_Percent_7_Bucket_1: 810793
Critical_ROB_Stalls_Percent_7_Bucket_2: 882
Non-critical_ROB_Stalls_Percent_7_Bucket_2: 194473
Critical_ROB_Stalls_Percent_7_Bucket_3: 505
Non-critical_ROB_Stalls_Percent_7_Bucket_3: 115100
Critical_ROB_Stalls_Percent_7_Bucket_4: 69
Non-critical_ROB_Stalls_Percent_7_Bucket_4: 46697
Critical_ROB_Stalls_Percent_7_Bucket_5: 29
Non-critical_ROB_Stalls_Percent_7_Bucket_5: 6057
Critical_ROB_Stalls_Percent_7_Bucket_6: 10
Non-critical_ROB_Stalls_Percent_7_Bucket_6: 126134
Critical_ROB_Stalls_Percent_8_Bucket_0: 861697
Non-critical_ROB_Stalls_Percent_8_Bucket_0: 5714324
Critical_ROB_Stalls_Percent_8_Bucket_1: 1454
Non-critical_ROB_Stalls_Percent_8_Bucket_1: 810793
Critical_ROB_Stalls_Percent_8_Bucket_2: 882
Non-critical_ROB_Stalls_Percent_8_Bucket_2: 194473
Critical_ROB_Stalls_Percent_8_Bucket_3: 505
Non-critical_ROB_Stalls_Percent_8_Bucket_3: 115100
Critical_ROB_Stalls_Percent_8_Bucket_4: 69
Non-critical_ROB_Stalls_Percent_8_Bucket_4: 46697
Critical_ROB_Stalls_Percent_8_Bucket_5: 29
Non-critical_ROB_Stalls_Percent_8_Bucket_5: 6057
Critical_ROB_Stalls_Percent_8_Bucket_6: 10
Non-critical_ROB_Stalls_Percent_8_Bucket_6: 126134
Average ROB occupancy Load Stall Begin: 29.4849
Average ROB occupancy Load Stall End: 35.6986
Min ROB occupancy Load Stall Begin: 1
Max ROB occupancy Load Stall Begin: 352
Min ROB occupancy Load Stall End: 1
Max ROB occupancy Load Stall End: 352
Average ROB occupancy Critical Load Stall Begin: 11.7848
Average ROB occupancy Critical Load Stall End: 14.2558
Min ROB occupancy Critical Load Stall Begin: 2
Max ROB occupancy Critical Load Stall Begin: 350
Min ROB occupancy Critical Load Stall End: 2
Max ROB occupancy Critical Load Stall End: 352
 ROB Load Stall Begin Bucket Count 0: 6964253
 ROB Load Stall End Bucket Count 0: 6576021
 ROB Critical Load Stall Begin Bucket Count 0: 464912
 ROB Critical Load Stall End Bucket Count 0: 462366
 ROB Load Stall Begin Bucket Count 1: 523813
 ROB Load Stall End Bucket Count 1: 812247
 ROB Critical Load Stall Begin Bucket Count 1: 2640
 ROB Critical Load Stall End Bucket Count 1: 4730
 ROB Load Stall Begin Bucket Count 2: 136311
 ROB Load Stall End Bucket Count 2: 195355
 ROB Critical Load Stall Begin Bucket Count 2: 749
 ROB Critical Load Stall End Bucket Count 2: 961
 ROB Load Stall Begin Bucket Count 3: 105779
 ROB Load Stall End Bucket Count 3: 115605
 ROB Critical Load Stall Begin Bucket Count 3: 286
 ROB Critical Load Stall End Bucket Count 3: 404
 ROB Load Stall Begin Bucket Count 4: 19500
 ROB Load Stall End Bucket Count 4: 46766
 ROB Critical Load Stall Begin Bucket Count 4: 77
 ROB Critical Load Stall End Bucket Count 4: 121
 ROB Load Stall Begin Bucket Count 5: 3339
 ROB Load Stall End Bucket Count 5: 6086
 ROB Critical Load Stall Begin Bucket Count 5: 41
 ROB Critical Load Stall End Bucket Count 5: 93
 ROB Load Stall Begin Bucket Count 6: 125229
 ROB Load Stall End Bucket Count 6: 126144
 ROB Critical Load Stall Begin Bucket Count 6: 13
 ROB Critical Load Stall End Bucket Count 6: 43
PIST Tag Read Accesses: 0
PIST Read Accesses: 0
PIST Tag Write Accesses: 0
PIST Write Accesses: 0
Criticality detector called times: 0
Max global_stall_cycles_count: 0
Threshold Modified: 0 times, factor: 0
Sturdy critical IP cache stats: 
 Unused entries: 0
CIC Tag Read Accesses: 0
CIC Read Accesses: 0
CIC Tag Write Accesses: 0
CIC Write Accesses: 0
Wobbly critical IP cache stats: 
 Unused entries: 11
CIC Tag Read Accesses: 246510807
CIC Read Accesses: 0
CIC Tag Write Accesses: 1188889
CIC Write Accesses: 0
ITLB TOTAL     ACCESS:   14519315  HIT:   14519315  MISS:          0  HIT %:        100  MISS %:          0   MPKI: 0
ITLB LOAD TRANSLATION ACCESS:   14519315  HIT:   14519315  MISS:          0  HIT %:        100  MISS %:          0   MPKI: 0
ITLB PREFETCH  REQUESTED:          0  ISSUED:          0  USEFUL:          0  USELESS:          0
ITLB USEFUL LOAD PREFETCHES:          0 PREFETCH ISSUED TO LOWER LEVEL:          0  ACCURACY: -nan
ITLB TIMELY PREFETCHES:          0 LATE PREFETCHES: 0 DROPPED PREFETCHES: 0
ITLB PREFETCHES SAME FILL-ORIGIN LEVEL: 0 DIFFERENT FILL-ORIGIN LEVEL: 0
ITLB AVERAGE MISS LATENCY: -nan cycles
ITLB RQ	ACCESS:   17182495	FORWARD:          0	MERGED:    2663180	TO_CACHE:   14519315

DTLB TOTAL     ACCESS:   19507585  HIT:   18885372  MISS:     622213  HIT %:    96.8104  MISS %:     3.1896   MPKI: 6.22213
DTLB LOAD TRANSLATION ACCESS:   19507585  HIT:   18885372  MISS:     622213  HIT %:    96.8104  MISS %:     3.1896   MPKI: 6.22213
DTLB PREFETCH  REQUESTED:          0  ISSUED:          0  USEFUL:          0  USELESS:          0
DTLB USEFUL LOAD PREFETCHES:          0 PREFETCH ISSUED TO LOWER LEVEL:          0  ACCURACY: -nan
DTLB TIMELY PREFETCHES:          0 LATE PREFETCHES: 0 DROPPED PREFETCHES: 0
DTLB PREFETCHES SAME FILL-ORIGIN LEVEL: 0 DIFFERENT FILL-ORIGIN LEVEL: 0
DTLB AVERAGE MISS LATENCY: 13.6035 cycles
DTLB RQ	ACCESS:   23329238	FORWARD:          0	MERGED:    3816959	TO_CACHE:   19512279

STLB TOTAL     ACCESS:     622213  HIT:     523651  MISS:      98562  HIT %:    84.1594  MISS %:    15.8406   MPKI: 0.98562
STLB LOAD TRANSLATION ACCESS:     622213  HIT:     523651  MISS:      98562  HIT %:    84.1594  MISS %:    15.8406   MPKI: 0.98562
STLB PREFETCH  REQUESTED:          0  ISSUED:          0  USEFUL:          0  USELESS:          0
STLB USEFUL LOAD PREFETCHES:          0 PREFETCH ISSUED TO LOWER LEVEL:          0  ACCURACY: -nan
STLB TIMELY PREFETCHES:          0 LATE PREFETCHES: 0 DROPPED PREFETCHES: 0
STLB PREFETCHES SAME FILL-ORIGIN LEVEL: 0 DIFFERENT FILL-ORIGIN LEVEL: 0
STLB AVERAGE MISS LATENCY: 28.989 cycles
STLB RQ	ACCESS:     622213	FORWARD:          0	MERGED:          0	TO_CACHE:     622213

STLB Hit, L1D data hit: 0
STLB Hit, L2C data hit: 0
STLB Hit, LLC data hit: 0
STLB Hit, LLC data miss: 0
STLB STLB hints to L2: 0
L1D TOTAL     ACCESS:   23225677  HIT:   22535282  MISS:     690395  HIT %:    97.0274  MISS %:    2.97255   MPKI: 6.90395
L1D LOAD      ACCESS:   15954657  HIT:   15347559  MISS:     607098  HIT %:    96.1949  MISS %:    3.80515   MPKI: 6.07098
L1D RFO       ACCESS:    7271020  HIT:    7187723  MISS:      83297  HIT %:    98.8544  MISS %:     1.1456   MPKI: 0.83297
L1D PREFETCH  REQUESTED:          0  ISSUED:          0  USEFUL:          0  USELESS:          0
L1D USEFUL LOAD PREFETCHES:          0 PREFETCH ISSUED TO LOWER LEVEL:          0  ACCURACY: -nan
L1D TIMELY PREFETCHES:          0 LATE PREFETCHES: 0 DROPPED PREFETCHES: 0
L1D PREFETCHES SAME FILL-ORIGIN LEVEL: 0 DIFFERENT FILL-ORIGIN LEVEL: 0
L1D AVERAGE MISS LATENCY: 75.3896 cycles
L1D RQ	ACCESS:   22483734	FORWARD:          0	MERGED:    6400998	TO_CACHE:   16031920
L1D WQ	ACCESS:    7421072	FORWARD:      50816	MERGED:     123754	TO_CACHE:    7297318

L1D UNIQUE REGIONS ACCESSED: 0
L1D REGIONS CONFLICTS: 0
L1D Cross Page Prefetch Requests: 0
L1D Same Page Prefetch Requests: 0
L1D ROI Sum of L1D PQ occupancy: 0
L1D PREFETCHES PUSHED FROM L2C: 0
L1I TOTAL     ACCESS:   17182384  HIT:   17182166  MISS:        218  HIT %:    99.9987  MISS %: 0.00126874   MPKI: 0.00218
L1I LOAD      ACCESS:   17182384  HIT:   17182166  MISS:        218  HIT %:    99.9987  MISS %: 0.00126874   MPKI: 0.00218
L1I PREFETCH  REQUESTED:          0  ISSUED:          0  USEFUL:          0  USELESS:          0
L1I USEFUL LOAD PREFETCHES:          0 PREFETCH ISSUED TO LOWER LEVEL:          0  ACCURACY: -nan
L1I TIMELY PREFETCHES:          0 LATE PREFETCHES: 0 DROPPED PREFETCHES: 0
L1I PREFETCHES SAME FILL-ORIGIN LEVEL: 0 DIFFERENT FILL-ORIGIN LEVEL: 0
L1I AVERAGE MISS LATENCY: 95.3761 cycles
L1I RQ	ACCESS:   26113590	FORWARD:          0	MERGED:    8931095	TO_CACHE:   17182495

BTB TOTAL     ACCESS:   12852734  HIT:   12753229  MISS:      99505  HIT %:    99.2258  MISS %:   0.774193   MPKI: 0.99505
BTB BRANCH_DIRECT_JUMP	ACCESS:    1234013  HIT:    1233935  MISS:         78
BTB BRANCH_INDIRECT	ACCESS:     174583  HIT:      79437  MISS:      95146
BTB BRANCH_CONDITIONAL	ACCESS:   11233583  HIT:   11233341  MISS:        242
BTB BRANCH_DIRECT_CALL	ACCESS:      66557  HIT:      66538  MISS:         19
BTB BRANCH_INDIRECT_CALL	ACCESS:      38721  HIT:      38714  MISS:          7
BTB BRANCH_RETURN	ACCESS:     105277  HIT:     101264  MISS:       4013
BTB BRANCH_OTHER ACCESS:          0  HIT:          0  MISS:          0

L2C TOTAL     ACCESS:    1237921  HIT:     837277  MISS:     400644  HIT %:    67.6357  MISS %:    32.3643   MPKI: 4.00644
L2C LOAD      ACCESS:     607314  HIT:     263603  MISS:     343711  HIT %:    43.4047  MISS %:    56.5953   MPKI: 3.43711
L2C DATA LOAD MPKI: 3.43493
L2C INSTRUCTION LOAD MPKI: 0.00218
L2C RFO       ACCESS:      83297  HIT:      54020  MISS:      29277  HIT %:    64.8523  MISS %:    35.1477   MPKI: 0.29277
L2C PREFETCH  ACCESS:         69  HIT:         69  MISS:          0  HIT %:        100  MISS %:          0   MPKI: 0
L2C DATA PREFETCH MPKI: 0
L2C INSTRUCTION PREFETCH MPKI: 0
L2C WRITEBACK ACCESS:     448630  HIT:     437412  MISS:      11218  HIT %:    97.4995  MISS %:     2.5005   MPKI: 0.11218
L2C LOAD TRANSLATION ACCESS:      98611  HIT:      82173  MISS:      16438  HIT %:    83.3305  MISS %:    16.6695   MPKI: 0.16438
L2C PREFETCH  REQUESTED:        393  ISSUED:        393  USEFUL:          0  USELESS:          0
L2C USEFUL LOAD PREFETCHES:          0 PREFETCH ISSUED TO LOWER LEVEL:        324  ACCURACY: 0
L2C TIMELY PREFETCHES:          0 LATE PREFETCHES: 0 DROPPED PREFETCHES: 0
L2C PREFETCHES SAME FILL-ORIGIN LEVEL: 0 DIFFERENT FILL-ORIGIN LEVEL: 324
L2C AVERAGE MISS LATENCY: 105.862 cycles
L2C RQ	ACCESS:     789224	FORWARD:          0	MERGED:          0	TO_CACHE:     789222
L2C WQ	ACCESS:     448630	FORWARD:          2	MERGED:          0	TO_CACHE:     448630
L2C PQ	ACCESS:        393	FORWARD:          0	MERGED:          0	TO_CACHE:        393

L2C Instructions Evicting Data 204
L2C Translations Evicting Data 15649
L2C Data Evicting Data 357346
L2C Instructions Evicting Instructions 2
L2C Translations Evicting Instructions 12
L2C Data Evicting Instructions 203
L2C Instructions Evicting Translations 12
L2C Translations Evicting Translations 777
L2C Data Evicting Translations 15221
L2C Dense regions hint from L2: 0
PSCL5 TOTAL     ACCESS:      98562  HIT:      98562  MISS:          0  HIT %:        100  MISS %:          0   MPKI: 0
PSCL5 LOAD TRANSLATION ACCESS:      98562  HIT:      98562  MISS:          0  HIT %:        100  MISS %:          0   MPKI: 0
PSCL5 PREFETCH  REQUESTED:          0  ISSUED:          0  USEFUL:          0  USELESS:          0
PSCL5 USEFUL LOAD PREFETCHES:          0 PREFETCH ISSUED TO LOWER LEVEL:          0  ACCURACY: -nan
PSCL5 TIMELY PREFETCHES:          0 LATE PREFETCHES: 0 DROPPED PREFETCHES: 0
PSCL5 PREFETCHES SAME FILL-ORIGIN LEVEL: 0 DIFFERENT FILL-ORIGIN LEVEL: 0

PSCL4 TOTAL     ACCESS:      98562  HIT:      98562  MISS:          0  HIT %:        100  MISS %:          0   MPKI: 0
PSCL4 LOAD TRANSLATION ACCESS:      98562  HIT:      98562  MISS:          0  HIT %:        100  MISS %:          0   MPKI: 0
PSCL4 PREFETCH  REQUESTED:          0  ISSUED:          0  USEFUL:          0  USELESS:          0
PSCL4 USEFUL LOAD PREFETCHES:          0 PREFETCH ISSUED TO LOWER LEVEL:          0  ACCURACY: -nan
PSCL4 TIMELY PREFETCHES:          0 LATE PREFETCHES: 0 DROPPED PREFETCHES: 0
PSCL4 PREFETCHES SAME FILL-ORIGIN LEVEL: 0 DIFFERENT FILL-ORIGIN LEVEL: 0

PSCL3 TOTAL     ACCESS:      98562  HIT:      98562  MISS:          0  HIT %:        100  MISS %:          0   MPKI: 0
PSCL3 LOAD TRANSLATION ACCESS:      98562  HIT:      98562  MISS:          0  HIT %:        100  MISS %:          0   MPKI: 0
PSCL3 PREFETCH  REQUESTED:          0  ISSUED:          0  USEFUL:          0  USELESS:          0
PSCL3 USEFUL LOAD PREFETCHES:          0 PREFETCH ISSUED TO LOWER LEVEL:          0  ACCURACY: -nan
PSCL3 TIMELY PREFETCHES:          0 LATE PREFETCHES: 0 DROPPED PREFETCHES: 0
PSCL3 PREFETCHES SAME FILL-ORIGIN LEVEL: 0 DIFFERENT FILL-ORIGIN LEVEL: 0

PSCL2 TOTAL     ACCESS:      98562  HIT:      98513  MISS:         49  HIT %:    99.9503  MISS %:  0.0497149   MPKI: 0.00049
PSCL2 LOAD TRANSLATION ACCESS:      98562  HIT:      98513  MISS:         49  HIT %:    99.9503  MISS %:  0.0497149   MPKI: 0.00049
PSCL2 PREFETCH  REQUESTED:          0  ISSUED:          0  USEFUL:          0  USELESS:          0
PSCL2 USEFUL LOAD PREFETCHES:          0 PREFETCH ISSUED TO LOWER LEVEL:          0  ACCURACY: -nan
PSCL2 TIMELY PREFETCHES:          0 LATE PREFETCHES: 0 DROPPED PREFETCHES: 0
PSCL2 PREFETCHES SAME FILL-ORIGIN LEVEL: 0 DIFFERENT FILL-ORIGIN LEVEL: 0

LLC TOTAL     ACCESS:     638827  HIT:     457243  MISS:     181584  HIT %:    71.5754  MISS %:    28.4246   MPKI: 1.81584
LLC LOAD      ACCESS:     343711  HIT:     186802  MISS:     156909  HIT %:    54.3486  MISS %:    45.6514   MPKI: 1.56909
LLC RFO       ACCESS:      29277  HIT:       9908  MISS:      19369  HIT %:    33.8423  MISS %:    66.1577   MPKI: 0.19369
LLC PREFETCH  ACCESS:        324  HIT:         99  MISS:        225  HIT %:    30.5556  MISS %:    69.4444   MPKI: 0.00225
LLC WRITEBACK ACCESS:     249077  HIT:     245303  MISS:       3774  HIT %:    98.4848  MISS %:    1.51519   MPKI: 0.03774
LLC LOAD TRANSLATION ACCESS:      16438  HIT:      15131  MISS:       1307  HIT %:    92.0489  MISS %:    7.95109   MPKI: 0.01307
LLC PREFETCH  REQUESTED:          0  ISSUED:          0  USEFUL:        103  USELESS:        624
LLC USEFUL LOAD PREFETCHES:        103 PREFETCH ISSUED TO LOWER LEVEL:        225  ACCURACY: 45.7778
LLC TIMELY PREFETCHES:        103 LATE PREFETCHES: 0 DROPPED PREFETCHES: 0
LLC PREFETCHES SAME FILL-ORIGIN LEVEL: 225 DIFFERENT FILL-ORIGIN LEVEL: 0
LLC AVERAGE MISS LATENCY: 169.388 cycles
LLC RQ	ACCESS:     389426	FORWARD:          0	MERGED:          0	TO_CACHE:     389426
LLC WQ	ACCESS:     249077	FORWARD:          0	MERGED:          0	TO_CACHE:     249077
LLC PQ	ACCESS:        324	FORWARD:          0	MERGED:          0	TO_CACHE:        324

LLC Dense regions hint to LLC: 0

RAW hits: 910469
Loads Generated: 23394204
Loads sent to L1D: 22483734
Stores Generated: 7421071
Stores sent to L1D: 7421072
Major fault: 0 Minor fault: 7620
Allocated PAGES: 7620
 All Calls: 905801
 Critical Calls: 246553
------------------
Depth Distribution
------------------
depth 0: 0
depth 1: 7935
depth 2: 721
depth 3: 585
depth 4: 423
depth 5: 142
depth 6: 89
depth 7: 82
depth 8: 72
depth 9: 63
depth 10: 54
depth 11: 33
depth 12: 23
depth 13: 7
depth 14: 2
depth 15: 1
depth 16: 1
depth 17: 0
depth 18: 0
depth 19: 0
depth 20: 0
depth 21: 0
depth 22: 0
depth 23: 0
depth 24: 0
depth 25: 0
depth 26: 0
depth 27: 0
depth 28: 0
depth 29: 0
Total: 10233
-----------------------------
-----------------------------
	Captured at Filter
-----------------------------
depth 0: 0
depth 1: 3
depth 2: 0
depth 3: 1
depth 4: 0
depth 5: 0
depth 6: 0
depth 7: 0
depth 8: 0
depth 9: 0
depth 10: 0
depth 11: 0
depth 12: 0
depth 13: 0
depth 14: 0
depth 15: 0
depth 16: 0
depth 17: 0
depth 18: 0
depth 19: 0
depth 20: 0
depth 21: 0
depth 22: 0
depth 23: 0
depth 24: 0
depth 25: 0
depth 26: 0
depth 27: 0
depth 28: 0
depth 29: 0
-----------------------------
-----------------------------
		Lost at Page
-----------------------------
depth 0: 0
depth 1: 38
depth 2: 20
depth 3: 30
depth 4: 31
depth 5: 11
depth 6: 6
depth 7: 7
depth 8: 7
depth 9: 8
depth 10: 9
depth 11: 7
depth 12: 5
depth 13: 1
depth 14: 0
depth 15: 0
depth 16: 0
depth 17: 0
depth 18: 0
depth 19: 0
depth 20: 0
depth 21: 0
depth 22: 0
depth 23: 0
depth 24: 0
depth 25: 0
depth 26: 0
depth 27: 0
depth 28: 0
depth 29: 0
-----------------------------
-----------------------------
	Lost due to PQ Size
-----------------------------
0
-----------------------------
ST read accesses: 5449
ST write accesses: 5264
PT read accesses: 73216
PT write accesses: 5788
FILTER read accesses: 245426
FILTER write accesses: 234486
GHR read accesses: 42758
GHR write accesses: 1
GHR counter read accesses: 65854
GHR counter write accesses: 10713
ST tag read accesses: 6809166
ST tag write accesses: 1692333

DRAM Statistics
 CHANNEL 0
 RQ ROW_BUFFER_HIT:       1724  ROW_BUFFER_MISS:     176086
 DBUS_CONGESTED:          2
 WQ ROW_BUFFER_HIT:      26285  ROW_BUFFER_MISS:     119801  FULL:          0

 AVG_CONGESTED_CYCLE: 4
 All warmup complete: 2
Channel 0 Bank busy for read cycles: 0
Channel 0 Bank busy for write cycles: 0
Channel 0
Rank 0
0banks busy for read cycles: 132440815
0banks busy for write cycles: 93588
1banks busy for read cycles: 20263830
1banks busy for write cycles: 14557725
2banks busy for read cycles: 2487727
2banks busy for write cycles: 3191912
3banks busy for read cycles: 326463
3banks busy for write cycles: 743816
4banks busy for read cycles: 55185
4banks busy for write cycles: 172361
5banks busy for read cycles: 8638
5banks busy for write cycles: 45901
6banks busy for read cycles: 2667
6banks busy for write cycles: 12413
7banks busy for read cycles: 136
7banks busy for write cycles: 6595
8banks busy for read cycles: 0
8banks busy for write cycles: 31317

CPU 0 Branch Prediction Accuracy: 92.2625% MPKI: 10.436 Average ROB Occupancy at Mispredict: 25.9799
Branch types
NOT_BRANCH: 86512123 86.5121%
BRANCH_DIRECT_JUMP: 1234013 1.23401%
BRANCH_INDIRECT: 174583 0.174583%
BRANCH_CONDITIONAL: 11868384 11.8684%
BRANCH_DIRECT_CALL: 66557 0.066557%
BRANCH_INDIRECT_CALL: 38721 0.038721%
BRANCH_RETURN: 105277 0.105277%
BRANCH_OTHER: 0 0%

DRAM PAGES: 1048576
Allocated PAGES: 7620
