
*** ChampSim Multicore Out-of-Order Simulator ***

Warmup Instructions: 50000000
Simulation Instructions: 100000000
Number of CPUs: 1
LLC sets: 2048
LLC ways: 16
Off-chip DRAM Size: 4096 MB Channels: 1 Width: 64-bit Data Rate: 6400 MT/s
CPU 0 runs ../SPEC2017//657.xz_s-2302B.champsimtrace.xz
.xz
NUM_OF_IPS_IN_CRITICAL_IP_TRAINING: 64
NUM_OF_CRITICAL_IP_TRAINING_TABLE_WAYS: 2
NUM_OF_CRITICAL_IP_TRAINING_TABLE_SETS: 32
WOBBLY_CRITICAL_IP_CACHE_SETS: 32
WOBBLY_CRITICAL_IP_CACHE_WAYS: 4
BTB has LRU replacement policy
ITLB has LRU replacement policy
DTLB has LRU replacement policy
STLB has LRU replacement policy
L1I has LRU replacement policy
IP Table Entries: 64
L1D has LRU replacement policy
Initialize SRRIP state for L2C
Initialize DRRIP state for LLC
Heartbeat CPU 0 instructions: 10000003 cycles: 2790778 heartbeat IPC: 3.58323 cumulative IPC: 3.58323 (Simulation time: 0 hr 6 min 8 sec) 
Heartbeat CPU 0 instructions: 20000002 cycles: 5585770 heartbeat IPC: 3.57783 cumulative IPC: 3.58053 (Simulation time: 0 hr 11 min 34 sec) 
Heartbeat CPU 0 instructions: 30000000 cycles: 8411752 heartbeat IPC: 3.53859 cumulative IPC: 3.56644 (Simulation time: 0 hr 16 min 19 sec) 
Heartbeat CPU 0 instructions: 40000003 cycles: 11197895 heartbeat IPC: 3.58919 cumulative IPC: 3.5721 (Simulation time: 0 hr 20 min 38 sec) 
Heartbeat CPU 0 instructions: 50000000 cycles: 13989886 heartbeat IPC: 3.58167 cumulative IPC: 3.57401 (Simulation time: 0 hr 24 min 54 sec) 

Warmup complete CPU 0 instructions: 50000004 cycles: 13989887 (Simulation time: 0 hr 24 min 54 sec) 

% increase in all ip prefetch 470.869
% increase in all ip prefetch 8.5718
% increase in all ip prefetch -6.89814
Heartbeat CPU 0 instructions: 60000002 cycles: 31652912 heartbeat IPC: 0.566155 cumulative IPC: 0.566154 (Simulation time: 0 hr 28 min 47 sec) 
Heartbeat CPU 0 instructions: 70000000 cycles: 48682152 heartbeat IPC: 0.587225 cumulative IPC: 0.576497 (Simulation time: 0 hr 32 min 22 sec) 
Heartbeat CPU 0 instructions: 80000003 cycles: 66127920 heartbeat IPC: 0.573205 cumulative IPC: 0.575396 (Simulation time: 0 hr 35 min 58 sec) 
Heartbeat CPU 0 instructions: 90000002 cycles: 83813573 heartbeat IPC: 0.56543 cumulative IPC: 0.572871 (Simulation time: 0 hr 39 min 14 sec) 
Heartbeat CPU 0 instructions: 100000001 cycles: 100819235 heartbeat IPC: 0.588039 cumulative IPC: 0.575842 (Simulation time: 0 hr 42 min 6 sec) 
Heartbeat CPU 0 instructions: 110000000 cycles: 118466262 heartbeat IPC: 0.566668 cumulative IPC: 0.574292 (Simulation time: 0 hr 44 min 56 sec) 
Heartbeat CPU 0 instructions: 120000003 cycles: 136290784 heartbeat IPC: 0.561025 cumulative IPC: 0.572359 (Simulation time: 0 hr 47 min 41 sec) 
Heartbeat CPU 0 instructions: 130000000 cycles: 154193094 heartbeat IPC: 0.558587 cumulative IPC: 0.5706 (Simulation time: 0 hr 50 min 19 sec) 
Heartbeat CPU 0 instructions: 140000000 cycles: 170733756 heartbeat IPC: 0.604571 cumulative IPC: 0.574185 (Simulation time: 0 hr 52 min 46 sec) 
Heartbeat CPU 0 instructions: 150000003 cycles: 188567224 heartbeat IPC: 0.560744 cumulative IPC: 0.572812 (Simulation time: 0 hr 55 min 4 sec) 
Finished CPU 0 instructions: 100000002 cycles: 174577338 cumulative IPC: 0.572812 (Simulation time: 0 hr 55 min 4 sec) 

ChampSim completed all CPUs

Region of Interest Statistics

CPU 0 cumulative IPC: 0.572812 instructions: 100000002 cycles: 174577338

CPU 0 Average Load ROB stall cycles: 2.37649e+07
CPU 0 Fraction of times ROB stalled by Loads: 22.6776
CPU 0 Percentage of Load stall cycles in Total stall cycles: 3.6289e+08
 Total stall cycles: 91901208
 Total load stall cycles: 333499921290552
CPU 0 NUM of IPS identified critical: 6
CPU 0 Num of Load IPs stalling ROB: 632
Threshold modification factor: -2
Max PIST entries: 64
Min PIST entries: 0
Avg PIST entries: 42.06
Trouble in retire width: 0.633242
MaC = Marked as critical.
lt_50_percent_before_Mac: 5
gt_90_percent_before_Mac: 0
gt_75_percent_before_Mac: 1
gt_50_percent_before_Mac: 0
stall_proportion_bin_same_before_after: 0
stall_proportion_bin_lower_before_after: 0
stall_proportion_bin_upper_before_after: 0
average_stall_proportion_before: 0.201696
average_stall_proportion_after: 0.200598
Critical IP stalls, total frequency: 241287
Non-critical IP stalls, total frequency: 2939058
Critical_IP_ROB_Stalls_Bucket_0: 163058
Non-critical_IP_ROB_Stalls_Bucket_0: 2837585
Critical_IP_ROB_Stalls_Bucket_1: 66924
Non-critical_IP_ROB_Stalls_Bucket_1: 76155
Critical_IP_ROB_Stalls_Bucket_2: 5615
Non-critical_IP_ROB_Stalls_Bucket_2: 12950
Critical_IP_ROB_Stalls_Bucket_3: 2813
Non-critical_IP_ROB_Stalls_Bucket_3: 7665
Critical_IP_ROB_Stalls_Bucket_4: 2110
Non-critical_IP_ROB_Stalls_Bucket_4: 5596
Critical_IP_ROB_Stalls_Bucket_5: 490
Non-critical_IP_ROB_Stalls_Bucket_5: 681
Critical_IP_ROB_Stalls_Bucket_6: 277
Non-critical_IP_ROB_Stalls_Bucket_6: 488
0 => IPs accounting for >50 percent of stalls, 1 => 55, 2 => 60, 3 => 65 and so on till 90.
percent50: 50.6479 num IPs:5
percent55: 56.4238 num IPs:7
percent60: 61.0979 num IPs:9
percent65: 66.5972 num IPs:12
percent70: 70.9989 num IPs:15
percent75: 75.6257 num IPs:19
percent80: 80.457 num IPs:26
percent85: 85.0505 num IPs:39
percent90: 90.1563 num IPs:60
Critical_ROB_Stalls_Percent_0_Bucket_0: 1600467
Non-critical_ROB_Stalls_Percent_0_Bucket_0: 1400176
Critical_ROB_Stalls_Percent_0_Bucket_1: 6801
Non-critical_ROB_Stalls_Percent_0_Bucket_1: 136278
Critical_ROB_Stalls_Percent_0_Bucket_2: 1874
Non-critical_ROB_Stalls_Percent_0_Bucket_2: 16691
Critical_ROB_Stalls_Percent_0_Bucket_3: 1152
Non-critical_ROB_Stalls_Percent_0_Bucket_3: 9326
Critical_ROB_Stalls_Percent_0_Bucket_4: 306
Non-critical_ROB_Stalls_Percent_0_Bucket_4: 7400
Critical_ROB_Stalls_Percent_0_Bucket_5: 128
Non-critical_ROB_Stalls_Percent_0_Bucket_5: 1043
Critical_ROB_Stalls_Percent_0_Bucket_6: 49
Non-critical_ROB_Stalls_Percent_0_Bucket_6: 716
Critical_ROB_Stalls_Percent_1_Bucket_0: 1783798
Non-critical_ROB_Stalls_Percent_1_Bucket_0: 1216845
Critical_ROB_Stalls_Percent_1_Bucket_1: 7054
Non-critical_ROB_Stalls_Percent_1_Bucket_1: 136025
Critical_ROB_Stalls_Percent_1_Bucket_2: 1921
Non-critical_ROB_Stalls_Percent_1_Bucket_2: 16644
Critical_ROB_Stalls_Percent_1_Bucket_3: 1191
Non-critical_ROB_Stalls_Percent_1_Bucket_3: 9287
Critical_ROB_Stalls_Percent_1_Bucket_4: 323
Non-critical_ROB_Stalls_Percent_1_Bucket_4: 7383
Critical_ROB_Stalls_Percent_1_Bucket_5: 134
Non-critical_ROB_Stalls_Percent_1_Bucket_5: 1037
Critical_ROB_Stalls_Percent_1_Bucket_6: 51
Non-critical_ROB_Stalls_Percent_1_Bucket_6: 714
Critical_ROB_Stalls_Percent_2_Bucket_0: 1922700
Non-critical_ROB_Stalls_Percent_2_Bucket_0: 1077943
Critical_ROB_Stalls_Percent_2_Bucket_1: 15138
Non-critical_ROB_Stalls_Percent_2_Bucket_1: 127941
Critical_ROB_Stalls_Percent_2_Bucket_2: 2966
Non-critical_ROB_Stalls_Percent_2_Bucket_2: 15599
Critical_ROB_Stalls_Percent_2_Bucket_3: 1598
Non-critical_ROB_Stalls_Percent_2_Bucket_3: 8880
Critical_ROB_Stalls_Percent_2_Bucket_4: 508
Non-critical_ROB_Stalls_Percent_2_Bucket_4: 7198
Critical_ROB_Stalls_Percent_2_Bucket_5: 151
Non-critical_ROB_Stalls_Percent_2_Bucket_5: 1020
Critical_ROB_Stalls_Percent_2_Bucket_6: 63
Non-critical_ROB_Stalls_Percent_2_Bucket_6: 702
Critical_ROB_Stalls_Percent_3_Bucket_0: 2078673
Non-critical_ROB_Stalls_Percent_3_Bucket_0: 921970
Critical_ROB_Stalls_Percent_3_Bucket_1: 31450
Non-critical_ROB_Stalls_Percent_3_Bucket_1: 111629
Critical_ROB_Stalls_Percent_3_Bucket_2: 4568
Non-critical_ROB_Stalls_Percent_3_Bucket_2: 13997
Critical_ROB_Stalls_Percent_3_Bucket_3: 2126
Non-critical_ROB_Stalls_Percent_3_Bucket_3: 8352
Critical_ROB_Stalls_Percent_3_Bucket_4: 750
Non-critical_ROB_Stalls_Percent_3_Bucket_4: 6956
Critical_ROB_Stalls_Percent_3_Bucket_5: 336
Non-critical_ROB_Stalls_Percent_3_Bucket_5: 835
Critical_ROB_Stalls_Percent_3_Bucket_6: 119
Non-critical_ROB_Stalls_Percent_3_Bucket_6: 646
Critical_ROB_Stalls_Percent_4_Bucket_0: 2210728
Non-critical_ROB_Stalls_Percent_4_Bucket_0: 789915
Critical_ROB_Stalls_Percent_4_Bucket_1: 38276
Non-critical_ROB_Stalls_Percent_4_Bucket_1: 104803
Critical_ROB_Stalls_Percent_4_Bucket_2: 5387
Non-critical_ROB_Stalls_Percent_4_Bucket_2: 13178
Critical_ROB_Stalls_Percent_4_Bucket_3: 2273
Non-critical_ROB_Stalls_Percent_4_Bucket_3: 8205
Critical_ROB_Stalls_Percent_4_Bucket_4: 820
Non-critical_ROB_Stalls_Percent_4_Bucket_4: 6886
Critical_ROB_Stalls_Percent_4_Bucket_5: 384
Non-critical_ROB_Stalls_Percent_4_Bucket_5: 787
Critical_ROB_Stalls_Percent_4_Bucket_6: 143
Non-critical_ROB_Stalls_Percent_4_Bucket_6: 622
Critical_ROB_Stalls_Percent_5_Bucket_0: 2326634
Non-critical_ROB_Stalls_Percent_5_Bucket_0: 674009
Critical_ROB_Stalls_Percent_5_Bucket_1: 68722
Non-critical_ROB_Stalls_Percent_5_Bucket_1: 74357
Critical_ROB_Stalls_Percent_5_Bucket_2: 5836
Non-critical_ROB_Stalls_Percent_5_Bucket_2: 12729
Critical_ROB_Stalls_Percent_5_Bucket_3: 2448
Non-critical_ROB_Stalls_Percent_5_Bucket_3: 8030
Critical_ROB_Stalls_Percent_5_Bucket_4: 933
Non-critical_ROB_Stalls_Percent_5_Bucket_4: 6773
Critical_ROB_Stalls_Percent_5_Bucket_5: 423
Non-critical_ROB_Stalls_Percent_5_Bucket_5: 748
Critical_ROB_Stalls_Percent_5_Bucket_6: 163
Non-critical_ROB_Stalls_Percent_5_Bucket_6: 602
Critical_ROB_Stalls_Percent_6_Bucket_0: 2452041
Non-critical_ROB_Stalls_Percent_6_Bucket_0: 548602
Critical_ROB_Stalls_Percent_6_Bucket_1: 89717
Non-critical_ROB_Stalls_Percent_6_Bucket_1: 53362
Critical_ROB_Stalls_Percent_6_Bucket_2: 9174
Non-critical_ROB_Stalls_Percent_6_Bucket_2: 9391
Critical_ROB_Stalls_Percent_6_Bucket_3: 4304
Non-critical_ROB_Stalls_Percent_6_Bucket_3: 6174
Critical_ROB_Stalls_Percent_6_Bucket_4: 2537
Non-critical_ROB_Stalls_Percent_6_Bucket_4: 5169
Critical_ROB_Stalls_Percent_6_Bucket_5: 686
Non-critical_ROB_Stalls_Percent_6_Bucket_5: 485
Critical_ROB_Stalls_Percent_6_Bucket_6: 350
Non-critical_ROB_Stalls_Percent_6_Bucket_6: 415
Critical_ROB_Stalls_Percent_7_Bucket_0: 2590876
Non-critical_ROB_Stalls_Percent_7_Bucket_0: 409767
Critical_ROB_Stalls_Percent_7_Bucket_1: 96012
Non-critical_ROB_Stalls_Percent_7_Bucket_1: 47067
Critical_ROB_Stalls_Percent_7_Bucket_2: 9774
Non-critical_ROB_Stalls_Percent_7_Bucket_2: 8791
Critical_ROB_Stalls_Percent_7_Bucket_3: 4644
Non-critical_ROB_Stalls_Percent_7_Bucket_3: 5834
Critical_ROB_Stalls_Percent_7_Bucket_4: 2552
Non-critical_ROB_Stalls_Percent_7_Bucket_4: 5154
Critical_ROB_Stalls_Percent_7_Bucket_5: 692
Non-critical_ROB_Stalls_Percent_7_Bucket_5: 479
Critical_ROB_Stalls_Percent_7_Bucket_6: 350
Non-critical_ROB_Stalls_Percent_7_Bucket_6: 415
Critical_ROB_Stalls_Percent_8_Bucket_0: 2733193
Non-critical_ROB_Stalls_Percent_8_Bucket_0: 267450
Critical_ROB_Stalls_Percent_8_Bucket_1: 112358
Non-critical_ROB_Stalls_Percent_8_Bucket_1: 30721
Critical_ROB_Stalls_Percent_8_Bucket_2: 12187
Non-critical_ROB_Stalls_Percent_8_Bucket_2: 6378
Critical_ROB_Stalls_Percent_8_Bucket_3: 5631
Non-critical_ROB_Stalls_Percent_8_Bucket_3: 4847
Critical_ROB_Stalls_Percent_8_Bucket_4: 2783
Non-critical_ROB_Stalls_Percent_8_Bucket_4: 4923
Critical_ROB_Stalls_Percent_8_Bucket_5: 764
Non-critical_ROB_Stalls_Percent_8_Bucket_5: 407
Critical_ROB_Stalls_Percent_8_Bucket_6: 366
Non-critical_ROB_Stalls_Percent_8_Bucket_6: 399
Average ROB occupancy Load Stall Begin: 16.7607
Average ROB occupancy Load Stall End: 20.7011
Min ROB occupancy Load Stall Begin: 1
Max ROB occupancy Load Stall Begin: 351
Min ROB occupancy Load Stall End: 1
Max ROB occupancy Load Stall End: 352
Average ROB occupancy Critical Load Stall Begin: 29.4401
Average ROB occupancy Critical Load Stall End: 43.5591
Min ROB occupancy Critical Load Stall Begin: 4
Max ROB occupancy Critical Load Stall Begin: 351
Min ROB occupancy Critical Load Stall End: 4
Max ROB occupancy Critical Load Stall End: 352
 ROB Load Stall Begin Bucket Count 0: 3093435
 ROB Load Stall End Bucket Count 0: 3000643
 ROB Critical Load Stall Begin Bucket Count 0: 177476
 ROB Critical Load Stall End Bucket Count 0: 117628
 ROB Load Stall Begin Bucket Count 1: 63116
 ROB Load Stall End Bucket Count 1: 143079
 ROB Critical Load Stall Begin Bucket Count 1: 8308
 ROB Critical Load Stall End Bucket Count 1: 59990
 ROB Load Stall Begin Bucket Count 2: 12490
 ROB Load Stall End Bucket Count 2: 18565
 ROB Critical Load Stall Begin Bucket Count 2: 1136
 ROB Critical Load Stall End Bucket Count 2: 4960
 ROB Load Stall Begin Bucket Count 3: 7777
 ROB Load Stall End Bucket Count 3: 10478
 ROB Critical Load Stall Begin Bucket Count 3: 535
 ROB Critical Load Stall End Bucket Count 3: 2539
 ROB Load Stall Begin Bucket Count 4: 4576
 ROB Load Stall End Bucket Count 4: 7706
 ROB Critical Load Stall Begin Bucket Count 4: 223
 ROB Critical Load Stall End Bucket Count 4: 1948
 ROB Load Stall Begin Bucket Count 5: 574
 ROB Load Stall End Bucket Count 5: 1171
 ROB Critical Load Stall Begin Bucket Count 5: 57
 ROB Critical Load Stall End Bucket Count 5: 443
 ROB Load Stall Begin Bucket Count 6: 439
 ROB Load Stall End Bucket Count 6: 765
 ROB Critical Load Stall Begin Bucket Count 6: 27
 ROB Critical Load Stall End Bucket Count 6: 254
PIST Tag Read Accesses: 496916
PIST Read Accesses: 248458
PIST Tag Write Accesses: 496916
PIST Write Accesses: 248458
Criticality detector called times: 1167531
Max global_stall_cycles_count: 187669
Threshold Modified: 2 times, factor: -2
ITLB TOTAL     ACCESS:   14519750  HIT:   14519750  MISS:          0  HIT %:        100  MISS %:          0   MPKI: 0
ITLB LOAD TRANSLATION ACCESS:   14519750  HIT:   14519750  MISS:          0  HIT %:        100  MISS %:          0   MPKI: 0
ITLB PREFETCH  REQUESTED:          0  ISSUED:          0  USEFUL:          0  USELESS:          0
ITLB USEFUL LOAD PREFETCHES:          0 PREFETCH ISSUED TO LOWER LEVEL:          0  ACCURACY: -nan
ITLB TIMELY PREFETCHES:          0 LATE PREFETCHES: 0 DROPPED PREFETCHES: 0
ITLB PREFETCHES SAME FILL-ORIGIN LEVEL: 0 DIFFERENT FILL-ORIGIN LEVEL: 0
ITLB AVERAGE MISS LATENCY: -nan cycles
ITLB RQ	ACCESS:   17183018	FORWARD:          0	MERGED:    2663268	TO_CACHE:   14519750

DTLB TOTAL     ACCESS:   19496588  HIT:   18874360  MISS:     622228  HIT %:    96.8085  MISS %:    3.19147   MPKI: 6.22228
DTLB LOAD TRANSLATION ACCESS:   19496588  HIT:   18874360  MISS:     622228  HIT %:    96.8085  MISS %:    3.19147   MPKI: 6.22228
DTLB PREFETCH  REQUESTED:          0  ISSUED:          0  USEFUL:          0  USELESS:          0
DTLB USEFUL LOAD PREFETCHES:          0 PREFETCH ISSUED TO LOWER LEVEL:          0  ACCURACY: -nan
DTLB TIMELY PREFETCHES:          0 LATE PREFETCHES: 0 DROPPED PREFETCHES: 0
DTLB PREFETCHES SAME FILL-ORIGIN LEVEL: 0 DIFFERENT FILL-ORIGIN LEVEL: 0
DTLB AVERAGE MISS LATENCY: 14.6298 cycles
DTLB RQ	ACCESS:   23318714	FORWARD:          0	MERGED:    3817399	TO_CACHE:   19501315

STLB TOTAL     ACCESS:    2176199  HIT:    2077639  MISS:      98560  HIT %:     95.471  MISS %:      4.529   MPKI: 0.9856
STLB LOAD TRANSLATION ACCESS:     622228  HIT:     523668  MISS:      98560  HIT %:    84.1601  MISS %:    15.8399   MPKI: 0.9856
STLB TRANSLATION FROM L1D PREFETCHER ACCESS:    1553971  HIT:    1553971  MISS:          0  HIT %:        100  MISS %:          0   MPKI: 0
STLB PREFETCH  REQUESTED:          0  ISSUED:          0  USEFUL:          0  USELESS:          0
STLB USEFUL LOAD PREFETCHES:          0 PREFETCH ISSUED TO LOWER LEVEL:          0  ACCURACY: -nan
STLB TIMELY PREFETCHES:          0 LATE PREFETCHES: 0 DROPPED PREFETCHES: 0
STLB PREFETCHES SAME FILL-ORIGIN LEVEL: 0 DIFFERENT FILL-ORIGIN LEVEL: 0
STLB AVERAGE MISS LATENCY: 35.474 cycles
STLB RQ	ACCESS:    2471749	FORWARD:          0	MERGED:     295550	TO_CACHE:    2176199

STLB Hit, L1D data hit: 0
STLB Hit, L2C data hit: 0
STLB Hit, LLC data hit: 0
STLB Hit, LLC data miss: 0
STLB STLB hints to L2: 0
L1D TOTAL     ACCESS:   25073258  HIT:   23730229  MISS:    1343029  HIT %:    94.6436  MISS %:    5.35642   MPKI: 13.4303
L1D LOAD      ACCESS:   15956583  HIT:   15349194  MISS:     607389  HIT %:    96.1935  MISS %:    3.80651   MPKI: 6.07389
L1D RFO       ACCESS:    7271189  HIT:    7179314  MISS:      91875  HIT %:    98.7365  MISS %:    1.26355   MPKI: 0.91875
L1D PREFETCH  ACCESS:    1845486  HIT:    1201721  MISS:     643765  HIT %:    65.1168  MISS %:    34.8832   MPKI: 6.43765
L1D PREFETCH  REQUESTED:    3699559  ISSUED:    3699559  USEFUL:      74368  USELESS:     569354
L1D USEFUL LOAD PREFETCHES:      74368 PREFETCH ISSUED TO LOWER LEVEL:     645391  ACCURACY: 11.5229
L1D TIMELY PREFETCHES:      74368 LATE PREFETCHES: 1604 DROPPED PREFETCHES: 0
L1D PREFETCHES SAME FILL-ORIGIN LEVEL: 645391 DIFFERENT FILL-ORIGIN LEVEL: 0
L1D AVERAGE MISS LATENCY: 125409 cycles
L1D RQ	ACCESS:   22480368	FORWARD:          0	MERGED:    6407166	TO_CACHE:   16022294
L1D WQ	ACCESS:    7421072	FORWARD:      51425	MERGED:     124652	TO_CACHE:    7296420
L1D PQ	ACCESS:    1850038	FORWARD:          0	MERGED:          0	TO_CACHE:    1849521

L1D UNIQUE REGIONS ACCESSED: 0
L1D REGIONS CONFLICTS: 0
L1D Cross Page Prefetch Requests: 0
L1D Same Page Prefetch Requests: 2813540
L1D ROI Sum of L1D PQ occupancy: 24074641
L1D PREFETCHES PUSHED FROM L2C: 0
L1I TOTAL     ACCESS:   17182906  HIT:   17182688  MISS:        218  HIT %:    99.9987  MISS %:  0.0012687   MPKI: 0.00218
L1I LOAD      ACCESS:   17182906  HIT:   17182688  MISS:        218  HIT %:    99.9987  MISS %:  0.0012687   MPKI: 0.00218
L1I PREFETCH  REQUESTED:          0  ISSUED:          0  USEFUL:          0  USELESS:          0
L1I USEFUL LOAD PREFETCHES:          0 PREFETCH ISSUED TO LOWER LEVEL:          0  ACCURACY: -nan
L1I TIMELY PREFETCHES:          0 LATE PREFETCHES: 0 DROPPED PREFETCHES: 0
L1I PREFETCHES SAME FILL-ORIGIN LEVEL: 0 DIFFERENT FILL-ORIGIN LEVEL: 0
L1I AVERAGE MISS LATENCY: 183.817 cycles
L1I RQ	ACCESS:   26114284	FORWARD:          0	MERGED:    8931266	TO_CACHE:   17183018

BTB TOTAL     ACCESS:   12852734  HIT:   12753229  MISS:      99505  HIT %:    99.2258  MISS %:   0.774193   MPKI: 0.99505
BTB BRANCH_DIRECT_JUMP	ACCESS:    1234013  HIT:    1233935  MISS:         78
BTB BRANCH_INDIRECT	ACCESS:     174583  HIT:      79437  MISS:      95146
BTB BRANCH_CONDITIONAL	ACCESS:   11233583  HIT:   11233341  MISS:        242
BTB BRANCH_DIRECT_CALL	ACCESS:      66557  HIT:      66538  MISS:         19
BTB BRANCH_INDIRECT_CALL	ACCESS:      38721  HIT:      38714  MISS:          7
BTB BRANCH_RETURN	ACCESS:     105277  HIT:     101264  MISS:       4013
BTB BRANCH_OTHER ACCESS:          0  HIT:          0  MISS:          0

L2C TOTAL     ACCESS:    1942337  HIT:    1192671  MISS:     749666  HIT %:    61.4039  MISS %:    38.5961   MPKI: 7.49666
L2C LOAD      ACCESS:     605999  HIT:     285596  MISS:     320403  HIT %:    47.1281  MISS %:    52.8719   MPKI: 3.20403
L2C DATA LOAD MPKI: 3.20185
L2C INSTRUCTION LOAD MPKI: 0.00218
L2C RFO       ACCESS:      91853  HIT:      61180  MISS:      30673  HIT %:    66.6064  MISS %:    33.3936   MPKI: 0.30673
L2C PREFETCH  ACCESS:     645389  HIT:     280390  MISS:     364999  HIT %:    43.4451  MISS %:    56.5549   MPKI: 3.64999
L2C DATA PREFETCH MPKI: 3.64999
L2C INSTRUCTION PREFETCH MPKI: 0
L2C WRITEBACK ACCESS:     500487  HIT:     494924  MISS:       5563  HIT %:    98.8885  MISS %:    1.11152   MPKI: 0.05563
L2C LOAD TRANSLATION ACCESS:      98609  HIT:      70581  MISS:      28028  HIT %:    71.5766  MISS %:    28.4234   MPKI: 0.28028
L2C PREFETCH  REQUESTED:          0  ISSUED:          0  USEFUL:      23905  USELESS:     340869
L2C USEFUL LOAD PREFETCHES:      23905 PREFETCH ISSUED TO LOWER LEVEL:     365000  ACCURACY: 6.54932
L2C TIMELY PREFETCHES:      23905 LATE PREFETCHES: 0 DROPPED PREFETCHES: 0
L2C PREFETCHES SAME FILL-ORIGIN LEVEL: 0 DIFFERENT FILL-ORIGIN LEVEL: 0
L2C AVERAGE MISS LATENCY: 110 cycles
L2C RQ	ACCESS:     796466	FORWARD:          0	MERGED:          0	TO_CACHE:     796461
L2C WQ	ACCESS:     500487	FORWARD:          6	MERGED:          0	TO_CACHE:     500487
L2C PQ	ACCESS:     645391	FORWARD:          0	MERGED:          0	TO_CACHE:     645390

L2C Instructions Evicting Data 210
L2C Translations Evicting Data 27137
L2C Data Evicting Data 688676
L2C Instructions Evicting Instructions 1
L2C Translations Evicting Instructions 4
L2C Data Evicting Instructions 212
L2C Instructions Evicting Translations 7
L2C Translations Evicting Translations 887
L2C Data Evicting Translations 26969
L2C Dense regions hint from L2: 0
PSCL5 TOTAL     ACCESS:      98560  HIT:      98560  MISS:          0  HIT %:        100  MISS %:          0   MPKI: 0
PSCL5 LOAD TRANSLATION ACCESS:      98560  HIT:      98560  MISS:          0  HIT %:        100  MISS %:          0   MPKI: 0
PSCL5 PREFETCH  REQUESTED:          0  ISSUED:          0  USEFUL:          0  USELESS:          0
PSCL5 USEFUL LOAD PREFETCHES:          0 PREFETCH ISSUED TO LOWER LEVEL:          0  ACCURACY: -nan
PSCL5 TIMELY PREFETCHES:          0 LATE PREFETCHES: 0 DROPPED PREFETCHES: 0
PSCL5 PREFETCHES SAME FILL-ORIGIN LEVEL: 0 DIFFERENT FILL-ORIGIN LEVEL: 0

PSCL4 TOTAL     ACCESS:      98560  HIT:      98560  MISS:          0  HIT %:        100  MISS %:          0   MPKI: 0
PSCL4 LOAD TRANSLATION ACCESS:      98560  HIT:      98560  MISS:          0  HIT %:        100  MISS %:          0   MPKI: 0
PSCL4 PREFETCH  REQUESTED:          0  ISSUED:          0  USEFUL:          0  USELESS:          0
PSCL4 USEFUL LOAD PREFETCHES:          0 PREFETCH ISSUED TO LOWER LEVEL:          0  ACCURACY: -nan
PSCL4 TIMELY PREFETCHES:          0 LATE PREFETCHES: 0 DROPPED PREFETCHES: 0
PSCL4 PREFETCHES SAME FILL-ORIGIN LEVEL: 0 DIFFERENT FILL-ORIGIN LEVEL: 0

PSCL3 TOTAL     ACCESS:      98560  HIT:      98560  MISS:          0  HIT %:        100  MISS %:          0   MPKI: 0
PSCL3 LOAD TRANSLATION ACCESS:      98560  HIT:      98560  MISS:          0  HIT %:        100  MISS %:          0   MPKI: 0
PSCL3 PREFETCH  REQUESTED:          0  ISSUED:          0  USEFUL:          0  USELESS:          0
PSCL3 USEFUL LOAD PREFETCHES:          0 PREFETCH ISSUED TO LOWER LEVEL:          0  ACCURACY: -nan
PSCL3 TIMELY PREFETCHES:          0 LATE PREFETCHES: 0 DROPPED PREFETCHES: 0
PSCL3 PREFETCHES SAME FILL-ORIGIN LEVEL: 0 DIFFERENT FILL-ORIGIN LEVEL: 0

PSCL2 TOTAL     ACCESS:      98560  HIT:      98511  MISS:         49  HIT %:    99.9503  MISS %:  0.0497159   MPKI: 0.00049
PSCL2 LOAD TRANSLATION ACCESS:      98560  HIT:      98511  MISS:         49  HIT %:    99.9503  MISS %:  0.0497159   MPKI: 0.00049
PSCL2 PREFETCH  REQUESTED:          0  ISSUED:          0  USEFUL:          0  USELESS:          0
PSCL2 USEFUL LOAD PREFETCHES:          0 PREFETCH ISSUED TO LOWER LEVEL:          0  ACCURACY: -nan
PSCL2 TIMELY PREFETCHES:          0 LATE PREFETCHES: 0 DROPPED PREFETCHES: 0
PSCL2 PREFETCHES SAME FILL-ORIGIN LEVEL: 0 DIFFERENT FILL-ORIGIN LEVEL: 0

LLC TOTAL     ACCESS:    1015907  HIT:     664469  MISS:     351438  HIT %:    65.4065  MISS %:    34.5935   MPKI: 3.51438
LLC LOAD      ACCESS:     320403  HIT:     164537  MISS:     155866  HIT %:    51.3531  MISS %:    48.6469   MPKI: 1.55866
LLC RFO       ACCESS:      30673  HIT:      10678  MISS:      19995  HIT %:    34.8124  MISS %:    65.1876   MPKI: 0.19995
LLC PREFETCH  ACCESS:     364999  HIT:     200019  MISS:     164980  HIT %:    54.7999  MISS %:    45.2001   MPKI: 1.6498
LLC WRITEBACK ACCESS:     271804  HIT:     263835  MISS:       7969  HIT %:    97.0681  MISS %:    2.93189   MPKI: 0.07969
LLC LOAD TRANSLATION ACCESS:      28028  HIT:      25400  MISS:       2628  HIT %:    90.6237  MISS %:    9.37634   MPKI: 0.02628
LLC PREFETCH  REQUESTED:          0  ISSUED:          0  USEFUL:      18482  USELESS:     145486
LLC USEFUL LOAD PREFETCHES:      18482 PREFETCH ISSUED TO LOWER LEVEL:     164981  ACCURACY: 11.2025
LLC TIMELY PREFETCHES:      18482 LATE PREFETCHES: 0 DROPPED PREFETCHES: 0
LLC PREFETCHES SAME FILL-ORIGIN LEVEL: 0 DIFFERENT FILL-ORIGIN LEVEL: 0
LLC AVERAGE MISS LATENCY: 171.05 cycles
LLC RQ	ACCESS:     379104	FORWARD:          0	MERGED:          0	TO_CACHE:     379104
LLC WQ	ACCESS:     271804	FORWARD:          0	MERGED:          0	TO_CACHE:     271804
LLC PQ	ACCESS:     365000	FORWARD:          0	MERGED:          0	TO_CACHE:     365000

LLC Dense regions hint to LLC: 0

RAW hits: 913835
Loads Generated: 23394204
Loads sent to L1D: 22480368
Stores Generated: 7421071
Stores sent to L1D: 7421072
Major fault: 0 Minor fault: 7620
Allocated PAGES: 7620

stream: 
stream:times selected: 4033874
stream:pref_filled: 674674
stream:pref_useful: 72792
stream:pref_late: 1348
stream:misses: 116204
stream:misses_by_poll: 0

CS: 
CS:times selected: 226631
CS:pref_filled: 31037
CS:pref_useful: 23268
CS:pref_late: 28
CS:misses: 1019
CS:misses_by_poll: 6

CPLX: 
CPLX:times selected: 3782422
CPLX:pref_filled: 235381
CPLX:pref_useful: 15960
CPLX:pref_late: 151
CPLX:misses: 475342
CPLX:misses_by_poll: 429

NL_L1: 
NL:times selected: 21438
NL:pref_filled: 7142
NL:pref_useful: 1059
NL:pref_late: 14
NL:misses: 5029
NL:misses_by_poll: 1

total selections: 8064365
total_filled: 643765
total_useful: 74368
total_late: 1787
total_polluted: 436
total_misses_after_warmup: 673099
conflicts: 2055477
Degree Incremented Times: 86801
Degree Decremented Times: 248002

L1 IP Table Write Accesses: 13092273
L1 IP Table Read Accesses: 11036796
L1 RST Write Accesses: 2718975
L1 RST Read Accesses: 5437950
L1 CSPT Write Accesses: 2718975
L1 CSPT Read Accesses: 5282242
L1 RR Filter Tag Write Accesses: 1850038
L1 RR Filter Tag Read Accesses: 99050318
L1 IP Table Tag Write Accesses: 16022293
L1 IP Table Tag Read Accesses: 16022293
L1 RST Tag Write Accesses: 0
L1 RST Tag Read Accesses: 24164043
L1 RR Filter Write Accesses: 0
L1 RR Filter Read Accesses: 3735716
test: 1563386

DRAM Statistics
 CHANNEL 0
 RQ ROW_BUFFER_HIT:       7242  ROW_BUFFER_MISS:     336223
 DBUS_CONGESTED:          7
 WQ ROW_BUFFER_HIT:      31697  ROW_BUFFER_MISS:     141521  FULL:          0

 AVG_CONGESTED_CYCLE: 4
 All warmup complete: 2
Channel 0 Bank busy for read cycles: 0
Channel 0 Bank busy for write cycles: 0
Channel 0
Rank 0
0banks busy for read cycles: 121583466
0banks busy for write cycles: 88899
1banks busy for read cycles: 20919487
1banks busy for write cycles: 12205945
2banks busy for read cycles: 9324759
2banks busy for write cycles: 4472294
3banks busy for read cycles: 2309284
3banks busy for write cycles: 1653420
4banks busy for read cycles: 704417
4banks busy for write cycles: 634129
5banks busy for read cycles: 197883
5banks busy for write cycles: 232721
6banks busy for read cycles: 60588
6banks busy for write cycles: 91882
7banks busy for read cycles: 15911
7banks busy for write cycles: 36599
8banks busy for read cycles: 2123
8banks busy for write cycles: 43532

CPU 0 Branch Prediction Accuracy: 92.2625% MPKI: 10.436 Average ROB Occupancy at Mispredict: 26.0673
Branch types
NOT_BRANCH: 86512123 86.5121%
BRANCH_DIRECT_JUMP: 1234013 1.23401%
BRANCH_INDIRECT: 174583 0.174583%
BRANCH_CONDITIONAL: 11868384 11.8684%
BRANCH_DIRECT_CALL: 66557 0.066557%
BRANCH_INDIRECT_CALL: 38721 0.038721%
BRANCH_RETURN: 105277 0.105277%
BRANCH_OTHER: 0 0%

DRAM PAGES: 1048576
Allocated PAGES: 7620
