
*** ChampSim Multicore Out-of-Order Simulator ***

Warmup Instructions: 50000000
Simulation Instructions: 100000000
Number of CPUs: 1
LLC sets: 2048
LLC ways: 16
Off-chip DRAM Size: 4096 MB Channels: 1 Width: 64-bit Data Rate: 6400 MT/s
CPU 0 runs ../SPEC2017//657.xz_s-2302B.champsimtrace.xz
.xz
BTB has LRU replacement policy
ITLB has LRU replacement policy
DTLB has LRU replacement policy
STLB has LRU replacement policy
L1I has LRU replacement policy
L1D has LRU replacement policy
Bingo PHT WAYS: 16 and PHT_SIZE: 16384
Initialize SRRIP state for L2C
Initialize DRRIP state for LLC
Heartbeat CPU 0 instructions: 10000003 cycles: 2791384 heartbeat IPC: 3.58245 cumulative IPC: 3.58245 (Simulation time: 0 hr 3 min 0 sec) 
Heartbeat CPU 0 instructions: 20000002 cycles: 5586974 heartbeat IPC: 3.57706 cumulative IPC: 3.57976 (Simulation time: 0 hr 5 min 37 sec) 
Heartbeat CPU 0 instructions: 30000000 cycles: 8416722 heartbeat IPC: 3.53388 cumulative IPC: 3.56433 (Simulation time: 0 hr 8 min 3 sec) 
Heartbeat CPU 0 instructions: 40000003 cycles: 11203468 heartbeat IPC: 3.58842 cumulative IPC: 3.57032 (Simulation time: 0 hr 10 min 27 sec) 
Heartbeat CPU 0 instructions: 50000000 cycles: 13996135 heartbeat IPC: 3.58081 cumulative IPC: 3.57241 (Simulation time: 0 hr 12 min 48 sec) 

Warmup complete CPU 0 instructions: 50000004 cycles: 13996136 (Simulation time: 0 hr 12 min 48 sec) 

Heartbeat CPU 0 instructions: 60000002 cycles: 31803387 heartbeat IPC: 0.561569 cumulative IPC: 0.561569 (Simulation time: 0 hr 15 min 47 sec) 
Heartbeat CPU 0 instructions: 70000000 cycles: 48842320 heartbeat IPC: 0.586891 cumulative IPC: 0.573951 (Simulation time: 0 hr 18 min 42 sec) 
Heartbeat CPU 0 instructions: 80000003 cycles: 66310377 heartbeat IPC: 0.572474 cumulative IPC: 0.573458 (Simulation time: 0 hr 21 min 21 sec) 
Heartbeat CPU 0 instructions: 90000002 cycles: 84005015 heartbeat IPC: 0.565143 cumulative IPC: 0.571356 (Simulation time: 0 hr 23 min 39 sec) 
Heartbeat CPU 0 instructions: 100000001 cycles: 100981949 heartbeat IPC: 0.589034 cumulative IPC: 0.574806 (Simulation time: 0 hr 25 min 35 sec) 
Heartbeat CPU 0 instructions: 110000000 cycles: 118630022 heartbeat IPC: 0.566634 cumulative IPC: 0.573428 (Simulation time: 0 hr 27 min 11 sec) 
Heartbeat CPU 0 instructions: 120000003 cycles: 136457021 heartbeat IPC: 0.560947 cumulative IPC: 0.571611 (Simulation time: 0 hr 28 min 4 sec) 
Heartbeat CPU 0 instructions: 130000000 cycles: 154317204 heartbeat IPC: 0.559905 cumulative IPC: 0.570121 (Simulation time: 0 hr 28 min 33 sec) 
Heartbeat CPU 0 instructions: 140000000 cycles: 170809991 heartbeat IPC: 0.606326 cumulative IPC: 0.573929 (Simulation time: 0 hr 29 min 1 sec) 
Heartbeat CPU 0 instructions: 150000003 cycles: 188657177 heartbeat IPC: 0.560313 cumulative IPC: 0.572538 (Simulation time: 0 hr 29 min 30 sec) 
Finished CPU 0 instructions: 100000002 cycles: 174661042 cumulative IPC: 0.572538 (Simulation time: 0 hr 29 min 30 sec) 

ChampSim completed all CPUs

Region of Interest Statistics

CPU 0 cumulative IPC: 0.572538 instructions: 100000002 cycles: 174661042

CPU 0 Average Load ROB stall cycles: 4.28705e+07
CPU 0 Fraction of times ROB stalled by Loads: 42.0606
CPU 0 Percentage of Load stall cycles in Total stall cycles: 5.76107e+08
Issued all: 56269389
Issued LT all: 43153343
rob_not_full_when_issued_lt_all: 40649721
Issued LT one: 36180499
rob_not_full_when_issued_lt_one: 33882073
 Total stall cycles: 139376047
 Total load stall cycles: 802954920319911
Unique Load IPs: 1125
CPU 0 NUM of IPS identified critical: 6
CPU 0 Num of Load IPs stalling ROB: 0
Threshold modification factor: 0
Trouble in retire width: -nan
MaC = Marked as critical.
lt_50_percent_before_Mac: 1
gt_90_percent_before_Mac: 2
gt_75_percent_before_Mac: 0
gt_50_percent_before_Mac: 3
stall_proportion_bin_same_before_after: 0
stall_proportion_bin_lower_before_after: 0
stall_proportion_bin_upper_before_after: 0
average_stall_proportion_before: 0.0616572
average_stall_proportion_after: 0.0617258
Critical_IP_Detector_Accuracy_70: 0.166667
Critical_IP_Detector_Accuracy_80: 0.166667
Critical_IP_Detector_Accuracy_90: 0.166667
Critical_IP_Detector_Coverage_70: 1
Critical_IP_Detector_Coverage_80: 1
Critical_IP_Detector_Coverage_90: 1
stat_90_percent_critical_ip_stalls_freq: 864160
stat_90_percent_non_critical_ip_stalls_freq: 18446744073708687456
AVERAGE_ROB_Occupancy_90_Percent_Critical_IP_Stalls: 11.5564
AVERAGE_ROB_Occupancy_90_Percent_Non_Critical_IP_Stalls: 1.47083e-11
Critical_IP_ROB_Stalls_Bucket_0: 1175956
Non-critical_IP_ROB_Stalls_Bucket_0: 5399551
Critical_IP_ROB_Stalls_Bucket_1: 33795
Non-critical_IP_ROB_Stalls_Bucket_1: 778420
Critical_IP_ROB_Stalls_Bucket_2: 4029
Non-critical_IP_ROB_Stalls_Bucket_2: 191245
Critical_IP_ROB_Stalls_Bucket_3: 1737
Non-critical_IP_ROB_Stalls_Bucket_3: 113961
Critical_IP_ROB_Stalls_Bucket_4: 707
Non-critical_IP_ROB_Stalls_Bucket_4: 46014
Critical_IP_ROB_Stalls_Bucket_5: 587
Non-critical_IP_ROB_Stalls_Bucket_5: 5534
Critical_IP_ROB_Stalls_Bucket_6: 434
Non-critical_IP_ROB_Stalls_Bucket_6: 125894
0 => IPs accounting for >50 percent of stalls, 1 => 55, 2 => 60, 3 => 65 and so on till 90.
percent50: inf num IPs:  1
percent55: inf num IPs: 1
percent60: inf num IPs: 1
percent65: inf num IPs: 1
percent70: inf num IPs: 1
percent75: inf num IPs: 1
percent80: inf num IPs: 1
percent85: inf num IPs: 1
percent90: inf num IPs: 1
Critical_ROB_Stalls_Percent_0_Bucket_0: 861172
Non-critical_ROB_Stalls_Percent_0_Bucket_0: 5714335
Critical_ROB_Stalls_Percent_0_Bucket_1: 1482
Non-critical_ROB_Stalls_Percent_0_Bucket_1: 810733
Critical_ROB_Stalls_Percent_0_Bucket_2: 880
Non-critical_ROB_Stalls_Percent_0_Bucket_2: 194394
Critical_ROB_Stalls_Percent_0_Bucket_3: 509
Non-critical_ROB_Stalls_Percent_0_Bucket_3: 115189
Critical_ROB_Stalls_Percent_0_Bucket_4: 74
Non-critical_ROB_Stalls_Percent_0_Bucket_4: 46647
Critical_ROB_Stalls_Percent_0_Bucket_5: 33
Non-critical_ROB_Stalls_Percent_0_Bucket_5: 6088
Critical_ROB_Stalls_Percent_0_Bucket_6: 10
Non-critical_ROB_Stalls_Percent_0_Bucket_6: 126318
Critical_ROB_Stalls_Percent_1_Bucket_0: 861172
Non-critical_ROB_Stalls_Percent_1_Bucket_0: 5714335
Critical_ROB_Stalls_Percent_1_Bucket_1: 1482
Non-critical_ROB_Stalls_Percent_1_Bucket_1: 810733
Critical_ROB_Stalls_Percent_1_Bucket_2: 880
Non-critical_ROB_Stalls_Percent_1_Bucket_2: 194394
Critical_ROB_Stalls_Percent_1_Bucket_3: 509
Non-critical_ROB_Stalls_Percent_1_Bucket_3: 115189
Critical_ROB_Stalls_Percent_1_Bucket_4: 74
Non-critical_ROB_Stalls_Percent_1_Bucket_4: 46647
Critical_ROB_Stalls_Percent_1_Bucket_5: 33
Non-critical_ROB_Stalls_Percent_1_Bucket_5: 6088
Critical_ROB_Stalls_Percent_1_Bucket_6: 10
Non-critical_ROB_Stalls_Percent_1_Bucket_6: 126318
Critical_ROB_Stalls_Percent_2_Bucket_0: 861172
Non-critical_ROB_Stalls_Percent_2_Bucket_0: 5714335
Critical_ROB_Stalls_Percent_2_Bucket_1: 1482
Non-critical_ROB_Stalls_Percent_2_Bucket_1: 810733
Critical_ROB_Stalls_Percent_2_Bucket_2: 880
Non-critical_ROB_Stalls_Percent_2_Bucket_2: 194394
Critical_ROB_Stalls_Percent_2_Bucket_3: 509
Non-critical_ROB_Stalls_Percent_2_Bucket_3: 115189
Critical_ROB_Stalls_Percent_2_Bucket_4: 74
Non-critical_ROB_Stalls_Percent_2_Bucket_4: 46647
Critical_ROB_Stalls_Percent_2_Bucket_5: 33
Non-critical_ROB_Stalls_Percent_2_Bucket_5: 6088
Critical_ROB_Stalls_Percent_2_Bucket_6: 10
Non-critical_ROB_Stalls_Percent_2_Bucket_6: 126318
Critical_ROB_Stalls_Percent_3_Bucket_0: 861172
Non-critical_ROB_Stalls_Percent_3_Bucket_0: 5714335
Critical_ROB_Stalls_Percent_3_Bucket_1: 1482
Non-critical_ROB_Stalls_Percent_3_Bucket_1: 810733
Critical_ROB_Stalls_Percent_3_Bucket_2: 880
Non-critical_ROB_Stalls_Percent_3_Bucket_2: 194394
Critical_ROB_Stalls_Percent_3_Bucket_3: 509
Non-critical_ROB_Stalls_Percent_3_Bucket_3: 115189
Critical_ROB_Stalls_Percent_3_Bucket_4: 74
Non-critical_ROB_Stalls_Percent_3_Bucket_4: 46647
Critical_ROB_Stalls_Percent_3_Bucket_5: 33
Non-critical_ROB_Stalls_Percent_3_Bucket_5: 6088
Critical_ROB_Stalls_Percent_3_Bucket_6: 10
Non-critical_ROB_Stalls_Percent_3_Bucket_6: 126318
Critical_ROB_Stalls_Percent_4_Bucket_0: 861172
Non-critical_ROB_Stalls_Percent_4_Bucket_0: 5714335
Critical_ROB_Stalls_Percent_4_Bucket_1: 1482
Non-critical_ROB_Stalls_Percent_4_Bucket_1: 810733
Critical_ROB_Stalls_Percent_4_Bucket_2: 880
Non-critical_ROB_Stalls_Percent_4_Bucket_2: 194394
Critical_ROB_Stalls_Percent_4_Bucket_3: 509
Non-critical_ROB_Stalls_Percent_4_Bucket_3: 115189
Critical_ROB_Stalls_Percent_4_Bucket_4: 74
Non-critical_ROB_Stalls_Percent_4_Bucket_4: 46647
Critical_ROB_Stalls_Percent_4_Bucket_5: 33
Non-critical_ROB_Stalls_Percent_4_Bucket_5: 6088
Critical_ROB_Stalls_Percent_4_Bucket_6: 10
Non-critical_ROB_Stalls_Percent_4_Bucket_6: 126318
Critical_ROB_Stalls_Percent_5_Bucket_0: 861172
Non-critical_ROB_Stalls_Percent_5_Bucket_0: 5714335
Critical_ROB_Stalls_Percent_5_Bucket_1: 1482
Non-critical_ROB_Stalls_Percent_5_Bucket_1: 810733
Critical_ROB_Stalls_Percent_5_Bucket_2: 880
Non-critical_ROB_Stalls_Percent_5_Bucket_2: 194394
Critical_ROB_Stalls_Percent_5_Bucket_3: 509
Non-critical_ROB_Stalls_Percent_5_Bucket_3: 115189
Critical_ROB_Stalls_Percent_5_Bucket_4: 74
Non-critical_ROB_Stalls_Percent_5_Bucket_4: 46647
Critical_ROB_Stalls_Percent_5_Bucket_5: 33
Non-critical_ROB_Stalls_Percent_5_Bucket_5: 6088
Critical_ROB_Stalls_Percent_5_Bucket_6: 10
Non-critical_ROB_Stalls_Percent_5_Bucket_6: 126318
Critical_ROB_Stalls_Percent_6_Bucket_0: 861172
Non-critical_ROB_Stalls_Percent_6_Bucket_0: 5714335
Critical_ROB_Stalls_Percent_6_Bucket_1: 1482
Non-critical_ROB_Stalls_Percent_6_Bucket_1: 810733
Critical_ROB_Stalls_Percent_6_Bucket_2: 880
Non-critical_ROB_Stalls_Percent_6_Bucket_2: 194394
Critical_ROB_Stalls_Percent_6_Bucket_3: 509
Non-critical_ROB_Stalls_Percent_6_Bucket_3: 115189
Critical_ROB_Stalls_Percent_6_Bucket_4: 74
Non-critical_ROB_Stalls_Percent_6_Bucket_4: 46647
Critical_ROB_Stalls_Percent_6_Bucket_5: 33
Non-critical_ROB_Stalls_Percent_6_Bucket_5: 6088
Critical_ROB_Stalls_Percent_6_Bucket_6: 10
Non-critical_ROB_Stalls_Percent_6_Bucket_6: 126318
Critical_ROB_Stalls_Percent_7_Bucket_0: 861172
Non-critical_ROB_Stalls_Percent_7_Bucket_0: 5714335
Critical_ROB_Stalls_Percent_7_Bucket_1: 1482
Non-critical_ROB_Stalls_Percent_7_Bucket_1: 810733
Critical_ROB_Stalls_Percent_7_Bucket_2: 880
Non-critical_ROB_Stalls_Percent_7_Bucket_2: 194394
Critical_ROB_Stalls_Percent_7_Bucket_3: 509
Non-critical_ROB_Stalls_Percent_7_Bucket_3: 115189
Critical_ROB_Stalls_Percent_7_Bucket_4: 74
Non-critical_ROB_Stalls_Percent_7_Bucket_4: 46647
Critical_ROB_Stalls_Percent_7_Bucket_5: 33
Non-critical_ROB_Stalls_Percent_7_Bucket_5: 6088
Critical_ROB_Stalls_Percent_7_Bucket_6: 10
Non-critical_ROB_Stalls_Percent_7_Bucket_6: 126318
Critical_ROB_Stalls_Percent_8_Bucket_0: 861172
Non-critical_ROB_Stalls_Percent_8_Bucket_0: 5714335
Critical_ROB_Stalls_Percent_8_Bucket_1: 1482
Non-critical_ROB_Stalls_Percent_8_Bucket_1: 810733
Critical_ROB_Stalls_Percent_8_Bucket_2: 880
Non-critical_ROB_Stalls_Percent_8_Bucket_2: 194394
Critical_ROB_Stalls_Percent_8_Bucket_3: 509
Non-critical_ROB_Stalls_Percent_8_Bucket_3: 115189
Critical_ROB_Stalls_Percent_8_Bucket_4: 74
Non-critical_ROB_Stalls_Percent_8_Bucket_4: 46647
Critical_ROB_Stalls_Percent_8_Bucket_5: 33
Non-critical_ROB_Stalls_Percent_8_Bucket_5: 6088
Critical_ROB_Stalls_Percent_8_Bucket_6: 10
Non-critical_ROB_Stalls_Percent_8_Bucket_6: 126318
Average ROB occupancy Load Stall Begin: 29.4935
Average ROB occupancy Load Stall End: 35.7085
Min ROB occupancy Load Stall Begin: 1
Max ROB occupancy Load Stall Begin: 352
Min ROB occupancy Load Stall End: 1
Max ROB occupancy Load Stall End: 352
Average ROB occupancy Critical Load Stall Begin: 11.5034
Average ROB occupancy Critical Load Stall End: 13.8471
Min ROB occupancy Critical Load Stall Begin: 2
Max ROB occupancy Critical Load Stall Begin: 350
Min ROB occupancy Critical Load Stall End: 2
Max ROB occupancy Critical Load Stall End: 352
 ROB Load Stall Begin Bucket Count 0: 6963828
 ROB Load Stall End Bucket Count 0: 6575507
 ROB Critical Load Stall Begin Bucket Count 0: 430693
 ROB Critical Load Stall End Bucket Count 0: 428511
 ROB Load Stall Begin Bucket Count 1: 523791
 ROB Load Stall End Bucket Count 1: 812215
 ROB Critical Load Stall Begin Bucket Count 1: 1806
 ROB Critical Load Stall End Bucket Count 1: 3573
 ROB Load Stall Begin Bucket Count 2: 136241
 ROB Load Stall End Bucket Count 2: 195274
 ROB Critical Load Stall Begin Bucket Count 2: 623
 ROB Critical Load Stall End Bucket Count 2: 807
 ROB Load Stall Begin Bucket Count 3: 105747
 ROB Load Stall End Bucket Count 3: 115698
 ROB Critical Load Stall Begin Bucket Count 3: 246
 ROB Critical Load Stall End Bucket Count 3: 356
 ROB Load Stall Begin Bucket Count 4: 19494
 ROB Load Stall End Bucket Count 4: 46721
 ROB Critical Load Stall Begin Bucket Count 4: 65
 ROB Critical Load Stall End Bucket Count 4: 104
 ROB Load Stall Begin Bucket Count 5: 3356
 ROB Load Stall End Bucket Count 5: 6121
 ROB Critical Load Stall Begin Bucket Count 5: 30
 ROB Critical Load Stall End Bucket Count 5: 78
 ROB Load Stall Begin Bucket Count 6: 125407
 ROB Load Stall End Bucket Count 6: 126328
 ROB Critical Load Stall Begin Bucket Count 6: 7
 ROB Critical Load Stall End Bucket Count 6: 41
PIST Tag Read Accesses: 0
PIST Read Accesses: 0
PIST Tag Write Accesses: 0
PIST Write Accesses: 0
Criticality detector called times: 0
Max global_stall_cycles_count: 0
Threshold Modified: 0 times, factor: 0
Sturdy critical IP cache stats: 
 Unused entries: 0
CIC Tag Read Accesses: 0
CIC Read Accesses: 0
CIC Tag Write Accesses: 0
CIC Write Accesses: 0
Wobbly critical IP cache stats: 
 Unused entries: 11
CIC Tag Read Accesses: 247240529
CIC Read Accesses: 0
CIC Tag Write Accesses: 817637
CIC Write Accesses: 0
ITLB TOTAL     ACCESS:   14519484  HIT:   14519484  MISS:          0  HIT %:        100  MISS %:          0   MPKI: 0
ITLB LOAD TRANSLATION ACCESS:   14519484  HIT:   14519484  MISS:          0  HIT %:        100  MISS %:          0   MPKI: 0
ITLB PREFETCH  REQUESTED:          0  ISSUED:          0  USEFUL:          0  USELESS:          0
ITLB USEFUL LOAD PREFETCHES:          0 PREFETCH ISSUED TO LOWER LEVEL:          0  ACCURACY: -nan
ITLB TIMELY PREFETCHES:          0 LATE PREFETCHES: 0 DROPPED PREFETCHES: 0
ITLB PREFETCHES SAME FILL-ORIGIN LEVEL: 0 DIFFERENT FILL-ORIGIN LEVEL: 0
ITLB AVERAGE MISS LATENCY: -nan cycles
ITLB RQ	ACCESS:   17182676	FORWARD:          0	MERGED:    2663192	TO_CACHE:   14519484

DTLB TOTAL     ACCESS:   19506803  HIT:   18884584  MISS:     622219  HIT %:    96.8102  MISS %:    3.18975   MPKI: 6.22219
DTLB LOAD TRANSLATION ACCESS:   19506803  HIT:   18884584  MISS:     622219  HIT %:    96.8102  MISS %:    3.18975   MPKI: 6.22219
DTLB PREFETCH  REQUESTED:          0  ISSUED:          0  USEFUL:          0  USELESS:          0
DTLB USEFUL LOAD PREFETCHES:          0 PREFETCH ISSUED TO LOWER LEVEL:          0  ACCURACY: -nan
DTLB TIMELY PREFETCHES:          0 LATE PREFETCHES: 0 DROPPED PREFETCHES: 0
DTLB PREFETCHES SAME FILL-ORIGIN LEVEL: 0 DIFFERENT FILL-ORIGIN LEVEL: 0
DTLB AVERAGE MISS LATENCY: 13.6731 cycles
DTLB RQ	ACCESS:   23328553	FORWARD:          0	MERGED:    3817032	TO_CACHE:   19511521

STLB TOTAL     ACCESS:     622219  HIT:     523657  MISS:      98562  HIT %:    84.1596  MISS %:    15.8404   MPKI: 0.98562
STLB LOAD TRANSLATION ACCESS:     622219  HIT:     523657  MISS:      98562  HIT %:    84.1596  MISS %:    15.8404   MPKI: 0.98562
STLB PREFETCH  REQUESTED:          0  ISSUED:          0  USEFUL:          0  USELESS:          0
STLB USEFUL LOAD PREFETCHES:          0 PREFETCH ISSUED TO LOWER LEVEL:          0  ACCURACY: -nan
STLB TIMELY PREFETCHES:          0 LATE PREFETCHES: 0 DROPPED PREFETCHES: 0
STLB PREFETCHES SAME FILL-ORIGIN LEVEL: 0 DIFFERENT FILL-ORIGIN LEVEL: 0
STLB AVERAGE MISS LATENCY: 29.4274 cycles
STLB RQ	ACCESS:     622219	FORWARD:          0	MERGED:          0	TO_CACHE:     622219

STLB Hit, L1D data hit: 0
STLB Hit, L2C data hit: 0
STLB Hit, LLC data hit: 0
STLB Hit, LLC data miss: 0
STLB STLB hints to L2: 0
L1D TOTAL     ACCESS:   23225090  HIT:   22534698  MISS:     690392  HIT %:    97.0274  MISS %:    2.97261   MPKI: 6.90392
L1D LOAD      ACCESS:   15954009  HIT:   15346914  MISS:     607095  HIT %:    96.1947  MISS %:    3.80528   MPKI: 6.07095
L1D RFO       ACCESS:    7271081  HIT:    7187784  MISS:      83297  HIT %:    98.8544  MISS %:    1.14559   MPKI: 0.83297
L1D PREFETCH  REQUESTED:          0  ISSUED:          0  USEFUL:          0  USELESS:          0
L1D USEFUL LOAD PREFETCHES:          0 PREFETCH ISSUED TO LOWER LEVEL:          0  ACCURACY: -nan
L1D TIMELY PREFETCHES:          0 LATE PREFETCHES: 0 DROPPED PREFETCHES: 0
L1D PREFETCHES SAME FILL-ORIGIN LEVEL: 0 DIFFERENT FILL-ORIGIN LEVEL: 0
L1D AVERAGE MISS LATENCY: 75.8282 cycles
L1D RQ	ACCESS:   22483565	FORWARD:          0	MERGED:    6401503	TO_CACHE:   16031219
L1D WQ	ACCESS:    7421072	FORWARD:      50843	MERGED:     123738	TO_CACHE:    7297334

L1D UNIQUE REGIONS ACCESSED: 0
L1D REGIONS CONFLICTS: 0
L1D Cross Page Prefetch Requests: 0
L1D Same Page Prefetch Requests: 0
L1D ROI Sum of L1D PQ occupancy: 0
L1D PREFETCHES PUSHED FROM L2C: 0
L1I TOTAL     ACCESS:   17182565  HIT:   17182347  MISS:        218  HIT %:    99.9987  MISS %: 0.00126873   MPKI: 0.00218
L1I LOAD      ACCESS:   17182565  HIT:   17182347  MISS:        218  HIT %:    99.9987  MISS %: 0.00126873   MPKI: 0.00218
L1I PREFETCH  REQUESTED:          0  ISSUED:          0  USEFUL:          0  USELESS:          0
L1I USEFUL LOAD PREFETCHES:          0 PREFETCH ISSUED TO LOWER LEVEL:          0  ACCURACY: -nan
L1I TIMELY PREFETCHES:          0 LATE PREFETCHES: 0 DROPPED PREFETCHES: 0
L1I PREFETCHES SAME FILL-ORIGIN LEVEL: 0 DIFFERENT FILL-ORIGIN LEVEL: 0
L1I AVERAGE MISS LATENCY: 102.106 cycles
L1I RQ	ACCESS:   26113772	FORWARD:          0	MERGED:    8931096	TO_CACHE:   17182676

BTB TOTAL     ACCESS:   12852734  HIT:   12753229  MISS:      99505  HIT %:    99.2258  MISS %:   0.774193   MPKI: 0.99505
BTB BRANCH_DIRECT_JUMP	ACCESS:    1234013  HIT:    1233935  MISS:         78
BTB BRANCH_INDIRECT	ACCESS:     174583  HIT:      79437  MISS:      95146
BTB BRANCH_CONDITIONAL	ACCESS:   11233583  HIT:   11233341  MISS:        242
BTB BRANCH_DIRECT_CALL	ACCESS:      66557  HIT:      66538  MISS:         19
BTB BRANCH_INDIRECT_CALL	ACCESS:      38721  HIT:      38714  MISS:          7
BTB BRANCH_RETURN	ACCESS:     105277  HIT:     101264  MISS:       4013
BTB BRANCH_OTHER ACCESS:          0  HIT:          0  MISS:          0

L2C TOTAL     ACCESS:    1247235  HIT:     840210  MISS:     407025  HIT %:    67.3658  MISS %:    32.6342   MPKI: 4.07025
L2C LOAD      ACCESS:     607312  HIT:     264450  MISS:     342862  HIT %:    43.5443  MISS %:    56.4557   MPKI: 3.42862
L2C DATA LOAD MPKI: 3.42644
L2C INSTRUCTION LOAD MPKI: 0.00218
L2C RFO       ACCESS:      83297  HIT:      53974  MISS:      29323  HIT %:    64.7971  MISS %:    35.2029   MPKI: 0.29323
L2C PREFETCH  ACCESS:       9387  HIT:       2312  MISS:       7075  HIT %:    24.6298  MISS %:    75.3702   MPKI: 0.07075
L2C DATA PREFETCH MPKI: 0.07075
L2C INSTRUCTION PREFETCH MPKI: 0
L2C WRITEBACK ACCESS:     448628  HIT:     437564  MISS:      11064  HIT %:    97.5338  MISS %:    2.46619   MPKI: 0.11064
L2C LOAD TRANSLATION ACCESS:      98611  HIT:      81910  MISS:      16701  HIT %:    83.0638  MISS %:    16.9362   MPKI: 0.16701
L2C PREFETCH  REQUESTED:       9400  ISSUED:       9400  USEFUL:       1195  USELESS:       7508
L2C USEFUL LOAD PREFETCHES:       1195 PREFETCH ISSUED TO LOWER LEVEL:       7076  ACCURACY: 16.8881
L2C TIMELY PREFETCHES:       1195 LATE PREFETCHES: 1 DROPPED PREFETCHES: 0
L2C PREFETCHES SAME FILL-ORIGIN LEVEL: 7076 DIFFERENT FILL-ORIGIN LEVEL: 0
L2C AVERAGE MISS LATENCY: 107.525 cycles
L2C RQ	ACCESS:     789221	FORWARD:          0	MERGED:          0	TO_CACHE:     789220
L2C WQ	ACCESS:     448628	FORWARD:          1	MERGED:          0	TO_CACHE:     448628
L2C PQ	ACCESS:       9400	FORWARD:          0	MERGED:          0	TO_CACHE:       9400

L2C Instructions Evicting Data 206
L2C Translations Evicting Data 15944
L2C Data Evicting Data 363375
L2C Instructions Evicting Instructions 3
L2C Translations Evicting Instructions 11
L2C Data Evicting Instructions 202
L2C Instructions Evicting Translations 9
L2C Translations Evicting Translations 746
L2C Data Evicting Translations 15465
L2C Dense regions hint from L2: 0
PSCL5 TOTAL     ACCESS:      98562  HIT:      98562  MISS:          0  HIT %:        100  MISS %:          0   MPKI: 0
PSCL5 LOAD TRANSLATION ACCESS:      98562  HIT:      98562  MISS:          0  HIT %:        100  MISS %:          0   MPKI: 0
PSCL5 PREFETCH  REQUESTED:          0  ISSUED:          0  USEFUL:          0  USELESS:          0
PSCL5 USEFUL LOAD PREFETCHES:          0 PREFETCH ISSUED TO LOWER LEVEL:          0  ACCURACY: -nan
PSCL5 TIMELY PREFETCHES:          0 LATE PREFETCHES: 0 DROPPED PREFETCHES: 0
PSCL5 PREFETCHES SAME FILL-ORIGIN LEVEL: 0 DIFFERENT FILL-ORIGIN LEVEL: 0

PSCL4 TOTAL     ACCESS:      98562  HIT:      98562  MISS:          0  HIT %:        100  MISS %:          0   MPKI: 0
PSCL4 LOAD TRANSLATION ACCESS:      98562  HIT:      98562  MISS:          0  HIT %:        100  MISS %:          0   MPKI: 0
PSCL4 PREFETCH  REQUESTED:          0  ISSUED:          0  USEFUL:          0  USELESS:          0
PSCL4 USEFUL LOAD PREFETCHES:          0 PREFETCH ISSUED TO LOWER LEVEL:          0  ACCURACY: -nan
PSCL4 TIMELY PREFETCHES:          0 LATE PREFETCHES: 0 DROPPED PREFETCHES: 0
PSCL4 PREFETCHES SAME FILL-ORIGIN LEVEL: 0 DIFFERENT FILL-ORIGIN LEVEL: 0

PSCL3 TOTAL     ACCESS:      98562  HIT:      98562  MISS:          0  HIT %:        100  MISS %:          0   MPKI: 0
PSCL3 LOAD TRANSLATION ACCESS:      98562  HIT:      98562  MISS:          0  HIT %:        100  MISS %:          0   MPKI: 0
PSCL3 PREFETCH  REQUESTED:          0  ISSUED:          0  USEFUL:          0  USELESS:          0
PSCL3 USEFUL LOAD PREFETCHES:          0 PREFETCH ISSUED TO LOWER LEVEL:          0  ACCURACY: -nan
PSCL3 TIMELY PREFETCHES:          0 LATE PREFETCHES: 0 DROPPED PREFETCHES: 0
PSCL3 PREFETCHES SAME FILL-ORIGIN LEVEL: 0 DIFFERENT FILL-ORIGIN LEVEL: 0

PSCL2 TOTAL     ACCESS:      98562  HIT:      98513  MISS:         49  HIT %:    99.9503  MISS %:  0.0497149   MPKI: 0.00049
PSCL2 LOAD TRANSLATION ACCESS:      98562  HIT:      98513  MISS:         49  HIT %:    99.9503  MISS %:  0.0497149   MPKI: 0.00049
PSCL2 PREFETCH  REQUESTED:          0  ISSUED:          0  USEFUL:          0  USELESS:          0
PSCL2 USEFUL LOAD PREFETCHES:          0 PREFETCH ISSUED TO LOWER LEVEL:          0  ACCURACY: -nan
PSCL2 TIMELY PREFETCHES:          0 LATE PREFETCHES: 0 DROPPED PREFETCHES: 0
PSCL2 PREFETCHES SAME FILL-ORIGIN LEVEL: 0 DIFFERENT FILL-ORIGIN LEVEL: 0

LLC TOTAL     ACCESS:     644120  HIT:     455923  MISS:     188197  HIT %:    70.7823  MISS %:    29.2177   MPKI: 1.88197
LLC LOAD      ACCESS:     342861  HIT:     184044  MISS:     158817  HIT %:    53.6789  MISS %:    46.3211   MPKI: 1.58817
LLC RFO       ACCESS:      29323  HIT:       9941  MISS:      19382  HIT %:    33.9017  MISS %:    66.0983   MPKI: 0.19382
LLC PREFETCH  ACCESS:       7076  HIT:       2523  MISS:       4553  HIT %:    35.6557  MISS %:    64.3443   MPKI: 0.04553
LLC WRITEBACK ACCESS:     248159  HIT:     244167  MISS:       3992  HIT %:    98.3914  MISS %:    1.60865   MPKI: 0.03992
LLC LOAD TRANSLATION ACCESS:      16701  HIT:      15248  MISS:       1453  HIT %:    91.2999  MISS %:    8.70008   MPKI: 0.01453
LLC PREFETCH  REQUESTED:          0  ISSUED:          0  USEFUL:       1657  USELESS:      10741
LLC USEFUL LOAD PREFETCHES:       1657 PREFETCH ISSUED TO LOWER LEVEL:       4553  ACCURACY: 36.3936
LLC TIMELY PREFETCHES:       1657 LATE PREFETCHES: 0 DROPPED PREFETCHES: 0
LLC PREFETCHES SAME FILL-ORIGIN LEVEL: 0 DIFFERENT FILL-ORIGIN LEVEL: 0
LLC AVERAGE MISS LATENCY: 169.37 cycles
LLC RQ	ACCESS:     388885	FORWARD:          0	MERGED:          0	TO_CACHE:     388885
LLC WQ	ACCESS:     248159	FORWARD:          0	MERGED:          0	TO_CACHE:     248159
LLC PQ	ACCESS:       7076	FORWARD:          0	MERGED:          0	TO_CACHE:       7076

LLC Dense regions hint to LLC: 0

RAW hits: 910638
Loads Generated: 23394204
Loads sent to L1D: 22483565
Stores Generated: 7421071
Stores sent to L1D: 7421072
Major fault: 0 Minor fault: 7620
Allocated PAGES: 7620
[Bingo] PHT Access: 8023
[Bingo] PHT Hit PC+Addr: 274
[Bingo] PHT Hit PC+Offs: 7350
[Bingo] PHT Miss: 399
[Bingo] Prefetch PC+Addr: 0
[Bingo] Prefetch PC+Offs: 0
[Bingo] Useful PC+Addr: 0
[Bingo] Useful PC+Offs: 0
[Bingo] Useless PC+Addr: 0
[Bingo] Useless PC+Offs: 0
[Bingo] L1 Prefetch per Region: 0
[Bingo] L2 Prefetch per Region: 2.23308
[Bingo] L3 Prefetch per Region: 0
[Bingo] No Prefetch per Region: 29.7669
[Bingo] Number of Voters Mean: 13.2494
[Bingo] Number of Voters SD: 57.4786
PHT read accesses: 124895
PHT write accesses: 1390
AT read accesses: 3960
AT write accesses: 4056
FT read accesses: 6317
FT write accesses: 8023
PS read accesses: 15261
PS write accesses: 7624
PHT tag read accesses: 168782
PHT tag write accesses: 1664
AT tag read accesses: 3768576
AT tag write accesses: 5382
FT tag read accesses: 3943128
FT tag write accesses: 12890
PS tag read accesses: 426105
PS tag write accesses: 22880

DRAM Statistics
 CHANNEL 0
 RQ ROW_BUFFER_HIT:       2168  ROW_BUFFER_MISS:     182037
 DBUS_CONGESTED:          3
 WQ ROW_BUFFER_HIT:      25763  ROW_BUFFER_MISS:     117113  FULL:          0

 AVG_CONGESTED_CYCLE: 3
 All warmup complete: 2
Channel 0 Bank busy for read cycles: 0
Channel 0 Bank busy for write cycles: 0
Channel 0
Rank 0
0banks busy for read cycles: 132800551
0banks busy for write cycles: 90879
1banks busy for read cycles: 20256119
1banks busy for write cycles: 14079248
2banks busy for read cycles: 2768752
2banks busy for write cycles: 3121589
3banks busy for read cycles: 394522
3banks busy for write cycles: 741518
4banks busy for read cycles: 79770
4banks busy for write cycles: 193510
5banks busy for read cycles: 16729
5banks busy for write cycles: 57413
6banks busy for read cycles: 5141
6banks busy for write cycles: 16767
7banks busy for read cycles: 403
7banks busy for write cycles: 7154
8banks busy for read cycles: 84
8banks busy for write cycles: 30894

CPU 0 Branch Prediction Accuracy: 92.2625% MPKI: 10.436 Average ROB Occupancy at Mispredict: 25.9935
Branch types
NOT_BRANCH: 86512123 86.5121%
BRANCH_DIRECT_JUMP: 1234013 1.23401%
BRANCH_INDIRECT: 174583 0.174583%
BRANCH_CONDITIONAL: 11868384 11.8684%
BRANCH_DIRECT_CALL: 66557 0.066557%
BRANCH_INDIRECT_CALL: 38721 0.038721%
BRANCH_RETURN: 105277 0.105277%
BRANCH_OTHER: 0 0%

DRAM PAGES: 1048576
Allocated PAGES: 7620
