
*** ChampSim Multicore Out-of-Order Simulator ***

Warmup Instructions: 50000000
Simulation Instructions: 100000000
Number of CPUs: 1
LLC sets: 2048
LLC ways: 16
Off-chip DRAM Size: 4096 MB Channels: 1 Width: 64-bit Data Rate: 6400 MT/s
CPU 0 runs ../SPEC2017//657.xz_s-2302B.champsimtrace.xz
.xz
BTB has LRU replacement policy
ITLB has LRU replacement policy
DTLB has LRU replacement policy
STLB has LRU replacement policy
L1I has LRU replacement policy
IP Table Entries: 64
L1D has LRU replacement policy
Initialize SRRIP state for L2C
Initialize DRRIP state for LLC
Heartbeat CPU 0 instructions: 10000003 cycles: 2791259 heartbeat IPC: 3.58261 cumulative IPC: 3.58261 (Simulation time: 0 hr 5 min 12 sec) 
Heartbeat CPU 0 instructions: 20000002 cycles: 5586690 heartbeat IPC: 3.57727 cumulative IPC: 3.57994 (Simulation time: 0 hr 9 min 42 sec) 
Heartbeat CPU 0 instructions: 30000000 cycles: 8414250 heartbeat IPC: 3.53662 cumulative IPC: 3.56538 (Simulation time: 0 hr 14 min 8 sec) 
Heartbeat CPU 0 instructions: 40000003 cycles: 11200722 heartbeat IPC: 3.58877 cumulative IPC: 3.5712 (Simulation time: 0 hr 18 min 12 sec) 
Heartbeat CPU 0 instructions: 50000000 cycles: 13993012 heartbeat IPC: 3.58129 cumulative IPC: 3.57321 (Simulation time: 0 hr 22 min 12 sec) 

Warmup complete CPU 0 instructions: 50000004 cycles: 13993013 (Simulation time: 0 hr 22 min 12 sec) 

Heartbeat CPU 0 instructions: 60000002 cycles: 31584871 heartbeat IPC: 0.568445 cumulative IPC: 0.568445 (Simulation time: 0 hr 27 min 11 sec) 
Heartbeat CPU 0 instructions: 70000000 cycles: 48560804 heartbeat IPC: 0.589069 cumulative IPC: 0.578573 (Simulation time: 0 hr 31 min 22 sec) 
Heartbeat CPU 0 instructions: 80000003 cycles: 65950911 heartbeat IPC: 0.57504 cumulative IPC: 0.577391 (Simulation time: 0 hr 35 min 27 sec) 
Heartbeat CPU 0 instructions: 90000002 cycles: 83570168 heartbeat IPC: 0.567561 cumulative IPC: 0.574901 (Simulation time: 0 hr 39 min 31 sec) 
Heartbeat CPU 0 instructions: 100000001 cycles: 100526159 heartbeat IPC: 0.589762 cumulative IPC: 0.577813 (Simulation time: 0 hr 43 min 31 sec) 
Heartbeat CPU 0 instructions: 110000000 cycles: 118117434 heartbeat IPC: 0.568464 cumulative IPC: 0.576234 (Simulation time: 0 hr 47 min 30 sec) 
Heartbeat CPU 0 instructions: 120000003 cycles: 135899427 heartbeat IPC: 0.562367 cumulative IPC: 0.574211 (Simulation time: 0 hr 51 min 9 sec) 
Heartbeat CPU 0 instructions: 130000000 cycles: 153751186 heartbeat IPC: 0.560169 cumulative IPC: 0.572417 (Simulation time: 0 hr 54 min 39 sec) 
Heartbeat CPU 0 instructions: 140000000 cycles: 170236485 heartbeat IPC: 0.606601 cumulative IPC: 0.576024 (Simulation time: 0 hr 57 min 46 sec) 
Heartbeat CPU 0 instructions: 150000003 cycles: 188002979 heartbeat IPC: 0.562857 cumulative IPC: 0.57468 (Simulation time: 1 hr 0 min 42 sec) 
Finished CPU 0 instructions: 100000002 cycles: 174009967 cumulative IPC: 0.57468 (Simulation time: 1 hr 0 min 42 sec) 

ChampSim completed all CPUs

Region of Interest Statistics

CPU 0 cumulative IPC: 0.57468 instructions: 100000002 cycles: 174009967

CPU 0 Average Load ROB stall cycles: 4.27578e+07
CPU 0 Fraction of times ROB stalled by Loads: 42.1106
CPU 0 Percentage of Load stall cycles in Total stall cycles: 5.77798e+08
Issued all: 56038608
Issued LT all: 42922940
rob_not_full_when_issued_lt_all: 40649264
Issued LT one: 35949247
rob_not_full_when_issued_lt_one: 33881646
FVP critical_dynamic_instances_0: 11735741
FVP unique_critical_ips_0: 917
 Total stall cycles: 138717355
 Total load stall cycles: 801505462268352
Unique Load IPs: 1125
CPU 0 NUM of IPS identified critical: 0
CPU 0 Num of Load IPs stalling ROB: 0
Threshold modification factor: 0
Trouble in retire width: -nan
MaC = Marked as critical.
lt_50_percent_before_Mac: 0
gt_90_percent_before_Mac: 0
gt_75_percent_before_Mac: 0
gt_50_percent_before_Mac: 0
stall_proportion_bin_same_before_after: 0
stall_proportion_bin_lower_before_after: 0
stall_proportion_bin_upper_before_after: 0
average_stall_proportion_before: -nan
average_stall_proportion_after: -nan
Critical IP stalls, total frequency: 0
Non-critical IP stalls, total frequency: 0
Total Freq all stalling IPs: 0
Critical_IP_Detector_Accuracy_70: 0.00109051
Critical_IP_Detector_Accuracy_80: 0.00109051
Critical_IP_Detector_Accuracy_90: 0.00109051
Critical_IP_Detector_Coverage_70: 1
Critical_IP_Detector_Coverage_80: 1
Critical_IP_Detector_Coverage_90: 1
stat_90_percent_critical_ip_stalls_freq: 863169
stat_90_percent_non_critical_ip_stalls_freq: 18446744073708688447
AVERAGE_ROB_Occupancy_90_Percent_Critical_IP_Stalls: 11.515
AVERAGE_ROB_Occupancy_90_Percent_Non_Critical_IP_Stalls: 1.47285e-11
Critical_IP_ROB_Stalls_Bucket_0: 0
Non-critical_IP_ROB_Stalls_Bucket_0: 6593948
Critical_IP_ROB_Stalls_Bucket_1: 0
Non-critical_IP_ROB_Stalls_Bucket_1: 808069
Critical_IP_ROB_Stalls_Bucket_2: 0
Non-critical_IP_ROB_Stalls_Bucket_2: 195999
Critical_IP_ROB_Stalls_Bucket_3: 0
Non-critical_IP_ROB_Stalls_Bucket_3: 116075
Critical_IP_ROB_Stalls_Bucket_4: 0
Non-critical_IP_ROB_Stalls_Bucket_4: 46692
Critical_IP_ROB_Stalls_Bucket_5: 0
Non-critical_IP_ROB_Stalls_Bucket_5: 6346
Critical_IP_ROB_Stalls_Bucket_6: 0
Non-critical_IP_ROB_Stalls_Bucket_6: 126608
0 => IPs accounting for >50 percent of stalls, 1 => 55, 2 => 60, 3 => 65 and so on till 90.
percent50: inf num IPs:  1
percent55: inf num IPs: 1
percent60: inf num IPs: 1
percent65: inf num IPs: 1
percent70: inf num IPs: 1
percent75: inf num IPs: 1
percent80: inf num IPs: 1
percent85: inf num IPs: 1
percent90: inf num IPs: 1
Critical_ROB_Stalls_Percent_0_Bucket_0: 860502
Non-critical_ROB_Stalls_Percent_0_Bucket_0: 5733446
Critical_ROB_Stalls_Percent_0_Bucket_1: 1237
Non-critical_ROB_Stalls_Percent_0_Bucket_1: 806832
Critical_ROB_Stalls_Percent_0_Bucket_2: 755
Non-critical_ROB_Stalls_Percent_0_Bucket_2: 195244
Critical_ROB_Stalls_Percent_0_Bucket_3: 536
Non-critical_ROB_Stalls_Percent_0_Bucket_3: 115539
Critical_ROB_Stalls_Percent_0_Bucket_4: 88
Non-critical_ROB_Stalls_Percent_0_Bucket_4: 46604
Critical_ROB_Stalls_Percent_0_Bucket_5: 36
Non-critical_ROB_Stalls_Percent_0_Bucket_5: 6310
Critical_ROB_Stalls_Percent_0_Bucket_6: 15
Non-critical_ROB_Stalls_Percent_0_Bucket_6: 126593
Critical_ROB_Stalls_Percent_1_Bucket_0: 860502
Non-critical_ROB_Stalls_Percent_1_Bucket_0: 5733446
Critical_ROB_Stalls_Percent_1_Bucket_1: 1237
Non-critical_ROB_Stalls_Percent_1_Bucket_1: 806832
Critical_ROB_Stalls_Percent_1_Bucket_2: 755
Non-critical_ROB_Stalls_Percent_1_Bucket_2: 195244
Critical_ROB_Stalls_Percent_1_Bucket_3: 536
Non-critical_ROB_Stalls_Percent_1_Bucket_3: 115539
Critical_ROB_Stalls_Percent_1_Bucket_4: 88
Non-critical_ROB_Stalls_Percent_1_Bucket_4: 46604
Critical_ROB_Stalls_Percent_1_Bucket_5: 36
Non-critical_ROB_Stalls_Percent_1_Bucket_5: 6310
Critical_ROB_Stalls_Percent_1_Bucket_6: 15
Non-critical_ROB_Stalls_Percent_1_Bucket_6: 126593
Critical_ROB_Stalls_Percent_2_Bucket_0: 860502
Non-critical_ROB_Stalls_Percent_2_Bucket_0: 5733446
Critical_ROB_Stalls_Percent_2_Bucket_1: 1237
Non-critical_ROB_Stalls_Percent_2_Bucket_1: 806832
Critical_ROB_Stalls_Percent_2_Bucket_2: 755
Non-critical_ROB_Stalls_Percent_2_Bucket_2: 195244
Critical_ROB_Stalls_Percent_2_Bucket_3: 536
Non-critical_ROB_Stalls_Percent_2_Bucket_3: 115539
Critical_ROB_Stalls_Percent_2_Bucket_4: 88
Non-critical_ROB_Stalls_Percent_2_Bucket_4: 46604
Critical_ROB_Stalls_Percent_2_Bucket_5: 36
Non-critical_ROB_Stalls_Percent_2_Bucket_5: 6310
Critical_ROB_Stalls_Percent_2_Bucket_6: 15
Non-critical_ROB_Stalls_Percent_2_Bucket_6: 126593
Critical_ROB_Stalls_Percent_3_Bucket_0: 860502
Non-critical_ROB_Stalls_Percent_3_Bucket_0: 5733446
Critical_ROB_Stalls_Percent_3_Bucket_1: 1237
Non-critical_ROB_Stalls_Percent_3_Bucket_1: 806832
Critical_ROB_Stalls_Percent_3_Bucket_2: 755
Non-critical_ROB_Stalls_Percent_3_Bucket_2: 195244
Critical_ROB_Stalls_Percent_3_Bucket_3: 536
Non-critical_ROB_Stalls_Percent_3_Bucket_3: 115539
Critical_ROB_Stalls_Percent_3_Bucket_4: 88
Non-critical_ROB_Stalls_Percent_3_Bucket_4: 46604
Critical_ROB_Stalls_Percent_3_Bucket_5: 36
Non-critical_ROB_Stalls_Percent_3_Bucket_5: 6310
Critical_ROB_Stalls_Percent_3_Bucket_6: 15
Non-critical_ROB_Stalls_Percent_3_Bucket_6: 126593
Critical_ROB_Stalls_Percent_4_Bucket_0: 860502
Non-critical_ROB_Stalls_Percent_4_Bucket_0: 5733446
Critical_ROB_Stalls_Percent_4_Bucket_1: 1237
Non-critical_ROB_Stalls_Percent_4_Bucket_1: 806832
Critical_ROB_Stalls_Percent_4_Bucket_2: 755
Non-critical_ROB_Stalls_Percent_4_Bucket_2: 195244
Critical_ROB_Stalls_Percent_4_Bucket_3: 536
Non-critical_ROB_Stalls_Percent_4_Bucket_3: 115539
Critical_ROB_Stalls_Percent_4_Bucket_4: 88
Non-critical_ROB_Stalls_Percent_4_Bucket_4: 46604
Critical_ROB_Stalls_Percent_4_Bucket_5: 36
Non-critical_ROB_Stalls_Percent_4_Bucket_5: 6310
Critical_ROB_Stalls_Percent_4_Bucket_6: 15
Non-critical_ROB_Stalls_Percent_4_Bucket_6: 126593
Critical_ROB_Stalls_Percent_5_Bucket_0: 860502
Non-critical_ROB_Stalls_Percent_5_Bucket_0: 5733446
Critical_ROB_Stalls_Percent_5_Bucket_1: 1237
Non-critical_ROB_Stalls_Percent_5_Bucket_1: 806832
Critical_ROB_Stalls_Percent_5_Bucket_2: 755
Non-critical_ROB_Stalls_Percent_5_Bucket_2: 195244
Critical_ROB_Stalls_Percent_5_Bucket_3: 536
Non-critical_ROB_Stalls_Percent_5_Bucket_3: 115539
Critical_ROB_Stalls_Percent_5_Bucket_4: 88
Non-critical_ROB_Stalls_Percent_5_Bucket_4: 46604
Critical_ROB_Stalls_Percent_5_Bucket_5: 36
Non-critical_ROB_Stalls_Percent_5_Bucket_5: 6310
Critical_ROB_Stalls_Percent_5_Bucket_6: 15
Non-critical_ROB_Stalls_Percent_5_Bucket_6: 126593
Critical_ROB_Stalls_Percent_6_Bucket_0: 860502
Non-critical_ROB_Stalls_Percent_6_Bucket_0: 5733446
Critical_ROB_Stalls_Percent_6_Bucket_1: 1237
Non-critical_ROB_Stalls_Percent_6_Bucket_1: 806832
Critical_ROB_Stalls_Percent_6_Bucket_2: 755
Non-critical_ROB_Stalls_Percent_6_Bucket_2: 195244
Critical_ROB_Stalls_Percent_6_Bucket_3: 536
Non-critical_ROB_Stalls_Percent_6_Bucket_3: 115539
Critical_ROB_Stalls_Percent_6_Bucket_4: 88
Non-critical_ROB_Stalls_Percent_6_Bucket_4: 46604
Critical_ROB_Stalls_Percent_6_Bucket_5: 36
Non-critical_ROB_Stalls_Percent_6_Bucket_5: 6310
Critical_ROB_Stalls_Percent_6_Bucket_6: 15
Non-critical_ROB_Stalls_Percent_6_Bucket_6: 126593
Critical_ROB_Stalls_Percent_7_Bucket_0: 860502
Non-critical_ROB_Stalls_Percent_7_Bucket_0: 5733446
Critical_ROB_Stalls_Percent_7_Bucket_1: 1237
Non-critical_ROB_Stalls_Percent_7_Bucket_1: 806832
Critical_ROB_Stalls_Percent_7_Bucket_2: 755
Non-critical_ROB_Stalls_Percent_7_Bucket_2: 195244
Critical_ROB_Stalls_Percent_7_Bucket_3: 536
Non-critical_ROB_Stalls_Percent_7_Bucket_3: 115539
Critical_ROB_Stalls_Percent_7_Bucket_4: 88
Non-critical_ROB_Stalls_Percent_7_Bucket_4: 46604
Critical_ROB_Stalls_Percent_7_Bucket_5: 36
Non-critical_ROB_Stalls_Percent_7_Bucket_5: 6310
Critical_ROB_Stalls_Percent_7_Bucket_6: 15
Non-critical_ROB_Stalls_Percent_7_Bucket_6: 126593
Critical_ROB_Stalls_Percent_8_Bucket_0: 860502
Non-critical_ROB_Stalls_Percent_8_Bucket_0: 5733446
Critical_ROB_Stalls_Percent_8_Bucket_1: 1237
Non-critical_ROB_Stalls_Percent_8_Bucket_1: 806832
Critical_ROB_Stalls_Percent_8_Bucket_2: 755
Non-critical_ROB_Stalls_Percent_8_Bucket_2: 195244
Critical_ROB_Stalls_Percent_8_Bucket_3: 536
Non-critical_ROB_Stalls_Percent_8_Bucket_3: 115539
Critical_ROB_Stalls_Percent_8_Bucket_4: 88
Non-critical_ROB_Stalls_Percent_8_Bucket_4: 46604
Critical_ROB_Stalls_Percent_8_Bucket_5: 36
Non-critical_ROB_Stalls_Percent_8_Bucket_5: 6310
Critical_ROB_Stalls_Percent_8_Bucket_6: 15
Non-critical_ROB_Stalls_Percent_8_Bucket_6: 126593
Average ROB occupancy Load Stall Begin: 29.4817
Average ROB occupancy Load Stall End: 35.6778
Min ROB occupancy Load Stall Begin: 1
Max ROB occupancy Load Stall Begin: 352
Min ROB occupancy Load Stall End: 1
Max ROB occupancy Load Stall End: 352
Average ROB occupancy Critical Load Stall Begin: -nan
Average ROB occupancy Critical Load Stall End: -nan
Min ROB occupancy Critical Load Stall Begin: 400
Max ROB occupancy Critical Load Stall Begin: 0
Min ROB occupancy Critical Load Stall End: 400
Max ROB occupancy Critical Load Stall End: 0
 ROB Load Stall Begin Bucket Count 0: 6978776
 ROB Load Stall End Bucket Count 0: 6593948
 ROB Critical Load Stall Begin Bucket Count 0: 0
 ROB Critical Load Stall End Bucket Count 0: 0
 ROB Load Stall Begin Bucket Count 1: 523788
 ROB Load Stall End Bucket Count 1: 808069
 ROB Critical Load Stall Begin Bucket Count 1: 0
 ROB Critical Load Stall End Bucket Count 1: 0
 ROB Load Stall Begin Bucket Count 2: 136837
 ROB Load Stall End Bucket Count 2: 195999
 ROB Critical Load Stall Begin Bucket Count 2: 0
 ROB Critical Load Stall End Bucket Count 2: 0
 ROB Load Stall Begin Bucket Count 3: 105920
 ROB Load Stall End Bucket Count 3: 116075
 ROB Critical Load Stall Begin Bucket Count 3: 0
 ROB Critical Load Stall End Bucket Count 3: 0
 ROB Load Stall Begin Bucket Count 4: 19386
 ROB Load Stall End Bucket Count 4: 46692
 ROB Critical Load Stall Begin Bucket Count 4: 0
 ROB Critical Load Stall End Bucket Count 4: 0
 ROB Load Stall Begin Bucket Count 5: 3453
 ROB Load Stall End Bucket Count 5: 6346
 ROB Critical Load Stall Begin Bucket Count 5: 0
 ROB Critical Load Stall End Bucket Count 5: 0
 ROB Load Stall Begin Bucket Count 6: 125577
 ROB Load Stall End Bucket Count 6: 126608
 ROB Critical Load Stall Begin Bucket Count 6: 0
 ROB Critical Load Stall End Bucket Count 6: 0
PIST Tag Read Accesses: 0
PIST Read Accesses: 0
PIST Tag Write Accesses: 0
PIST Write Accesses: 0
Criticality detector called times: 0
Max global_stall_cycles_count: 0
Threshold Modified: 0 times, factor: 0
ITLB TOTAL     ACCESS:   14519525  HIT:   14519525  MISS:          0  HIT %:        100  MISS %:          0   MPKI: 0
ITLB LOAD TRANSLATION ACCESS:   14519525  HIT:   14519525  MISS:          0  HIT %:        100  MISS %:          0   MPKI: 0
ITLB PREFETCH  REQUESTED:          0  ISSUED:          0  USEFUL:          0  USELESS:          0
ITLB USEFUL LOAD PREFETCHES:          0 PREFETCH ISSUED TO LOWER LEVEL:          0  ACCURACY: -nan
ITLB TIMELY PREFETCHES:          0 LATE PREFETCHES: 0 DROPPED PREFETCHES: 0
ITLB PREFETCHES SAME FILL-ORIGIN LEVEL: 0 DIFFERENT FILL-ORIGIN LEVEL: 0
ITLB AVERAGE MISS LATENCY: -nan cycles
ITLB RQ	ACCESS:   17182759	FORWARD:          0	MERGED:    2663234	TO_CACHE:   14519525

DTLB TOTAL     ACCESS:   19499223  HIT:   18877004  MISS:     622219  HIT %:     96.809  MISS %:    3.19099   MPKI: 6.22219
DTLB LOAD TRANSLATION ACCESS:   19499223  HIT:   18877004  MISS:     622219  HIT %:     96.809  MISS %:    3.19099   MPKI: 6.22219
DTLB PREFETCH  REQUESTED:          0  ISSUED:          0  USEFUL:          0  USELESS:          0
DTLB USEFUL LOAD PREFETCHES:          0 PREFETCH ISSUED TO LOWER LEVEL:          0  ACCURACY: -nan
DTLB TIMELY PREFETCHES:          0 LATE PREFETCHES: 0 DROPPED PREFETCHES: 0
DTLB PREFETCHES SAME FILL-ORIGIN LEVEL: 0 DIFFERENT FILL-ORIGIN LEVEL: 0
DTLB AVERAGE MISS LATENCY: 14.4498 cycles
DTLB RQ	ACCESS:   23321272	FORWARD:          0	MERGED:    3817335	TO_CACHE:   19503937

STLB TOTAL     ACCESS:    1727362  HIT:    1628800  MISS:      98562  HIT %:    94.2941  MISS %:    5.70593   MPKI: 0.98562
STLB LOAD TRANSLATION ACCESS:     622219  HIT:     523657  MISS:      98562  HIT %:    84.1596  MISS %:    15.8404   MPKI: 0.98562
STLB TRANSLATION FROM L1D PREFETCHER ACCESS:    1105143  HIT:    1105143  MISS:          0  HIT %:        100  MISS %:          0   MPKI: 0
STLB PREFETCH  REQUESTED:          0  ISSUED:          0  USEFUL:          0  USELESS:          0
STLB USEFUL LOAD PREFETCHES:          0 PREFETCH ISSUED TO LOWER LEVEL:          0  ACCURACY: -nan
STLB TIMELY PREFETCHES:          0 LATE PREFETCHES: 0 DROPPED PREFETCHES: 0
STLB PREFETCHES SAME FILL-ORIGIN LEVEL: 0 DIFFERENT FILL-ORIGIN LEVEL: 0
STLB AVERAGE MISS LATENCY: 34.3376 cycles
STLB RQ	ACCESS:    1907051	FORWARD:          0	MERGED:     179689	TO_CACHE:    1727362

STLB Hit, L1D data hit: 0
STLB Hit, L2C data hit: 0
STLB Hit, LLC data hit: 0
STLB Hit, LLC data miss: 0
STLB STLB hints to L2: 0
L1D TOTAL     ACCESS:   24512624  HIT:   23300282  MISS:    1212342  HIT %:    95.0542  MISS %:    4.94579   MPKI: 12.1234
L1D LOAD      ACCESS:   15958800  HIT:   15353176  MISS:     605624  HIT %:    96.2051  MISS %:    3.79492   MPKI: 6.05624
L1D RFO       ACCESS:    7271925  HIT:    7184024  MISS:      87901  HIT %:    98.7912  MISS %:    1.20877   MPKI: 0.87901
L1D PREFETCH  ACCESS:    1281899  HIT:     763082  MISS:     518817  HIT %:    59.5275  MISS %:    40.4725   MPKI: 5.18817
L1D PREFETCH  REQUESTED:    2569872  ISSUED:    2569872  USEFUL:      65466  USELESS:     453089
L1D USEFUL LOAD PREFETCHES:      65466 PREFETCH ISSUED TO LOWER LEVEL:     520159  ACCURACY: 12.5858
L1D TIMELY PREFETCHES:      65466 LATE PREFETCHES: 1327 DROPPED PREFETCHES: 0
L1D PREFETCHES SAME FILL-ORIGIN LEVEL: 520159 DIFFERENT FILL-ORIGIN LEVEL: 0
L1D AVERAGE MISS LATENCY: 117256 cycles
L1D RQ	ACCESS:   22480725	FORWARD:          0	MERGED:    6405667	TO_CACHE:   16024417
L1D WQ	ACCESS:    7421072	FORWARD:      50849	MERGED:     124217	TO_CACHE:    7296855
L1D PQ	ACCESS:    1285040	FORWARD:          0	MERGED:          0	TO_CACHE:    1284832

L1D UNIQUE REGIONS ACCESSED: 0
L1D REGIONS CONFLICTS: 0
L1D Cross Page Prefetch Requests: 0
L1D Same Page Prefetch Requests: 1298765
L1D ROI Sum of L1D PQ occupancy: 16757846
L1D PREFETCHES PUSHED FROM L2C: 0
L1I TOTAL     ACCESS:   17182645  HIT:   17182427  MISS:        218  HIT %:    99.9987  MISS %: 0.00126872   MPKI: 0.00218
L1I LOAD      ACCESS:   17182645  HIT:   17182427  MISS:        218  HIT %:    99.9987  MISS %: 0.00126872   MPKI: 0.00218
L1I PREFETCH  REQUESTED:          0  ISSUED:          0  USEFUL:          0  USELESS:          0
L1I USEFUL LOAD PREFETCHES:          0 PREFETCH ISSUED TO LOWER LEVEL:          0  ACCURACY: -nan
L1I TIMELY PREFETCHES:          0 LATE PREFETCHES: 0 DROPPED PREFETCHES: 0
L1I PREFETCHES SAME FILL-ORIGIN LEVEL: 0 DIFFERENT FILL-ORIGIN LEVEL: 0
L1I AVERAGE MISS LATENCY: 143.872 cycles
L1I RQ	ACCESS:   26113988	FORWARD:          0	MERGED:    8931229	TO_CACHE:   17182759

BTB TOTAL     ACCESS:   12852734  HIT:   12753229  MISS:      99505  HIT %:    99.2258  MISS %:   0.774193   MPKI: 0.99505
BTB BRANCH_DIRECT_JUMP	ACCESS:    1234013  HIT:    1233935  MISS:         78
BTB BRANCH_INDIRECT	ACCESS:     174583  HIT:      79437  MISS:      95146
BTB BRANCH_CONDITIONAL	ACCESS:   11233583  HIT:   11233341  MISS:        242
BTB BRANCH_DIRECT_CALL	ACCESS:      66557  HIT:      66538  MISS:         19
BTB BRANCH_INDIRECT_CALL	ACCESS:      38721  HIT:      38714  MISS:          7
BTB BRANCH_RETURN	ACCESS:     105277  HIT:     101264  MISS:       4013
BTB BRANCH_OTHER ACCESS:          0  HIT:          0  MISS:          0

L2C TOTAL     ACCESS:    1811483  HIT:    1127331  MISS:     684152  HIT %:    62.2325  MISS %:    37.7675   MPKI: 6.84152
L2C LOAD      ACCESS:     604508  HIT:     284863  MISS:     319645  HIT %:    47.1231  MISS %:    52.8769   MPKI: 3.19645
L2C DATA LOAD MPKI: 3.19427
L2C INSTRUCTION LOAD MPKI: 0.00218
L2C RFO       ACCESS:      87887  HIT:      57793  MISS:      30094  HIT %:    65.7583  MISS %:    34.2417   MPKI: 0.30094
L2C PREFETCH  ACCESS:     529829  HIT:     227249  MISS:     302580  HIT %:     42.891  MISS %:     57.109   MPKI: 3.0258
L2C DATA PREFETCH MPKI: 3.0258
L2C INSTRUCTION PREFETCH MPKI: 0
L2C WRITEBACK ACCESS:     490648  HIT:     484572  MISS:       6076  HIT %:    98.7616  MISS %:    1.23836   MPKI: 0.06076
L2C LOAD TRANSLATION ACCESS:      98611  HIT:      72854  MISS:      25757  HIT %:    73.8802  MISS %:    26.1198   MPKI: 0.25757
L2C PREFETCH  REQUESTED:      10472  ISSUED:      10472  USEFUL:      21847  USELESS:     278823
L2C USEFUL LOAD PREFETCHES:      21847 PREFETCH ISSUED TO LOWER LEVEL:     302589  ACCURACY: 7.22002
L2C TIMELY PREFETCHES:      21847 LATE PREFETCHES: 8 DROPPED PREFETCHES: 0
L2C PREFETCHES SAME FILL-ORIGIN LEVEL: 3061 DIFFERENT FILL-ORIGIN LEVEL: 0
L2C AVERAGE MISS LATENCY: 108.291 cycles
L2C RQ	ACCESS:     791013	FORWARD:          0	MERGED:          0	TO_CACHE:     791006
L2C WQ	ACCESS:     490648	FORWARD:          8	MERGED:          0	TO_CACHE:     490648
L2C PQ	ACCESS:     530631	FORWARD:          0	MERGED:        719	TO_CACHE:     529911

L2C Instructions Evicting Data 211
L2C Translations Evicting Data 24889
L2C Data Evicting Data 627126
L2C Instructions Evicting Instructions 1
L2C Translations Evicting Instructions 13
L2C Data Evicting Instructions 201
L2C Instructions Evicting Translations 6
L2C Translations Evicting Translations 855
L2C Data Evicting Translations 24774
L2C Dense regions hint from L2: 0
PSCL5 TOTAL     ACCESS:      98562  HIT:      98562  MISS:          0  HIT %:        100  MISS %:          0   MPKI: 0
PSCL5 LOAD TRANSLATION ACCESS:      98562  HIT:      98562  MISS:          0  HIT %:        100  MISS %:          0   MPKI: 0
PSCL5 PREFETCH  REQUESTED:          0  ISSUED:          0  USEFUL:          0  USELESS:          0
PSCL5 USEFUL LOAD PREFETCHES:          0 PREFETCH ISSUED TO LOWER LEVEL:          0  ACCURACY: -nan
PSCL5 TIMELY PREFETCHES:          0 LATE PREFETCHES: 0 DROPPED PREFETCHES: 0
PSCL5 PREFETCHES SAME FILL-ORIGIN LEVEL: 0 DIFFERENT FILL-ORIGIN LEVEL: 0

PSCL4 TOTAL     ACCESS:      98562  HIT:      98562  MISS:          0  HIT %:        100  MISS %:          0   MPKI: 0
PSCL4 LOAD TRANSLATION ACCESS:      98562  HIT:      98562  MISS:          0  HIT %:        100  MISS %:          0   MPKI: 0
PSCL4 PREFETCH  REQUESTED:          0  ISSUED:          0  USEFUL:          0  USELESS:          0
PSCL4 USEFUL LOAD PREFETCHES:          0 PREFETCH ISSUED TO LOWER LEVEL:          0  ACCURACY: -nan
PSCL4 TIMELY PREFETCHES:          0 LATE PREFETCHES: 0 DROPPED PREFETCHES: 0
PSCL4 PREFETCHES SAME FILL-ORIGIN LEVEL: 0 DIFFERENT FILL-ORIGIN LEVEL: 0

PSCL3 TOTAL     ACCESS:      98562  HIT:      98562  MISS:          0  HIT %:        100  MISS %:          0   MPKI: 0
PSCL3 LOAD TRANSLATION ACCESS:      98562  HIT:      98562  MISS:          0  HIT %:        100  MISS %:          0   MPKI: 0
PSCL3 PREFETCH  REQUESTED:          0  ISSUED:          0  USEFUL:          0  USELESS:          0
PSCL3 USEFUL LOAD PREFETCHES:          0 PREFETCH ISSUED TO LOWER LEVEL:          0  ACCURACY: -nan
PSCL3 TIMELY PREFETCHES:          0 LATE PREFETCHES: 0 DROPPED PREFETCHES: 0
PSCL3 PREFETCHES SAME FILL-ORIGIN LEVEL: 0 DIFFERENT FILL-ORIGIN LEVEL: 0

PSCL2 TOTAL     ACCESS:      98562  HIT:      98513  MISS:         49  HIT %:    99.9503  MISS %:  0.0497149   MPKI: 0.00049
PSCL2 LOAD TRANSLATION ACCESS:      98562  HIT:      98513  MISS:         49  HIT %:    99.9503  MISS %:  0.0497149   MPKI: 0.00049
PSCL2 PREFETCH  REQUESTED:          0  ISSUED:          0  USEFUL:          0  USELESS:          0
PSCL2 USEFUL LOAD PREFETCHES:          0 PREFETCH ISSUED TO LOWER LEVEL:          0  ACCURACY: -nan
PSCL2 TIMELY PREFETCHES:          0 LATE PREFETCHES: 0 DROPPED PREFETCHES: 0
PSCL2 PREFETCHES SAME FILL-ORIGIN LEVEL: 0 DIFFERENT FILL-ORIGIN LEVEL: 0

LLC TOTAL     ACCESS:     947220  HIT:     633060  MISS:     314160  HIT %:    66.8335  MISS %:    33.1665   MPKI: 3.1416
LLC LOAD      ACCESS:     319637  HIT:     167406  MISS:     152231  HIT %:    52.3738  MISS %:    47.6262   MPKI: 1.52231
LLC RFO       ACCESS:      30094  HIT:      10335  MISS:      19759  HIT %:    34.3424  MISS %:    65.6576   MPKI: 0.19759
LLC PREFETCH  ACCESS:     302588  HIT:     169943  MISS:     132645  HIT %:    56.1632  MISS %:    43.8368   MPKI: 1.32645
LLC WRITEBACK ACCESS:     269144  HIT:     262032  MISS:       7112  HIT %:    97.3575  MISS %:    2.64245   MPKI: 0.07112
LLC LOAD TRANSLATION ACCESS:      25757  HIT:      23344  MISS:       2413  HIT %:    90.6317  MISS %:    9.36833   MPKI: 0.02413
LLC PREFETCH  REQUESTED:          0  ISSUED:          0  USEFUL:      15637  USELESS:     109192
LLC USEFUL LOAD PREFETCHES:      15637 PREFETCH ISSUED TO LOWER LEVEL:     132646  ACCURACY: 11.7885
LLC TIMELY PREFETCHES:      15637 LATE PREFETCHES: 0 DROPPED PREFETCHES: 0
LLC PREFETCHES SAME FILL-ORIGIN LEVEL: 0 DIFFERENT FILL-ORIGIN LEVEL: 0
LLC AVERAGE MISS LATENCY: 170.994 cycles
LLC RQ	ACCESS:     375488	FORWARD:          0	MERGED:          0	TO_CACHE:     375488
LLC WQ	ACCESS:     269144	FORWARD:          0	MERGED:          0	TO_CACHE:     269144
LLC PQ	ACCESS:     302589	FORWARD:          0	MERGED:          0	TO_CACHE:     302589

LLC Dense regions hint to LLC: 0

RAW hits: 913478
Loads Generated: 23394204
Loads sent to L1D: 22480725
Stores Generated: 7421071
Stores sent to L1D: 7421072
Major fault: 0 Minor fault: 7620
Allocated PAGES: 7620

stream: 
stream:times selected: 2152820
stream:pref_filled: 382940
stream:pref_useful: 41895
stream:pref_late: 1023
stream:misses: 76637
stream:misses_by_poll: 0

CS: 
CS:times selected: 163217
CS:pref_filled: 24153
CS:pref_useful: 17087
CS:pref_late: 25
CS:misses: 1082
CS:misses_by_poll: 12

CPLX: 
CPLX:times selected: 1975293
CPLX:pref_filled: 117829
CPLX:pref_useful: 7690
CPLX:pref_late: 68
CPLX:misses: 280185
CPLX:misses_by_poll: 375

NL_L1: 
NL:times selected: 13448
NL:pref_filled: 4345
NL:pref_useful: 653
NL:pref_late: 9
NL:misses: 3071
NL:misses_by_poll: 1

total selections: 4304778
total_filled: 518817
total_useful: 65466
total_late: 1350
total_polluted: 388
total_misses_after_warmup: 435544
conflicts: 266695
Degree Incremented Times: 0
Degree Decremented Times: 108850

L1 IP Table Write Accesses: 7919848
L1 IP Table Read Accesses: 7653153
L1 RST Write Accesses: 2139152
L1 RST Read Accesses: 4278304
L1 CSPT Write Accesses: 2139152
L1 CSPT Read Accesses: 4102822
L1 RR Filter Tag Write Accesses: 1285040
L1 RR Filter Tag Read Accesses: 76006656
L1 IP Table Tag Write Accesses: 8491004
L1 IP Table Tag Read Accesses: 8491004
L1 RST Tag Write Accesses: 0
L1 RST Tag Read Accesses: 19558347
L1 RR Filter Write Accesses: 0
L1 RR Filter Read Accesses: 2962263
test: 983657
L2 IP Table Read Accesses: 1781339
L2 IP Table Write Accesses: 1409185
L2 IP Table Tag Read Accesses: 895961
L2 IP Table Tag Write Accesses: 895961

DRAM Statistics
 CHANNEL 0
 RQ ROW_BUFFER_HIT:       6111  ROW_BUFFER_MISS:     300936
 DBUS_CONGESTED:         12
 WQ ROW_BUFFER_HIT:      31907  ROW_BUFFER_MISS:     140945  FULL:          0

 AVG_CONGESTED_CYCLE: 5
 All warmup complete: 2
Channel 0 Bank busy for read cycles: 0
Channel 0 Bank busy for write cycles: 0
Channel 0
Rank 0
0banks busy for read cycles: 123481779
0banks busy for write cycles: 87713
1banks busy for read cycles: 20804432
1banks busy for write cycles: 12195310
2banks busy for read cycles: 7777241
2banks busy for write cycles: 4367297
3banks busy for read cycles: 1837043
3banks busy for write cycles: 1637032
4banks busy for read cycles: 584742
4banks busy for write cycles: 613753
5banks busy for read cycles: 166245
5banks busy for write cycles: 223690
6banks busy for read cycles: 50709
6banks busy for write cycles: 84227
7banks busy for read cycles: 12525
7banks busy for write cycles: 36348
8banks busy for read cycles: 1761
8banks busy for write cycles: 48121

CPU 0 Branch Prediction Accuracy: 92.2625% MPKI: 10.436 Average ROB Occupancy at Mispredict: 26.0169
Branch types
NOT_BRANCH: 86512123 86.5121%
BRANCH_DIRECT_JUMP: 1234013 1.23401%
BRANCH_INDIRECT: 174583 0.174583%
BRANCH_CONDITIONAL: 11868384 11.8684%
BRANCH_DIRECT_CALL: 66557 0.066557%
BRANCH_INDIRECT_CALL: 38721 0.038721%
BRANCH_RETURN: 105277 0.105277%
BRANCH_OTHER: 0 0%

DRAM PAGES: 1048576
Allocated PAGES: 7620
