
*** ChampSim Multicore Out-of-Order Simulator ***

Warmup Instructions: 50000000
Simulation Instructions: 100000000
Number of CPUs: 1
LLC sets: 2048
LLC ways: 16
Off-chip DRAM Size: 4096 MB Channels: 1 Width: 64-bit Data Rate: 6400 MT/s
CPU 0 runs ../SPEC2017//657.xz_s-2302B.champsimtrace.xz
.xz
BTB has LRU replacement policy
ITLB has LRU replacement policy
DTLB has LRU replacement policy
STLB has LRU replacement policy
L1I has LRU replacement policy
IP Table Entries: 64
L1D has LRU replacement policy
Initialize SRRIP state for L2C
Initialize DRRIP state for LLC
Heartbeat CPU 0 instructions: 10000003 cycles: 2791150 heartbeat IPC: 3.58275 cumulative IPC: 3.58275 (Simulation time: 0 hr 5 min 18 sec) 
Heartbeat CPU 0 instructions: 20000002 cycles: 5586511 heartbeat IPC: 3.57736 cumulative IPC: 3.58005 (Simulation time: 0 hr 10 min 30 sec) 
Heartbeat CPU 0 instructions: 30000000 cycles: 8415958 heartbeat IPC: 3.53426 cumulative IPC: 3.56466 (Simulation time: 0 hr 15 min 30 sec) 
Heartbeat CPU 0 instructions: 40000003 cycles: 11202418 heartbeat IPC: 3.58878 cumulative IPC: 3.57066 (Simulation time: 0 hr 19 min 57 sec) 
Heartbeat CPU 0 instructions: 50000000 cycles: 13994682 heartbeat IPC: 3.58132 cumulative IPC: 3.57279 (Simulation time: 0 hr 24 min 21 sec) 

Warmup complete CPU 0 instructions: 50000004 cycles: 13994683 (Simulation time: 0 hr 24 min 21 sec) 

Heartbeat CPU 0 instructions: 60000002 cycles: 31708735 heartbeat IPC: 0.564524 cumulative IPC: 0.564523 (Simulation time: 0 hr 28 min 32 sec) 
Heartbeat CPU 0 instructions: 70000000 cycles: 48708159 heartbeat IPC: 0.588255 cumulative IPC: 0.576145 (Simulation time: 0 hr 32 min 29 sec) 
Heartbeat CPU 0 instructions: 80000003 cycles: 66163995 heartbeat IPC: 0.572874 cumulative IPC: 0.575051 (Simulation time: 0 hr 36 min 9 sec) 
Heartbeat CPU 0 instructions: 90000002 cycles: 83841087 heartbeat IPC: 0.565704 cumulative IPC: 0.572685 (Simulation time: 0 hr 39 min 35 sec) 
Heartbeat CPU 0 instructions: 100000001 cycles: 100828295 heartbeat IPC: 0.588678 cumulative IPC: 0.575814 (Simulation time: 0 hr 42 min 54 sec) 
Heartbeat CPU 0 instructions: 110000000 cycles: 118506241 heartbeat IPC: 0.565677 cumulative IPC: 0.574099 (Simulation time: 0 hr 46 min 16 sec) 
Heartbeat CPU 0 instructions: 120000003 cycles: 136349274 heartbeat IPC: 0.560443 cumulative IPC: 0.572108 (Simulation time: 0 hr 49 min 24 sec) 
Heartbeat CPU 0 instructions: 130000000 cycles: 154244530 heartbeat IPC: 0.558807 cumulative IPC: 0.570411 (Simulation time: 0 hr 52 min 31 sec) 
Heartbeat CPU 0 instructions: 140000000 cycles: 170767296 heartbeat IPC: 0.605226 cumulative IPC: 0.57408 (Simulation time: 0 hr 55 min 35 sec) 
Heartbeat CPU 0 instructions: 150000003 cycles: 188620700 heartbeat IPC: 0.560117 cumulative IPC: 0.572652 (Simulation time: 0 hr 58 min 39 sec) 
Finished CPU 0 instructions: 100000002 cycles: 174626018 cumulative IPC: 0.572652 (Simulation time: 0 hr 58 min 39 sec) 

ChampSim completed all CPUs

Region of Interest Statistics

CPU 0 cumulative IPC: 0.572652 instructions: 100000002 cycles: 174626018

CPU 0 Average Load ROB stall cycles: 4.28585e+07
CPU 0 Fraction of times ROB stalled by Loads: 42.0935
CPU 0 Percentage of Load stall cycles in Total stall cycles: 5.75789e+08
Issued all: 56268365
Issued LT all: 43152342
rob_not_full_when_issued_lt_all: 40649907
Issued LT one: 36179527
rob_not_full_when_issued_lt_one: 33882216
 Total stall cycles: 139325772
 Total load stall cycles: 802222143559475
Unique Load IPs: 1125
CPU 0 NUM of IPS identified critical: 7
CPU 0 Num of Load IPs stalling ROB: 0
Threshold modification factor: 0
Trouble in retire width: -nan
MaC = Marked as critical.
lt_50_percent_before_Mac: 4
gt_90_percent_before_Mac: 0
gt_75_percent_before_Mac: 0
gt_50_percent_before_Mac: 3
stall_proportion_bin_same_before_after: 0
stall_proportion_bin_lower_before_after: 0
stall_proportion_bin_upper_before_after: 0
average_stall_proportion_before: 0.0640413
average_stall_proportion_after: 0.0642931
Critical_IP_Detector_Accuracy_70: 0.142857
Critical_IP_Detector_Accuracy_80: 0.142857
Critical_IP_Detector_Accuracy_90: 0.142857
Critical_IP_Detector_Coverage_70: 1
Critical_IP_Detector_Coverage_80: 1
Critical_IP_Detector_Coverage_90: 1
stat_90_percent_critical_ip_stalls_freq: 862303
stat_90_percent_non_critical_ip_stalls_freq: 18446744073708689313
AVERAGE_ROB_Occupancy_90_Percent_Critical_IP_Stalls: 11.5538
AVERAGE_ROB_Occupancy_90_Percent_Non_Critical_IP_Stalls: 1.47181e-11
Critical_IP_ROB_Stalls_Bucket_0: 1211732
Non-critical_IP_ROB_Stalls_Bucket_0: 5362941
Critical_IP_ROB_Stalls_Bucket_1: 34144
Non-critical_IP_ROB_Stalls_Bucket_1: 778865
Critical_IP_ROB_Stalls_Bucket_2: 4003
Non-critical_IP_ROB_Stalls_Bucket_2: 192311
Critical_IP_ROB_Stalls_Bucket_3: 1717
Non-critical_IP_ROB_Stalls_Bucket_3: 114225
Critical_IP_ROB_Stalls_Bucket_4: 636
Non-critical_IP_ROB_Stalls_Bucket_4: 46211
Critical_IP_ROB_Stalls_Bucket_5: 539
Non-critical_IP_ROB_Stalls_Bucket_5: 5542
Critical_IP_ROB_Stalls_Bucket_6: 424
Non-critical_IP_ROB_Stalls_Bucket_6: 125735
0 => IPs accounting for >50 percent of stalls, 1 => 55, 2 => 60, 3 => 65 and so on till 90.
percent50: inf num IPs:  1
percent55: inf num IPs: 1
percent60: inf num IPs: 1
percent65: inf num IPs: 1
percent70: inf num IPs: 1
percent75: inf num IPs: 1
percent80: inf num IPs: 1
percent85: inf num IPs: 1
percent90: inf num IPs: 1
Critical_ROB_Stalls_Percent_0_Bucket_0: 859356
Non-critical_ROB_Stalls_Percent_0_Bucket_0: 5715317
Critical_ROB_Stalls_Percent_0_Bucket_1: 1449
Non-critical_ROB_Stalls_Percent_0_Bucket_1: 811560
Critical_ROB_Stalls_Percent_0_Bucket_2: 850
Non-critical_ROB_Stalls_Percent_0_Bucket_2: 195464
Critical_ROB_Stalls_Percent_0_Bucket_3: 522
Non-critical_ROB_Stalls_Percent_0_Bucket_3: 115420
Critical_ROB_Stalls_Percent_0_Bucket_4: 81
Non-critical_ROB_Stalls_Percent_0_Bucket_4: 46766
Critical_ROB_Stalls_Percent_0_Bucket_5: 35
Non-critical_ROB_Stalls_Percent_0_Bucket_5: 6046
Critical_ROB_Stalls_Percent_0_Bucket_6: 10
Non-critical_ROB_Stalls_Percent_0_Bucket_6: 126149
Critical_ROB_Stalls_Percent_1_Bucket_0: 859356
Non-critical_ROB_Stalls_Percent_1_Bucket_0: 5715317
Critical_ROB_Stalls_Percent_1_Bucket_1: 1449
Non-critical_ROB_Stalls_Percent_1_Bucket_1: 811560
Critical_ROB_Stalls_Percent_1_Bucket_2: 850
Non-critical_ROB_Stalls_Percent_1_Bucket_2: 195464
Critical_ROB_Stalls_Percent_1_Bucket_3: 522
Non-critical_ROB_Stalls_Percent_1_Bucket_3: 115420
Critical_ROB_Stalls_Percent_1_Bucket_4: 81
Non-critical_ROB_Stalls_Percent_1_Bucket_4: 46766
Critical_ROB_Stalls_Percent_1_Bucket_5: 35
Non-critical_ROB_Stalls_Percent_1_Bucket_5: 6046
Critical_ROB_Stalls_Percent_1_Bucket_6: 10
Non-critical_ROB_Stalls_Percent_1_Bucket_6: 126149
Critical_ROB_Stalls_Percent_2_Bucket_0: 859356
Non-critical_ROB_Stalls_Percent_2_Bucket_0: 5715317
Critical_ROB_Stalls_Percent_2_Bucket_1: 1449
Non-critical_ROB_Stalls_Percent_2_Bucket_1: 811560
Critical_ROB_Stalls_Percent_2_Bucket_2: 850
Non-critical_ROB_Stalls_Percent_2_Bucket_2: 195464
Critical_ROB_Stalls_Percent_2_Bucket_3: 522
Non-critical_ROB_Stalls_Percent_2_Bucket_3: 115420
Critical_ROB_Stalls_Percent_2_Bucket_4: 81
Non-critical_ROB_Stalls_Percent_2_Bucket_4: 46766
Critical_ROB_Stalls_Percent_2_Bucket_5: 35
Non-critical_ROB_Stalls_Percent_2_Bucket_5: 6046
Critical_ROB_Stalls_Percent_2_Bucket_6: 10
Non-critical_ROB_Stalls_Percent_2_Bucket_6: 126149
Critical_ROB_Stalls_Percent_3_Bucket_0: 859356
Non-critical_ROB_Stalls_Percent_3_Bucket_0: 5715317
Critical_ROB_Stalls_Percent_3_Bucket_1: 1449
Non-critical_ROB_Stalls_Percent_3_Bucket_1: 811560
Critical_ROB_Stalls_Percent_3_Bucket_2: 850
Non-critical_ROB_Stalls_Percent_3_Bucket_2: 195464
Critical_ROB_Stalls_Percent_3_Bucket_3: 522
Non-critical_ROB_Stalls_Percent_3_Bucket_3: 115420
Critical_ROB_Stalls_Percent_3_Bucket_4: 81
Non-critical_ROB_Stalls_Percent_3_Bucket_4: 46766
Critical_ROB_Stalls_Percent_3_Bucket_5: 35
Non-critical_ROB_Stalls_Percent_3_Bucket_5: 6046
Critical_ROB_Stalls_Percent_3_Bucket_6: 10
Non-critical_ROB_Stalls_Percent_3_Bucket_6: 126149
Critical_ROB_Stalls_Percent_4_Bucket_0: 859356
Non-critical_ROB_Stalls_Percent_4_Bucket_0: 5715317
Critical_ROB_Stalls_Percent_4_Bucket_1: 1449
Non-critical_ROB_Stalls_Percent_4_Bucket_1: 811560
Critical_ROB_Stalls_Percent_4_Bucket_2: 850
Non-critical_ROB_Stalls_Percent_4_Bucket_2: 195464
Critical_ROB_Stalls_Percent_4_Bucket_3: 522
Non-critical_ROB_Stalls_Percent_4_Bucket_3: 115420
Critical_ROB_Stalls_Percent_4_Bucket_4: 81
Non-critical_ROB_Stalls_Percent_4_Bucket_4: 46766
Critical_ROB_Stalls_Percent_4_Bucket_5: 35
Non-critical_ROB_Stalls_Percent_4_Bucket_5: 6046
Critical_ROB_Stalls_Percent_4_Bucket_6: 10
Non-critical_ROB_Stalls_Percent_4_Bucket_6: 126149
Critical_ROB_Stalls_Percent_5_Bucket_0: 859356
Non-critical_ROB_Stalls_Percent_5_Bucket_0: 5715317
Critical_ROB_Stalls_Percent_5_Bucket_1: 1449
Non-critical_ROB_Stalls_Percent_5_Bucket_1: 811560
Critical_ROB_Stalls_Percent_5_Bucket_2: 850
Non-critical_ROB_Stalls_Percent_5_Bucket_2: 195464
Critical_ROB_Stalls_Percent_5_Bucket_3: 522
Non-critical_ROB_Stalls_Percent_5_Bucket_3: 115420
Critical_ROB_Stalls_Percent_5_Bucket_4: 81
Non-critical_ROB_Stalls_Percent_5_Bucket_4: 46766
Critical_ROB_Stalls_Percent_5_Bucket_5: 35
Non-critical_ROB_Stalls_Percent_5_Bucket_5: 6046
Critical_ROB_Stalls_Percent_5_Bucket_6: 10
Non-critical_ROB_Stalls_Percent_5_Bucket_6: 126149
Critical_ROB_Stalls_Percent_6_Bucket_0: 859356
Non-critical_ROB_Stalls_Percent_6_Bucket_0: 5715317
Critical_ROB_Stalls_Percent_6_Bucket_1: 1449
Non-critical_ROB_Stalls_Percent_6_Bucket_1: 811560
Critical_ROB_Stalls_Percent_6_Bucket_2: 850
Non-critical_ROB_Stalls_Percent_6_Bucket_2: 195464
Critical_ROB_Stalls_Percent_6_Bucket_3: 522
Non-critical_ROB_Stalls_Percent_6_Bucket_3: 115420
Critical_ROB_Stalls_Percent_6_Bucket_4: 81
Non-critical_ROB_Stalls_Percent_6_Bucket_4: 46766
Critical_ROB_Stalls_Percent_6_Bucket_5: 35
Non-critical_ROB_Stalls_Percent_6_Bucket_5: 6046
Critical_ROB_Stalls_Percent_6_Bucket_6: 10
Non-critical_ROB_Stalls_Percent_6_Bucket_6: 126149
Critical_ROB_Stalls_Percent_7_Bucket_0: 859356
Non-critical_ROB_Stalls_Percent_7_Bucket_0: 5715317
Critical_ROB_Stalls_Percent_7_Bucket_1: 1449
Non-critical_ROB_Stalls_Percent_7_Bucket_1: 811560
Critical_ROB_Stalls_Percent_7_Bucket_2: 850
Non-critical_ROB_Stalls_Percent_7_Bucket_2: 195464
Critical_ROB_Stalls_Percent_7_Bucket_3: 522
Non-critical_ROB_Stalls_Percent_7_Bucket_3: 115420
Critical_ROB_Stalls_Percent_7_Bucket_4: 81
Non-critical_ROB_Stalls_Percent_7_Bucket_4: 46766
Critical_ROB_Stalls_Percent_7_Bucket_5: 35
Non-critical_ROB_Stalls_Percent_7_Bucket_5: 6046
Critical_ROB_Stalls_Percent_7_Bucket_6: 10
Non-critical_ROB_Stalls_Percent_7_Bucket_6: 126149
Critical_ROB_Stalls_Percent_8_Bucket_0: 859356
Non-critical_ROB_Stalls_Percent_8_Bucket_0: 5715317
Critical_ROB_Stalls_Percent_8_Bucket_1: 1449
Non-critical_ROB_Stalls_Percent_8_Bucket_1: 811560
Critical_ROB_Stalls_Percent_8_Bucket_2: 850
Non-critical_ROB_Stalls_Percent_8_Bucket_2: 195464
Critical_ROB_Stalls_Percent_8_Bucket_3: 522
Non-critical_ROB_Stalls_Percent_8_Bucket_3: 115420
Critical_ROB_Stalls_Percent_8_Bucket_4: 81
Non-critical_ROB_Stalls_Percent_8_Bucket_4: 46766
Critical_ROB_Stalls_Percent_8_Bucket_5: 35
Non-critical_ROB_Stalls_Percent_8_Bucket_5: 6046
Critical_ROB_Stalls_Percent_8_Bucket_6: 10
Non-critical_ROB_Stalls_Percent_8_Bucket_6: 126149
Average ROB occupancy Load Stall Begin: 29.5068
Average ROB occupancy Load Stall End: 35.7231
Min ROB occupancy Load Stall Begin: 1
Max ROB occupancy Load Stall Begin: 352
Min ROB occupancy Load Stall End: 1
Max ROB occupancy Load Stall End: 352
Average ROB occupancy Critical Load Stall Begin: 13.5051
Average ROB occupancy Critical Load Stall End: 17.5987
Min ROB occupancy Critical Load Stall Begin: 2
Max ROB occupancy Critical Load Stall Begin: 352
Min ROB occupancy Critical Load Stall End: 2
Max ROB occupancy Critical Load Stall End: 352
 ROB Load Stall Begin Bucket Count 0: 6962576
 ROB Load Stall End Bucket Count 0: 6574673
 ROB Critical Load Stall Begin Bucket Count 0: 526044
 ROB Critical Load Stall End Bucket Count 0: 509579
 ROB Load Stall Begin Bucket Count 1: 525674
 ROB Load Stall End Bucket Count 1: 813009
 ROB Critical Load Stall Begin Bucket Count 1: 6347
 ROB Critical Load Stall End Bucket Count 1: 20306
 ROB Load Stall Begin Bucket Count 2: 136783
 ROB Load Stall End Bucket Count 2: 196314
 ROB Critical Load Stall Begin Bucket Count 2: 1152
 ROB Critical Load Stall End Bucket Count 2: 2391
 ROB Load Stall Begin Bucket Count 3: 105898
 ROB Load Stall End Bucket Count 3: 115942
 ROB Critical Load Stall Begin Bucket Count 3: 464
 ROB Critical Load Stall End Bucket Count 3: 978
 ROB Load Stall Begin Bucket Count 4: 19552
 ROB Load Stall End Bucket Count 4: 46847
 ROB Critical Load Stall Begin Bucket Count 4: 179
 ROB Critical Load Stall End Bucket Count 4: 396
 ROB Load Stall Begin Bucket Count 5: 3300
 ROB Load Stall End Bucket Count 5: 6081
 ROB Critical Load Stall Begin Bucket Count 5: 81
 ROB Critical Load Stall End Bucket Count 5: 358
 ROB Load Stall Begin Bucket Count 6: 125242
 ROB Load Stall End Bucket Count 6: 126159
 ROB Critical Load Stall Begin Bucket Count 6: 37
 ROB Critical Load Stall End Bucket Count 6: 296
PIST Tag Read Accesses: 0
PIST Read Accesses: 0
PIST Tag Write Accesses: 0
PIST Write Accesses: 0
Criticality detector called times: 0
Max global_stall_cycles_count: 0
Threshold Modified: 0 times, factor: 0
Sturdy critical IP cache stats: 
 Unused entries: 0
CIC Tag Read Accesses: 0
CIC Read Accesses: 0
CIC Tag Write Accesses: 0
CIC Write Accesses: 0
Wobbly critical IP cache stats: 
 Unused entries: 10
CIC Tag Read Accesses: 251424995
CIC Read Accesses: 0
CIC Tag Write Accesses: 1372530
CIC Write Accesses: 0
ITLB TOTAL     ACCESS:   14519401  HIT:   14519401  MISS:          0  HIT %:        100  MISS %:          0   MPKI: 0
ITLB LOAD TRANSLATION ACCESS:   14519401  HIT:   14519401  MISS:          0  HIT %:        100  MISS %:          0   MPKI: 0
ITLB PREFETCH  REQUESTED:          0  ISSUED:          0  USEFUL:          0  USELESS:          0
ITLB USEFUL LOAD PREFETCHES:          0 PREFETCH ISSUED TO LOWER LEVEL:          0  ACCURACY: -nan
ITLB TIMELY PREFETCHES:          0 LATE PREFETCHES: 0 DROPPED PREFETCHES: 0
ITLB PREFETCHES SAME FILL-ORIGIN LEVEL: 0 DIFFERENT FILL-ORIGIN LEVEL: 0
ITLB AVERAGE MISS LATENCY: -nan cycles
ITLB RQ	ACCESS:   17182608	FORWARD:          0	MERGED:    2663207	TO_CACHE:   14519401

DTLB TOTAL     ACCESS:   19503187  HIT:   18880957  MISS:     622230  HIT %:    96.8096  MISS %:     3.1904   MPKI: 6.2223
DTLB LOAD TRANSLATION ACCESS:   19503187  HIT:   18880957  MISS:     622230  HIT %:    96.8096  MISS %:     3.1904   MPKI: 6.2223
DTLB PREFETCH  REQUESTED:          0  ISSUED:          0  USEFUL:          0  USELESS:          0
DTLB USEFUL LOAD PREFETCHES:          0 PREFETCH ISSUED TO LOWER LEVEL:          0  ACCURACY: -nan
DTLB TIMELY PREFETCHES:          0 LATE PREFETCHES: 0 DROPPED PREFETCHES: 0
DTLB PREFETCHES SAME FILL-ORIGIN LEVEL: 0 DIFFERENT FILL-ORIGIN LEVEL: 0
DTLB AVERAGE MISS LATENCY: 13.8605 cycles
DTLB RQ	ACCESS:   23324900	FORWARD:          0	MERGED:    3816996	TO_CACHE:   19507904

STLB TOTAL     ACCESS:     736719  HIT:     638148  MISS:      98571  HIT %:    86.6203  MISS %:    13.3797   MPKI: 0.98571
STLB LOAD TRANSLATION ACCESS:     622230  HIT:     523660  MISS:      98570  HIT %:    84.1586  MISS %:    15.8414   MPKI: 0.9857
STLB TRANSLATION FROM L1D PREFETCHER ACCESS:     114489  HIT:     114488  MISS:          1  HIT %:    99.9991  MISS %: 0.000873446   MPKI: 1e-05
STLB PREFETCH  REQUESTED:          0  ISSUED:          0  USEFUL:          1  USELESS:          0
STLB USEFUL LOAD PREFETCHES:          1 PREFETCH ISSUED TO LOWER LEVEL:          0  ACCURACY: inf
STLB TIMELY PREFETCHES:          1 LATE PREFETCHES: 0 DROPPED PREFETCHES: 0
STLB PREFETCHES SAME FILL-ORIGIN LEVEL: 0 DIFFERENT FILL-ORIGIN LEVEL: 0
STLB AVERAGE MISS LATENCY: 30.61 cycles
STLB RQ	ACCESS:     744547	FORWARD:          0	MERGED:       7828	TO_CACHE:     736719

STLB Hit, L1D data hit: 0
STLB Hit, L2C data hit: 0
STLB Hit, LLC data hit: 0
STLB Hit, LLC data miss: 0
STLB STLB hints to L2: 0
L1D TOTAL     ACCESS:   23342923  HIT:   22545321  MISS:     797602  HIT %:    96.5831  MISS %:    3.41689   MPKI: 7.97602
L1D LOAD      ACCESS:   15951208  HIT:   15340556  MISS:     610652  HIT %:    96.1718  MISS %:    3.82825   MPKI: 6.10652
L1D RFO       ACCESS:    7269794  HIT:    7182902  MISS:      86892  HIT %:    98.8048  MISS %:    1.19525   MPKI: 0.86892
L1D PREFETCH  ACCESS:     121921  HIT:      21863  MISS:     100058  HIT %:    17.9321  MISS %:    82.0679   MPKI: 1.00058
L1D PREFETCH  REQUESTED:     244634  ISSUED:     244634  USEFUL:       8885  USELESS:      91344
L1D USEFUL LOAD PREFETCHES:       8885 PREFETCH ISSUED TO LOWER LEVEL:     100231  ACCURACY: 8.86452
L1D TIMELY PREFETCHES:       8885 LATE PREFETCHES: 168 DROPPED PREFETCHES: 0
L1D PREFETCHES SAME FILL-ORIGIN LEVEL: 100231 DIFFERENT FILL-ORIGIN LEVEL: 0
L1D AVERAGE MISS LATENCY: 35418.1 cycles
L1D RQ	ACCESS:   22481934	FORWARD:          0	MERGED:    6403024	TO_CACHE:   16028005
L1D WQ	ACCESS:    7421072	FORWARD:      50905	MERGED:     124177	TO_CACHE:    7296895
L1D PQ	ACCESS:     122317	FORWARD:          0	MERGED:          0	TO_CACHE:     122317

L1D UNIQUE REGIONS ACCESSED: 0
L1D REGIONS CONFLICTS: 0
L1D Cross Page Prefetch Requests: 0
L1D Same Page Prefetch Requests: 841867
L1D ROI Sum of L1D PQ occupancy: 1591035
L1D PREFETCHES PUSHED FROM L2C: 0
L1I TOTAL     ACCESS:   17182494  HIT:   17182276  MISS:        218  HIT %:    99.9987  MISS %: 0.00126873   MPKI: 0.00218
L1I LOAD      ACCESS:   17182494  HIT:   17182276  MISS:        218  HIT %:    99.9987  MISS %: 0.00126873   MPKI: 0.00218
L1I PREFETCH  REQUESTED:          0  ISSUED:          0  USEFUL:          0  USELESS:          0
L1I USEFUL LOAD PREFETCHES:          0 PREFETCH ISSUED TO LOWER LEVEL:          0  ACCURACY: -nan
L1I TIMELY PREFETCHES:          0 LATE PREFETCHES: 0 DROPPED PREFETCHES: 0
L1I PREFETCHES SAME FILL-ORIGIN LEVEL: 0 DIFFERENT FILL-ORIGIN LEVEL: 0
L1I AVERAGE MISS LATENCY: 127.761 cycles
L1I RQ	ACCESS:   26113649	FORWARD:          0	MERGED:    8931041	TO_CACHE:   17182608

BTB TOTAL     ACCESS:   12852734  HIT:   12753229  MISS:      99505  HIT %:    99.2258  MISS %:   0.774193   MPKI: 0.99505
BTB BRANCH_DIRECT_JUMP	ACCESS:    1234013  HIT:    1233935  MISS:         78
BTB BRANCH_INDIRECT	ACCESS:     174583  HIT:      79437  MISS:      95146
BTB BRANCH_CONDITIONAL	ACCESS:   11233583  HIT:   11233341  MISS:        242
BTB BRANCH_DIRECT_CALL	ACCESS:      66557  HIT:      66538  MISS:         19
BTB BRANCH_INDIRECT_CALL	ACCESS:      38721  HIT:      38714  MISS:          7
BTB BRANCH_RETURN	ACCESS:     105277  HIT:     101264  MISS:       4013
BTB BRANCH_OTHER ACCESS:          0  HIT:          0  MISS:          0

L2C TOTAL     ACCESS:    1354392  HIT:     884951  MISS:     469441  HIT %:    65.3394  MISS %:    34.6606   MPKI: 4.69441
L2C LOAD      ACCESS:     610699  HIT:     269846  MISS:     340853  HIT %:    44.1864  MISS %:    55.8136   MPKI: 3.40853
L2C DATA LOAD MPKI: 3.40635
L2C INSTRUCTION LOAD MPKI: 0.00218
L2C RFO       ACCESS:      86887  HIT:      57064  MISS:      29823  HIT %:    65.6761  MISS %:    34.3239   MPKI: 0.29823
L2C PREFETCH  ACCESS:     100231  HIT:      29210  MISS:      71021  HIT %:    29.1427  MISS %:    70.8573   MPKI: 0.71021
L2C DATA PREFETCH MPKI: 0.71021
L2C INSTRUCTION PREFETCH MPKI: 0
L2C WRITEBACK ACCESS:     457955  HIT:     448673  MISS:       9282  HIT %:    97.9732  MISS %:    2.02684   MPKI: 0.09282
L2C LOAD TRANSLATION ACCESS:      98619  HIT:      80157  MISS:      18462  HIT %:    81.2795  MISS %:    18.7205   MPKI: 0.18462
L2C TRANSLATION FROM L1D PREFETCHER ACCESS:          1  HIT:          1  MISS:          0  HIT %:        100  MISS %:          0   MPKI: 0
L2C PREFETCH  REQUESTED:          0  ISSUED:          0  USEFUL:       4935  USELESS:      67216
L2C USEFUL LOAD PREFETCHES:       4935 PREFETCH ISSUED TO LOWER LEVEL:      71021  ACCURACY: 6.94865
L2C TIMELY PREFETCHES:       4935 LATE PREFETCHES: 0 DROPPED PREFETCHES: 0
L2C PREFETCHES SAME FILL-ORIGIN LEVEL: 0 DIFFERENT FILL-ORIGIN LEVEL: 0
L2C AVERAGE MISS LATENCY: 111.146 cycles
L2C RQ	ACCESS:     796209	FORWARD:          0	MERGED:          0	TO_CACHE:     796206
L2C WQ	ACCESS:     457955	FORWARD:          3	MERGED:          0	TO_CACHE:     457955
L2C PQ	ACCESS:     100231	FORWARD:          0	MERGED:          0	TO_CACHE:     100231

L2C Instructions Evicting Data 213
L2C Translations Evicting Data 17675
L2C Data Evicting Data 423981
L2C Instructions Evicting Instructions 2
L2C Translations Evicting Instructions 9
L2C Data Evicting Instructions 206
L2C Instructions Evicting Translations 3
L2C Translations Evicting Translations 778
L2C Data Evicting Translations 17292
L2C Dense regions hint from L2: 0
PSCL5 TOTAL     ACCESS:      98571  HIT:      98571  MISS:          0  HIT %:        100  MISS %:          0   MPKI: 0
PSCL5 LOAD TRANSLATION ACCESS:      98570  HIT:      98570  MISS:          0  HIT %:        100  MISS %:          0   MPKI: 0
PSCL5 TRANSLATION FROM L1D PREFETCHER ACCESS:          1  HIT:          1  MISS:          0  HIT %:        100  MISS %:          0   MPKI: 0
PSCL5 PREFETCH  REQUESTED:          0  ISSUED:          0  USEFUL:          0  USELESS:          0
PSCL5 USEFUL LOAD PREFETCHES:          0 PREFETCH ISSUED TO LOWER LEVEL:          0  ACCURACY: -nan
PSCL5 TIMELY PREFETCHES:          0 LATE PREFETCHES: 0 DROPPED PREFETCHES: 0
PSCL5 PREFETCHES SAME FILL-ORIGIN LEVEL: 0 DIFFERENT FILL-ORIGIN LEVEL: 0

PSCL4 TOTAL     ACCESS:      98571  HIT:      98571  MISS:          0  HIT %:        100  MISS %:          0   MPKI: 0
PSCL4 LOAD TRANSLATION ACCESS:      98570  HIT:      98570  MISS:          0  HIT %:        100  MISS %:          0   MPKI: 0
PSCL4 TRANSLATION FROM L1D PREFETCHER ACCESS:          1  HIT:          1  MISS:          0  HIT %:        100  MISS %:          0   MPKI: 0
PSCL4 PREFETCH  REQUESTED:          0  ISSUED:          0  USEFUL:          0  USELESS:          0
PSCL4 USEFUL LOAD PREFETCHES:          0 PREFETCH ISSUED TO LOWER LEVEL:          0  ACCURACY: -nan
PSCL4 TIMELY PREFETCHES:          0 LATE PREFETCHES: 0 DROPPED PREFETCHES: 0
PSCL4 PREFETCHES SAME FILL-ORIGIN LEVEL: 0 DIFFERENT FILL-ORIGIN LEVEL: 0

PSCL3 TOTAL     ACCESS:      98571  HIT:      98571  MISS:          0  HIT %:        100  MISS %:          0   MPKI: 0
PSCL3 LOAD TRANSLATION ACCESS:      98570  HIT:      98570  MISS:          0  HIT %:        100  MISS %:          0   MPKI: 0
PSCL3 TRANSLATION FROM L1D PREFETCHER ACCESS:          1  HIT:          1  MISS:          0  HIT %:        100  MISS %:          0   MPKI: 0
PSCL3 PREFETCH  REQUESTED:          0  ISSUED:          0  USEFUL:          0  USELESS:          0
PSCL3 USEFUL LOAD PREFETCHES:          0 PREFETCH ISSUED TO LOWER LEVEL:          0  ACCURACY: -nan
PSCL3 TIMELY PREFETCHES:          0 LATE PREFETCHES: 0 DROPPED PREFETCHES: 0
PSCL3 PREFETCHES SAME FILL-ORIGIN LEVEL: 0 DIFFERENT FILL-ORIGIN LEVEL: 0

PSCL2 TOTAL     ACCESS:      98571  HIT:      98522  MISS:         49  HIT %:    99.9503  MISS %:  0.0497104   MPKI: 0.00049
PSCL2 LOAD TRANSLATION ACCESS:      98570  HIT:      98521  MISS:         49  HIT %:    99.9503  MISS %:  0.0497109   MPKI: 0.00049
PSCL2 TRANSLATION FROM L1D PREFETCHER ACCESS:          1  HIT:          1  MISS:          0  HIT %:        100  MISS %:          0   MPKI: 0
PSCL2 PREFETCH  REQUESTED:          0  ISSUED:          0  USEFUL:          0  USELESS:          0
PSCL2 USEFUL LOAD PREFETCHES:          0 PREFETCH ISSUED TO LOWER LEVEL:          0  ACCURACY: -nan
PSCL2 TIMELY PREFETCHES:          0 LATE PREFETCHES: 0 DROPPED PREFETCHES: 0
PSCL2 PREFETCHES SAME FILL-ORIGIN LEVEL: 0 DIFFERENT FILL-ORIGIN LEVEL: 0

LLC TOTAL     ACCESS:     712447  HIT:     486694  MISS:     225753  HIT %:     68.313  MISS %:     31.687   MPKI: 2.25753
LLC LOAD      ACCESS:     340852  HIT:     182315  MISS:     158537  HIT %:     53.488  MISS %:     46.512   MPKI: 1.58537
LLC RFO       ACCESS:      29823  HIT:       9925  MISS:      19898  HIT %:    33.2797  MISS %:    66.7203   MPKI: 0.19898
LLC PREFETCH  ACCESS:      71021  HIT:      30491  MISS:      40530  HIT %:    42.9324  MISS %:    57.0676   MPKI: 0.4053
LLC WRITEBACK ACCESS:     252289  HIT:     247240  MISS:       5049  HIT %:    97.9987  MISS %:    2.00128   MPKI: 0.05049
LLC LOAD TRANSLATION ACCESS:      18462  HIT:      16723  MISS:       1739  HIT %:    90.5807  MISS %:    9.41935   MPKI: 0.01739
LLC PREFETCH  REQUESTED:          0  ISSUED:          0  USEFUL:       6487  USELESS:      37969
LLC USEFUL LOAD PREFETCHES:       6487 PREFETCH ISSUED TO LOWER LEVEL:      40530  ACCURACY: 16.0054
LLC TIMELY PREFETCHES:       6487 LATE PREFETCHES: 0 DROPPED PREFETCHES: 0
LLC PREFETCHES SAME FILL-ORIGIN LEVEL: 0 DIFFERENT FILL-ORIGIN LEVEL: 0
LLC AVERAGE MISS LATENCY: 169.915 cycles
LLC RQ	ACCESS:     389138	FORWARD:          0	MERGED:          0	TO_CACHE:     389137
LLC WQ	ACCESS:     252289	FORWARD:          1	MERGED:          0	TO_CACHE:     252289
LLC PQ	ACCESS:      71021	FORWARD:          0	MERGED:          0	TO_CACHE:      71021

LLC Dense regions hint to LLC: 0

RAW hits: 912269
Loads Generated: 23394204
Loads sent to L1D: 22481934
Stores Generated: 7421071
Stores sent to L1D: 7421072
Major fault: 0 Minor fault: 7620
Allocated PAGES: 7620

stream: 
stream:times selected: 1312343
stream:pref_filled: 274882
stream:pref_useful: 30011
stream:pref_late: 253
stream:misses: 45155
stream:misses_by_poll: 0

CS: 
CS:times selected: 71310
CS:pref_filled: 9149
CS:pref_useful: 6558
CS:pref_late: 4
CS:misses: 292
CS:misses_by_poll: 0

CPLX: 
CPLX:times selected: 1232114
CPLX:pref_filled: 50449
CPLX:pref_useful: 4072
CPLX:pref_late: 16
CPLX:misses: 166291
CPLX:misses_by_poll: 19

NL_L1: 
NL:times selected: 8180
NL:pref_filled: 3060
NL:pref_useful: 537
NL:pref_late: 4
NL:misses: 1913
NL:misses_by_poll: 0

total selections: 2623947
total_filled: 100058
total_useful: 8885
total_late: 335
total_polluted: 19
total_misses_after_warmup: 85105
conflicts: 4
Degree Incremented Times: 9501
Degree Decremented Times: 90991

L1 IP Table Write Accesses: 902942
L1 IP Table Read Accesses: 902938
L1 RST Write Accesses: 238069
L1 RST Read Accesses: 476138
L1 CSPT Write Accesses: 238069
L1 CSPT Read Accesses: 465948
L1 RR Filter Tag Write Accesses: 122317
L1 RR Filter Tag Read Accesses: 7610477
L1 IP Table Tag Write Accesses: 902944
L1 IP Table Tag Read Accesses: 902944
L1 RST Tag Write Accesses: 0
L1 RST Tag Read Accesses: 2134203
L1 RR Filter Write Accesses: 0
L1 RR Filter Read Accesses: 281578
test: 557189

DRAM Statistics
 CHANNEL 0
 RQ ROW_BUFFER_HIT:       3287  ROW_BUFFER_MISS:     217416
 DBUS_CONGESTED:          5
 WQ ROW_BUFFER_HIT:      26104  ROW_BUFFER_MISS:     123683  FULL:          0

 AVG_CONGESTED_CYCLE: 4
 All warmup complete: 2
Channel 0 Bank busy for read cycles: 0
Channel 0 Bank busy for write cycles: 0
Channel 0
Rank 0
0banks busy for read cycles: 131077092
0banks busy for write cycles: 87919
1banks busy for read cycles: 19720245
1banks busy for write cycles: 12948021
2banks busy for read cycles: 4543345
2banks busy for write cycles: 3518716
3banks busy for read cycles: 874289
3banks busy for write cycles: 1033234
4banks busy for read cycles: 211936
4banks busy for write cycles: 330635
5banks busy for read cycles: 71001
5banks busy for write cycles: 106641
6banks busy for read cycles: 18840
6banks busy for write cycles: 38582
7banks busy for read cycles: 4045
7banks busy for write cycles: 13338
8banks busy for read cycles: 363
8banks busy for write cycles: 27777

CPU 0 Branch Prediction Accuracy: 92.2625% MPKI: 10.436 Average ROB Occupancy at Mispredict: 26.0178
Branch types
NOT_BRANCH: 86512123 86.5121%
BRANCH_DIRECT_JUMP: 1234013 1.23401%
BRANCH_INDIRECT: 174583 0.174583%
BRANCH_CONDITIONAL: 11868384 11.8684%
BRANCH_DIRECT_CALL: 66557 0.066557%
BRANCH_INDIRECT_CALL: 38721 0.038721%
BRANCH_RETURN: 105277 0.105277%
BRANCH_OTHER: 0 0%

DRAM PAGES: 1048576
Allocated PAGES: 7620
