
*** ChampSim Multicore Out-of-Order Simulator ***

Warmup Instructions: 50000000
Simulation Instructions: 50000000
Number of CPUs: 1
LLC sets: 2048
LLC ways: 16
Off-chip DRAM Size: 4096 MB Channels: 1 Width: 64-bit Data Rate: 6400 MT/s
CPU 0 runs ../IPC-traces//client_008.champsimtrace.xz
.xz
NUM_OF_IPS_IN_CRITICAL_IP_TRAINING: 64
NUM_OF_CRITICAL_IP_TRAINING_TABLE_WAYS: 2
NUM_OF_CRITICAL_IP_TRAINING_TABLE_SETS: 32
WOBBLY_CRITICAL_IP_CACHE_SETS: 32
WOBBLY_CRITICAL_IP_CACHE_WAYS: 4
BTB has LRU replacement policy
ITLB has LRU replacement policy
DTLB has LRU replacement policy
STLB has LRU replacement policy
CPU 0 L1I next line prefetcher
L1I has LRU replacement policy
IP Table Entries: 64
L1D has LRU replacement policy
Initialize SRRIP state for L2C
Initialize DRRIP state for LLC
Heartbeat CPU 0 instructions: 10000001 cycles: 3014900 heartbeat IPC: 3.31686 cumulative IPC: 3.31686 (Simulation time: 0 hr 2 min 15 sec) 
Heartbeat CPU 0 instructions: 20000001 cycles: 6039829 heartbeat IPC: 3.30586 cumulative IPC: 3.31135 (Simulation time: 0 hr 4 min 35 sec) 
Heartbeat CPU 0 instructions: 30000001 cycles: 9048463 heartbeat IPC: 3.32377 cumulative IPC: 3.31548 (Simulation time: 0 hr 6 min 52 sec) 
Heartbeat CPU 0 instructions: 40000000 cycles: 12084665 heartbeat IPC: 3.29359 cumulative IPC: 3.30998 (Simulation time: 0 hr 9 min 14 sec) 
Heartbeat CPU 0 instructions: 50000003 cycles: 15123788 heartbeat IPC: 3.29042 cumulative IPC: 3.30605 (Simulation time: 0 hr 11 min 26 sec) 

Warmup complete CPU 0 instructions: 50000003 cycles: 15123788 (Simulation time: 0 hr 11 min 26 sec) 

% increase in all ip prefetch 402.025
% increase in all ip prefetch 0.0893507
Heartbeat CPU 0 instructions: 60000003 cycles: 31036233 heartbeat IPC: 0.628439 cumulative IPC: 0.628439 (Simulation time: 0 hr 14 min 6 sec) 
Heartbeat CPU 0 instructions: 70000001 cycles: 46267234 heartbeat IPC: 0.656556 cumulative IPC: 0.64219 (Simulation time: 0 hr 16 min 47 sec) 
Heartbeat CPU 0 instructions: 80000000 cycles: 63194014 heartbeat IPC: 0.59078 cumulative IPC: 0.624087 (Simulation time: 0 hr 19 min 23 sec) 
Heartbeat CPU 0 instructions: 90000001 cycles: 79944714 heartbeat IPC: 0.59699 cumulative IPC: 0.617085 (Simulation time: 0 hr 21 min 56 sec) 
Heartbeat CPU 0 instructions: 100000001 cycles: 93921463 heartbeat IPC: 0.715474 cumulative IPC: 0.634536 (Simulation time: 0 hr 25 min 53 sec) 
Finished CPU 0 instructions: 50000002 cycles: 78797676 cumulative IPC: 0.634536 (Simulation time: 0 hr 25 min 53 sec) 

ChampSim completed all CPUs

Region of Interest Statistics

CPU 0 cumulative IPC: 0.634536 instructions: 50000002 cycles: 78797676

CPU 0 Average Load ROB stall cycles: 2.39699e+07
CPU 0 Fraction of times ROB stalled by Loads: 44.2891
CPU 0 Percentage of Load stall cycles in Total stall cycles: 2.87364e+08
Issued all: 28754564
Issued LT all: 23055822
rob_not_full_when_issued_lt_all: 20728253
Issued LT one: 17587634
rob_not_full_when_issued_lt_one: 15586831
critical_ip_candidate_identification_operations: 6967006
critical_ip_candidate_identification_operation_per_cycle: 0.0884164
 Total stall cycles: 65607706
 Total load stall cycles: 188532622233289
Unique Load IPs: 47235
CPU 0 NUM of IPS identified critical: 269
CPU 0 Num of Load IPs stalling ROB: 29844
Threshold modification factor: -1
Max PIST entries: 64
Min PIST entries: 0
Avg PIST entries: 32
Trouble in retire width: 0.913915
MaC = Marked as critical.
lt_50_percent_before_Mac: 187
gt_90_percent_before_Mac: 11
gt_75_percent_before_Mac: 22
gt_50_percent_before_Mac: 49
stall_proportion_bin_same_before_after: 0
stall_proportion_bin_lower_before_after: 0
stall_proportion_bin_upper_before_after: 0
average_stall_proportion_before: 0.0518382
average_stall_proportion_after: 0.0541048
Critical IP stalls, total frequency: 1030527
Non-critical IP stalls, total frequency: 2452976
Total Freq all stalling IPs: 3483503
Critical_IP_Detector_Accuracy_70: 0.483271
Critical_IP_Detector_Accuracy_80: 0.732342
Critical_IP_Detector_Accuracy_90: 0.97026
Critical_IP_Detector_Coverage_70: 0.226087
Critical_IP_Detector_Coverage_80: 0.172807
Critical_IP_Detector_Coverage_90: 0.101953
stat_90_percent_critical_ip_stalls_freq: 3135163
stat_90_percent_non_critical_ip_stalls_freq: 348340
AVERAGE_ROB_Occupancy_90_Percent_Critical_IP_Stalls: 76.6039
AVERAGE_ROB_Occupancy_90_Percent_Non_Critical_IP_Stalls: 45.4055
Critical_IP_ROB_Stalls_Bucket_0: 234386
Non-critical_IP_ROB_Stalls_Bucket_0: 1505025
Critical_IP_ROB_Stalls_Bucket_1: 385337
Non-critical_IP_ROB_Stalls_Bucket_1: 560368
Critical_IP_ROB_Stalls_Bucket_2: 181358
Non-critical_IP_ROB_Stalls_Bucket_2: 245999
Critical_IP_ROB_Stalls_Bucket_3: 61759
Non-critical_IP_ROB_Stalls_Bucket_3: 75816
Critical_IP_ROB_Stalls_Bucket_4: 28326
Non-critical_IP_ROB_Stalls_Bucket_4: 22950
Critical_IP_ROB_Stalls_Bucket_5: 27952
Non-critical_IP_ROB_Stalls_Bucket_5: 13883
Critical_IP_ROB_Stalls_Bucket_6: 111409
Non-critical_IP_ROB_Stalls_Bucket_6: 28935
0 => IPs accounting for >50 percent of stalls, 1 => 55, 2 => 60, 3 => 65 and so on till 90.
percent50: 50.0836 num IPs:  166
percent55: 55.0165 num IPs: 231
percent60: 60.0547 num IPs: 312
percent65: 65.0316 num IPs: 421
percent70: 70.0118 num IPs: 575
percent75: 75.0024 num IPs: 801
percent80: 80.0071 num IPs: 1140
percent85: 85.002 num IPs: 1655
percent90: 90.0003 num IPs: 2560
Critical_ROB_Stalls_Percent_0_Bucket_0: 770764
Non-critical_ROB_Stalls_Percent_0_Bucket_0: 968647
Critical_ROB_Stalls_Percent_0_Bucket_1: 493621
Non-critical_ROB_Stalls_Percent_0_Bucket_1: 452084
Critical_ROB_Stalls_Percent_0_Bucket_2: 226314
Non-critical_ROB_Stalls_Percent_0_Bucket_2: 201043
Critical_ROB_Stalls_Percent_0_Bucket_3: 77905
Non-critical_ROB_Stalls_Percent_0_Bucket_3: 59670
Critical_ROB_Stalls_Percent_0_Bucket_4: 31366
Non-critical_ROB_Stalls_Percent_0_Bucket_4: 19910
Critical_ROB_Stalls_Percent_0_Bucket_5: 31154
Non-critical_ROB_Stalls_Percent_0_Bucket_5: 10681
Critical_ROB_Stalls_Percent_0_Bucket_6: 113540
Non-critical_ROB_Stalls_Percent_0_Bucket_6: 26804
Critical_ROB_Stalls_Percent_1_Bucket_0: 856371
Non-critical_ROB_Stalls_Percent_1_Bucket_0: 883040
Critical_ROB_Stalls_Percent_1_Bucket_1: 541510
Non-critical_ROB_Stalls_Percent_1_Bucket_1: 404195
Critical_ROB_Stalls_Percent_1_Bucket_2: 257363
Non-critical_ROB_Stalls_Percent_1_Bucket_2: 169994
Critical_ROB_Stalls_Percent_1_Bucket_3: 82266
Non-critical_ROB_Stalls_Percent_1_Bucket_3: 55309
Critical_ROB_Stalls_Percent_1_Bucket_4: 32566
Non-critical_ROB_Stalls_Percent_1_Bucket_4: 18710
Critical_ROB_Stalls_Percent_1_Bucket_5: 31783
Non-critical_ROB_Stalls_Percent_1_Bucket_5: 10052
Critical_ROB_Stalls_Percent_1_Bucket_6: 114641
Non-critical_ROB_Stalls_Percent_1_Bucket_6: 25703
Critical_ROB_Stalls_Percent_2_Bucket_0: 946407
Non-critical_ROB_Stalls_Percent_2_Bucket_0: 793004
Critical_ROB_Stalls_Percent_2_Bucket_1: 591855
Non-critical_ROB_Stalls_Percent_2_Bucket_1: 353850
Critical_ROB_Stalls_Percent_2_Bucket_2: 279573
Non-critical_ROB_Stalls_Percent_2_Bucket_2: 147784
Critical_ROB_Stalls_Percent_2_Bucket_3: 89036
Non-critical_ROB_Stalls_Percent_2_Bucket_3: 48539
Critical_ROB_Stalls_Percent_2_Bucket_4: 35055
Non-critical_ROB_Stalls_Percent_2_Bucket_4: 16221
Critical_ROB_Stalls_Percent_2_Bucket_5: 32984
Non-critical_ROB_Stalls_Percent_2_Bucket_5: 8851
Critical_ROB_Stalls_Percent_2_Bucket_6: 117095
Non-critical_ROB_Stalls_Percent_2_Bucket_6: 23249
Critical_ROB_Stalls_Percent_3_Bucket_0: 1030070
Non-critical_ROB_Stalls_Percent_3_Bucket_0: 709341
Critical_ROB_Stalls_Percent_3_Bucket_1: 641318
Non-critical_ROB_Stalls_Percent_3_Bucket_1: 304387
Critical_ROB_Stalls_Percent_3_Bucket_2: 303034
Non-critical_ROB_Stalls_Percent_3_Bucket_2: 124323
Critical_ROB_Stalls_Percent_3_Bucket_3: 97821
Non-critical_ROB_Stalls_Percent_3_Bucket_3: 39754
Critical_ROB_Stalls_Percent_3_Bucket_4: 38023
Non-critical_ROB_Stalls_Percent_3_Bucket_4: 13253
Critical_ROB_Stalls_Percent_3_Bucket_5: 34461
Non-critical_ROB_Stalls_Percent_3_Bucket_5: 7374
Critical_ROB_Stalls_Percent_3_Bucket_6: 120650
Non-critical_ROB_Stalls_Percent_3_Bucket_6: 19694
Critical_ROB_Stalls_Percent_4_Bucket_0: 1122144
Non-critical_ROB_Stalls_Percent_4_Bucket_0: 617267
Critical_ROB_Stalls_Percent_4_Bucket_1: 687519
Non-critical_ROB_Stalls_Percent_4_Bucket_1: 258186
Critical_ROB_Stalls_Percent_4_Bucket_2: 324723
Non-critical_ROB_Stalls_Percent_4_Bucket_2: 102634
Critical_ROB_Stalls_Percent_4_Bucket_3: 105078
Non-critical_ROB_Stalls_Percent_4_Bucket_3: 32497
Critical_ROB_Stalls_Percent_4_Bucket_4: 40359
Non-critical_ROB_Stalls_Percent_4_Bucket_4: 10917
Critical_ROB_Stalls_Percent_4_Bucket_5: 35715
Non-critical_ROB_Stalls_Percent_4_Bucket_5: 6120
Critical_ROB_Stalls_Percent_4_Bucket_6: 123322
Non-critical_ROB_Stalls_Percent_4_Bucket_6: 17022
Critical_ROB_Stalls_Percent_5_Bucket_0: 1210550
Non-critical_ROB_Stalls_Percent_5_Bucket_0: 528861
Critical_ROB_Stalls_Percent_5_Bucket_1: 733053
Non-critical_ROB_Stalls_Percent_5_Bucket_1: 212652
Critical_ROB_Stalls_Percent_5_Bucket_2: 349537
Non-critical_ROB_Stalls_Percent_5_Bucket_2: 77820
Critical_ROB_Stalls_Percent_5_Bucket_3: 111280
Non-critical_ROB_Stalls_Percent_5_Bucket_3: 26295
Critical_ROB_Stalls_Percent_5_Bucket_4: 41711
Non-critical_ROB_Stalls_Percent_5_Bucket_4: 9565
Critical_ROB_Stalls_Percent_5_Bucket_5: 36669
Non-critical_ROB_Stalls_Percent_5_Bucket_5: 5166
Critical_ROB_Stalls_Percent_5_Bucket_6: 129906
Non-critical_ROB_Stalls_Percent_5_Bucket_6: 10438
Critical_ROB_Stalls_Percent_6_Bucket_0: 1302620
Non-critical_ROB_Stalls_Percent_6_Bucket_0: 436791
Critical_ROB_Stalls_Percent_6_Bucket_1: 780509
Non-critical_ROB_Stalls_Percent_6_Bucket_1: 165196
Critical_ROB_Stalls_Percent_6_Bucket_2: 369512
Non-critical_ROB_Stalls_Percent_6_Bucket_2: 57845
Critical_ROB_Stalls_Percent_6_Bucket_3: 119264
Non-critical_ROB_Stalls_Percent_6_Bucket_3: 18311
Critical_ROB_Stalls_Percent_6_Bucket_4: 44423
Non-critical_ROB_Stalls_Percent_6_Bucket_4: 6853
Critical_ROB_Stalls_Percent_6_Bucket_5: 37969
Non-critical_ROB_Stalls_Percent_6_Bucket_5: 3866
Critical_ROB_Stalls_Percent_6_Bucket_6: 132749
Non-critical_ROB_Stalls_Percent_6_Bucket_6: 7595
Critical_ROB_Stalls_Percent_7_Bucket_0: 1390484
Non-critical_ROB_Stalls_Percent_7_Bucket_0: 348927
Critical_ROB_Stalls_Percent_7_Bucket_1: 830560
Non-critical_ROB_Stalls_Percent_7_Bucket_1: 115145
Critical_ROB_Stalls_Percent_7_Bucket_2: 391336
Non-critical_ROB_Stalls_Percent_7_Bucket_2: 36021
Critical_ROB_Stalls_Percent_7_Bucket_3: 127005
Non-critical_ROB_Stalls_Percent_7_Bucket_3: 10570
Critical_ROB_Stalls_Percent_7_Bucket_4: 46875
Non-critical_ROB_Stalls_Percent_7_Bucket_4: 4401
Critical_ROB_Stalls_Percent_7_Bucket_5: 39550
Non-critical_ROB_Stalls_Percent_7_Bucket_5: 2285
Critical_ROB_Stalls_Percent_7_Bucket_6: 135234
Non-critical_ROB_Stalls_Percent_7_Bucket_6: 5110
Critical_ROB_Stalls_Percent_8_Bucket_0: 1493674
Non-critical_ROB_Stalls_Percent_8_Bucket_0: 245737
Critical_ROB_Stalls_Percent_8_Bucket_1: 875501
Non-critical_ROB_Stalls_Percent_8_Bucket_1: 70204
Critical_ROB_Stalls_Percent_8_Bucket_2: 407380
Non-critical_ROB_Stalls_Percent_8_Bucket_2: 19977
Critical_ROB_Stalls_Percent_8_Bucket_3: 131449
Non-critical_ROB_Stalls_Percent_8_Bucket_3: 6126
Critical_ROB_Stalls_Percent_8_Bucket_4: 48989
Non-critical_ROB_Stalls_Percent_8_Bucket_4: 2287
Critical_ROB_Stalls_Percent_8_Bucket_5: 40660
Non-critical_ROB_Stalls_Percent_8_Bucket_5: 1175
Critical_ROB_Stalls_Percent_8_Bucket_6: 137510
Non-critical_ROB_Stalls_Percent_8_Bucket_6: 2834
Average ROB occupancy Load Stall Begin: 64.4829
Average ROB occupancy Load Stall End: 73.4841
Min ROB occupancy Load Stall Begin: 1
Max ROB occupancy Load Stall Begin: 352
Min ROB occupancy Load Stall End: 1
Max ROB occupancy Load Stall End: 352
Average ROB occupancy Critical Load Stall Begin: 111.355
Average ROB occupancy Critical Load Stall End: 121.673
Min ROB occupancy Critical Load Stall Begin: 2
Max ROB occupancy Critical Load Stall Begin: 352
Min ROB occupancy Critical Load Stall End: 2
Max ROB occupancy Critical Load Stall End: 352
 ROB Load Stall Begin Bucket Count 0: 2000553
 ROB Load Stall End Bucket Count 0: 1739411
 ROB Critical Load Stall Begin Bucket Count 0: 249861
 ROB Critical Load Stall End Bucket Count 0: 182848
 ROB Load Stall Begin Bucket Count 1: 835188
 ROB Load Stall End Bucket Count 1: 945705
 ROB Critical Load Stall Begin Bucket Count 1: 328058
 ROB Critical Load Stall End Bucket Count 1: 331601
 ROB Load Stall Begin Bucket Count 2: 329180
 ROB Load Stall End Bucket Count 2: 427357
 ROB Critical Load Stall Begin Bucket Count 2: 110169
 ROB Critical Load Stall End Bucket Count 2: 155517
 ROB Load Stall Begin Bucket Count 3: 101308
 ROB Load Stall End Bucket Count 3: 137575
 ROB Critical Load Stall Begin Bucket Count 3: 44064
 ROB Critical Load Stall End Bucket Count 3: 55525
 ROB Load Stall Begin Bucket Count 4: 45913
 ROB Load Stall End Bucket Count 4: 51276
 ROB Critical Load Stall Begin Bucket Count 4: 24871
 ROB Critical Load Stall End Bucket Count 4: 25787
 ROB Load Stall Begin Bucket Count 5: 43341
 ROB Load Stall End Bucket Count 5: 41835
 ROB Critical Load Stall Begin Bucket Count 5: 28114
 ROB Critical Load Stall End Bucket Count 5: 26129
 ROB Load Stall Begin Bucket Count 6: 128020
 ROB Load Stall End Bucket Count 6: 140344
 ROB Critical Load Stall Begin Bucket Count 6: 97994
 ROB Critical Load Stall End Bucket Count 6: 105724
PIST Tag Read Accesses: 2483992
PIST Read Accesses: 1241996
PIST Tag Write Accesses: 2483992
PIST Write Accesses: 1241996
Criticality detector called times: 2601612
Max global_stall_cycles_count: 3671374
Threshold Modified: 1 times, factor: -1
Sturdy critical IP cache stats: 
 Unused entries: 0
CIC Tag Read Accesses: 0
CIC Read Accesses: 0
CIC Tag Write Accesses: 0
CIC Write Accesses: 0
Wobbly critical IP cache stats: 
 Unused entries: 0
CIC Tag Read Accesses: 90996135
CIC Read Accesses: 0
CIC Tag Write Accesses: 29342
CIC Write Accesses: 0
ITLB TOTAL     ACCESS:    9431232  HIT:    9208299  MISS:     222933  HIT %:    97.6362  MISS %:    2.36377   MPKI: 4.45866
ITLB LOAD TRANSLATION ACCESS:    8706920  HIT:    8660629  MISS:      46291  HIT %:    99.4683  MISS %:   0.531658   MPKI: 0.92582
ITLB TRANSLATION FROM L1D PREFETCHER ACCESS:     724312  HIT:     547670  MISS:     176642  HIT %:    75.6124  MISS %:    24.3876   MPKI: 3.53284
ITLBprefetch_cycle_count: 0 prefetches_per_prefetch_cycle: -nan
ITLB PREFETCH  REQUESTED:          0  ISSUED:          0  USEFUL:     135860  USELESS:      40788
ITLB USEFUL LOAD PREFETCHES:     135860 PREFETCH ISSUED TO LOWER LEVEL:          0  ACCURACY: inf
ITLB TIMELY PREFETCHES:     135860 LATE PREFETCHES: 1121 DROPPED PREFETCHES: 1087
ITLB PREFETCHES SAME FILL-ORIGIN LEVEL: 0 DIFFERENT FILL-ORIGIN LEVEL: 0
ITLB AVERAGE MISS LATENCY: 180131 cycles
ITLB RQ	ACCESS:   11697002	FORWARD:          0	MERGED:    2242530	TO_CACHE:    9454472

DTLB TOTAL     ACCESS:   11129350  HIT:   10604822  MISS:     524528  HIT %:     95.287  MISS %:    4.71302   MPKI: 10.4906
DTLB LOAD TRANSLATION ACCESS:   11129350  HIT:   10604822  MISS:     524528  HIT %:     95.287  MISS %:    4.71302   MPKI: 10.4906
DTLBprefetch_cycle_count: 0 prefetches_per_prefetch_cycle: -nan
DTLB PREFETCH  REQUESTED:          0  ISSUED:          0  USEFUL:          0  USELESS:          0
DTLB USEFUL LOAD PREFETCHES:          0 PREFETCH ISSUED TO LOWER LEVEL:          0  ACCURACY: -nan
DTLB TIMELY PREFETCHES:          0 LATE PREFETCHES: 0 DROPPED PREFETCHES: 0
DTLB PREFETCHES SAME FILL-ORIGIN LEVEL: 0 DIFFERENT FILL-ORIGIN LEVEL: 0
DTLB AVERAGE MISS LATENCY: 9.88607 cycles
DTLB RQ	ACCESS:   14261653	FORWARD:          0	MERGED:    3104826	TO_CACHE:   11156827

STLB TOTAL     ACCESS:    1140668  HIT:    1133992  MISS:       6676  HIT %:    99.4147  MISS %:   0.585271   MPKI: 0.13352
STLB LOAD TRANSLATION ACCESS:     569698  HIT:     563435  MISS:       6263  HIT %:    98.9006  MISS %:    1.09935   MPKI: 0.12526
STLB TRANSLATION FROM L1D PREFETCHER ACCESS:     570970  HIT:     570557  MISS:        413  HIT %:    99.9277  MISS %:   0.072333   MPKI: 0.00826
STLBprefetch_cycle_count: 0 prefetches_per_prefetch_cycle: -nan
STLB PREFETCH  REQUESTED:          0  ISSUED:          0  USEFUL:        267  USELESS:        136
STLB USEFUL LOAD PREFETCHES:        267 PREFETCH ISSUED TO LOWER LEVEL:          0  ACCURACY: inf
STLB TIMELY PREFETCHES:        267 LATE PREFETCHES: 0 DROPPED PREFETCHES: 1087
STLB PREFETCHES SAME FILL-ORIGIN LEVEL: 0 DIFFERENT FILL-ORIGIN LEVEL: 0
STLB AVERAGE MISS LATENCY: 81.9175 cycles
STLB RQ	ACCESS:    1259473	FORWARD:          0	MERGED:     117718	TO_CACHE:    1141755

STLB Hit, L1D data hit: 0
STLB Hit, L2C data hit: 0
STLB Hit, LLC data hit: 0
STLB Hit, LLC data miss: 0
STLB STLB hints to L2: 0
L1D TOTAL     ACCESS:   14263554  HIT:   13221408  MISS:    1042146  HIT %:    92.6936  MISS %:    7.30636   MPKI: 20.8429
L1D LOAD      ACCESS:    8895744  HIT:    8154139  MISS:     741605  HIT %:    91.6634  MISS %:    8.33663   MPKI: 14.8321
L1D RFO       ACCESS:    4887357  HIT:    4770220  MISS:     117137  HIT %:    97.6033  MISS %:    2.39674   MPKI: 2.34274
L1D PREFETCH  ACCESS:     480453  HIT:     297049  MISS:     183404  HIT %:    61.8269  MISS %:    38.1731   MPKI: 3.66808
L1Dprefetch_cycle_count: 414470 prefetches_per_prefetch_cycle: 2.46556
L1D PREFETCH  REQUESTED:    1021974  ISSUED:    1021902  USEFUL:      55067  USELESS:     128095
L1D USEFUL LOAD PREFETCHES:      55067 PREFETCH ISSUED TO LOWER LEVEL:     192222  ACCURACY: 28.6476
L1D TIMELY PREFETCHES:      55067 LATE PREFETCHES: 8669 DROPPED PREFETCHES: 0
L1D PREFETCHES SAME FILL-ORIGIN LEVEL: 192222 DIFFERENT FILL-ORIGIN LEVEL: 0
L1D AVERAGE MISS LATENCY: 508304 cycles
L1D RQ	ACCESS:   13251717	FORWARD:          0	MERGED:    4143741	TO_CACHE:    8966666
L1D WQ	ACCESS:    5473943	FORWARD:     141362	MERGED:     178956	TO_CACHE:    5294987
L1D PQ	ACCESS:     510977	FORWARD:          0	MERGED:          0	TO_CACHE:     510925

L1D UNIQUE REGIONS ACCESSED: 0
L1D REGIONS CONFLICTS: 0
L1D Cross Page Prefetch Requests: 0
L1D Same Page Prefetch Requests: 527305
L1D ROI Sum of L1D PQ occupancy: 6638648
L1D PREFETCHES PUSHED FROM L2C: 0
L1I TOTAL     ACCESS:   11649134  HIT:   10568049  MISS:    1081085  HIT %:    90.7196  MISS %:    9.28039   MPKI: 21.6217
L1I LOAD      ACCESS:    9925289  HIT:    9823468  MISS:     101821  HIT %:    98.9741  MISS %:    1.02587   MPKI: 2.03642
L1I PREFETCH  ACCESS:    1723845  HIT:     744581  MISS:     979264  HIT %:     43.193  MISS %:     56.807   MPKI: 19.5853
L1Iprefetch_cycle_count: 0 prefetches_per_prefetch_cycle: inf
L1I PREFETCH  REQUESTED:    1802135  ISSUED:    1800401  USEFUL:     696662  USELESS:     282698
L1I USEFUL LOAD PREFETCHES:     696662 PREFETCH ISSUED TO LOWER LEVEL:     990312  ACCURACY: 70.3477
L1I TIMELY PREFETCHES:     696662 LATE PREFETCHES: 11048 DROPPED PREFETCHES: 2175
L1I PREFETCHES SAME FILL-ORIGIN LEVEL: 990312 DIFFERENT FILL-ORIGIN LEVEL: 0
L1I AVERAGE MISS LATENCY: 361178 cycles
L1I RQ	ACCESS:   14729860	FORWARD:          0	MERGED:    4793173	TO_CACHE:    9936687
L1I PQ	ACCESS:    1800401	FORWARD:          0	MERGED:      40086	TO_CACHE:    1760315

BTB TOTAL     ACCESS:    8519581  HIT:    7693788  MISS:     825793  HIT %:    90.3071  MISS %:    9.69288   MPKI: 16.5159
BTB BRANCH_DIRECT_JUMP	ACCESS:     510116  HIT:     502542  MISS:       7574
BTB BRANCH_INDIRECT	ACCESS:     225730  HIT:     169070  MISS:      56660
BTB BRANCH_CONDITIONAL	ACCESS:    5216028  HIT:    5189632  MISS:      26396
BTB BRANCH_DIRECT_CALL	ACCESS:     600746  HIT:     593897  MISS:       6849
BTB BRANCH_INDIRECT_CALL	ACCESS:     682990  HIT:     527153  MISS:     155837
BTB BRANCH_RETURN	ACCESS:    1283971  HIT:     711494  MISS:     572477
BTB BRANCH_OTHER ACCESS:          0  HIT:          0  MISS:          0

L2C TOTAL     ACCESS:    2302067  HIT:    1909487  MISS:     392580  HIT %:    82.9466  MISS %:    17.0534   MPKI: 7.8516
L2C LOAD      ACCESS:     823700  HIT:     652173  MISS:     171527  HIT %:     79.176  MISS %:     20.824   MPKI: 3.43054
L2C DATA LOAD MPKI: 3.17264
L2C INSTRUCTION LOAD MPKI: 0.2579
L2C RFO       ACCESS:     116985  HIT:      15920  MISS:     101065  HIT %:    13.6086  MISS %:    86.3914   MPKI: 2.0213
L2C PREFETCH  ACCESS:    1182534  HIT:    1067802  MISS:     114732  HIT %:    90.2978  MISS %:    9.70222   MPKI: 2.29464
L2C DATA PREFETCH MPKI: 1.70896
L2C INSTRUCTION PREFETCH MPKI: 0.58568
L2C WRITEBACK ACCESS:     170784  HIT:     168044  MISS:       2740  HIT %:    98.3956  MISS %:    1.60437   MPKI: 0.0548
L2C LOAD TRANSLATION ACCESS:       6544  HIT:       4287  MISS:       2257  HIT %:    65.5104  MISS %:    34.4896   MPKI: 0.04514
L2C TRANSLATION FROM L1D PREFETCHER ACCESS:       1520  HIT:       1261  MISS:        259  HIT %:    82.9605  MISS %:    17.0395   MPKI: 0.00518
L2Cprefetch_cycle_count: 0 prefetches_per_prefetch_cycle: -nan
L2C PREFETCH  REQUESTED:          0  ISSUED:          0  USEFUL:      11114  USELESS:     104989
L2C USEFUL LOAD PREFETCHES:      11114 PREFETCH ISSUED TO LOWER LEVEL:     114732  ACCURACY: 9.68692
L2C TIMELY PREFETCHES:      11114 LATE PREFETCHES: 0 DROPPED PREFETCHES: 0
L2C PREFETCHES SAME FILL-ORIGIN LEVEL: 0 DIFFERENT FILL-ORIGIN LEVEL: 0
L2C AVERAGE MISS LATENCY: 88.8982 cycles
L2C RQ	ACCESS:     948761	FORWARD:          0	MERGED:          0	TO_CACHE:     948749
L2C WQ	ACCESS:     170784	FORWARD:         12	MERGED:          0	TO_CACHE:     170784
L2C PQ	ACCESS:    1182534	FORWARD:          0	MERGED:          0	TO_CACHE:    1182534

L2C Instructions Evicting Data 28861
L2C Translations Evicting Data 1725
L2C Data Evicting Data 310680
L2C Instructions Evicting Instructions 12615
L2C Translations Evicting Instructions 738
L2C Data Evicting Instructions 32691
L2C Instructions Evicting Translations 703
L2C Translations Evicting Translations 53
L2C Data Evicting Translations 1774
L2C Dense regions hint from L2: 0
PSCL5 TOTAL     ACCESS:       7763  HIT:       7763  MISS:          0  HIT %:        100  MISS %:          0   MPKI: 0
PSCL5 LOAD TRANSLATION ACCESS:       6263  HIT:       6263  MISS:          0  HIT %:        100  MISS %:          0   MPKI: 0
PSCL5 TRANSLATION FROM L1D PREFETCHER ACCESS:       1500  HIT:       1500  MISS:          0  HIT %:        100  MISS %:          0   MPKI: 0
PSCL5prefetch_cycle_count: 0 prefetches_per_prefetch_cycle: -nan
PSCL5 PREFETCH  REQUESTED:          0  ISSUED:          0  USEFUL:          0  USELESS:          0
PSCL5 USEFUL LOAD PREFETCHES:          0 PREFETCH ISSUED TO LOWER LEVEL:          0  ACCURACY: -nan
PSCL5 TIMELY PREFETCHES:          0 LATE PREFETCHES: 0 DROPPED PREFETCHES: 0
PSCL5 PREFETCHES SAME FILL-ORIGIN LEVEL: 0 DIFFERENT FILL-ORIGIN LEVEL: 0

PSCL4 TOTAL     ACCESS:       7763  HIT:       7763  MISS:          0  HIT %:        100  MISS %:          0   MPKI: 0
PSCL4 LOAD TRANSLATION ACCESS:       6263  HIT:       6263  MISS:          0  HIT %:        100  MISS %:          0   MPKI: 0
PSCL4 TRANSLATION FROM L1D PREFETCHER ACCESS:       1500  HIT:       1500  MISS:          0  HIT %:        100  MISS %:          0   MPKI: 0
PSCL4prefetch_cycle_count: 0 prefetches_per_prefetch_cycle: -nan
PSCL4 PREFETCH  REQUESTED:          0  ISSUED:          0  USEFUL:          0  USELESS:          0
PSCL4 USEFUL LOAD PREFETCHES:          0 PREFETCH ISSUED TO LOWER LEVEL:          0  ACCURACY: -nan
PSCL4 TIMELY PREFETCHES:          0 LATE PREFETCHES: 0 DROPPED PREFETCHES: 0
PSCL4 PREFETCHES SAME FILL-ORIGIN LEVEL: 0 DIFFERENT FILL-ORIGIN LEVEL: 0

PSCL3 TOTAL     ACCESS:       7741  HIT:       7733  MISS:          8  HIT %:    99.8967  MISS %:   0.103346   MPKI: 0.00016
PSCL3 LOAD TRANSLATION ACCESS:       6245  HIT:       6237  MISS:          8  HIT %:    99.8719  MISS %:   0.128102   MPKI: 0.00016
PSCL3 TRANSLATION FROM L1D PREFETCHER ACCESS:       1496  HIT:       1496  MISS:          0  HIT %:        100  MISS %:          0   MPKI: 0
PSCL3prefetch_cycle_count: 0 prefetches_per_prefetch_cycle: -nan
PSCL3 PREFETCH  REQUESTED:          0  ISSUED:          0  USEFUL:          0  USELESS:          0
PSCL3 USEFUL LOAD PREFETCHES:          0 PREFETCH ISSUED TO LOWER LEVEL:          0  ACCURACY: -nan
PSCL3 TIMELY PREFETCHES:          0 LATE PREFETCHES: 0 DROPPED PREFETCHES: 0
PSCL3 PREFETCHES SAME FILL-ORIGIN LEVEL: 0 DIFFERENT FILL-ORIGIN LEVEL: 0

PSCL2 TOTAL     ACCESS:       7760  HIT:       7464  MISS:        296  HIT %:    96.1856  MISS %:    3.81443   MPKI: 0.00592
PSCL2 LOAD TRANSLATION ACCESS:       6279  HIT:       5983  MISS:        296  HIT %:    95.2859  MISS %:    4.71413   MPKI: 0.00592
PSCL2 TRANSLATION FROM L1D PREFETCHER ACCESS:       1481  HIT:       1481  MISS:          0  HIT %:        100  MISS %:          0   MPKI: 0
PSCL2prefetch_cycle_count: 0 prefetches_per_prefetch_cycle: -nan
PSCL2 PREFETCH  REQUESTED:          0  ISSUED:          0  USEFUL:          0  USELESS:          0
PSCL2 USEFUL LOAD PREFETCHES:          0 PREFETCH ISSUED TO LOWER LEVEL:          0  ACCURACY: -nan
PSCL2 TIMELY PREFETCHES:          0 LATE PREFETCHES: 0 DROPPED PREFETCHES: 0
PSCL2 PREFETCHES SAME FILL-ORIGIN LEVEL: 0 DIFFERENT FILL-ORIGIN LEVEL: 0

LLC TOTAL     ACCESS:     517849  HIT:     352644  MISS:     165205  HIT %:    68.0978  MISS %:    31.9022   MPKI: 3.3041
LLC LOAD      ACCESS:     171527  HIT:     133523  MISS:      38004  HIT %:    77.8437  MISS %:    22.1563   MPKI: 0.76008
LLC RFO       ACCESS:     101065  HIT:       7060  MISS:      94005  HIT %:     6.9856  MISS %:    93.0144   MPKI: 1.8801
LLC PREFETCH  ACCESS:     114732  HIT:      87491  MISS:      27241  HIT %:    76.2568  MISS %:    23.7432   MPKI: 0.54482
LLC WRITEBACK ACCESS:     128009  HIT:     122782  MISS:       5227  HIT %:    95.9167  MISS %:    4.08331   MPKI: 0.10454
LLC LOAD TRANSLATION ACCESS:       2257  HIT:       1591  MISS:        666  HIT %:    70.4918  MISS %:    29.5082   MPKI: 0.01332
LLC TRANSLATION FROM L1D PREFETCHER ACCESS:        259  HIT:        197  MISS:         62  HIT %:    76.0618  MISS %:    23.9382   MPKI: 0.00124
LLCprefetch_cycle_count: 0 prefetches_per_prefetch_cycle: -nan
LLC PREFETCH  REQUESTED:          0  ISSUED:          0  USEFUL:       2602  USELESS:      24897
LLC USEFUL LOAD PREFETCHES:       2602 PREFETCH ISSUED TO LOWER LEVEL:      27241  ACCURACY: 9.55178
LLC TIMELY PREFETCHES:       2602 LATE PREFETCHES: 0 DROPPED PREFETCHES: 0
LLC PREFETCHES SAME FILL-ORIGIN LEVEL: 0 DIFFERENT FILL-ORIGIN LEVEL: 0
LLC AVERAGE MISS LATENCY: 140.194 cycles
LLC RQ	ACCESS:     275108	FORWARD:          0	MERGED:          0	TO_CACHE:     275108
LLC WQ	ACCESS:     128009	FORWARD:          0	MERGED:          0	TO_CACHE:     128009
LLC PQ	ACCESS:     114732	FORWARD:          0	MERGED:          0	TO_CACHE:     114732

LLC Dense regions hint to LLC: 0

RAW hits: 1383102
Loads Generated: 14634820
Loads sent to L1D: 13251717
Stores Generated: 5473941
Stores sent to L1D: 5473943
Major fault: 0 Minor fault: 5379
Allocated PAGES: 5379
I-Shadow cache 408 bytes
Touched + WorthPF tables 6144 bytes 
MMA filter 174 bytes 
FNL filter 272 bytes 
TOTAL PREFETCHER STORAGE SIZE: 25174 bytes
CPU 0 L1I next line prefetcher final stats

total_pref_operate_instances_l1: 1793321
dynamic_config_counter_instances_1: 1428885
dynamic_config_counter_instances_2: 11341
dynamic_config_counter_instances_3: 11896
dynamic_config_counter_instances_4: 6585
dynamic_config_counter_instances_5: 334614
stream: 
stream:times selected: 910708
stream:pref_filled: 79469
stream:pref_useful: 21604
stream:pref_late: 3513
stream:misses: 8652
stream:misses_by_poll: 0

CS: 
CS:times selected: 91982
CS:pref_filled: 24768
CS:pref_useful: 19171
CS:pref_late: 1992
CS:misses: 9846
CS:misses_by_poll: 116

CPLX: 
CPLX:times selected: 812797
CPLX:pref_filled: 45906
CPLX:pref_useful: 5942
CPLX:pref_late: 913
CPLX:misses: 85768
CPLX:misses_by_poll: 95

NL_L1: 
NL:times selected: 236475
NL:pref_filled: 45324
NL:pref_useful: 9870
NL:pref_late: 944
NL:misses: 50030
NL:misses_by_poll: 165

total selections: 2051962
total_filled: 183404
total_useful: 55067
total_late: 8707
total_polluted: 376
total_misses_after_warmup: 203160
conflicts: 194752
Degree Incremented Times: 10772
Degree Decremented Times: 21452

L1 IP Table Write Accesses: 1530105
L1 IP Table Read Accesses: 1335353
L1 RST Write Accesses: 889855
L1 RST Read Accesses: 1779710
L1 CSPT Write Accesses: 889855
L1 CSPT Read Accesses: 1682398
L1 RR Filter Tag Write Accesses: 511049
L1 RR Filter Tag Read Accesses: 25986853
L1 IP Table Tag Write Accesses: 1793321
L1 IP Table Tag Read Accesses: 1793321
L1 RST Tag Write Accesses: 0
L1 RST Tag Read Accesses: 8073208
L1 RR Filter Write Accesses: 0
L1 RR Filter Read Accesses: 922096
test: 384459

DRAM Statistics
 CHANNEL 0
 RQ ROW_BUFFER_HIT:      49341  ROW_BUFFER_MISS:     110633
 DBUS_CONGESTED:        161
 WQ ROW_BUFFER_HIT:      15914  ROW_BUFFER_MISS:      73983  FULL:          0

 AVG_CONGESTED_CYCLE: 4
 All warmup complete: 2
Channel 0 Bank busy for read cycles: 0
Channel 0 Bank busy for write cycles: 0
Channel 0
Rank 0
0banks busy for read cycles: 57955149
0banks busy for write cycles: 33181
1banks busy for read cycles: 9424137
1banks busy for write cycles: 4486855
2banks busy for read cycles: 2341096
2banks busy for write cycles: 1453385
3banks busy for read cycles: 599697
3banks busy for write cycles: 645715
4banks busy for read cycles: 223193
4banks busy for write cycles: 343437
5banks busy for read cycles: 134018
5banks busy for write cycles: 219763
6banks busy for read cycles: 92533
6banks busy for write cycles: 162188
7banks busy for read cycles: 70390
7banks busy for write cycles: 154068
8banks busy for read cycles: 70064
8banks busy for write cycles: 388808

CPU 0 Branch Prediction Accuracy: 98.6482% MPKI: 3.15508 Average ROB Occupancy at Mispredict: 54.0119
Branch types
NOT_BRANCH: 38329454 76.6589%
BRANCH_DIRECT_JUMP: 510116 1.02023%
BRANCH_INDIRECT: 225730 0.45146%
BRANCH_CONDITIONAL: 8366707 16.7334%
BRANCH_DIRECT_CALL: 600746 1.20149%
BRANCH_INDIRECT_CALL: 682990 1.36598%
BRANCH_RETURN: 1283971 2.56794%
BRANCH_OTHER: 0 0%

DRAM PAGES: 1048576
Allocated PAGES: 5379
