
*** ChampSim Multicore Out-of-Order Simulator ***

Warmup Instructions: 50000000
Simulation Instructions: 50000000
Number of CPUs: 1
LLC sets: 2048
LLC ways: 16
Off-chip DRAM Size: 4096 MB Channels: 1 Width: 64-bit Data Rate: 6400 MT/s
CPU 0 runs ../IPC-traces//client_003.champsimtrace.xz
.xz
BTB has LRU replacement policy
ITLB has LRU replacement policy
DTLB has LRU replacement policy
STLB has LRU replacement policy
CPU 0 L1I next line prefetcher
L1I has LRU replacement policy
IP Table Entries: 64
L1D has LRU replacement policy
Initialize SRRIP state for L2C
Initialize DRRIP state for LLC
Heartbeat CPU 0 instructions: 10000000 cycles: 2805622 heartbeat IPC: 3.56427 cumulative IPC: 3.56427 (Simulation time: 0 hr 2 min 39 sec) 
Heartbeat CPU 0 instructions: 20000000 cycles: 5609353 heartbeat IPC: 3.56668 cumulative IPC: 3.56547 (Simulation time: 0 hr 5 min 20 sec) 
Heartbeat CPU 0 instructions: 30000003 cycles: 8418830 heartbeat IPC: 3.55938 cumulative IPC: 3.56344 (Simulation time: 0 hr 7 min 57 sec) 
Heartbeat CPU 0 instructions: 40000001 cycles: 11236772 heartbeat IPC: 3.54869 cumulative IPC: 3.55974 (Simulation time: 0 hr 10 min 38 sec) 
Heartbeat CPU 0 instructions: 50000002 cycles: 14057622 heartbeat IPC: 3.54503 cumulative IPC: 3.55679 (Simulation time: 0 hr 13 min 16 sec) 

Warmup complete CPU 0 instructions: 50000002 cycles: 14057622 (Simulation time: 0 hr 13 min 16 sec) 

Heartbeat CPU 0 instructions: 60000002 cycles: 27048283 heartbeat IPC: 0.769784 cumulative IPC: 0.769784 (Simulation time: 0 hr 16 min 21 sec) 
Heartbeat CPU 0 instructions: 70000001 cycles: 39651738 heartbeat IPC: 0.793433 cumulative IPC: 0.78143 (Simulation time: 0 hr 19 min 15 sec) 
Heartbeat CPU 0 instructions: 80000001 cycles: 53660022 heartbeat IPC: 0.713863 cumulative IPC: 0.75753 (Simulation time: 0 hr 22 min 12 sec) 
Heartbeat CPU 0 instructions: 90000000 cycles: 74066028 heartbeat IPC: 0.490052 cumulative IPC: 0.666573 (Simulation time: 0 hr 25 min 22 sec) 
Heartbeat CPU 0 instructions: 100000000 cycles: 96360333 heartbeat IPC: 0.448545 cumulative IPC: 0.607513 (Simulation time: 0 hr 29 min 45 sec) 
Finished CPU 0 instructions: 50000002 cycles: 82302713 cumulative IPC: 0.607513 (Simulation time: 0 hr 29 min 45 sec) 

ChampSim completed all CPUs

Region of Interest Statistics

CPU 0 cumulative IPC: 0.607513 instructions: 50000002 cycles: 82302713

CPU 0 Average Load ROB stall cycles: 1.89835e+07
CPU 0 Fraction of times ROB stalled by Loads: 36.5055
CPU 0 Percentage of Load stall cycles in Total stall cycles: 2.35096e+08
Issued all: 46903495
Issued LT all: 41417026
rob_not_full_when_issued_lt_all: 17879316
Issued LT one: 35220186
rob_not_full_when_issued_lt_one: 13576279
HPCA_2009 critical_dynamic_instances_0: 26313
HPCA_2009 unique_critical_ips_0: 5487
multiple_destinations_0: 0
load_to_same_dest_0: 0
low_issue_rate_0: 15566570
total_issue_rate_checked_count_0: 16682125
 Total stall cycles: 69332003
 Total load stall cycles: 162996753099756
Unique Load IPs: 39814
CPU 0 NUM of IPS identified critical: 0
CPU 0 Num of Load IPs stalling ROB: 0
Threshold modification factor: 0
Trouble in retire width: -nan
MaC = Marked as critical.
lt_50_percent_before_Mac: 0
gt_90_percent_before_Mac: 0
gt_75_percent_before_Mac: 0
gt_50_percent_before_Mac: 0
stall_proportion_bin_same_before_after: 0
stall_proportion_bin_lower_before_after: 0
stall_proportion_bin_upper_before_after: 0
average_stall_proportion_before: -nan
average_stall_proportion_after: -nan
Critical IP stalls, total frequency: 0
Non-critical IP stalls, total frequency: 0
Total Freq all stalling IPs: 0
Critical_IP_Detector_Accuracy_70: 0
Critical_IP_Detector_Accuracy_80: 0
Critical_IP_Detector_Accuracy_90: 0
Critical_IP_Detector_Coverage_70: 0
Critical_IP_Detector_Coverage_80: 0
Critical_IP_Detector_Coverage_90: 0
stat_90_percent_critical_ip_stalls_freq: 548859
stat_90_percent_non_critical_ip_stalls_freq: 18446744073709002757
AVERAGE_ROB_Occupancy_90_Percent_Critical_IP_Stalls: 349.271
AVERAGE_ROB_Occupancy_90_Percent_Non_Critical_IP_Stalls: 1.15741e-11
Critical_IP_ROB_Stalls_Bucket_0: 0
Non-critical_IP_ROB_Stalls_Bucket_0: 1311364
Critical_IP_ROB_Stalls_Bucket_1: 0
Non-critical_IP_ROB_Stalls_Bucket_1: 663438
Critical_IP_ROB_Stalls_Bucket_2: 0
Non-critical_IP_ROB_Stalls_Bucket_2: 273449
Critical_IP_ROB_Stalls_Bucket_3: 0
Non-critical_IP_ROB_Stalls_Bucket_3: 95041
Critical_IP_ROB_Stalls_Bucket_4: 0
Non-critical_IP_ROB_Stalls_Bucket_4: 37069
Critical_IP_ROB_Stalls_Bucket_5: 0
Non-critical_IP_ROB_Stalls_Bucket_5: 22024
Critical_IP_ROB_Stalls_Bucket_6: 0
Non-critical_IP_ROB_Stalls_Bucket_6: 732057
0 => IPs accounting for >50 percent of stalls, 1 => 55, 2 => 60, 3 => 65 and so on till 90.
percent50: inf num IPs:  1
percent55: inf num IPs: 1
percent60: inf num IPs: 1
percent65: inf num IPs: 1
percent70: inf num IPs: 1
percent75: inf num IPs: 1
percent80: inf num IPs: 1
percent85: inf num IPs: 1
percent90: inf num IPs: 1
Critical_ROB_Stalls_Percent_0_Bucket_0: 25
Non-critical_ROB_Stalls_Percent_0_Bucket_0: 1311339
Critical_ROB_Stalls_Percent_0_Bucket_1: 27
Non-critical_ROB_Stalls_Percent_0_Bucket_1: 663411
Critical_ROB_Stalls_Percent_0_Bucket_2: 708
Non-critical_ROB_Stalls_Percent_0_Bucket_2: 272741
Critical_ROB_Stalls_Percent_0_Bucket_3: 3242
Non-critical_ROB_Stalls_Percent_0_Bucket_3: 91799
Critical_ROB_Stalls_Percent_0_Bucket_4: 3257
Non-critical_ROB_Stalls_Percent_0_Bucket_4: 33812
Critical_ROB_Stalls_Percent_0_Bucket_5: 3275
Non-critical_ROB_Stalls_Percent_0_Bucket_5: 18749
Critical_ROB_Stalls_Percent_0_Bucket_6: 538325
Non-critical_ROB_Stalls_Percent_0_Bucket_6: 193732
Critical_ROB_Stalls_Percent_1_Bucket_0: 25
Non-critical_ROB_Stalls_Percent_1_Bucket_0: 1311339
Critical_ROB_Stalls_Percent_1_Bucket_1: 27
Non-critical_ROB_Stalls_Percent_1_Bucket_1: 663411
Critical_ROB_Stalls_Percent_1_Bucket_2: 708
Non-critical_ROB_Stalls_Percent_1_Bucket_2: 272741
Critical_ROB_Stalls_Percent_1_Bucket_3: 3242
Non-critical_ROB_Stalls_Percent_1_Bucket_3: 91799
Critical_ROB_Stalls_Percent_1_Bucket_4: 3257
Non-critical_ROB_Stalls_Percent_1_Bucket_4: 33812
Critical_ROB_Stalls_Percent_1_Bucket_5: 3275
Non-critical_ROB_Stalls_Percent_1_Bucket_5: 18749
Critical_ROB_Stalls_Percent_1_Bucket_6: 538325
Non-critical_ROB_Stalls_Percent_1_Bucket_6: 193732
Critical_ROB_Stalls_Percent_2_Bucket_0: 25
Non-critical_ROB_Stalls_Percent_2_Bucket_0: 1311339
Critical_ROB_Stalls_Percent_2_Bucket_1: 27
Non-critical_ROB_Stalls_Percent_2_Bucket_1: 663411
Critical_ROB_Stalls_Percent_2_Bucket_2: 708
Non-critical_ROB_Stalls_Percent_2_Bucket_2: 272741
Critical_ROB_Stalls_Percent_2_Bucket_3: 3242
Non-critical_ROB_Stalls_Percent_2_Bucket_3: 91799
Critical_ROB_Stalls_Percent_2_Bucket_4: 3257
Non-critical_ROB_Stalls_Percent_2_Bucket_4: 33812
Critical_ROB_Stalls_Percent_2_Bucket_5: 3275
Non-critical_ROB_Stalls_Percent_2_Bucket_5: 18749
Critical_ROB_Stalls_Percent_2_Bucket_6: 538325
Non-critical_ROB_Stalls_Percent_2_Bucket_6: 193732
Critical_ROB_Stalls_Percent_3_Bucket_0: 25
Non-critical_ROB_Stalls_Percent_3_Bucket_0: 1311339
Critical_ROB_Stalls_Percent_3_Bucket_1: 27
Non-critical_ROB_Stalls_Percent_3_Bucket_1: 663411
Critical_ROB_Stalls_Percent_3_Bucket_2: 708
Non-critical_ROB_Stalls_Percent_3_Bucket_2: 272741
Critical_ROB_Stalls_Percent_3_Bucket_3: 3242
Non-critical_ROB_Stalls_Percent_3_Bucket_3: 91799
Critical_ROB_Stalls_Percent_3_Bucket_4: 3257
Non-critical_ROB_Stalls_Percent_3_Bucket_4: 33812
Critical_ROB_Stalls_Percent_3_Bucket_5: 3275
Non-critical_ROB_Stalls_Percent_3_Bucket_5: 18749
Critical_ROB_Stalls_Percent_3_Bucket_6: 538325
Non-critical_ROB_Stalls_Percent_3_Bucket_6: 193732
Critical_ROB_Stalls_Percent_4_Bucket_0: 25
Non-critical_ROB_Stalls_Percent_4_Bucket_0: 1311339
Critical_ROB_Stalls_Percent_4_Bucket_1: 27
Non-critical_ROB_Stalls_Percent_4_Bucket_1: 663411
Critical_ROB_Stalls_Percent_4_Bucket_2: 708
Non-critical_ROB_Stalls_Percent_4_Bucket_2: 272741
Critical_ROB_Stalls_Percent_4_Bucket_3: 3242
Non-critical_ROB_Stalls_Percent_4_Bucket_3: 91799
Critical_ROB_Stalls_Percent_4_Bucket_4: 3257
Non-critical_ROB_Stalls_Percent_4_Bucket_4: 33812
Critical_ROB_Stalls_Percent_4_Bucket_5: 3275
Non-critical_ROB_Stalls_Percent_4_Bucket_5: 18749
Critical_ROB_Stalls_Percent_4_Bucket_6: 538325
Non-critical_ROB_Stalls_Percent_4_Bucket_6: 193732
Critical_ROB_Stalls_Percent_5_Bucket_0: 25
Non-critical_ROB_Stalls_Percent_5_Bucket_0: 1311339
Critical_ROB_Stalls_Percent_5_Bucket_1: 27
Non-critical_ROB_Stalls_Percent_5_Bucket_1: 663411
Critical_ROB_Stalls_Percent_5_Bucket_2: 708
Non-critical_ROB_Stalls_Percent_5_Bucket_2: 272741
Critical_ROB_Stalls_Percent_5_Bucket_3: 3242
Non-critical_ROB_Stalls_Percent_5_Bucket_3: 91799
Critical_ROB_Stalls_Percent_5_Bucket_4: 3257
Non-critical_ROB_Stalls_Percent_5_Bucket_4: 33812
Critical_ROB_Stalls_Percent_5_Bucket_5: 3275
Non-critical_ROB_Stalls_Percent_5_Bucket_5: 18749
Critical_ROB_Stalls_Percent_5_Bucket_6: 538325
Non-critical_ROB_Stalls_Percent_5_Bucket_6: 193732
Critical_ROB_Stalls_Percent_6_Bucket_0: 25
Non-critical_ROB_Stalls_Percent_6_Bucket_0: 1311339
Critical_ROB_Stalls_Percent_6_Bucket_1: 27
Non-critical_ROB_Stalls_Percent_6_Bucket_1: 663411
Critical_ROB_Stalls_Percent_6_Bucket_2: 708
Non-critical_ROB_Stalls_Percent_6_Bucket_2: 272741
Critical_ROB_Stalls_Percent_6_Bucket_3: 3242
Non-critical_ROB_Stalls_Percent_6_Bucket_3: 91799
Critical_ROB_Stalls_Percent_6_Bucket_4: 3257
Non-critical_ROB_Stalls_Percent_6_Bucket_4: 33812
Critical_ROB_Stalls_Percent_6_Bucket_5: 3275
Non-critical_ROB_Stalls_Percent_6_Bucket_5: 18749
Critical_ROB_Stalls_Percent_6_Bucket_6: 538325
Non-critical_ROB_Stalls_Percent_6_Bucket_6: 193732
Critical_ROB_Stalls_Percent_7_Bucket_0: 25
Non-critical_ROB_Stalls_Percent_7_Bucket_0: 1311339
Critical_ROB_Stalls_Percent_7_Bucket_1: 27
Non-critical_ROB_Stalls_Percent_7_Bucket_1: 663411
Critical_ROB_Stalls_Percent_7_Bucket_2: 708
Non-critical_ROB_Stalls_Percent_7_Bucket_2: 272741
Critical_ROB_Stalls_Percent_7_Bucket_3: 3242
Non-critical_ROB_Stalls_Percent_7_Bucket_3: 91799
Critical_ROB_Stalls_Percent_7_Bucket_4: 3257
Non-critical_ROB_Stalls_Percent_7_Bucket_4: 33812
Critical_ROB_Stalls_Percent_7_Bucket_5: 3275
Non-critical_ROB_Stalls_Percent_7_Bucket_5: 18749
Critical_ROB_Stalls_Percent_7_Bucket_6: 538325
Non-critical_ROB_Stalls_Percent_7_Bucket_6: 193732
Critical_ROB_Stalls_Percent_8_Bucket_0: 25
Non-critical_ROB_Stalls_Percent_8_Bucket_0: 1311339
Critical_ROB_Stalls_Percent_8_Bucket_1: 27
Non-critical_ROB_Stalls_Percent_8_Bucket_1: 663411
Critical_ROB_Stalls_Percent_8_Bucket_2: 708
Non-critical_ROB_Stalls_Percent_8_Bucket_2: 272741
Critical_ROB_Stalls_Percent_8_Bucket_3: 3242
Non-critical_ROB_Stalls_Percent_8_Bucket_3: 91799
Critical_ROB_Stalls_Percent_8_Bucket_4: 3257
Non-critical_ROB_Stalls_Percent_8_Bucket_4: 33812
Critical_ROB_Stalls_Percent_8_Bucket_5: 3275
Non-critical_ROB_Stalls_Percent_8_Bucket_5: 18749
Critical_ROB_Stalls_Percent_8_Bucket_6: 538325
Non-critical_ROB_Stalls_Percent_8_Bucket_6: 193732
Average ROB occupancy Load Stall Begin: 121.464
Average ROB occupancy Load Stall End: 129.275
Min ROB occupancy Load Stall Begin: 1
Max ROB occupancy Load Stall Begin: 352
Min ROB occupancy Load Stall End: 1
Max ROB occupancy Load Stall End: 352
Average ROB occupancy Critical Load Stall Begin: -nan
Average ROB occupancy Critical Load Stall End: -nan
Min ROB occupancy Critical Load Stall Begin: 400
Max ROB occupancy Critical Load Stall Begin: 0
Min ROB occupancy Critical Load Stall End: 400
Max ROB occupancy Critical Load Stall End: 0
 ROB Load Stall Begin Bucket Count 0: 1530597
 ROB Load Stall End Bucket Count 0: 1311364
 ROB Critical Load Stall Begin Bucket Count 0: 0
 ROB Critical Load Stall End Bucket Count 0: 0
 ROB Load Stall Begin Bucket Count 1: 533056
 ROB Load Stall End Bucket Count 1: 663438
 ROB Critical Load Stall Begin Bucket Count 1: 0
 ROB Critical Load Stall End Bucket Count 1: 0
 ROB Load Stall Begin Bucket Count 2: 220467
 ROB Load Stall End Bucket Count 2: 273449
 ROB Critical Load Stall Begin Bucket Count 2: 0
 ROB Critical Load Stall End Bucket Count 2: 0
 ROB Load Stall Begin Bucket Count 3: 73928
 ROB Load Stall End Bucket Count 3: 95041
 ROB Critical Load Stall Begin Bucket Count 3: 0
 ROB Critical Load Stall End Bucket Count 3: 0
 ROB Load Stall Begin Bucket Count 4: 33113
 ROB Load Stall End Bucket Count 4: 37069
 ROB Critical Load Stall Begin Bucket Count 4: 0
 ROB Critical Load Stall End Bucket Count 4: 0
 ROB Load Stall Begin Bucket Count 5: 20854
 ROB Load Stall End Bucket Count 5: 22024
 ROB Critical Load Stall Begin Bucket Count 5: 0
 ROB Critical Load Stall End Bucket Count 5: 0
 ROB Load Stall Begin Bucket Count 6: 722427
 ROB Load Stall End Bucket Count 6: 732057
 ROB Critical Load Stall Begin Bucket Count 6: 0
 ROB Critical Load Stall End Bucket Count 6: 0
PIST Tag Read Accesses: 0
PIST Read Accesses: 0
PIST Tag Write Accesses: 0
PIST Write Accesses: 0
Criticality detector called times: 0
Max global_stall_cycles_count: 0
Threshold Modified: 0 times, factor: 0
ITLB TOTAL     ACCESS:    9304519  HIT:    9227324  MISS:      77195  HIT %:    99.1703  MISS %:   0.829651   MPKI: 1.5439
ITLB LOAD TRANSLATION ACCESS:    8647102  HIT:    8610197  MISS:      36905  HIT %:    99.5732  MISS %:    0.42679   MPKI: 0.7381
ITLB TRANSLATION FROM L1D PREFETCHER ACCESS:     657417  HIT:     617127  MISS:      40290  HIT %:    93.8715  MISS %:    6.12853   MPKI: 0.8058
ITLB PREFETCH  REQUESTED:          0  ISSUED:          0  USEFUL:      31664  USELESS:       8630
ITLB USEFUL LOAD PREFETCHES:      31664 PREFETCH ISSUED TO LOWER LEVEL:          0  ACCURACY: inf
ITLB TIMELY PREFETCHES:      31664 LATE PREFETCHES: 198 DROPPED PREFETCHES: 368
ITLB PREFETCHES SAME FILL-ORIGIN LEVEL: 0 DIFFERENT FILL-ORIGIN LEVEL: 0
ITLB AVERAGE MISS LATENCY: 107238 cycles
ITLB RQ	ACCESS:   11670895	FORWARD:          0	MERGED:    2352579	TO_CACHE:    9318316

DTLB TOTAL     ACCESS:    9822513  HIT:    9721962  MISS:     100551  HIT %:    98.9763  MISS %:    1.02368   MPKI: 2.01102
DTLB LOAD TRANSLATION ACCESS:    9822513  HIT:    9721962  MISS:     100551  HIT %:    98.9763  MISS %:    1.02368   MPKI: 2.01102
DTLB PREFETCH  REQUESTED:          0  ISSUED:          0  USEFUL:          0  USELESS:          0
DTLB USEFUL LOAD PREFETCHES:          0 PREFETCH ISSUED TO LOWER LEVEL:          0  ACCURACY: -nan
DTLB TIMELY PREFETCHES:          0 LATE PREFETCHES: 0 DROPPED PREFETCHES: 0
DTLB PREFETCHES SAME FILL-ORIGIN LEVEL: 0 DIFFERENT FILL-ORIGIN LEVEL: 0
DTLB AVERAGE MISS LATENCY: 14.0657 cycles
DTLB RQ	ACCESS:   12699883	FORWARD:          0	MERGED:    2860688	TO_CACHE:    9839195

STLB TOTAL     ACCESS:     181008  HIT:     176412  MISS:       4596  HIT %:    97.4609  MISS %:    2.53911   MPKI: 0.09192
STLB LOAD TRANSLATION ACCESS:     137258  HIT:     132865  MISS:       4393  HIT %:    96.7995  MISS %:    3.20054   MPKI: 0.08786
STLB TRANSLATION FROM L1D PREFETCHER ACCESS:      43750  HIT:      43547  MISS:        203  HIT %:     99.536  MISS %:      0.464   MPKI: 0.00406
STLB PREFETCH  REQUESTED:          0  ISSUED:          0  USEFUL:        126  USELESS:         40
STLB USEFUL LOAD PREFETCHES:        126 PREFETCH ISSUED TO LOWER LEVEL:          0  ACCURACY: inf
STLB TIMELY PREFETCHES:        126 LATE PREFETCHES: 0 DROPPED PREFETCHES: 368
STLB PREFETCHES SAME FILL-ORIGIN LEVEL: 0 DIFFERENT FILL-ORIGIN LEVEL: 0
STLB AVERAGE MISS LATENCY: 132.067 cycles
STLB RQ	ACCESS:     182309	FORWARD:          0	MERGED:        933	TO_CACHE:     181376

STLB Hit, L1D data hit: 0
STLB Hit, L2C data hit: 0
STLB Hit, LLC data hit: 0
STLB Hit, LLC data miss: 0
STLB STLB hints to L2: 0
L1D TOTAL     ACCESS:   12193475  HIT:   11785291  MISS:     408184  HIT %:    96.6524  MISS %:    3.34756   MPKI: 8.16368
L1D LOAD      ACCESS:    6131821  HIT:    5964450  MISS:     167371  HIT %:    97.2705  MISS %:    2.72955   MPKI: 3.34742
L1D RFO       ACCESS:    6057548  HIT:    5817745  MISS:     239803  HIT %:    96.0413  MISS %:    3.95875   MPKI: 4.79606
L1D PREFETCH  ACCESS:       4106  HIT:       3096  MISS:       1010  HIT %:    75.4019  MISS %:    24.5981   MPKI: 0.0202
L1D PREFETCH  REQUESTED:       8404  ISSUED:       8404  USEFUL:        302  USELESS:        709
L1D USEFUL LOAD PREFETCHES:        302 PREFETCH ISSUED TO LOWER LEVEL:       1035  ACCURACY: 29.1787
L1D TIMELY PREFETCHES:        302 LATE PREFETCHES: 21 DROPPED PREFETCHES: 0
L1D PREFETCHES SAME FILL-ORIGIN LEVEL: 1035 DIFFERENT FILL-ORIGIN LEVEL: 0
L1D AVERAGE MISS LATENCY: 3271.55 cycles
L1D RQ	ACCESS:    9774731	FORWARD:          0	MERGED:    3453339	TO_CACHE:    6194078
L1D WQ	ACCESS:    6907394	FORWARD:     127328	MERGED:     401589	TO_CACHE:    6505805
L1D PQ	ACCESS:       4209	FORWARD:          0	MERGED:          0	TO_CACHE:       4195

L1D UNIQUE REGIONS ACCESSED: 0
L1D REGIONS CONFLICTS: 0
L1D Cross Page Prefetch Requests: 0
L1D Same Page Prefetch Requests: 7136
L1D ROI Sum of L1D PQ occupancy: 54601
L1D PREFETCHES PUSHED FROM L2C: 0
L1I TOTAL     ACCESS:   11582882  HIT:   10854934  MISS:     727948  HIT %:    93.7153  MISS %:    6.28469   MPKI: 14.559
L1I LOAD      ACCESS:    9763967  HIT:    9585744  MISS:     178223  HIT %:    98.1747  MISS %:    1.82531   MPKI: 3.56446
L1I PREFETCH  ACCESS:    1818915  HIT:    1269190  MISS:     549725  HIT %:    69.7773  MISS %:    30.2227   MPKI: 10.9945
L1I PREFETCH  REQUESTED:    1986989  ISSUED:    1984801  USEFUL:     352766  USELESS:     196972
L1I USEFUL LOAD PREFETCHES:     352766 PREFETCH ISSUED TO LOWER LEVEL:     567858  ACCURACY: 62.1222
L1I TIMELY PREFETCHES:     352766 LATE PREFETCHES: 18134 DROPPED PREFETCHES: 643
L1I PREFETCHES SAME FILL-ORIGIN LEVEL: 567858 DIFFERENT FILL-ORIGIN LEVEL: 0
L1I AVERAGE MISS LATENCY: 1.00114e+06 cycles
L1I RQ	ACCESS:   14263966	FORWARD:          0	MERGED:    4476172	TO_CACHE:    9787794
L1I PQ	ACCESS:    1984801	FORWARD:          0	MERGED:     101700	TO_CACHE:    1883101

BTB TOTAL     ACCESS:    7502678  HIT:    7071438  MISS:     431240  HIT %:    94.2522  MISS %:    5.74781   MPKI: 8.6248
BTB BRANCH_DIRECT_JUMP	ACCESS:     370859  HIT:     358934  MISS:      11925
BTB BRANCH_INDIRECT	ACCESS:      83252  HIT:      39140  MISS:      44112
BTB BRANCH_CONDITIONAL	ACCESS:    5399005  HIT:    5361920  MISS:      37085
BTB BRANCH_DIRECT_CALL	ACCESS:     722308  HIT:     695961  MISS:      26347
BTB BRANCH_INDIRECT_CALL	ACCESS:     101901  HIT:      81558  MISS:      20343
BTB BRANCH_RETURN	ACCESS:     825353  HIT:     533925  MISS:     291428
BTB BRANCH_OTHER ACCESS:          0  HIT:          0  MISS:          0

L2C TOTAL     ACCESS:    1402727  HIT:    1015320  MISS:     387407  HIT %:    72.3819  MISS %:    27.6181   MPKI: 7.74814
L2C LOAD      ACCESS:     327438  HIT:     201864  MISS:     125574  HIT %:    61.6495  MISS %:    38.3505   MPKI: 2.51148
L2C DATA LOAD MPKI: 2.12246
L2C INSTRUCTION LOAD MPKI: 0.38902
L2C RFO       ACCESS:     239795  HIT:      29105  MISS:     210690  HIT %:    12.1375  MISS %:    87.8625   MPKI: 4.2138
L2C PREFETCH  ACCESS:     568893  HIT:     527139  MISS:      41754  HIT %:    92.6605  MISS %:    7.33952   MPKI: 0.83508
L2C DATA PREFETCH MPKI: 0.01212
L2C INSTRUCTION PREFETCH MPKI: 0.82296
L2C WRITEBACK ACCESS:     261494  HIT:     253647  MISS:       7847  HIT %:    96.9992  MISS %:    3.00083   MPKI: 0.15694
L2C LOAD TRANSLATION ACCESS:       4500  HIT:       3072  MISS:       1428  HIT %:    68.2667  MISS %:    31.7333   MPKI: 0.02856
L2C TRANSLATION FROM L1D PREFETCHER ACCESS:        607  HIT:        493  MISS:        114  HIT %:    81.2191  MISS %:    18.7809   MPKI: 0.00228
L2C PREFETCH  REQUESTED:          0  ISSUED:          0  USEFUL:       5355  USELESS:      38093
L2C USEFUL LOAD PREFETCHES:       5355 PREFETCH ISSUED TO LOWER LEVEL:      41754  ACCURACY: 12.8251
L2C TIMELY PREFETCHES:       5355 LATE PREFETCHES: 0 DROPPED PREFETCHES: 0
L2C PREFETCHES SAME FILL-ORIGIN LEVEL: 0 DIFFERENT FILL-ORIGIN LEVEL: 0
L2C AVERAGE MISS LATENCY: 134.349 cycles
L2C RQ	ACCESS:     572345	FORWARD:          0	MERGED:          0	TO_CACHE:     572340
L2C WQ	ACCESS:     261494	FORWARD:          5	MERGED:          0	TO_CACHE:     261494
L2C PQ	ACCESS:     568893	FORWARD:          0	MERGED:          0	TO_CACHE:     568893

L2C Instructions Evicting Data 36476
L2C Translations Evicting Data 1157
L2C Data Evicting Data 279245
L2C Instructions Evicting Instructions 23728
L2C Translations Evicting Instructions 375
L2C Data Evicting Instructions 37187
L2C Instructions Evicting Translations 395
L2C Translations Evicting Translations 10
L2C Data Evicting Translations 987
L2C Dense regions hint from L2: 0
PSCL5 TOTAL     ACCESS:       4964  HIT:       4964  MISS:          0  HIT %:        100  MISS %:          0   MPKI: 0
PSCL5 LOAD TRANSLATION ACCESS:       4393  HIT:       4393  MISS:          0  HIT %:        100  MISS %:          0   MPKI: 0
PSCL5 TRANSLATION FROM L1D PREFETCHER ACCESS:        571  HIT:        571  MISS:          0  HIT %:        100  MISS %:          0   MPKI: 0
PSCL5 PREFETCH  REQUESTED:          0  ISSUED:          0  USEFUL:          0  USELESS:          0
PSCL5 USEFUL LOAD PREFETCHES:          0 PREFETCH ISSUED TO LOWER LEVEL:          0  ACCURACY: -nan
PSCL5 TIMELY PREFETCHES:          0 LATE PREFETCHES: 0 DROPPED PREFETCHES: 0
PSCL5 PREFETCHES SAME FILL-ORIGIN LEVEL: 0 DIFFERENT FILL-ORIGIN LEVEL: 0

PSCL4 TOTAL     ACCESS:       4964  HIT:       4964  MISS:          0  HIT %:        100  MISS %:          0   MPKI: 0
PSCL4 LOAD TRANSLATION ACCESS:       4393  HIT:       4393  MISS:          0  HIT %:        100  MISS %:          0   MPKI: 0
PSCL4 TRANSLATION FROM L1D PREFETCHER ACCESS:        571  HIT:        571  MISS:          0  HIT %:        100  MISS %:          0   MPKI: 0
PSCL4 PREFETCH  REQUESTED:          0  ISSUED:          0  USEFUL:          0  USELESS:          0
PSCL4 USEFUL LOAD PREFETCHES:          0 PREFETCH ISSUED TO LOWER LEVEL:          0  ACCURACY: -nan
PSCL4 TIMELY PREFETCHES:          0 LATE PREFETCHES: 0 DROPPED PREFETCHES: 0
PSCL4 PREFETCHES SAME FILL-ORIGIN LEVEL: 0 DIFFERENT FILL-ORIGIN LEVEL: 0

PSCL3 TOTAL     ACCESS:       4938  HIT:       4936  MISS:          2  HIT %:    99.9595  MISS %:  0.0405022   MPKI: 4e-05
PSCL3 LOAD TRANSLATION ACCESS:       4370  HIT:       4368  MISS:          2  HIT %:    99.9542  MISS %:  0.0457666   MPKI: 4e-05
PSCL3 TRANSLATION FROM L1D PREFETCHER ACCESS:        568  HIT:        568  MISS:          0  HIT %:        100  MISS %:          0   MPKI: 0
PSCL3 PREFETCH  REQUESTED:          0  ISSUED:          0  USEFUL:          0  USELESS:          0
PSCL3 USEFUL LOAD PREFETCHES:          0 PREFETCH ISSUED TO LOWER LEVEL:          0  ACCURACY: -nan
PSCL3 TIMELY PREFETCHES:          0 LATE PREFETCHES: 0 DROPPED PREFETCHES: 0
PSCL3 PREFETCHES SAME FILL-ORIGIN LEVEL: 0 DIFFERENT FILL-ORIGIN LEVEL: 0

PSCL2 TOTAL     ACCESS:       4935  HIT:       4810  MISS:        125  HIT %:    97.4671  MISS %:    2.53293   MPKI: 0.0025
PSCL2 LOAD TRANSLATION ACCESS:       4400  HIT:       4275  MISS:        125  HIT %:    97.1591  MISS %:    2.84091   MPKI: 0.0025
PSCL2 TRANSLATION FROM L1D PREFETCHER ACCESS:        535  HIT:        535  MISS:          0  HIT %:        100  MISS %:          0   MPKI: 0
PSCL2 PREFETCH  REQUESTED:          0  ISSUED:          0  USEFUL:          0  USELESS:          0
PSCL2 USEFUL LOAD PREFETCHES:          0 PREFETCH ISSUED TO LOWER LEVEL:          0  ACCURACY: -nan
PSCL2 TIMELY PREFETCHES:          0 LATE PREFETCHES: 0 DROPPED PREFETCHES: 0
PSCL2 PREFETCHES SAME FILL-ORIGIN LEVEL: 0 DIFFERENT FILL-ORIGIN LEVEL: 0

LLC TOTAL     ACCESS:     597531  HIT:     331882  MISS:     265649  HIT %:    55.5422  MISS %:    44.4578   MPKI: 5.31298
LLC LOAD      ACCESS:     125573  HIT:      49247  MISS:      76326  HIT %:    39.2178  MISS %:    60.7822   MPKI: 1.52652
LLC RFO       ACCESS:     210689  HIT:      35836  MISS:     174853  HIT %:     17.009  MISS %:     82.991   MPKI: 3.49706
LLC PREFETCH  ACCESS:      41754  HIT:      32517  MISS:       9237  HIT %:    77.8776  MISS %:    22.1224   MPKI: 0.18474
LLC WRITEBACK ACCESS:     217973  HIT:     213786  MISS:       4187  HIT %:    98.0791  MISS %:    1.92088   MPKI: 0.08374
LLC LOAD TRANSLATION ACCESS:       1428  HIT:        434  MISS:        994  HIT %:    30.3922  MISS %:    69.6078   MPKI: 0.01988
LLC TRANSLATION FROM L1D PREFETCHER ACCESS:        114  HIT:         62  MISS:         52  HIT %:     54.386  MISS %:     45.614   MPKI: 0.00104
LLC PREFETCH  REQUESTED:          0  ISSUED:          0  USEFUL:        495  USELESS:      10374
LLC USEFUL LOAD PREFETCHES:        495 PREFETCH ISSUED TO LOWER LEVEL:       9237  ACCURACY: 5.35888
LLC TIMELY PREFETCHES:        495 LATE PREFETCHES: 0 DROPPED PREFETCHES: 0
LLC PREFETCHES SAME FILL-ORIGIN LEVEL: 0 DIFFERENT FILL-ORIGIN LEVEL: 0
LLC AVERAGE MISS LATENCY: 152.83 cycles
LLC RQ	ACCESS:     337806	FORWARD:          0	MERGED:          0	TO_CACHE:     337804
LLC WQ	ACCESS:     217973	FORWARD:          2	MERGED:          0	TO_CACHE:     217973
LLC PQ	ACCESS:      41754	FORWARD:          0	MERGED:          0	TO_CACHE:      41754

LLC Dense regions hint to LLC: 0

RAW hits: 1281545
Loads Generated: 11056274
Loads sent to L1D: 9774731
Stores Generated: 6907390
Stores sent to L1D: 6907394
Major fault: 0 Minor fault: 5106
Allocated PAGES: 5106
I-Shadow cache 408 bytes
Touched + WorthPF tables 6144 bytes 
MMA filter 174 bytes 
FNL filter 272 bytes 
TOTAL PREFETCHER STORAGE SIZE: 25174 bytes
CPU 0 L1I next line prefetcher final stats

stream: 
stream:times selected: 6913
stream:pref_filled: 1372
stream:pref_useful: 466
stream:pref_late: 62
stream:misses: 55
stream:misses_by_poll: 0

CS: 
CS:times selected: 396
CS:pref_filled: 115
CS:pref_useful: 75
CS:pref_late: 4
CS:misses: 10
CS:misses_by_poll: 0

CPLX: 
CPLX:times selected: 6249
CPLX:pref_filled: 552
CPLX:pref_useful: 181
CPLX:pref_late: 13
CPLX:misses: 259
CPLX:misses_by_poll: 0

NL_L1: 
NL:times selected: 78
NL:pref_filled: 16
NL:pref_useful: 3
NL:pref_late: 1
NL:misses: 3
NL:misses_by_poll: 0

total selections: 13636
total_filled: 1010
total_useful: 302
total_late: 83
total_polluted: 0
total_misses_after_warmup: 2699
conflicts: 52168
Degree Incremented Times: 0
Degree Decremented Times: 5266

L1 IP Table Write Accesses: 65707
L1 IP Table Read Accesses: 13539
L1 RST Write Accesses: 4777
L1 RST Read Accesses: 9554
L1 CSPT Write Accesses: 4777
L1 CSPT Read Accesses: 12921
L1 RR Filter Tag Write Accesses: 4209
L1 RR Filter Tag Read Accesses: 197684
L1 IP Table Tag Write Accesses: 121865
L1 IP Table Tag Read Accesses: 121865
L1 RST Tag Write Accesses: 0
L1 RST Tag Read Accesses: 45133
L1 RR Filter Write Accesses: 0
L1 RR Filter Read Accesses: 6797
test: 1951

DRAM Statistics
 CHANNEL 0
 RQ ROW_BUFFER_HIT:     109955  ROW_BUFFER_MISS:     151505
 DBUS_CONGESTED:        175
 WQ ROW_BUFFER_HIT:      35320  ROW_BUFFER_MISS:     139439  FULL:          0

 AVG_CONGESTED_CYCLE: 3
 All warmup complete: 2
Channel 0 Bank busy for read cycles: 0
Channel 0 Bank busy for write cycles: 0
Channel 0
Rank 0
0banks busy for read cycles: 54271389
0banks busy for write cycles: 57515
1banks busy for read cycles: 12458931
1banks busy for write cycles: 7617094
2banks busy for read cycles: 1016874
2banks busy for write cycles: 1418225
3banks busy for read cycles: 752964
3banks busy for write cycles: 332140
4banks busy for read cycles: 415862
4banks busy for write cycles: 229255
5banks busy for read cycles: 316554
5banks busy for write cycles: 208217
6banks busy for read cycles: 352094
6banks busy for write cycles: 214898
7banks busy for read cycles: 302877
7banks busy for write cycles: 310182
8banks busy for read cycles: 521513
8banks busy for write cycles: 1506130

CPU 0 Branch Prediction Accuracy: 98.6631% MPKI: 2.66884 Average ROB Occupancy at Mispredict: 41.9911
Branch types
NOT_BRANCH: 40018635 80.0373%
BRANCH_DIRECT_JUMP: 370859 0.741718%
BRANCH_INDIRECT: 83252 0.166504%
BRANCH_CONDITIONAL: 7877415 15.7548%
BRANCH_DIRECT_CALL: 722308 1.44462%
BRANCH_INDIRECT_CALL: 101901 0.203802%
BRANCH_RETURN: 825353 1.65071%
BRANCH_OTHER: 0 0%

DRAM PAGES: 1048576
Allocated PAGES: 5106
