
*** ChampSim Multicore Out-of-Order Simulator ***

Warmup Instructions: 50000000
Simulation Instructions: 50000000
Number of CPUs: 1
LLC sets: 2048
LLC ways: 16
Off-chip DRAM Size: 4096 MB Channels: 1 Width: 64-bit Data Rate: 6400 MT/s
CPU 0 runs ../IPC-traces//client_001.champsimtrace.xz
.xz
NUM_OF_IPS_IN_CRITICAL_IP_TRAINING: 64
NUM_OF_CRITICAL_IP_TRAINING_TABLE_WAYS: 2
NUM_OF_CRITICAL_IP_TRAINING_TABLE_SETS: 32
WOBBLY_CRITICAL_IP_CACHE_SETS: 32
WOBBLY_CRITICAL_IP_CACHE_WAYS: 4
BTB has LRU replacement policy
ITLB has LRU replacement policy
DTLB has LRU replacement policy
STLB has LRU replacement policy
CPU 0 L1I next line prefetcher
L1I has LRU replacement policy
IP Table Entries: 64
L1D has LRU replacement policy
Initialize SRRIP state for L2C
Initialize DRRIP state for LLC
Heartbeat CPU 0 instructions: 10000003 cycles: 2872499 heartbeat IPC: 3.48129 cumulative IPC: 3.48129 (Simulation time: 0 hr 2 min 0 sec) 
Heartbeat CPU 0 instructions: 20000001 cycles: 5809100 heartbeat IPC: 3.4053 cumulative IPC: 3.44287 (Simulation time: 0 hr 4 min 4 sec) 
Heartbeat CPU 0 instructions: 30000001 cycles: 8654036 heartbeat IPC: 3.51502 cumulative IPC: 3.46659 (Simulation time: 0 hr 6 min 3 sec) 
Heartbeat CPU 0 instructions: 40000001 cycles: 11710542 heartbeat IPC: 3.27171 cumulative IPC: 3.41573 (Simulation time: 0 hr 8 min 8 sec) 
Heartbeat CPU 0 instructions: 50000001 cycles: 14529206 heartbeat IPC: 3.54778 cumulative IPC: 3.44134 (Simulation time: 0 hr 10 min 4 sec) 

Warmup complete CPU 0 instructions: 50000001 cycles: 14529206 (Simulation time: 0 hr 10 min 4 sec) 

% increase in all ip prefetch 332.178
% increase in all ip prefetch 1.57292
Heartbeat CPU 0 instructions: 60000000 cycles: 30310963 heartbeat IPC: 0.633643 cumulative IPC: 0.633643 (Simulation time: 0 hr 12 min 43 sec) 
Heartbeat CPU 0 instructions: 70000000 cycles: 42791967 heartbeat IPC: 0.801218 cumulative IPC: 0.707645 (Simulation time: 0 hr 15 min 2 sec) 
Heartbeat CPU 0 instructions: 80000002 cycles: 59670696 heartbeat IPC: 0.592462 cumulative IPC: 0.664577 (Simulation time: 0 hr 17 min 51 sec) 
Heartbeat CPU 0 instructions: 90000001 cycles: 71742654 heartbeat IPC: 0.828366 cumulative IPC: 0.699136 (Simulation time: 0 hr 20 min 6 sec) 
Heartbeat CPU 0 instructions: 100000002 cycles: 87818741 heartbeat IPC: 0.622042 cumulative IPC: 0.682226 (Simulation time: 0 hr 22 min 29 sec) 
Finished CPU 0 instructions: 50000001 cycles: 73289535 cumulative IPC: 0.682226 (Simulation time: 0 hr 22 min 29 sec) 

ChampSim completed all CPUs

Region of Interest Statistics

CPU 0 cumulative IPC: 0.682226 instructions: 50000001 cycles: 73289535

CPU 0 Average Load ROB stall cycles: 2.17459e+07
CPU 0 Fraction of times ROB stalled by Loads: 43.2001
CPU 0 Percentage of Load stall cycles in Total stall cycles: 2.53043e+08
Issued all: 29081595
Issued LT all: 22952757
rob_not_full_when_issued_lt_all: 19899853
Issued LT one: 18624458
rob_not_full_when_issued_lt_one: 15897632
critical_ip_candidate_identification_operations: 6104298
critical_ip_candidate_identification_operation_per_cycle: 0.0832902
 Total stall cycles: 60715986
 Total load stall cycles: 153637629189726
Unique Load IPs: 10875
CPU 0 NUM of IPS identified critical: 159
CPU 0 Num of Load IPs stalling ROB: 8334
Threshold modification factor: -1
Max PIST entries: 64
Min PIST entries: 0
Avg PIST entries: 31.96
Trouble in retire width: 0.91505
MaC = Marked as critical.
lt_50_percent_before_Mac: 105
gt_90_percent_before_Mac: 16
gt_75_percent_before_Mac: 21
gt_50_percent_before_Mac: 17
stall_proportion_bin_same_before_after: 0
stall_proportion_bin_lower_before_after: 0
stall_proportion_bin_upper_before_after: 0
average_stall_proportion_before: 0.0532003
average_stall_proportion_after: 0.0600211
Critical IP stalls, total frequency: 995071
Non-critical IP stalls, total frequency: 2057078
Total Freq all stalling IPs: 3052149
Critical_IP_Detector_Accuracy_70: 0.522013
Critical_IP_Detector_Accuracy_80: 0.710692
Critical_IP_Detector_Accuracy_90: 0.823899
Critical_IP_Detector_Coverage_70: 0.266881
Critical_IP_Detector_Coverage_80: 0.226
Critical_IP_Detector_Coverage_90: 0.141012
stat_90_percent_critical_ip_stalls_freq: 2747329
stat_90_percent_non_critical_ip_stalls_freq: 304820
AVERAGE_ROB_Occupancy_90_Percent_Critical_IP_Stalls: 93.9631
AVERAGE_ROB_Occupancy_90_Percent_Non_Critical_IP_Stalls: 70.9387
Critical_IP_ROB_Stalls_Bucket_0: 176347
Non-critical_IP_ROB_Stalls_Bucket_0: 1133639
Critical_IP_ROB_Stalls_Bucket_1: 227918
Non-critical_IP_ROB_Stalls_Bucket_1: 513282
Critical_IP_ROB_Stalls_Bucket_2: 212207
Non-critical_IP_ROB_Stalls_Bucket_2: 214840
Critical_IP_ROB_Stalls_Bucket_3: 142959
Non-critical_IP_ROB_Stalls_Bucket_3: 101493
Critical_IP_ROB_Stalls_Bucket_4: 65280
Non-critical_IP_ROB_Stalls_Bucket_4: 47352
Critical_IP_ROB_Stalls_Bucket_5: 34527
Non-critical_IP_ROB_Stalls_Bucket_5: 25048
Critical_IP_ROB_Stalls_Bucket_6: 135833
Non-critical_IP_ROB_Stalls_Bucket_6: 21424
0 => IPs accounting for >50 percent of stalls, 1 => 55, 2 => 60, 3 => 65 and so on till 90.
percent50: 50.1127 num IPs:  112
percent55: 55.0462 num IPs: 146
percent60: 60.0115 num IPs: 189
percent65: 65.0254 num IPs: 244
percent70: 70.0179 num IPs: 311
percent75: 75.0134 num IPs: 394
percent80: 80.0294 num IPs: 500
percent85: 85.0045 num IPs: 655
percent90: 90.013 num IPs: 929
Critical_ROB_Stalls_Percent_0_Bucket_0: 535552
Non-critical_ROB_Stalls_Percent_0_Bucket_0: 774434
Critical_ROB_Stalls_Percent_0_Bucket_1: 316312
Non-critical_ROB_Stalls_Percent_0_Bucket_1: 424888
Critical_ROB_Stalls_Percent_0_Bucket_2: 261675
Non-critical_ROB_Stalls_Percent_0_Bucket_2: 165372
Critical_ROB_Stalls_Percent_0_Bucket_3: 167401
Non-critical_ROB_Stalls_Percent_0_Bucket_3: 77051
Critical_ROB_Stalls_Percent_0_Bucket_4: 75771
Non-critical_ROB_Stalls_Percent_0_Bucket_4: 36861
Critical_ROB_Stalls_Percent_0_Bucket_5: 40182
Non-critical_ROB_Stalls_Percent_0_Bucket_5: 19393
Critical_ROB_Stalls_Percent_0_Bucket_6: 132619
Non-critical_ROB_Stalls_Percent_0_Bucket_6: 24638
Critical_ROB_Stalls_Percent_1_Bucket_0: 610819
Non-critical_ROB_Stalls_Percent_1_Bucket_0: 699167
Critical_ROB_Stalls_Percent_1_Bucket_1: 351218
Non-critical_ROB_Stalls_Percent_1_Bucket_1: 389982
Critical_ROB_Stalls_Percent_1_Bucket_2: 282557
Non-critical_ROB_Stalls_Percent_1_Bucket_2: 144490
Critical_ROB_Stalls_Percent_1_Bucket_3: 178291
Non-critical_ROB_Stalls_Percent_1_Bucket_3: 66161
Critical_ROB_Stalls_Percent_1_Bucket_4: 80808
Non-critical_ROB_Stalls_Percent_1_Bucket_4: 31824
Critical_ROB_Stalls_Percent_1_Bucket_5: 42310
Non-critical_ROB_Stalls_Percent_1_Bucket_5: 17265
Critical_ROB_Stalls_Percent_1_Bucket_6: 134087
Non-critical_ROB_Stalls_Percent_1_Bucket_6: 23170
Critical_ROB_Stalls_Percent_2_Bucket_0: 686854
Non-critical_ROB_Stalls_Percent_2_Bucket_0: 623132
Critical_ROB_Stalls_Percent_2_Bucket_1: 392791
Non-critical_ROB_Stalls_Percent_2_Bucket_1: 348409
Critical_ROB_Stalls_Percent_2_Bucket_2: 298245
Non-critical_ROB_Stalls_Percent_2_Bucket_2: 128802
Critical_ROB_Stalls_Percent_2_Bucket_3: 187808
Non-critical_ROB_Stalls_Percent_2_Bucket_3: 56644
Critical_ROB_Stalls_Percent_2_Bucket_4: 85082
Non-critical_ROB_Stalls_Percent_2_Bucket_4: 27550
Critical_ROB_Stalls_Percent_2_Bucket_5: 44824
Non-critical_ROB_Stalls_Percent_2_Bucket_5: 14751
Critical_ROB_Stalls_Percent_2_Bucket_6: 136035
Non-critical_ROB_Stalls_Percent_2_Bucket_6: 21222
Critical_ROB_Stalls_Percent_3_Bucket_0: 765731
Non-critical_ROB_Stalls_Percent_3_Bucket_0: 544255
Critical_ROB_Stalls_Percent_3_Bucket_1: 435466
Non-critical_ROB_Stalls_Percent_3_Bucket_1: 305734
Critical_ROB_Stalls_Percent_3_Bucket_2: 312935
Non-critical_ROB_Stalls_Percent_3_Bucket_2: 114112
Critical_ROB_Stalls_Percent_3_Bucket_3: 195472
Non-critical_ROB_Stalls_Percent_3_Bucket_3: 48980
Critical_ROB_Stalls_Percent_3_Bucket_4: 88506
Non-critical_ROB_Stalls_Percent_3_Bucket_4: 24126
Critical_ROB_Stalls_Percent_3_Bucket_5: 47606
Non-critical_ROB_Stalls_Percent_3_Bucket_5: 11969
Critical_ROB_Stalls_Percent_3_Bucket_6: 138955
Non-critical_ROB_Stalls_Percent_3_Bucket_6: 18302
Critical_ROB_Stalls_Percent_4_Bucket_0: 833484
Non-critical_ROB_Stalls_Percent_4_Bucket_0: 476502
Critical_ROB_Stalls_Percent_4_Bucket_1: 489878
Non-critical_ROB_Stalls_Percent_4_Bucket_1: 251322
Critical_ROB_Stalls_Percent_4_Bucket_2: 332652
Non-critical_ROB_Stalls_Percent_4_Bucket_2: 94395
Critical_ROB_Stalls_Percent_4_Bucket_3: 200333
Non-critical_ROB_Stalls_Percent_4_Bucket_3: 44119
Critical_ROB_Stalls_Percent_4_Bucket_4: 90804
Non-critical_ROB_Stalls_Percent_4_Bucket_4: 21828
Critical_ROB_Stalls_Percent_4_Bucket_5: 48810
Non-critical_ROB_Stalls_Percent_4_Bucket_5: 10765
Critical_ROB_Stalls_Percent_4_Bucket_6: 141088
Non-critical_ROB_Stalls_Percent_4_Bucket_6: 16169
Critical_ROB_Stalls_Percent_5_Bucket_0: 912661
Non-critical_ROB_Stalls_Percent_5_Bucket_0: 397325
Critical_ROB_Stalls_Percent_5_Bucket_1: 541182
Non-critical_ROB_Stalls_Percent_5_Bucket_1: 200018
Critical_ROB_Stalls_Percent_5_Bucket_2: 345055
Non-critical_ROB_Stalls_Percent_5_Bucket_2: 81992
Critical_ROB_Stalls_Percent_5_Bucket_3: 205693
Non-critical_ROB_Stalls_Percent_5_Bucket_3: 38759
Critical_ROB_Stalls_Percent_5_Bucket_4: 92623
Non-critical_ROB_Stalls_Percent_5_Bucket_4: 20009
Critical_ROB_Stalls_Percent_5_Bucket_5: 49741
Non-critical_ROB_Stalls_Percent_5_Bucket_5: 9834
Critical_ROB_Stalls_Percent_5_Bucket_6: 142565
Non-critical_ROB_Stalls_Percent_5_Bucket_6: 14692
Critical_ROB_Stalls_Percent_6_Bucket_0: 987882
Non-critical_ROB_Stalls_Percent_6_Bucket_0: 322104
Critical_ROB_Stalls_Percent_6_Bucket_1: 580793
Non-critical_ROB_Stalls_Percent_6_Bucket_1: 160407
Critical_ROB_Stalls_Percent_6_Bucket_2: 362629
Non-critical_ROB_Stalls_Percent_6_Bucket_2: 64418
Critical_ROB_Stalls_Percent_6_Bucket_3: 214751
Non-critical_ROB_Stalls_Percent_6_Bucket_3: 29701
Critical_ROB_Stalls_Percent_6_Bucket_4: 98779
Non-critical_ROB_Stalls_Percent_6_Bucket_4: 13853
Critical_ROB_Stalls_Percent_6_Bucket_5: 51889
Non-critical_ROB_Stalls_Percent_6_Bucket_5: 7686
Critical_ROB_Stalls_Percent_6_Bucket_6: 145891
Non-critical_ROB_Stalls_Percent_6_Bucket_6: 11366
Critical_ROB_Stalls_Percent_7_Bucket_0: 1069188
Non-critical_ROB_Stalls_Percent_7_Bucket_0: 240798
Critical_ROB_Stalls_Percent_7_Bucket_1: 622621
Non-critical_ROB_Stalls_Percent_7_Bucket_1: 118579
Critical_ROB_Stalls_Percent_7_Bucket_2: 377130
Non-critical_ROB_Stalls_Percent_7_Bucket_2: 49917
Critical_ROB_Stalls_Percent_7_Bucket_3: 221740
Non-critical_ROB_Stalls_Percent_7_Bucket_3: 22712
Critical_ROB_Stalls_Percent_7_Bucket_4: 101784
Non-critical_ROB_Stalls_Percent_7_Bucket_4: 10848
Critical_ROB_Stalls_Percent_7_Bucket_5: 53655
Non-critical_ROB_Stalls_Percent_7_Bucket_5: 5920
Critical_ROB_Stalls_Percent_7_Bucket_6: 148346
Non-critical_ROB_Stalls_Percent_7_Bucket_6: 8911
Critical_ROB_Stalls_Percent_8_Bucket_0: 1152464
Non-critical_ROB_Stalls_Percent_8_Bucket_0: 157522
Critical_ROB_Stalls_Percent_8_Bucket_1: 660374
Non-critical_ROB_Stalls_Percent_8_Bucket_1: 80826
Critical_ROB_Stalls_Percent_8_Bucket_2: 393781
Non-critical_ROB_Stalls_Percent_8_Bucket_2: 33266
Critical_ROB_Stalls_Percent_8_Bucket_3: 229223
Non-critical_ROB_Stalls_Percent_8_Bucket_3: 15229
Critical_ROB_Stalls_Percent_8_Bucket_4: 105115
Non-critical_ROB_Stalls_Percent_8_Bucket_4: 7517
Critical_ROB_Stalls_Percent_8_Bucket_5: 55618
Non-critical_ROB_Stalls_Percent_8_Bucket_5: 3957
Critical_ROB_Stalls_Percent_8_Bucket_6: 150754
Non-critical_ROB_Stalls_Percent_8_Bucket_6: 6503
Average ROB occupancy Load Stall Begin: 81.8209
Average ROB occupancy Load Stall End: 91.6636
Min ROB occupancy Load Stall Begin: 1
Max ROB occupancy Load Stall Begin: 352
Min ROB occupancy Load Stall End: 1
Max ROB occupancy Load Stall End: 352
Average ROB occupancy Critical Load Stall Begin: 148.468
Average ROB occupancy Critical Load Stall End: 157.378
Min ROB occupancy Critical Load Stall Begin: 2
Max ROB occupancy Critical Load Stall Begin: 352
Min ROB occupancy Critical Load Stall End: 2
Max ROB occupancy Critical Load Stall End: 352
 ROB Load Stall Begin Bucket Count 0: 1579478
 ROB Load Stall End Bucket Count 0: 1309986
 ROB Critical Load Stall Begin Bucket Count 0: 151430
 ROB Critical Load Stall End Bucket Count 0: 104058
 ROB Load Stall Begin Bucket Count 1: 601036
 ROB Load Stall End Bucket Count 1: 741200
 ROB Critical Load Stall Begin Bucket Count 1: 158990
 ROB Critical Load Stall End Bucket Count 1: 170605
 ROB Load Stall Begin Bucket Count 2: 372161
 ROB Load Stall End Bucket Count 2: 427047
 ROB Critical Load Stall Begin Bucket Count 2: 174166
 ROB Critical Load Stall End Bucket Count 2: 181114
 ROB Load Stall Begin Bucket Count 3: 206376
 ROB Load Stall End Bucket Count 3: 244452
 ROB Critical Load Stall Begin Bucket Count 3: 113561
 ROB Critical Load Stall End Bucket Count 3: 127926
 ROB Load Stall Begin Bucket Count 4: 94501
 ROB Load Stall End Bucket Count 4: 112632
 ROB Critical Load Stall Begin Bucket Count 4: 49799
 ROB Critical Load Stall End Bucket Count 4: 56965
 ROB Load Stall Begin Bucket Count 5: 51311
 ROB Load Stall End Bucket Count 5: 59575
 ROB Critical Load Stall Begin Bucket Count 5: 28612
 ROB Critical Load Stall End Bucket Count 5: 31086
 ROB Load Stall Begin Bucket Count 6: 147286
 ROB Load Stall End Bucket Count 6: 157257
 ROB Critical Load Stall Begin Bucket Count 6: 122569
 ROB Critical Load Stall End Bucket Count 6: 127373
PIST Tag Read Accesses: 2495602
PIST Read Accesses: 1247801
PIST Tag Write Accesses: 2495602
PIST Write Accesses: 1247801
Criticality detector called times: 2259044
Max global_stall_cycles_count: 5086409
Threshold Modified: 1 times, factor: -1
Sturdy critical IP cache stats: 
 Unused entries: 0
CIC Tag Read Accesses: 0
CIC Read Accesses: 0
CIC Tag Write Accesses: 0
CIC Write Accesses: 0
Wobbly critical IP cache stats: 
 Unused entries: 18
CIC Tag Read Accesses: 83210574
CIC Read Accesses: 0
CIC Tag Write Accesses: 194703
CIC Write Accesses: 0
ITLB TOTAL     ACCESS:    8230018  HIT:    8140651  MISS:      89367  HIT %:    98.9141  MISS %:    1.08587   MPKI: 1.78734
ITLB LOAD TRANSLATION ACCESS:    7754552  HIT:    7748744  MISS:       5808  HIT %:    99.9251  MISS %:  0.0748979   MPKI: 0.11616
ITLB TRANSLATION FROM L1D PREFETCHER ACCESS:     475466  HIT:     391907  MISS:      83559  HIT %:    82.4259  MISS %:    17.5741   MPKI: 1.67118
ITLBprefetch_cycle_count: 0 prefetches_per_prefetch_cycle: -nan
ITLB PREFETCH  REQUESTED:          0  ISSUED:          0  USEFUL:      61554  USELESS:      21998
ITLB USEFUL LOAD PREFETCHES:      61554 PREFETCH ISSUED TO LOWER LEVEL:          0  ACCURACY: inf
ITLB TIMELY PREFETCHES:      61554 LATE PREFETCHES: 25 DROPPED PREFETCHES: 2
ITLB PREFETCHES SAME FILL-ORIGIN LEVEL: 0 DIFFERENT FILL-ORIGIN LEVEL: 0
ITLB AVERAGE MISS LATENCY: 17691.3 cycles
ITLB RQ	ACCESS:   10766362	FORWARD:          0	MERGED:    2532730	TO_CACHE:    8233632

DTLB TOTAL     ACCESS:   11116058  HIT:   10852971  MISS:     263087  HIT %:    97.6333  MISS %:    2.36673   MPKI: 5.26174
DTLB LOAD TRANSLATION ACCESS:   11116058  HIT:   10852971  MISS:     263087  HIT %:    97.6333  MISS %:    2.36673   MPKI: 5.26174
DTLBprefetch_cycle_count: 0 prefetches_per_prefetch_cycle: -nan
DTLB PREFETCH  REQUESTED:          0  ISSUED:          0  USEFUL:          0  USELESS:          0
DTLB USEFUL LOAD PREFETCHES:          0 PREFETCH ISSUED TO LOWER LEVEL:          0  ACCURACY: -nan
DTLB TIMELY PREFETCHES:          0 LATE PREFETCHES: 0 DROPPED PREFETCHES: 0
DTLB PREFETCHES SAME FILL-ORIGIN LEVEL: 0 DIFFERENT FILL-ORIGIN LEVEL: 0
DTLB AVERAGE MISS LATENCY: 10.5826 cycles
DTLB RQ	ACCESS:   13250019	FORWARD:          0	MERGED:    2122019	TO_CACHE:   11128000

STLB TOTAL     ACCESS:     550465  HIT:     546360  MISS:       4105  HIT %:    99.2543  MISS %:   0.745733   MPKI: 0.0821
STLB LOAD TRANSLATION ACCESS:     268870  HIT:     265192  MISS:       3678  HIT %:    98.6321  MISS %:    1.36795   MPKI: 0.07356
STLB TRANSLATION FROM L1D PREFETCHER ACCESS:     281595  HIT:     281168  MISS:        427  HIT %:    99.8484  MISS %:   0.151636   MPKI: 0.00854
STLBprefetch_cycle_count: 0 prefetches_per_prefetch_cycle: -nan
STLB PREFETCH  REQUESTED:          0  ISSUED:          0  USEFUL:        367  USELESS:         55
STLB USEFUL LOAD PREFETCHES:        367 PREFETCH ISSUED TO LOWER LEVEL:          0  ACCURACY: inf
STLB TIMELY PREFETCHES:        367 LATE PREFETCHES: 0 DROPPED PREFETCHES: 2
STLB PREFETCHES SAME FILL-ORIGIN LEVEL: 0 DIFFERENT FILL-ORIGIN LEVEL: 0
STLB AVERAGE MISS LATENCY: 132.991 cycles
STLB RQ	ACCESS:     616480	FORWARD:          0	MERGED:      66013	TO_CACHE:     550467

STLB Hit, L1D data hit: 0
STLB Hit, L2C data hit: 0
STLB Hit, LLC data hit: 0
STLB Hit, LLC data miss: 0
STLB STLB hints to L2: 0
L1D TOTAL     ACCESS:   13357361  HIT:   12834309  MISS:     523052  HIT %:    96.0842  MISS %:    3.91583   MPKI: 10.461
L1D LOAD      ACCESS:    9070146  HIT:    8722794  MISS:     347352  HIT %:    96.1704  MISS %:    3.82962   MPKI: 6.94704
L1D RFO       ACCESS:    4030713  HIT:    3973383  MISS:      57330  HIT %:    98.5777  MISS %:    1.42233   MPKI: 1.1466
L1D PREFETCH  ACCESS:     256502  HIT:     138132  MISS:     118370  HIT %:    53.8522  MISS %:    46.1478   MPKI: 2.3674
L1Dprefetch_cycle_count: 199696 prefetches_per_prefetch_cycle: 2.64457
L1D PREFETCH  REQUESTED:     528131  ISSUED:     528111  USEFUL:      40085  USELESS:      78304
L1D USEFUL LOAD PREFETCHES:      40085 PREFETCH ISSUED TO LOWER LEVEL:     122072  ACCURACY: 32.8372
L1D TIMELY PREFETCHES:      40085 LATE PREFETCHES: 3051 DROPPED PREFETCHES: 0
L1D PREFETCHES SAME FILL-ORIGIN LEVEL: 122072 DIFFERENT FILL-ORIGIN LEVEL: 0
L1D AVERAGE MISS LATENCY: 426588 cycles
L1D RQ	ACCESS:   13264943	FORWARD:          0	MERGED:    4080582	TO_CACHE:    9124213
L1D WQ	ACCESS:    4203142	FORWARD:      60211	MERGED:      77336	TO_CACHE:    4125806
L1D PQ	ACCESS:     264087	FORWARD:          0	MERGED:          0	TO_CACHE:     264024

L1D UNIQUE REGIONS ACCESSED: 0
L1D REGIONS CONFLICTS: 0
L1D Cross Page Prefetch Requests: 0
L1D Same Page Prefetch Requests: 285590
L1D ROI Sum of L1D PQ occupancy: 3462813
L1D PREFETCHES PUSHED FROM L2C: 0
L1I TOTAL     ACCESS:   10757557  HIT:   10304054  MISS:     453503  HIT %:    95.7843  MISS %:    4.21567   MPKI: 9.07006
L1I LOAD      ACCESS:    9464980  HIT:    9452642  MISS:      12338  HIT %:    99.8696  MISS %:   0.130354   MPKI: 0.24676
L1I PREFETCH  ACCESS:    1292577  HIT:     851412  MISS:     441165  HIT %:    65.8693  MISS %:    34.1307   MPKI: 8.8233
L1Iprefetch_cycle_count: 0 prefetches_per_prefetch_cycle: inf
L1I PREFETCH  REQUESTED:    1318937  ISSUED:    1316268  USEFUL:     313897  USELESS:     127247
L1I USEFUL LOAD PREFETCHES:     313897 PREFETCH ISSUED TO LOWER LEVEL:     443910  ACCURACY: 70.7119
L1I TIMELY PREFETCHES:     313897 LATE PREFETCHES: 2745 DROPPED PREFETCHES: 2
L1I PREFETCHES SAME FILL-ORIGIN LEVEL: 443910 DIFFERENT FILL-ORIGIN LEVEL: 0
L1I AVERAGE MISS LATENCY: 311416 cycles
L1I RQ	ACCESS:   13832096	FORWARD:          0	MERGED:    4364370	TO_CACHE:    9467726
L1I PQ	ACCESS:    1316268	FORWARD:          0	MERGED:      17632	TO_CACHE:    1298636

BTB TOTAL     ACCESS:    6247434  HIT:    5990703  MISS:     256731  HIT %:    95.8906  MISS %:    4.10938   MPKI: 5.13462
BTB BRANCH_DIRECT_JUMP	ACCESS:     455615  HIT:     454212  MISS:       1403
BTB BRANCH_INDIRECT	ACCESS:      20390  HIT:      13969  MISS:       6421
BTB BRANCH_CONDITIONAL	ACCESS:    4324523  HIT:    4321097  MISS:       3426
BTB BRANCH_DIRECT_CALL	ACCESS:     494532  HIT:     492733  MISS:       1799
BTB BRANCH_INDIRECT_CALL	ACCESS:     228815  HIT:     173167  MISS:      55648
BTB BRANCH_RETURN	ACCESS:     723559  HIT:     535525  MISS:     188034
BTB BRANCH_OTHER ACCESS:          0  HIT:          0  MISS:          0

L2C TOTAL     ACCESS:    1137792  HIT:     867925  MISS:     269867  HIT %:    76.2815  MISS %:    23.7185   MPKI: 5.39734
L2C LOAD      ACCESS:     353885  HIT:     179956  MISS:     173929  HIT %:    50.8515  MISS %:    49.1485   MPKI: 3.47858
L2C DATA LOAD MPKI: 3.41288
L2C INSTRUCTION LOAD MPKI: 0.0657
L2C RFO       ACCESS:      56678  HIT:      18846  MISS:      37832  HIT %:     33.251  MISS %:     66.749   MPKI: 0.75664
L2C PREFETCH  ACCESS:     565982  HIT:     511722  MISS:      54260  HIT %:    90.4131  MISS %:    9.58688   MPKI: 1.0852
L2C DATA PREFETCH MPKI: 0.7748
L2C INSTRUCTION PREFETCH MPKI: 0.3104
L2C WRITEBACK ACCESS:     156892  HIT:     154875  MISS:       2017  HIT %:    98.7144  MISS %:     1.2856   MPKI: 0.04034
L2C LOAD TRANSLATION ACCESS:       3870  HIT:       2337  MISS:       1533  HIT %:    60.3876  MISS %:    39.6124   MPKI: 0.03066
L2C TRANSLATION FROM L1D PREFETCHER ACCESS:        485  HIT:        189  MISS:        296  HIT %:    38.9691  MISS %:    61.0309   MPKI: 0.00592
L2Cprefetch_cycle_count: 0 prefetches_per_prefetch_cycle: -nan
L2C PREFETCH  REQUESTED:          0  ISSUED:          0  USEFUL:       7429  USELESS:      45149
L2C USEFUL LOAD PREFETCHES:       7429 PREFETCH ISSUED TO LOWER LEVEL:      54260  ACCURACY: 13.6915
L2C TIMELY PREFETCHES:       7429 LATE PREFETCHES: 0 DROPPED PREFETCHES: 0
L2C PREFETCHES SAME FILL-ORIGIN LEVEL: 0 DIFFERENT FILL-ORIGIN LEVEL: 0
L2C AVERAGE MISS LATENCY: 118.772 cycles
L2C RQ	ACCESS:     414928	FORWARD:          0	MERGED:          0	TO_CACHE:     414918
L2C WQ	ACCESS:     156892	FORWARD:         10	MERGED:          0	TO_CACHE:     156892
L2C PQ	ACCESS:     565982	FORWARD:          0	MERGED:          0	TO_CACHE:     565982

L2C Instructions Evicting Data 16482
L2C Translations Evicting Data 1578
L2C Data Evicting Data 231192
L2C Instructions Evicting Instructions 2115
L2C Translations Evicting Instructions 224
L2C Data Evicting Instructions 14573
L2C Instructions Evicting Translations 208
L2C Translations Evicting Translations 27
L2C Data Evicting Translations 1451
L2C Dense regions hint from L2: 0
PSCL5 TOTAL     ACCESS:       4107  HIT:       4107  MISS:          0  HIT %:        100  MISS %:          0   MPKI: 0
PSCL5 LOAD TRANSLATION ACCESS:       3678  HIT:       3678  MISS:          0  HIT %:        100  MISS %:          0   MPKI: 0
PSCL5 TRANSLATION FROM L1D PREFETCHER ACCESS:        429  HIT:        429  MISS:          0  HIT %:        100  MISS %:          0   MPKI: 0
PSCL5prefetch_cycle_count: 0 prefetches_per_prefetch_cycle: -nan
PSCL5 PREFETCH  REQUESTED:          0  ISSUED:          0  USEFUL:          0  USELESS:          0
PSCL5 USEFUL LOAD PREFETCHES:          0 PREFETCH ISSUED TO LOWER LEVEL:          0  ACCURACY: -nan
PSCL5 TIMELY PREFETCHES:          0 LATE PREFETCHES: 0 DROPPED PREFETCHES: 0
PSCL5 PREFETCHES SAME FILL-ORIGIN LEVEL: 0 DIFFERENT FILL-ORIGIN LEVEL: 0

PSCL4 TOTAL     ACCESS:       4038  HIT:       4034  MISS:          4  HIT %:    99.9009  MISS %:  0.0990589   MPKI: 8e-05
PSCL4 LOAD TRANSLATION ACCESS:       3616  HIT:       3612  MISS:          4  HIT %:    99.8894  MISS %:   0.110619   MPKI: 8e-05
PSCL4 TRANSLATION FROM L1D PREFETCHER ACCESS:        422  HIT:        422  MISS:          0  HIT %:        100  MISS %:          0   MPKI: 0
PSCL4prefetch_cycle_count: 0 prefetches_per_prefetch_cycle: -nan
PSCL4 PREFETCH  REQUESTED:          0  ISSUED:          0  USEFUL:          0  USELESS:          0
PSCL4 USEFUL LOAD PREFETCHES:          0 PREFETCH ISSUED TO LOWER LEVEL:          0  ACCURACY: -nan
PSCL4 TIMELY PREFETCHES:          0 LATE PREFETCHES: 0 DROPPED PREFETCHES: 0
PSCL4 PREFETCHES SAME FILL-ORIGIN LEVEL: 0 DIFFERENT FILL-ORIGIN LEVEL: 0

PSCL3 TOTAL     ACCESS:       4032  HIT:       4021  MISS:         11  HIT %:    99.7272  MISS %:   0.272817   MPKI: 0.00022
PSCL3 LOAD TRANSLATION ACCESS:       3608  HIT:       3597  MISS:         11  HIT %:    99.6951  MISS %:   0.304878   MPKI: 0.00022
PSCL3 TRANSLATION FROM L1D PREFETCHER ACCESS:        424  HIT:        424  MISS:          0  HIT %:        100  MISS %:          0   MPKI: 0
PSCL3prefetch_cycle_count: 0 prefetches_per_prefetch_cycle: -nan
PSCL3 PREFETCH  REQUESTED:          0  ISSUED:          0  USEFUL:          0  USELESS:          0
PSCL3 USEFUL LOAD PREFETCHES:          0 PREFETCH ISSUED TO LOWER LEVEL:          0  ACCURACY: -nan
PSCL3 TIMELY PREFETCHES:          0 LATE PREFETCHES: 0 DROPPED PREFETCHES: 0
PSCL3 PREFETCHES SAME FILL-ORIGIN LEVEL: 0 DIFFERENT FILL-ORIGIN LEVEL: 0

PSCL2 TOTAL     ACCESS:       4107  HIT:       3869  MISS:        238  HIT %:     94.205  MISS %:    5.79498   MPKI: 0.00476
PSCL2 LOAD TRANSLATION ACCESS:       3731  HIT:       3493  MISS:        238  HIT %:     93.621  MISS %:    6.37899   MPKI: 0.00476
PSCL2 TRANSLATION FROM L1D PREFETCHER ACCESS:        376  HIT:        376  MISS:          0  HIT %:        100  MISS %:          0   MPKI: 0
PSCL2prefetch_cycle_count: 0 prefetches_per_prefetch_cycle: -nan
PSCL2 PREFETCH  REQUESTED:          0  ISSUED:          0  USEFUL:          0  USELESS:          0
PSCL2 USEFUL LOAD PREFETCHES:          0 PREFETCH ISSUED TO LOWER LEVEL:          0  ACCURACY: -nan
PSCL2 TIMELY PREFETCHES:          0 LATE PREFETCHES: 0 DROPPED PREFETCHES: 0
PSCL2 PREFETCHES SAME FILL-ORIGIN LEVEL: 0 DIFFERENT FILL-ORIGIN LEVEL: 0

LLC TOTAL     ACCESS:     365774  HIT:     218295  MISS:     147479  HIT %:    59.6803  MISS %:    40.3197   MPKI: 2.94958
LLC LOAD      ACCESS:     173929  HIT:      89123  MISS:      84806  HIT %:     51.241  MISS %:     48.759   MPKI: 1.69612
LLC RFO       ACCESS:      37832  HIT:       5536  MISS:      32296  HIT %:    14.6331  MISS %:    85.3669   MPKI: 0.64592
LLC PREFETCH  ACCESS:      54260  HIT:      31586  MISS:      22674  HIT %:    58.2123  MISS %:    41.7877   MPKI: 0.45348
LLC WRITEBACK ACCESS:      97924  HIT:      91503  MISS:       6421  HIT %:    93.4429  MISS %:    6.55713   MPKI: 0.12842
LLC LOAD TRANSLATION ACCESS:       1533  HIT:        476  MISS:       1057  HIT %:    31.0502  MISS %:    68.9498   MPKI: 0.02114
LLC TRANSLATION FROM L1D PREFETCHER ACCESS:        296  HIT:         71  MISS:        225  HIT %:    23.9865  MISS %:    76.0135   MPKI: 0.0045
LLCprefetch_cycle_count: 0 prefetches_per_prefetch_cycle: -nan
LLC PREFETCH  REQUESTED:          0  ISSUED:          0  USEFUL:       4233  USELESS:      16323
LLC USEFUL LOAD PREFETCHES:       4233 PREFETCH ISSUED TO LOWER LEVEL:      22674  ACCURACY: 18.669
LLC TIMELY PREFETCHES:       4233 LATE PREFETCHES: 0 DROPPED PREFETCHES: 0
LLC PREFETCHES SAME FILL-ORIGIN LEVEL: 0 DIFFERENT FILL-ORIGIN LEVEL: 0
LLC AVERAGE MISS LATENCY: 162.554 cycles
LLC RQ	ACCESS:     213590	FORWARD:          0	MERGED:          0	TO_CACHE:     213590
LLC WQ	ACCESS:      97924	FORWARD:          0	MERGED:          0	TO_CACHE:      97924
LLC PQ	ACCESS:      54260	FORWARD:          0	MERGED:          0	TO_CACHE:      54260

LLC Dense regions hint to LLC: 0

RAW hits: 957058
Loads Generated: 14222002
Loads sent to L1D: 13264943
Stores Generated: 4203141
Stores sent to L1D: 4203142
Major fault: 0 Minor fault: 3508
Allocated PAGES: 3508
I-Shadow cache 408 bytes
Touched + WorthPF tables 6144 bytes 
MMA filter 174 bytes 
FNL filter 272 bytes 
TOTAL PREFETCHER STORAGE SIZE: 25174 bytes
CPU 0 L1I next line prefetcher final stats

total_pref_operate_instances_l1: 1482268
dynamic_config_counter_instances_1: 1207653
dynamic_config_counter_instances_2: 20071
dynamic_config_counter_instances_3: 11625
dynamic_config_counter_instances_4: 4131
dynamic_config_counter_instances_5: 238788
stream: 
stream:times selected: 364953
stream:pref_filled: 55274
stream:pref_useful: 14181
stream:pref_late: 1707
stream:misses: 5691
stream:misses_by_poll: 0

CS: 
CS:times selected: 34430
CS:pref_filled: 19038
CS:pref_useful: 13657
CS:pref_late: 108
CS:misses: 4269
CS:misses_by_poll: 34

CPLX: 
CPLX:times selected: 328381
CPLX:pref_filled: 27667
CPLX:pref_useful: 8436
CPLX:pref_late: 603
CPLX:misses: 49071
CPLX:misses_by_poll: 47

NL_L1: 
NL:times selected: 81971
NL:pref_filled: 30631
NL:pref_useful: 6864
NL:pref_late: 611
NL:misses: 25523
NL:misses_by_poll: 88

total selections: 809735
total_filled: 118370
total_useful: 40085
total_late: 3419
total_polluted: 169
total_misses_after_warmup: 112801
conflicts: 160777
Degree Incremented Times: 216
Degree Decremented Times: 9477

L1 IP Table Write Accesses: 1161241
L1 IP Table Read Accesses: 1000464
L1 RST Write Accesses: 342973
L1 RST Read Accesses: 685946
L1 CSPT Write Accesses: 342973
L1 CSPT Read Accesses: 650242
L1 RR Filter Tag Write Accesses: 264107
L1 RR Filter Tag Read Accesses: 11767106
L1 IP Table Tag Write Accesses: 1482268
L1 IP Table Tag Read Accesses: 1482268
L1 RST Tag Write Accesses: 0
L1 RST Tag Read Accesses: 2995876
L1 RR Filter Write Accesses: 0
L1 RR Filter Read Accesses: 418269
test: 124703

DRAM Statistics
 CHANNEL 0
 RQ ROW_BUFFER_HIT:      35323  ROW_BUFFER_MISS:     105730
 DBUS_CONGESTED:         62
 WQ ROW_BUFFER_HIT:      12699  ROW_BUFFER_MISS:      64554  FULL:          0

 AVG_CONGESTED_CYCLE: 5
 All warmup complete: 2
Channel 0 Bank busy for read cycles: 0
Channel 0 Bank busy for write cycles: 0
Channel 0
Rank 0
0banks busy for read cycles: 54272892
0banks busy for write cycles: 31508
1banks busy for read cycles: 8379815
1banks busy for write cycles: 4366667
2banks busy for read cycles: 2027140
2banks busy for write cycles: 1433357
3banks busy for read cycles: 656440
3banks busy for write cycles: 566643
4banks busy for read cycles: 209457
4banks busy for write cycles: 270157
5banks busy for read cycles: 125780
5banks busy for write cycles: 153458
6banks busy for read cycles: 95217
6banks busy for write cycles: 97861
7banks busy for read cycles: 61300
7banks busy for write cycles: 106190
8banks busy for read cycles: 106595
8banks busy for write cycles: 329059

CPU 0 Branch Prediction Accuracy: 97.9037% MPKI: 3.63418 Average ROB Occupancy at Mispredict: 63.8857
Branch types
NOT_BRANCH: 41331374 82.6627%
BRANCH_DIRECT_JUMP: 455615 0.91123%
BRANCH_INDIRECT: 20390 0.04078%
BRANCH_CONDITIONAL: 6745373 13.4907%
BRANCH_DIRECT_CALL: 494532 0.989064%
BRANCH_INDIRECT_CALL: 228815 0.45763%
BRANCH_RETURN: 723559 1.44712%
BRANCH_OTHER: 0 0%

DRAM PAGES: 1048576
Allocated PAGES: 3508
