Initialize SIGNATURE TABLE
ST_SET: 1
ST_WAY: 256
ST_TAG_BIT: 16
ST_TAG_MASK: ffff

Initialize PATTERN TABLE
PT_SET: 512
PT_WAY: 4
SIG_DELTA_BIT: 7
C_SIG_BIT: 4
C_DELTA_BIT: 4

Initialize PREFETCH FILTER
FILTER_SET: 1024

*** ChampSim Multicore Out-of-Order Simulator ***

Warmup Instructions: 50000000
Simulation Instructions: 50000000
Number of CPUs: 1
LLC sets: 2048
LLC ways: 16
Off-chip DRAM Size: 4096 MB Channels: 1 Width: 64-bit Data Rate: 6400 MT/s
CPU 0 runs ../IPC-traces//client_007.champsimtrace.xz
.xz
NUM_OF_IPS_IN_CRITICAL_IP_TRAINING: 64
NUM_OF_CRITICAL_IP_TRAINING_TABLE_WAYS: 2
NUM_OF_CRITICAL_IP_TRAINING_TABLE_SETS: 32
WOBBLY_CRITICAL_IP_CACHE_SETS: 32
WOBBLY_CRITICAL_IP_CACHE_WAYS: 4
BTB has LRU replacement policy
ITLB has LRU replacement policy
DTLB has LRU replacement policy
STLB has LRU replacement policy
CPU 0 L1I next line prefetcher
L1I has LRU replacement policy
L1D has LRU replacement policy
Initialize SRRIP state for L2C
Initialize DRRIP state for LLC
Heartbeat CPU 0 instructions: 10000003 cycles: 3033836 heartbeat IPC: 3.29616 cumulative IPC: 3.29616 (Simulation time: 0 hr 3 min 14 sec) 
Heartbeat CPU 0 instructions: 20000003 cycles: 5975501 heartbeat IPC: 3.39944 cumulative IPC: 3.347 (Simulation time: 0 hr 5 min 33 sec) 
Heartbeat CPU 0 instructions: 30000000 cycles: 9156730 heartbeat IPC: 3.14344 cumulative IPC: 3.27628 (Simulation time: 0 hr 8 min 5 sec) 
Heartbeat CPU 0 instructions: 40000003 cycles: 12444515 heartbeat IPC: 3.04156 cumulative IPC: 3.21427 (Simulation time: 0 hr 10 min 7 sec) 
Heartbeat CPU 0 instructions: 50000001 cycles: 15345809 heartbeat IPC: 3.44674 cumulative IPC: 3.25822 (Simulation time: 0 hr 11 min 52 sec) 

Warmup complete CPU 0 instructions: 50000001 cycles: 15345809 (Simulation time: 0 hr 11 min 52 sec) 

Heartbeat CPU 0 instructions: 60000003 cycles: 28451736 heartbeat IPC: 0.763014 cumulative IPC: 0.763014 (Simulation time: 0 hr 14 min 19 sec) 
Heartbeat CPU 0 instructions: 70000003 cycles: 45282432 heartbeat IPC: 0.594153 cumulative IPC: 0.668078 (Simulation time: 0 hr 16 min 55 sec) 
Heartbeat CPU 0 instructions: 80000001 cycles: 55646511 heartbeat IPC: 0.964871 cumulative IPC: 0.744404 (Simulation time: 0 hr 19 min 5 sec) 
Heartbeat CPU 0 instructions: 90000001 cycles: 69979129 heartbeat IPC: 0.697709 cumulative IPC: 0.732154 (Simulation time: 0 hr 21 min 23 sec) 
Heartbeat CPU 0 instructions: 100000000 cycles: 86540716 heartbeat IPC: 0.603807 cumulative IPC: 0.702297 (Simulation time: 0 hr 23 min 28 sec) 
Finished CPU 0 instructions: 50000001 cycles: 71194908 cumulative IPC: 0.702297 (Simulation time: 0 hr 23 min 28 sec) 

ChampSim completed all CPUs

Region of Interest Statistics

CPU 0 cumulative IPC: 0.702297 instructions: 50000001 cycles: 71194908

CPU 0 Average Load ROB stall cycles: 1.86986e+07
CPU 0 Fraction of times ROB stalled by Loads: 39.0252
CPU 0 Percentage of Load stall cycles in Total stall cycles: 2.36255e+08
Issued all: 30498513
Issued LT all: 25077135
rob_not_full_when_issued_lt_all: 18634819
Issued LT one: 19360570
rob_not_full_when_issued_lt_one: 14277596
 Total stall cycles: 58707842
 Total load stall cycles: 138700291269443
CPU 0 NUM of IPS identified critical: 0
CPU 0 Num of Load IPs stalling ROB: 12193
Threshold modification factor: 0
Max PIST entries: 64
Min PIST entries: 0
Avg PIST entries: 30.34
Trouble in retire width: 0.905789
MaC = Marked as critical.
lt_50_percent_before_Mac: 0
gt_90_percent_before_Mac: 0
gt_75_percent_before_Mac: 0
gt_50_percent_before_Mac: 0
stall_proportion_bin_same_before_after: 0
stall_proportion_bin_lower_before_after: 0
stall_proportion_bin_upper_before_after: 0
average_stall_proportion_before: -nan
average_stall_proportion_after: -nan
Critical IP stalls, total frequency: 0
Non-critical IP stalls, total frequency: 2894764
Total Freq all stalling IPs: 2894764
stat_90_percent_critical_ip_stalls_freq: 2605391
stat_90_percent_non_critical_ip_stalls_freq: 289373
Critical_IP_ROB_Stalls_Bucket_0: 0
Non-critical_IP_ROB_Stalls_Bucket_0: 1052157
Critical_IP_ROB_Stalls_Bucket_1: 0
Non-critical_IP_ROB_Stalls_Bucket_1: 795576
Critical_IP_ROB_Stalls_Bucket_2: 0
Non-critical_IP_ROB_Stalls_Bucket_2: 385022
Critical_IP_ROB_Stalls_Bucket_3: 0
Non-critical_IP_ROB_Stalls_Bucket_3: 195540
Critical_IP_ROB_Stalls_Bucket_4: 0
Non-critical_IP_ROB_Stalls_Bucket_4: 83232
Critical_IP_ROB_Stalls_Bucket_5: 0
Non-critical_IP_ROB_Stalls_Bucket_5: 49046
Critical_IP_ROB_Stalls_Bucket_6: 0
Non-critical_IP_ROB_Stalls_Bucket_6: 334191
0 => IPs accounting for >50 percent of stalls, 1 => 55, 2 => 60, 3 => 65 and so on till 90.
percent50: 50.091 num IPs:  117
percent55: 55.012 num IPs: 159
percent60: 60.0044 num IPs: 215
percent65: 65.0395 num IPs: 289
percent70: 70.0197 num IPs: 389
percent75: 75.0083 num IPs: 527
percent80: 80.0083 num IPs: 722
percent85: 85.0105 num IPs: 973
percent90: 90.0037 num IPs: 1364
Critical_ROB_Stalls_Percent_0_Bucket_0: 324137
Non-critical_ROB_Stalls_Percent_0_Bucket_0: 728020
Critical_ROB_Stalls_Percent_0_Bucket_1: 343192
Non-critical_ROB_Stalls_Percent_0_Bucket_1: 452384
Critical_ROB_Stalls_Percent_0_Bucket_2: 250511
Non-critical_ROB_Stalls_Percent_0_Bucket_2: 134511
Critical_ROB_Stalls_Percent_0_Bucket_3: 146749
Non-critical_ROB_Stalls_Percent_0_Bucket_3: 48791
Critical_ROB_Stalls_Percent_0_Bucket_4: 57422
Non-critical_ROB_Stalls_Percent_0_Bucket_4: 25810
Critical_ROB_Stalls_Percent_0_Bucket_5: 34343
Non-critical_ROB_Stalls_Percent_0_Bucket_5: 14703
Critical_ROB_Stalls_Percent_0_Bucket_6: 293661
Non-critical_ROB_Stalls_Percent_0_Bucket_6: 40530
Critical_ROB_Stalls_Percent_1_Bucket_0: 386931
Non-critical_ROB_Stalls_Percent_1_Bucket_0: 665226
Critical_ROB_Stalls_Percent_1_Bucket_1: 394598
Non-critical_ROB_Stalls_Percent_1_Bucket_1: 400978
Critical_ROB_Stalls_Percent_1_Bucket_2: 264627
Non-critical_ROB_Stalls_Percent_1_Bucket_2: 120395
Critical_ROB_Stalls_Percent_1_Bucket_3: 152715
Non-critical_ROB_Stalls_Percent_1_Bucket_3: 42825
Critical_ROB_Stalls_Percent_1_Bucket_4: 59941
Non-critical_ROB_Stalls_Percent_1_Bucket_4: 23291
Critical_ROB_Stalls_Percent_1_Bucket_5: 36252
Non-critical_ROB_Stalls_Percent_1_Bucket_5: 12794
Critical_ROB_Stalls_Percent_1_Bucket_6: 297403
Non-critical_ROB_Stalls_Percent_1_Bucket_6: 36788
Critical_ROB_Stalls_Percent_2_Bucket_0: 456800
Non-critical_ROB_Stalls_Percent_2_Bucket_0: 595357
Critical_ROB_Stalls_Percent_2_Bucket_1: 444342
Non-critical_ROB_Stalls_Percent_2_Bucket_1: 351234
Critical_ROB_Stalls_Percent_2_Bucket_2: 275787
Non-critical_ROB_Stalls_Percent_2_Bucket_2: 109235
Critical_ROB_Stalls_Percent_2_Bucket_3: 157597
Non-critical_ROB_Stalls_Percent_2_Bucket_3: 37943
Critical_ROB_Stalls_Percent_2_Bucket_4: 62232
Non-critical_ROB_Stalls_Percent_2_Bucket_4: 21000
Critical_ROB_Stalls_Percent_2_Bucket_5: 37220
Non-critical_ROB_Stalls_Percent_2_Bucket_5: 11826
Critical_ROB_Stalls_Percent_2_Bucket_6: 303008
Non-critical_ROB_Stalls_Percent_2_Bucket_6: 31183
Critical_ROB_Stalls_Percent_3_Bucket_0: 519666
Non-critical_ROB_Stalls_Percent_3_Bucket_0: 532491
Critical_ROB_Stalls_Percent_3_Bucket_1: 495027
Non-critical_ROB_Stalls_Percent_3_Bucket_1: 300549
Critical_ROB_Stalls_Percent_3_Bucket_2: 294527
Non-critical_ROB_Stalls_Percent_3_Bucket_2: 90495
Critical_ROB_Stalls_Percent_3_Bucket_3: 162736
Non-critical_ROB_Stalls_Percent_3_Bucket_3: 32804
Critical_ROB_Stalls_Percent_3_Bucket_4: 66452
Non-critical_ROB_Stalls_Percent_3_Bucket_4: 16780
Critical_ROB_Stalls_Percent_3_Bucket_5: 38746
Non-critical_ROB_Stalls_Percent_3_Bucket_5: 10300
Critical_ROB_Stalls_Percent_3_Bucket_6: 305585
Non-critical_ROB_Stalls_Percent_3_Bucket_6: 28606
Critical_ROB_Stalls_Percent_4_Bucket_0: 581315
Non-critical_ROB_Stalls_Percent_4_Bucket_0: 470842
Critical_ROB_Stalls_Percent_4_Bucket_1: 544884
Non-critical_ROB_Stalls_Percent_4_Bucket_1: 250692
Critical_ROB_Stalls_Percent_4_Bucket_2: 309144
Non-critical_ROB_Stalls_Percent_4_Bucket_2: 75878
Critical_ROB_Stalls_Percent_4_Bucket_3: 168362
Non-critical_ROB_Stalls_Percent_4_Bucket_3: 27178
Critical_ROB_Stalls_Percent_4_Bucket_4: 69447
Non-critical_ROB_Stalls_Percent_4_Bucket_4: 13785
Critical_ROB_Stalls_Percent_4_Bucket_5: 41242
Non-critical_ROB_Stalls_Percent_4_Bucket_5: 7804
Critical_ROB_Stalls_Percent_4_Bucket_6: 312512
Non-critical_ROB_Stalls_Percent_4_Bucket_6: 21679
Critical_ROB_Stalls_Percent_5_Bucket_0: 658220
Non-critical_ROB_Stalls_Percent_5_Bucket_0: 393937
Critical_ROB_Stalls_Percent_5_Bucket_1: 588009
Non-critical_ROB_Stalls_Percent_5_Bucket_1: 207567
Critical_ROB_Stalls_Percent_5_Bucket_2: 321704
Non-critical_ROB_Stalls_Percent_5_Bucket_2: 63318
Critical_ROB_Stalls_Percent_5_Bucket_3: 172343
Non-critical_ROB_Stalls_Percent_5_Bucket_3: 23197
Critical_ROB_Stalls_Percent_5_Bucket_4: 72774
Non-critical_ROB_Stalls_Percent_5_Bucket_4: 10458
Critical_ROB_Stalls_Percent_5_Bucket_5: 43060
Non-critical_ROB_Stalls_Percent_5_Bucket_5: 5986
Critical_ROB_Stalls_Percent_5_Bucket_6: 315204
Non-critical_ROB_Stalls_Percent_5_Bucket_6: 18987
Critical_ROB_Stalls_Percent_6_Bucket_0: 727831
Non-critical_ROB_Stalls_Percent_6_Bucket_0: 324326
Critical_ROB_Stalls_Percent_6_Bucket_1: 638769
Non-critical_ROB_Stalls_Percent_6_Bucket_1: 156807
Critical_ROB_Stalls_Percent_6_Bucket_2: 334246
Non-critical_ROB_Stalls_Percent_6_Bucket_2: 50776
Critical_ROB_Stalls_Percent_6_Bucket_3: 176861
Non-critical_ROB_Stalls_Percent_6_Bucket_3: 18679
Critical_ROB_Stalls_Percent_6_Bucket_4: 74876
Non-critical_ROB_Stalls_Percent_6_Bucket_4: 8356
Critical_ROB_Stalls_Percent_6_Bucket_5: 44212
Non-critical_ROB_Stalls_Percent_6_Bucket_5: 4834
Critical_ROB_Stalls_Percent_6_Bucket_6: 319254
Non-critical_ROB_Stalls_Percent_6_Bucket_6: 14937
Critical_ROB_Stalls_Percent_7_Bucket_0: 815106
Non-critical_ROB_Stalls_Percent_7_Bucket_0: 237051
Critical_ROB_Stalls_Percent_7_Bucket_1: 674815
Non-critical_ROB_Stalls_Percent_7_Bucket_1: 120761
Critical_ROB_Stalls_Percent_7_Bucket_2: 344584
Non-critical_ROB_Stalls_Percent_7_Bucket_2: 40438
Critical_ROB_Stalls_Percent_7_Bucket_3: 180760
Non-critical_ROB_Stalls_Percent_7_Bucket_3: 14780
Critical_ROB_Stalls_Percent_7_Bucket_4: 76932
Non-critical_ROB_Stalls_Percent_7_Bucket_4: 6300
Critical_ROB_Stalls_Percent_7_Bucket_5: 45245
Non-critical_ROB_Stalls_Percent_7_Bucket_5: 3801
Critical_ROB_Stalls_Percent_7_Bucket_6: 323409
Non-critical_ROB_Stalls_Percent_7_Bucket_6: 10782
Critical_ROB_Stalls_Percent_8_Bucket_0: 889485
Non-critical_ROB_Stalls_Percent_8_Bucket_0: 162672
Critical_ROB_Stalls_Percent_8_Bucket_1: 715935
Non-critical_ROB_Stalls_Percent_8_Bucket_1: 79641
Critical_ROB_Stalls_Percent_8_Bucket_2: 360234
Non-critical_ROB_Stalls_Percent_8_Bucket_2: 24788
Critical_ROB_Stalls_Percent_8_Bucket_3: 186767
Non-critical_ROB_Stalls_Percent_8_Bucket_3: 8773
Critical_ROB_Stalls_Percent_8_Bucket_4: 79404
Non-critical_ROB_Stalls_Percent_8_Bucket_4: 3828
Critical_ROB_Stalls_Percent_8_Bucket_5: 46721
Non-critical_ROB_Stalls_Percent_8_Bucket_5: 2325
Critical_ROB_Stalls_Percent_8_Bucket_6: 326845
Non-critical_ROB_Stalls_Percent_8_Bucket_6: 7346
Average ROB occupancy Load Stall Begin: 100.067
Average ROB occupancy Load Stall End: 109.233
Min ROB occupancy Load Stall Begin: 1
Max ROB occupancy Load Stall Begin: 352
Min ROB occupancy Load Stall End: 1
Max ROB occupancy Load Stall End: 352
Average ROB occupancy Critical Load Stall Begin: -nan
Average ROB occupancy Critical Load Stall End: -nan
Min ROB occupancy Critical Load Stall Begin: 400
Max ROB occupancy Critical Load Stall Begin: 0
Min ROB occupancy Critical Load Stall End: 400
Max ROB occupancy Critical Load Stall End: 0
 ROB Load Stall Begin Bucket Count 0: 1316198
 ROB Load Stall End Bucket Count 0: 1052157
 ROB Critical Load Stall Begin Bucket Count 0: 0
 ROB Critical Load Stall End Bucket Count 0: 0
 ROB Load Stall Begin Bucket Count 1: 641834
 ROB Load Stall End Bucket Count 1: 795576
 ROB Critical Load Stall Begin Bucket Count 1: 0
 ROB Critical Load Stall End Bucket Count 1: 0
 ROB Load Stall Begin Bucket Count 2: 333911
 ROB Load Stall End Bucket Count 2: 385022
 ROB Critical Load Stall Begin Bucket Count 2: 0
 ROB Critical Load Stall End Bucket Count 2: 0
 ROB Load Stall Begin Bucket Count 3: 162996
 ROB Load Stall End Bucket Count 3: 195540
 ROB Critical Load Stall Begin Bucket Count 3: 0
 ROB Critical Load Stall End Bucket Count 3: 0
 ROB Load Stall Begin Bucket Count 4: 71245
 ROB Load Stall End Bucket Count 4: 83232
 ROB Critical Load Stall Begin Bucket Count 4: 0
 ROB Critical Load Stall End Bucket Count 4: 0
 ROB Load Stall Begin Bucket Count 5: 43347
 ROB Load Stall End Bucket Count 5: 49046
 ROB Critical Load Stall Begin Bucket Count 5: 0
 ROB Critical Load Stall End Bucket Count 5: 0
 ROB Load Stall Begin Bucket Count 6: 325233
 ROB Load Stall End Bucket Count 6: 334191
 ROB Critical Load Stall Begin Bucket Count 6: 0
 ROB Critical Load Stall End Bucket Count 6: 0
PIST Tag Read Accesses: 1920192
PIST Read Accesses: 960096
PIST Tag Write Accesses: 1920192
PIST Write Accesses: 960096
Criticality detector called times: 1960471
Max global_stall_cycles_count: 4368168
Threshold Modified: 0 times, factor: 0
Sturdy critical IP cache stats: 
 Unused entries: 0
CIC Tag Read Accesses: 0
CIC Read Accesses: 0
CIC Tag Write Accesses: 0
CIC Write Accesses: 0
Wobbly critical IP cache stats: 
 Unused entries: 25
CIC Tag Read Accesses: 162824421
CIC Read Accesses: 0
CIC Tag Write Accesses: 293642
CIC Write Accesses: 0
ITLB TOTAL     ACCESS:    8767110  HIT:    8588353  MISS:     178757  HIT %:     97.961  MISS %:    2.03895   MPKI: 3.57514
ITLB LOAD TRANSLATION ACCESS:    8150310  HIT:    8137027  MISS:      13283  HIT %:     99.837  MISS %:   0.162975   MPKI: 0.26566
ITLB TRANSLATION FROM L1D PREFETCHER ACCESS:     616800  HIT:     451326  MISS:     165474  HIT %:    73.1722  MISS %:    26.8278   MPKI: 3.30948
ITLB PREFETCH  REQUESTED:          0  ISSUED:          0  USEFUL:     140582  USELESS:      24888
ITLB USEFUL LOAD PREFETCHES:     140582 PREFETCH ISSUED TO LOWER LEVEL:          0  ACCURACY: inf
ITLB TIMELY PREFETCHES:     140582 LATE PREFETCHES: 20 DROPPED PREFETCHES: 17
ITLB PREFETCHES SAME FILL-ORIGIN LEVEL: 0 DIFFERENT FILL-ORIGIN LEVEL: 0
ITLB AVERAGE MISS LATENCY: 4966.38 cycles
ITLB RQ	ACCESS:   11231132	FORWARD:          0	MERGED:    2451678	TO_CACHE:    8779454

DTLB TOTAL     ACCESS:   11602773  HIT:   11285896  MISS:     316877  HIT %:     97.269  MISS %:    2.73105   MPKI: 6.33754
DTLB LOAD TRANSLATION ACCESS:   11602773  HIT:   11285896  MISS:     316877  HIT %:     97.269  MISS %:    2.73105   MPKI: 6.33754
DTLB PREFETCH  REQUESTED:          0  ISSUED:          0  USEFUL:          0  USELESS:          0
DTLB USEFUL LOAD PREFETCHES:          0 PREFETCH ISSUED TO LOWER LEVEL:          0  ACCURACY: -nan
DTLB TIMELY PREFETCHES:          0 LATE PREFETCHES: 0 DROPPED PREFETCHES: 0
DTLB PREFETCHES SAME FILL-ORIGIN LEVEL: 0 DIFFERENT FILL-ORIGIN LEVEL: 0
DTLB AVERAGE MISS LATENCY: 10.3973 cycles
DTLB RQ	ACCESS:   13871578	FORWARD:          0	MERGED:    2252298	TO_CACHE:   11619280

STLB TOTAL     ACCESS:     495634  HIT:     491417  MISS:       4217  HIT %:    99.1492  MISS %:   0.850829   MPKI: 0.08434
STLB LOAD TRANSLATION ACCESS:     330140  HIT:     326246  MISS:       3894  HIT %:    98.8205  MISS %:     1.1795   MPKI: 0.07788
STLB TRANSLATION FROM L1D PREFETCHER ACCESS:     165494  HIT:     165171  MISS:        323  HIT %:    99.8048  MISS %:   0.195173   MPKI: 0.00646
STLB PREFETCH  REQUESTED:          0  ISSUED:          0  USEFUL:        244  USELESS:         65
STLB USEFUL LOAD PREFETCHES:        244 PREFETCH ISSUED TO LOWER LEVEL:          0  ACCURACY: inf
STLB TIMELY PREFETCHES:        244 LATE PREFETCHES: 0 DROPPED PREFETCHES: 17
STLB PREFETCHES SAME FILL-ORIGIN LEVEL: 0 DIFFERENT FILL-ORIGIN LEVEL: 0
STLB AVERAGE MISS LATENCY: 129.319 cycles
STLB RQ	ACCESS:     495651	FORWARD:          0	MERGED:          0	TO_CACHE:     495651

STLB Hit, L1D data hit: 0
STLB Hit, L2C data hit: 0
STLB Hit, LLC data hit: 0
STLB Hit, LLC data miss: 0
STLB STLB hints to L2: 0
L1D TOTAL     ACCESS:   13694534  HIT:   13128420  MISS:     566114  HIT %:    95.8661  MISS %:    4.13387   MPKI: 11.3223
L1D LOAD      ACCESS:    8777185  HIT:    8287156  MISS:     490029  HIT %:     94.417  MISS %:    5.58299   MPKI: 9.80058
L1D RFO       ACCESS:    4917349  HIT:    4841264  MISS:      76085  HIT %:    98.4527  MISS %:    1.54728   MPKI: 1.5217
L1D PREFETCH  REQUESTED:          0  ISSUED:          0  USEFUL:          0  USELESS:          0
L1D USEFUL LOAD PREFETCHES:          0 PREFETCH ISSUED TO LOWER LEVEL:          0  ACCURACY: -nan
L1D TIMELY PREFETCHES:          0 LATE PREFETCHES: 0 DROPPED PREFETCHES: 0
L1D PREFETCHES SAME FILL-ORIGIN LEVEL: 0 DIFFERENT FILL-ORIGIN LEVEL: 0
L1D AVERAGE MISS LATENCY: 56.4511 cycles
L1D RQ	ACCESS:   12804366	FORWARD:          0	MERGED:    3885081	TO_CACHE:    8834298
L1D WQ	ACCESS:    5437654	FORWARD:      84987	MERGED:     400374	TO_CACHE:    5037280

L1D UNIQUE REGIONS ACCESSED: 0
L1D REGIONS CONFLICTS: 0
L1D Cross Page Prefetch Requests: 0
L1D Same Page Prefetch Requests: 0
L1D ROI Sum of L1D PQ occupancy: 0
L1D PREFETCHES PUSHED FROM L2C: 0
L1I TOTAL     ACCESS:   11199155  HIT:   10033066  MISS:    1166089  HIT %:    89.5877  MISS %:    10.4123   MPKI: 23.3218
L1I LOAD      ACCESS:    9641934  HIT:    9592965  MISS:      48969  HIT %:    99.4921  MISS %:   0.507875   MPKI: 0.97938
L1I PREFETCH  ACCESS:    1557221  HIT:     440101  MISS:    1117120  HIT %:    28.2619  MISS %:    71.7381   MPKI: 22.3424
L1I PREFETCH  REQUESTED:    1610578  ISSUED:    1609933  USEFUL:     839332  USELESS:     277831
L1I USEFUL LOAD PREFETCHES:     839332 PREFETCH ISSUED TO LOWER LEVEL:    1123968  ACCURACY: 74.6758
L1I TIMELY PREFETCHES:     839332 LATE PREFETCHES: 6848 DROPPED PREFETCHES: 22
L1I PREFETCHES SAME FILL-ORIGIN LEVEL: 1123968 DIFFERENT FILL-ORIGIN LEVEL: 0
L1I AVERAGE MISS LATENCY: 258644 cycles
L1I RQ	ACCESS:   14354968	FORWARD:          0	MERGED:    4705494	TO_CACHE:    9649474
L1I PQ	ACCESS:    1609933	FORWARD:          0	MERGED:      28275	TO_CACHE:    1581658

BTB TOTAL     ACCESS:    6145704  HIT:    5759281  MISS:     386423  HIT %:    93.7123  MISS %:    6.28769   MPKI: 7.72846
BTB BRANCH_DIRECT_JUMP	ACCESS:     735331  HIT:     732025  MISS:       3306
BTB BRANCH_INDIRECT	ACCESS:     269194  HIT:     145703  MISS:     123491
BTB BRANCH_CONDITIONAL	ACCESS:    3930750  HIT:    3920624  MISS:      10126
BTB BRANCH_DIRECT_CALL	ACCESS:     368758  HIT:     363374  MISS:       5384
BTB BRANCH_INDIRECT_CALL	ACCESS:     226975  HIT:     162973  MISS:      64002
BTB BRANCH_RETURN	ACCESS:     614696  HIT:     434582  MISS:     180114
BTB BRANCH_OTHER ACCESS:          0  HIT:          0  MISS:          0

L2C TOTAL     ACCESS:    2149552  HIT:    1971423  MISS:     178129  HIT %:    91.7132  MISS %:     8.2868   MPKI: 3.56258
L2C LOAD      ACCESS:     532017  HIT:     414940  MISS:     117077  HIT %:    77.9937  MISS %:    22.0063   MPKI: 2.34154
L2C DATA LOAD MPKI: 2.25692
L2C INSTRUCTION LOAD MPKI: 0.08462
L2C RFO       ACCESS:      76076  HIT:      29445  MISS:      46631  HIT %:    38.7047  MISS %:    61.2953   MPKI: 0.93262
L2C PREFETCH  ACCESS:    1304876  HIT:    1294257  MISS:      10619  HIT %:    99.1862  MISS %:   0.813794   MPKI: 0.21238
L2C DATA PREFETCH MPKI: 0.04142
L2C INSTRUCTION PREFETCH MPKI: 0.17096
L2C WRITEBACK ACCESS:     232153  HIT:     230144  MISS:       2009  HIT %:    99.1346  MISS %:   0.865378   MPKI: 0.04018
L2C LOAD TRANSLATION ACCESS:       4072  HIT:       2504  MISS:       1568  HIT %:    61.4931  MISS %:    38.5069   MPKI: 0.03136
L2C TRANSLATION FROM L1D PREFETCHER ACCESS:        358  HIT:        133  MISS:        225  HIT %:    37.1508  MISS %:    62.8492   MPKI: 0.0045
L2C PREFETCH  REQUESTED:     540914  ISSUED:     540914  USEFUL:       2686  USELESS:      10332
L2C USEFUL LOAD PREFETCHES:       2686 PREFETCH ISSUED TO LOWER LEVEL:     137024  ACCURACY: 1.96024
L2C TIMELY PREFETCHES:       2686 LATE PREFETCHES: 137 DROPPED PREFETCHES: 0
L2C PREFETCHES SAME FILL-ORIGIN LEVEL: 2210 DIFFERENT FILL-ORIGIN LEVEL: 126268
L2C AVERAGE MISS LATENCY: 142.913 cycles
L2C RQ	ACCESS:     612665	FORWARD:          0	MERGED:          0	TO_CACHE:     612523
L2C WQ	ACCESS:     232153	FORWARD:        142	MERGED:          0	TO_CACHE:     232153
L2C PQ	ACCESS:    1664882	FORWARD:          0	MERGED:     232903	TO_CACHE:    1431979

L2C Instructions Evicting Data 9418
L2C Translations Evicting Data 1446
L2C Data Evicting Data 147749
L2C Instructions Evicting Instructions 3048
L2C Translations Evicting Instructions 320
L2C Data Evicting Instructions 12195
L2C Instructions Evicting Translations 313
L2C Translations Evicting Translations 27
L2C Data Evicting Translations 1604
L2C Dense regions hint from L2: 0
PSCL5 TOTAL     ACCESS:       4234  HIT:       4234  MISS:          0  HIT %:        100  MISS %:          0   MPKI: 0
PSCL5 LOAD TRANSLATION ACCESS:       3894  HIT:       3894  MISS:          0  HIT %:        100  MISS %:          0   MPKI: 0
PSCL5 TRANSLATION FROM L1D PREFETCHER ACCESS:        340  HIT:        340  MISS:          0  HIT %:        100  MISS %:          0   MPKI: 0
PSCL5 PREFETCH  REQUESTED:          0  ISSUED:          0  USEFUL:          0  USELESS:          0
PSCL5 USEFUL LOAD PREFETCHES:          0 PREFETCH ISSUED TO LOWER LEVEL:          0  ACCURACY: -nan
PSCL5 TIMELY PREFETCHES:          0 LATE PREFETCHES: 0 DROPPED PREFETCHES: 0
PSCL5 PREFETCHES SAME FILL-ORIGIN LEVEL: 0 DIFFERENT FILL-ORIGIN LEVEL: 0

PSCL4 TOTAL     ACCESS:       3944  HIT:       3937  MISS:          7  HIT %:    99.8225  MISS %:   0.177485   MPKI: 0.00014
PSCL4 LOAD TRANSLATION ACCESS:       3632  HIT:       3625  MISS:          7  HIT %:    99.8073  MISS %:   0.192731   MPKI: 0.00014
PSCL4 TRANSLATION FROM L1D PREFETCHER ACCESS:        312  HIT:        312  MISS:          0  HIT %:        100  MISS %:          0   MPKI: 0
PSCL4 PREFETCH  REQUESTED:          0  ISSUED:          0  USEFUL:          0  USELESS:          0
PSCL4 USEFUL LOAD PREFETCHES:          0 PREFETCH ISSUED TO LOWER LEVEL:          0  ACCURACY: -nan
PSCL4 TIMELY PREFETCHES:          0 LATE PREFETCHES: 0 DROPPED PREFETCHES: 0
PSCL4 PREFETCHES SAME FILL-ORIGIN LEVEL: 0 DIFFERENT FILL-ORIGIN LEVEL: 0

PSCL3 TOTAL     ACCESS:       4178  HIT:       4161  MISS:         17  HIT %:    99.5931  MISS %:   0.406893   MPKI: 0.00034
PSCL3 LOAD TRANSLATION ACCESS:       3845  HIT:       3828  MISS:         17  HIT %:    99.5579  MISS %:   0.442133   MPKI: 0.00034
PSCL3 TRANSLATION FROM L1D PREFETCHER ACCESS:        333  HIT:        333  MISS:          0  HIT %:        100  MISS %:          0   MPKI: 0
PSCL3 PREFETCH  REQUESTED:          0  ISSUED:          0  USEFUL:          0  USELESS:          0
PSCL3 USEFUL LOAD PREFETCHES:          0 PREFETCH ISSUED TO LOWER LEVEL:          0  ACCURACY: -nan
PSCL3 TIMELY PREFETCHES:          0 LATE PREFETCHES: 0 DROPPED PREFETCHES: 0
PSCL3 PREFETCHES SAME FILL-ORIGIN LEVEL: 0 DIFFERENT FILL-ORIGIN LEVEL: 0

PSCL2 TOTAL     ACCESS:       4234  HIT:       4057  MISS:        177  HIT %:    95.8196  MISS %:    4.18044   MPKI: 0.00354
PSCL2 LOAD TRANSLATION ACCESS:       3910  HIT:       3733  MISS:        177  HIT %:    95.4731  MISS %:    4.52685   MPKI: 0.00354
PSCL2 TRANSLATION FROM L1D PREFETCHER ACCESS:        324  HIT:        324  MISS:          0  HIT %:        100  MISS %:          0   MPKI: 0
PSCL2 PREFETCH  REQUESTED:          0  ISSUED:          0  USEFUL:          0  USELESS:          0
PSCL2 USEFUL LOAD PREFETCHES:          0 PREFETCH ISSUED TO LOWER LEVEL:          0  ACCURACY: -nan
PSCL2 TIMELY PREFETCHES:          0 LATE PREFETCHES: 0 DROPPED PREFETCHES: 0
PSCL2 PREFETCHES SAME FILL-ORIGIN LEVEL: 0 DIFFERENT FILL-ORIGIN LEVEL: 0

LLC TOTAL     ACCESS:     370267  HIT:     233158  MISS:     137109  HIT %:    62.9702  MISS %:    37.0298   MPKI: 2.74218
LLC LOAD      ACCESS:     116940  HIT:      45756  MISS:      71184  HIT %:    39.1278  MISS %:    60.8722   MPKI: 1.42368
LLC RFO       ACCESS:      46630  HIT:       5115  MISS:      41515  HIT %:    10.9693  MISS %:    89.0307   MPKI: 0.8303
LLC PREFETCH  ACCESS:     136176  HIT:     117213  MISS:      18963  HIT %:    86.0746  MISS %:    13.9254   MPKI: 0.37926
LLC WRITEBACK ACCESS:      68728  HIT:      64458  MISS:       4270  HIT %:    93.7871  MISS %:     6.2129   MPKI: 0.0854
LLC LOAD TRANSLATION ACCESS:       1568  HIT:        516  MISS:       1052  HIT %:    32.9082  MISS %:    67.0918   MPKI: 0.02104
LLC TRANSLATION FROM L1D PREFETCHER ACCESS:        225  HIT:        100  MISS:        125  HIT %:    44.4444  MISS %:    55.5556   MPKI: 0.0025
LLC PREFETCH  REQUESTED:          0  ISSUED:          0  USEFUL:       7102  USELESS:      15699
LLC USEFUL LOAD PREFETCHES:       7102 PREFETCH ISSUED TO LOWER LEVEL:      19355  ACCURACY: 36.6934
LLC TIMELY PREFETCHES:       7102 LATE PREFETCHES: 392 DROPPED PREFETCHES: 0
LLC PREFETCHES SAME FILL-ORIGIN LEVEL: 14507 DIFFERENT FILL-ORIGIN LEVEL: 0
LLC AVERAGE MISS LATENCY: 163.228 cycles
LLC RQ	ACCESS:     165364	FORWARD:          0	MERGED:          0	TO_CACHE:     165363
LLC WQ	ACCESS:      68728	FORWARD:          1	MERGED:          0	TO_CACHE:      68728
LLC PQ	ACCESS:     137024	FORWARD:          0	MERGED:        128	TO_CACHE:     136896

LLC Dense regions hint to LLC: 0

RAW hits: 1075569
Loads Generated: 13879936
Loads sent to L1D: 12804366
Stores Generated: 5437650
Stores sent to L1D: 5437654
Major fault: 0 Minor fault: 4494
Allocated PAGES: 4494
I-Shadow cache 408 bytes
Touched + WorthPF tables 6144 bytes 
MMA filter 174 bytes 
FNL filter 272 bytes 
TOTAL PREFETCHER STORAGE SIZE: 25174 bytes
CPU 0 L1I next line prefetcher final stats
 All Calls: 3440444
 Critical Calls: 759114
------------------
Depth Distribution
------------------
depth 0: 0
depth 1: 557068
depth 2: 260607
depth 3: 50758
depth 4: 5986
depth 5: 994
depth 6: 578
depth 7: 185
depth 8: 23
depth 9: 0
depth 10: 0
depth 11: 0
depth 12: 0
depth 13: 0
depth 14: 0
depth 15: 0
depth 16: 0
depth 17: 0
depth 18: 0
depth 19: 0
depth 20: 0
depth 21: 0
depth 22: 0
depth 23: 0
depth 24: 0
depth 25: 0
depth 26: 0
depth 27: 0
depth 28: 0
depth 29: 0
Total: 876199
-----------------------------
-----------------------------
	Captured at Filter
-----------------------------
depth 0: 0
depth 1: 201197
depth 2: 109337
depth 3: 31593
depth 4: 2735
depth 5: 153
depth 6: 11
depth 7: 0
depth 8: 0
depth 9: 0
depth 10: 0
depth 11: 0
depth 12: 0
depth 13: 0
depth 14: 0
depth 15: 0
depth 16: 0
depth 17: 0
depth 18: 0
depth 19: 0
depth 20: 0
depth 21: 0
depth 22: 0
depth 23: 0
depth 24: 0
depth 25: 0
depth 26: 0
depth 27: 0
depth 28: 0
depth 29: 0
-----------------------------
-----------------------------
		Lost at Page
-----------------------------
depth 0: 0
depth 1: 18222
depth 2: 7883
depth 3: 910
depth 4: 242
depth 5: 132
depth 6: 106
depth 7: 38
depth 8: 4
depth 9: 0
depth 10: 0
depth 11: 0
depth 12: 0
depth 13: 0
depth 14: 0
depth 15: 0
depth 16: 0
depth 17: 0
depth 18: 0
depth 19: 0
depth 20: 0
depth 21: 0
depth 22: 0
depth 23: 0
depth 24: 0
depth 25: 0
depth 26: 0
depth 27: 0
depth 28: 0
depth 29: 0
-----------------------------
-----------------------------
	Lost due to PQ Size
-----------------------------
3
-----------------------------
ST read accesses: 483630
ST write accesses: 3176
PT read accesses: 7124334
PT write accesses: 680166
FILTER read accesses: 1433312
FILTER write accesses: 201575
GHR read accesses: 157661
GHR write accesses: 20565
GHR counter read accesses: 5902104
GHR counter write accesses: 510274
ST tag read accesses: 189375850
ST tag write accesses: 13367496

DRAM Statistics
 CHANNEL 0
 RQ ROW_BUFFER_HIT:      25154  ROW_BUFFER_MISS:     107683
 DBUS_CONGESTED:         40
 WQ ROW_BUFFER_HIT:      10898  ROW_BUFFER_MISS:      48834  FULL:          0

 AVG_CONGESTED_CYCLE: 4
 All warmup complete: 2
Channel 0 Bank busy for read cycles: 0
Channel 0 Bank busy for write cycles: 0
Channel 0
Rank 0
0banks busy for read cycles: 54269120
0banks busy for write cycles: 23253
1banks busy for read cycles: 7267935
1banks busy for write cycles: 3313737
2banks busy for read cycles: 2240057
2banks busy for write cycles: 1156571
3banks busy for read cycles: 868770
3banks busy for write cycles: 527239
4banks busy for read cycles: 257090
4banks busy for write cycles: 271099
5banks busy for read cycles: 130707
5banks busy for write cycles: 148839
6banks busy for read cycles: 56525
6banks busy for write cycles: 88518
7banks busy for read cycles: 46418
7banks busy for write cycles: 85124
8banks busy for read cycles: 92495
8banks busy for write cycles: 351412

CPU 0 Branch Prediction Accuracy: 98.8607% MPKI: 1.8623 Average ROB Occupancy at Mispredict: 74.4427
Branch types
NOT_BRANCH: 41826774 83.6535%
BRANCH_DIRECT_JUMP: 735331 1.47066%
BRANCH_INDIRECT: 269194 0.538388%
BRANCH_CONDITIONAL: 5957947 11.9159%
BRANCH_DIRECT_CALL: 368758 0.737516%
BRANCH_INDIRECT_CALL: 226975 0.45395%
BRANCH_RETURN: 614696 1.22939%
BRANCH_OTHER: 0 0%

DRAM PAGES: 1048576
Allocated PAGES: 4494
