
*** ChampSim Multicore Out-of-Order Simulator ***

Warmup Instructions: 50000000
Simulation Instructions: 50000000
Number of CPUs: 1
LLC sets: 2048
LLC ways: 16
Off-chip DRAM Size: 4096 MB Channels: 1 Width: 64-bit Data Rate: 6400 MT/s
CPU 0 runs ../IPC-traces//client_004.champsimtrace.xz
.xz
BTB has LRU replacement policy
ITLB has LRU replacement policy
DTLB has LRU replacement policy
STLB has LRU replacement policy
CPU 0 L1I next line prefetcher
L1I has LRU replacement policy
IP Table Entries: 64
L1D has LRU replacement policy
Initialize SRRIP state for L2C
Initialize DRRIP state for LLC
Heartbeat CPU 0 instructions: 10000000 cycles: 3024982 heartbeat IPC: 3.3058 cumulative IPC: 3.3058 (Simulation time: 0 hr 2 min 41 sec) 
Heartbeat CPU 0 instructions: 20000001 cycles: 5875104 heartbeat IPC: 3.50862 cumulative IPC: 3.4042 (Simulation time: 0 hr 5 min 11 sec) 
Heartbeat CPU 0 instructions: 30000001 cycles: 8872856 heartbeat IPC: 3.33583 cumulative IPC: 3.3811 (Simulation time: 0 hr 7 min 43 sec) 
Heartbeat CPU 0 instructions: 40000001 cycles: 11865382 heartbeat IPC: 3.34166 cumulative IPC: 3.37115 (Simulation time: 0 hr 10 min 24 sec) 
Heartbeat CPU 0 instructions: 50000002 cycles: 14858886 heartbeat IPC: 3.34057 cumulative IPC: 3.36499 (Simulation time: 0 hr 12 min 57 sec) 

Warmup complete CPU 0 instructions: 50000002 cycles: 14858886 (Simulation time: 0 hr 12 min 57 sec) 

Heartbeat CPU 0 instructions: 60000000 cycles: 31027980 heartbeat IPC: 0.618464 cumulative IPC: 0.618464 (Simulation time: 0 hr 16 min 2 sec) 
Heartbeat CPU 0 instructions: 70000001 cycles: 48065920 heartbeat IPC: 0.586925 cumulative IPC: 0.602282 (Simulation time: 0 hr 19 min 11 sec) 
Heartbeat CPU 0 instructions: 80000000 cycles: 65271237 heartbeat IPC: 0.581216 cumulative IPC: 0.595092 (Simulation time: 0 hr 22 min 14 sec) 
Heartbeat CPU 0 instructions: 90000000 cycles: 81828027 heartbeat IPC: 0.603982 cumulative IPC: 0.59729 (Simulation time: 0 hr 25 min 19 sec) 
Heartbeat CPU 0 instructions: 100000002 cycles: 97804189 heartbeat IPC: 0.625933 cumulative IPC: 0.602807 (Simulation time: 0 hr 28 min 13 sec) 
Finished CPU 0 instructions: 50000000 cycles: 82945303 cumulative IPC: 0.602807 (Simulation time: 0 hr 28 min 13 sec) 

ChampSim completed all CPUs

Region of Interest Statistics

CPU 0 cumulative IPC: 0.602807 instructions: 50000000 cycles: 82945303

CPU 0 Average Load ROB stall cycles: 2.36672e+07
CPU 0 Fraction of times ROB stalled by Loads: 41.8105
CPU 0 Percentage of Load stall cycles in Total stall cycles: 3.22101e+08
Issued all: 27729080
Issued LT all: 22032952
rob_not_full_when_issued_lt_all: 21169539
Issued LT one: 16710556
rob_not_full_when_issued_lt_one: 15995672
HPCA_2009 critical_dynamic_instances_0: 78384
HPCA_2009 unique_critical_ips_0: 3454
multiple_destinations_0: 0
load_to_same_dest_0: 0
low_issue_rate_0: 16877142
total_issue_rate_checked_count_0: 18437983
 Total stall cycles: 67587646
 Total load stall cycles: 217700663563173
Unique Load IPs: 72894
CPU 0 NUM of IPS identified critical: 0
CPU 0 Num of Load IPs stalling ROB: 0
Threshold modification factor: 0
Trouble in retire width: -nan
MaC = Marked as critical.
lt_50_percent_before_Mac: 0
gt_90_percent_before_Mac: 0
gt_75_percent_before_Mac: 0
gt_50_percent_before_Mac: 0
stall_proportion_bin_same_before_after: 0
stall_proportion_bin_lower_before_after: 0
stall_proportion_bin_upper_before_after: 0
average_stall_proportion_before: -nan
average_stall_proportion_after: -nan
Critical IP stalls, total frequency: 0
Non-critical IP stalls, total frequency: 0
Total Freq all stalling IPs: 0
Critical_IP_Detector_Accuracy_70: 0
Critical_IP_Detector_Accuracy_80: 0
Critical_IP_Detector_Accuracy_90: 0
Critical_IP_Detector_Coverage_70: 0
Critical_IP_Detector_Coverage_80: 0
Critical_IP_Detector_Coverage_90: 0
stat_90_percent_critical_ip_stalls_freq: 31660
stat_90_percent_non_critical_ip_stalls_freq: 18446744073709519956
AVERAGE_ROB_Occupancy_90_Percent_Critical_IP_Stalls: 11.0876
AVERAGE_ROB_Occupancy_90_Percent_Non_Critical_IP_Stalls: 1.10507e-11
Critical_IP_ROB_Stalls_Bucket_0: 0
Non-critical_IP_ROB_Stalls_Bucket_0: 2420712
Critical_IP_ROB_Stalls_Bucket_1: 0
Non-critical_IP_ROB_Stalls_Bucket_1: 921743
Critical_IP_ROB_Stalls_Bucket_2: 0
Non-critical_IP_ROB_Stalls_Bucket_2: 314697
Critical_IP_ROB_Stalls_Bucket_3: 0
Non-critical_IP_ROB_Stalls_Bucket_3: 92690
Critical_IP_ROB_Stalls_Bucket_4: 0
Non-critical_IP_ROB_Stalls_Bucket_4: 31395
Critical_IP_ROB_Stalls_Bucket_5: 0
Non-critical_IP_ROB_Stalls_Bucket_5: 16273
Critical_IP_ROB_Stalls_Bucket_6: 0
Non-critical_IP_ROB_Stalls_Bucket_6: 48390
0 => IPs accounting for >50 percent of stalls, 1 => 55, 2 => 60, 3 => 65 and so on till 90.
percent50: inf num IPs:  1
percent55: inf num IPs: 1
percent60: inf num IPs: 1
percent65: inf num IPs: 1
percent70: inf num IPs: 1
percent75: inf num IPs: 1
percent80: inf num IPs: 1
percent85: inf num IPs: 1
percent90: inf num IPs: 1
Critical_ROB_Stalls_Percent_0_Bucket_0: 31656
Non-critical_ROB_Stalls_Percent_0_Bucket_0: 2389056
Critical_ROB_Stalls_Percent_0_Bucket_1: 3
Non-critical_ROB_Stalls_Percent_0_Bucket_1: 921740
Critical_ROB_Stalls_Percent_0_Bucket_2: 1
Non-critical_ROB_Stalls_Percent_0_Bucket_2: 314696
Critical_ROB_Stalls_Percent_0_Bucket_3: 0
Non-critical_ROB_Stalls_Percent_0_Bucket_3: 92690
Critical_ROB_Stalls_Percent_0_Bucket_4: 0
Non-critical_ROB_Stalls_Percent_0_Bucket_4: 31395
Critical_ROB_Stalls_Percent_0_Bucket_5: 0
Non-critical_ROB_Stalls_Percent_0_Bucket_5: 16273
Critical_ROB_Stalls_Percent_0_Bucket_6: 0
Non-critical_ROB_Stalls_Percent_0_Bucket_6: 48390
Critical_ROB_Stalls_Percent_1_Bucket_0: 31656
Non-critical_ROB_Stalls_Percent_1_Bucket_0: 2389056
Critical_ROB_Stalls_Percent_1_Bucket_1: 3
Non-critical_ROB_Stalls_Percent_1_Bucket_1: 921740
Critical_ROB_Stalls_Percent_1_Bucket_2: 1
Non-critical_ROB_Stalls_Percent_1_Bucket_2: 314696
Critical_ROB_Stalls_Percent_1_Bucket_3: 0
Non-critical_ROB_Stalls_Percent_1_Bucket_3: 92690
Critical_ROB_Stalls_Percent_1_Bucket_4: 0
Non-critical_ROB_Stalls_Percent_1_Bucket_4: 31395
Critical_ROB_Stalls_Percent_1_Bucket_5: 0
Non-critical_ROB_Stalls_Percent_1_Bucket_5: 16273
Critical_ROB_Stalls_Percent_1_Bucket_6: 0
Non-critical_ROB_Stalls_Percent_1_Bucket_6: 48390
Critical_ROB_Stalls_Percent_2_Bucket_0: 31656
Non-critical_ROB_Stalls_Percent_2_Bucket_0: 2389056
Critical_ROB_Stalls_Percent_2_Bucket_1: 3
Non-critical_ROB_Stalls_Percent_2_Bucket_1: 921740
Critical_ROB_Stalls_Percent_2_Bucket_2: 1
Non-critical_ROB_Stalls_Percent_2_Bucket_2: 314696
Critical_ROB_Stalls_Percent_2_Bucket_3: 0
Non-critical_ROB_Stalls_Percent_2_Bucket_3: 92690
Critical_ROB_Stalls_Percent_2_Bucket_4: 0
Non-critical_ROB_Stalls_Percent_2_Bucket_4: 31395
Critical_ROB_Stalls_Percent_2_Bucket_5: 0
Non-critical_ROB_Stalls_Percent_2_Bucket_5: 16273
Critical_ROB_Stalls_Percent_2_Bucket_6: 0
Non-critical_ROB_Stalls_Percent_2_Bucket_6: 48390
Critical_ROB_Stalls_Percent_3_Bucket_0: 31656
Non-critical_ROB_Stalls_Percent_3_Bucket_0: 2389056
Critical_ROB_Stalls_Percent_3_Bucket_1: 3
Non-critical_ROB_Stalls_Percent_3_Bucket_1: 921740
Critical_ROB_Stalls_Percent_3_Bucket_2: 1
Non-critical_ROB_Stalls_Percent_3_Bucket_2: 314696
Critical_ROB_Stalls_Percent_3_Bucket_3: 0
Non-critical_ROB_Stalls_Percent_3_Bucket_3: 92690
Critical_ROB_Stalls_Percent_3_Bucket_4: 0
Non-critical_ROB_Stalls_Percent_3_Bucket_4: 31395
Critical_ROB_Stalls_Percent_3_Bucket_5: 0
Non-critical_ROB_Stalls_Percent_3_Bucket_5: 16273
Critical_ROB_Stalls_Percent_3_Bucket_6: 0
Non-critical_ROB_Stalls_Percent_3_Bucket_6: 48390
Critical_ROB_Stalls_Percent_4_Bucket_0: 31656
Non-critical_ROB_Stalls_Percent_4_Bucket_0: 2389056
Critical_ROB_Stalls_Percent_4_Bucket_1: 3
Non-critical_ROB_Stalls_Percent_4_Bucket_1: 921740
Critical_ROB_Stalls_Percent_4_Bucket_2: 1
Non-critical_ROB_Stalls_Percent_4_Bucket_2: 314696
Critical_ROB_Stalls_Percent_4_Bucket_3: 0
Non-critical_ROB_Stalls_Percent_4_Bucket_3: 92690
Critical_ROB_Stalls_Percent_4_Bucket_4: 0
Non-critical_ROB_Stalls_Percent_4_Bucket_4: 31395
Critical_ROB_Stalls_Percent_4_Bucket_5: 0
Non-critical_ROB_Stalls_Percent_4_Bucket_5: 16273
Critical_ROB_Stalls_Percent_4_Bucket_6: 0
Non-critical_ROB_Stalls_Percent_4_Bucket_6: 48390
Critical_ROB_Stalls_Percent_5_Bucket_0: 31656
Non-critical_ROB_Stalls_Percent_5_Bucket_0: 2389056
Critical_ROB_Stalls_Percent_5_Bucket_1: 3
Non-critical_ROB_Stalls_Percent_5_Bucket_1: 921740
Critical_ROB_Stalls_Percent_5_Bucket_2: 1
Non-critical_ROB_Stalls_Percent_5_Bucket_2: 314696
Critical_ROB_Stalls_Percent_5_Bucket_3: 0
Non-critical_ROB_Stalls_Percent_5_Bucket_3: 92690
Critical_ROB_Stalls_Percent_5_Bucket_4: 0
Non-critical_ROB_Stalls_Percent_5_Bucket_4: 31395
Critical_ROB_Stalls_Percent_5_Bucket_5: 0
Non-critical_ROB_Stalls_Percent_5_Bucket_5: 16273
Critical_ROB_Stalls_Percent_5_Bucket_6: 0
Non-critical_ROB_Stalls_Percent_5_Bucket_6: 48390
Critical_ROB_Stalls_Percent_6_Bucket_0: 31656
Non-critical_ROB_Stalls_Percent_6_Bucket_0: 2389056
Critical_ROB_Stalls_Percent_6_Bucket_1: 3
Non-critical_ROB_Stalls_Percent_6_Bucket_1: 921740
Critical_ROB_Stalls_Percent_6_Bucket_2: 1
Non-critical_ROB_Stalls_Percent_6_Bucket_2: 314696
Critical_ROB_Stalls_Percent_6_Bucket_3: 0
Non-critical_ROB_Stalls_Percent_6_Bucket_3: 92690
Critical_ROB_Stalls_Percent_6_Bucket_4: 0
Non-critical_ROB_Stalls_Percent_6_Bucket_4: 31395
Critical_ROB_Stalls_Percent_6_Bucket_5: 0
Non-critical_ROB_Stalls_Percent_6_Bucket_5: 16273
Critical_ROB_Stalls_Percent_6_Bucket_6: 0
Non-critical_ROB_Stalls_Percent_6_Bucket_6: 48390
Critical_ROB_Stalls_Percent_7_Bucket_0: 31656
Non-critical_ROB_Stalls_Percent_7_Bucket_0: 2389056
Critical_ROB_Stalls_Percent_7_Bucket_1: 3
Non-critical_ROB_Stalls_Percent_7_Bucket_1: 921740
Critical_ROB_Stalls_Percent_7_Bucket_2: 1
Non-critical_ROB_Stalls_Percent_7_Bucket_2: 314696
Critical_ROB_Stalls_Percent_7_Bucket_3: 0
Non-critical_ROB_Stalls_Percent_7_Bucket_3: 92690
Critical_ROB_Stalls_Percent_7_Bucket_4: 0
Non-critical_ROB_Stalls_Percent_7_Bucket_4: 31395
Critical_ROB_Stalls_Percent_7_Bucket_5: 0
Non-critical_ROB_Stalls_Percent_7_Bucket_5: 16273
Critical_ROB_Stalls_Percent_7_Bucket_6: 0
Non-critical_ROB_Stalls_Percent_7_Bucket_6: 48390
Critical_ROB_Stalls_Percent_8_Bucket_0: 31656
Non-critical_ROB_Stalls_Percent_8_Bucket_0: 2389056
Critical_ROB_Stalls_Percent_8_Bucket_1: 3
Non-critical_ROB_Stalls_Percent_8_Bucket_1: 921740
Critical_ROB_Stalls_Percent_8_Bucket_2: 1
Non-critical_ROB_Stalls_Percent_8_Bucket_2: 314696
Critical_ROB_Stalls_Percent_8_Bucket_3: 0
Non-critical_ROB_Stalls_Percent_8_Bucket_3: 92690
Critical_ROB_Stalls_Percent_8_Bucket_4: 0
Non-critical_ROB_Stalls_Percent_8_Bucket_4: 31395
Critical_ROB_Stalls_Percent_8_Bucket_5: 0
Non-critical_ROB_Stalls_Percent_8_Bucket_5: 16273
Critical_ROB_Stalls_Percent_8_Bucket_6: 0
Non-critical_ROB_Stalls_Percent_8_Bucket_6: 48390
Average ROB occupancy Load Stall Begin: 45.6225
Average ROB occupancy Load Stall End: 53.0957
Min ROB occupancy Load Stall Begin: 1
Max ROB occupancy Load Stall Begin: 352
Min ROB occupancy Load Stall End: 1
Max ROB occupancy Load Stall End: 352
Average ROB occupancy Critical Load Stall Begin: -nan
Average ROB occupancy Critical Load Stall End: -nan
Min ROB occupancy Critical Load Stall Begin: 400
Max ROB occupancy Critical Load Stall Begin: 0
Min ROB occupancy Critical Load Stall End: 400
Max ROB occupancy Critical Load Stall End: 0
 ROB Load Stall Begin Bucket Count 0: 2713039
 ROB Load Stall End Bucket Count 0: 2420712
 ROB Critical Load Stall Begin Bucket Count 0: 0
 ROB Critical Load Stall End Bucket Count 0: 0
 ROB Load Stall Begin Bucket Count 1: 722073
 ROB Load Stall End Bucket Count 1: 921743
 ROB Critical Load Stall Begin Bucket Count 1: 0
 ROB Critical Load Stall End Bucket Count 1: 0
 ROB Load Stall Begin Bucket Count 2: 250404
 ROB Load Stall End Bucket Count 2: 314697
 ROB Critical Load Stall Begin Bucket Count 2: 0
 ROB Critical Load Stall End Bucket Count 2: 0
 ROB Load Stall Begin Bucket Count 3: 72834
 ROB Load Stall End Bucket Count 3: 92690
 ROB Critical Load Stall Begin Bucket Count 3: 0
 ROB Critical Load Stall End Bucket Count 3: 0
 ROB Load Stall Begin Bucket Count 4: 26599
 ROB Load Stall End Bucket Count 4: 31395
 ROB Critical Load Stall Begin Bucket Count 4: 0
 ROB Critical Load Stall End Bucket Count 4: 0
 ROB Load Stall Begin Bucket Count 5: 14721
 ROB Load Stall End Bucket Count 5: 16273
 ROB Critical Load Stall Begin Bucket Count 5: 0
 ROB Critical Load Stall End Bucket Count 5: 0
 ROB Load Stall Begin Bucket Count 6: 46230
 ROB Load Stall End Bucket Count 6: 48390
 ROB Critical Load Stall Begin Bucket Count 6: 0
 ROB Critical Load Stall End Bucket Count 6: 0
PIST Tag Read Accesses: 0
PIST Read Accesses: 0
PIST Tag Write Accesses: 0
PIST Write Accesses: 0
Criticality detector called times: 0
Max global_stall_cycles_count: 0
Threshold Modified: 0 times, factor: 0
ITLB TOTAL     ACCESS:    9146039  HIT:    9050932  MISS:      95107  HIT %:    98.9601  MISS %:    1.03987   MPKI: 1.90214
ITLB LOAD TRANSLATION ACCESS:    8557540  HIT:    8509170  MISS:      48370  HIT %:    99.4348  MISS %:   0.565233   MPKI: 0.9674
ITLB TRANSLATION FROM L1D PREFETCHER ACCESS:     588499  HIT:     541762  MISS:      46737  HIT %:    92.0583  MISS %:    7.94173   MPKI: 0.93474
ITLB PREFETCH  REQUESTED:          0  ISSUED:          0  USEFUL:      35967  USELESS:      10769
ITLB USEFUL LOAD PREFETCHES:      35967 PREFETCH ISSUED TO LOWER LEVEL:          0  ACCURACY: inf
ITLB TIMELY PREFETCHES:      35967 LATE PREFETCHES: 90 DROPPED PREFETCHES: 87
ITLB PREFETCHES SAME FILL-ORIGIN LEVEL: 0 DIFFERENT FILL-ORIGIN LEVEL: 0
ITLB AVERAGE MISS LATENCY: 54341.6 cycles
ITLB RQ	ACCESS:   11325585	FORWARD:          0	MERGED:    2165798	TO_CACHE:    9159787

DTLB TOTAL     ACCESS:   11885719  HIT:   11692687  MISS:     193032  HIT %:    98.3759  MISS %:    1.62407   MPKI: 3.86064
DTLB LOAD TRANSLATION ACCESS:   11885719  HIT:   11692687  MISS:     193032  HIT %:    98.3759  MISS %:    1.62407   MPKI: 3.86064
DTLB PREFETCH  REQUESTED:          0  ISSUED:          0  USEFUL:          0  USELESS:          0
DTLB USEFUL LOAD PREFETCHES:          0 PREFETCH ISSUED TO LOWER LEVEL:          0  ACCURACY: -nan
DTLB TIMELY PREFETCHES:          0 LATE PREFETCHES: 0 DROPPED PREFETCHES: 0
DTLB PREFETCHES SAME FILL-ORIGIN LEVEL: 0 DIFFERENT FILL-ORIGIN LEVEL: 0
DTLB AVERAGE MISS LATENCY: 10.3086 cycles
DTLB RQ	ACCESS:   14399750	FORWARD:          0	MERGED:    2504028	TO_CACHE:   11895722

STLB TOTAL     ACCESS:     308442  HIT:     304049  MISS:       4393  HIT %:    98.5757  MISS %:    1.42425   MPKI: 0.08786
STLB LOAD TRANSLATION ACCESS:     241312  HIT:     237536  MISS:       3776  HIT %:    98.4352  MISS %:    1.56478   MPKI: 0.07552
STLB TRANSLATION FROM L1D PREFETCHER ACCESS:      67130  HIT:      66513  MISS:        617  HIT %:    99.0809  MISS %:   0.919112   MPKI: 0.01234
STLB PREFETCH  REQUESTED:          0  ISSUED:          0  USEFUL:        504  USELESS:        133
STLB USEFUL LOAD PREFETCHES:        504 PREFETCH ISSUED TO LOWER LEVEL:          0  ACCURACY: inf
STLB TIMELY PREFETCHES:        504 LATE PREFETCHES: 0 DROPPED PREFETCHES: 87
STLB PREFETCHES SAME FILL-ORIGIN LEVEL: 0 DIFFERENT FILL-ORIGIN LEVEL: 0
STLB AVERAGE MISS LATENCY: 92.5923 cycles
STLB RQ	ACCESS:     312132	FORWARD:          0	MERGED:       3602	TO_CACHE:     308530

STLB Hit, L1D data hit: 0
STLB Hit, L2C data hit: 0
STLB Hit, LLC data hit: 0
STLB Hit, LLC data miss: 0
STLB STLB hints to L2: 0
L1D TOTAL     ACCESS:   14144446  HIT:   13607051  MISS:     537395  HIT %:    96.2007  MISS %:    3.79934   MPKI: 10.7479
L1D LOAD      ACCESS:    9294258  HIT:    8896896  MISS:     397362  HIT %:    95.7247  MISS %:    4.27535   MPKI: 7.94724
L1D RFO       ACCESS:    4826750  HIT:    4695598  MISS:     131152  HIT %:    97.2828  MISS %:    2.71719   MPKI: 2.62304
L1D PREFETCH  ACCESS:      23438  HIT:      14557  MISS:       8881  HIT %:    62.1085  MISS %:    37.8915   MPKI: 0.17762
L1D PREFETCH  REQUESTED:      47823  ISSUED:      47823  USEFUL:       2477  USELESS:       6406
L1D USEFUL LOAD PREFETCHES:       2477 PREFETCH ISSUED TO LOWER LEVEL:       9009  ACCURACY: 27.4947
L1D TIMELY PREFETCHES:       2477 LATE PREFETCHES: 121 DROPPED PREFETCHES: 0
L1D PREFETCHES SAME FILL-ORIGIN LEVEL: 9009 DIFFERENT FILL-ORIGIN LEVEL: 0
L1D AVERAGE MISS LATENCY: 13190.2 cycles
L1D RQ	ACCESS:   13199928	FORWARD:          0	MERGED:    3775577	TO_CACHE:    9327506
L1D WQ	ACCESS:    5238055	FORWARD:      96858	MERGED:     165811	TO_CACHE:    5072244
L1D PQ	ACCESS:      23918	FORWARD:          0	MERGED:          0	TO_CACHE:      23905

L1D UNIQUE REGIONS ACCESSED: 0
L1D REGIONS CONFLICTS: 0
L1D Cross Page Prefetch Requests: 0
L1D Same Page Prefetch Requests: 27663
L1D ROI Sum of L1D PQ occupancy: 308533
L1D PREFETCHES PUSHED FROM L2C: 0
L1I TOTAL     ACCESS:   11247123  HIT:   10354516  MISS:     892607  HIT %:    92.0637  MISS %:    7.93631   MPKI: 17.8521
L1I LOAD      ACCESS:    9790775  HIT:    9599290  MISS:     191485  HIT %:    98.0442  MISS %:    1.95577   MPKI: 3.8297
L1I PREFETCH  ACCESS:    1456348  HIT:     755226  MISS:     701122  HIT %:    51.8575  MISS %:    48.1425   MPKI: 14.0224
L1I PREFETCH  REQUESTED:    1591241  ISSUED:    1589659  USEFUL:     427604  USELESS:     273518
L1I USEFUL LOAD PREFETCHES:     427604 PREFETCH ISSUED TO LOWER LEVEL:     717216  ACCURACY: 59.62
L1I TIMELY PREFETCHES:     427604 LATE PREFETCHES: 16094 DROPPED PREFETCHES: 166
L1I PREFETCHES SAME FILL-ORIGIN LEVEL: 717216 DIFFERENT FILL-ORIGIN LEVEL: 0
L1I AVERAGE MISS LATENCY: 1.01924e+06 cycles
L1I RQ	ACCESS:   14422265	FORWARD:          0	MERGED:    4613913	TO_CACHE:    9808352
L1I PQ	ACCESS:    1589659	FORWARD:          0	MERGED:      72426	TO_CACHE:    1517233

BTB TOTAL     ACCESS:    7750112  HIT:    6953064  MISS:     797048  HIT %:    89.7157  MISS %:    10.2843   MPKI: 15.941
BTB BRANCH_DIRECT_JUMP	ACCESS:     644555  HIT:     617941  MISS:      26614
BTB BRANCH_INDIRECT	ACCESS:     201946  HIT:     110721  MISS:      91225
BTB BRANCH_CONDITIONAL	ACCESS:    4875062  HIT:    4805966  MISS:      69096
BTB BRANCH_DIRECT_CALL	ACCESS:     564821  HIT:     520817  MISS:      44004
BTB BRANCH_INDIRECT_CALL	ACCESS:     445012  HIT:     287828  MISS:     157184
BTB BRANCH_RETURN	ACCESS:    1018716  HIT:     609791  MISS:     408925
BTB BRANCH_OTHER ACCESS:          0  HIT:          0  MISS:          0

L2C TOTAL     ACCESS:    1627215  HIT:    1330794  MISS:     296421  HIT %:    81.7835  MISS %:    18.2165   MPKI: 5.92842
L2C LOAD      ACCESS:     572617  HIT:     477643  MISS:      94974  HIT %:     83.414  MISS %:     16.586   MPKI: 1.89948
L2C DATA LOAD MPKI: 1.10164
L2C INSTRUCTION LOAD MPKI: 0.79784
L2C RFO       ACCESS:     131141  HIT:      50497  MISS:      80644  HIT %:    38.5059  MISS %:    61.4941   MPKI: 1.61288
L2C PREFETCH  ACCESS:     726225  HIT:     616708  MISS:     109517  HIT %:    84.9197  MISS %:    15.0803   MPKI: 2.19034
L2C DATA PREFETCH MPKI: 0.05336
L2C INSTRUCTION PREFETCH MPKI: 2.13698
L2C WRITEBACK ACCESS:     192501  HIT:     183816  MISS:       8685  HIT %:    95.4883  MISS %:    4.51166   MPKI: 0.1737
L2C LOAD TRANSLATION ACCESS:       4006  HIT:       1829  MISS:       2177  HIT %:    45.6565  MISS %:    54.3435   MPKI: 0.04354
L2C TRANSLATION FROM L1D PREFETCHER ACCESS:        725  HIT:        301  MISS:        424  HIT %:    41.5172  MISS %:    58.4828   MPKI: 0.00848
L2C PREFETCH  REQUESTED:          0  ISSUED:          0  USEFUL:       9336  USELESS:      99694
L2C USEFUL LOAD PREFETCHES:       9336 PREFETCH ISSUED TO LOWER LEVEL:     109517  ACCURACY: 8.5247
L2C TIMELY PREFETCHES:       9336 LATE PREFETCHES: 0 DROPPED PREFETCHES: 0
L2C PREFETCHES SAME FILL-ORIGIN LEVEL: 0 DIFFERENT FILL-ORIGIN LEVEL: 0
L2C AVERAGE MISS LATENCY: 83.1708 cycles
L2C RQ	ACCESS:     708508	FORWARD:          0	MERGED:          0	TO_CACHE:     708489
L2C WQ	ACCESS:     192501	FORWARD:         19	MERGED:          0	TO_CACHE:     192501
L2C PQ	ACCESS:     726225	FORWARD:          0	MERGED:          0	TO_CACHE:     726225

L2C Instructions Evicting Data 71867
L2C Translations Evicting Data 1318
L2C Data Evicting Data 70246
L2C Instructions Evicting Instructions 73627
L2C Translations Evicting Instructions 1257
L2C Data Evicting Instructions 66907
L2C Instructions Evicting Translations 1247
L2C Translations Evicting Translations 26
L2C Data Evicting Translations 1241
L2C Dense regions hint from L2: 0
PSCL5 TOTAL     ACCESS:       4480  HIT:       4480  MISS:          0  HIT %:        100  MISS %:          0   MPKI: 0
PSCL5 LOAD TRANSLATION ACCESS:       3776  HIT:       3776  MISS:          0  HIT %:        100  MISS %:          0   MPKI: 0
PSCL5 TRANSLATION FROM L1D PREFETCHER ACCESS:        704  HIT:        704  MISS:          0  HIT %:        100  MISS %:          0   MPKI: 0
PSCL5 PREFETCH  REQUESTED:          0  ISSUED:          0  USEFUL:          0  USELESS:          0
PSCL5 USEFUL LOAD PREFETCHES:          0 PREFETCH ISSUED TO LOWER LEVEL:          0  ACCURACY: -nan
PSCL5 TIMELY PREFETCHES:          0 LATE PREFETCHES: 0 DROPPED PREFETCHES: 0
PSCL5 PREFETCHES SAME FILL-ORIGIN LEVEL: 0 DIFFERENT FILL-ORIGIN LEVEL: 0

PSCL4 TOTAL     ACCESS:       4477  HIT:       4476  MISS:          1  HIT %:    99.9777  MISS %:  0.0223364   MPKI: 2e-05
PSCL4 LOAD TRANSLATION ACCESS:       3773  HIT:       3772  MISS:          1  HIT %:    99.9735  MISS %:  0.0265041   MPKI: 2e-05
PSCL4 TRANSLATION FROM L1D PREFETCHER ACCESS:        704  HIT:        704  MISS:          0  HIT %:        100  MISS %:          0   MPKI: 0
PSCL4 PREFETCH  REQUESTED:          0  ISSUED:          0  USEFUL:          0  USELESS:          0
PSCL4 USEFUL LOAD PREFETCHES:          0 PREFETCH ISSUED TO LOWER LEVEL:          0  ACCURACY: -nan
PSCL4 TIMELY PREFETCHES:          0 LATE PREFETCHES: 0 DROPPED PREFETCHES: 0
PSCL4 PREFETCHES SAME FILL-ORIGIN LEVEL: 0 DIFFERENT FILL-ORIGIN LEVEL: 0

PSCL3 TOTAL     ACCESS:       4330  HIT:       4310  MISS:         20  HIT %:    99.5381  MISS %:   0.461894   MPKI: 0.0004
PSCL3 LOAD TRANSLATION ACCESS:       3666  HIT:       3646  MISS:         20  HIT %:    99.4544  MISS %:   0.545554   MPKI: 0.0004
PSCL3 TRANSLATION FROM L1D PREFETCHER ACCESS:        664  HIT:        664  MISS:          0  HIT %:        100  MISS %:          0   MPKI: 0
PSCL3 PREFETCH  REQUESTED:          0  ISSUED:          0  USEFUL:          0  USELESS:          0
PSCL3 USEFUL LOAD PREFETCHES:          0 PREFETCH ISSUED TO LOWER LEVEL:          0  ACCURACY: -nan
PSCL3 TIMELY PREFETCHES:          0 LATE PREFETCHES: 0 DROPPED PREFETCHES: 0
PSCL3 PREFETCHES SAME FILL-ORIGIN LEVEL: 0 DIFFERENT FILL-ORIGIN LEVEL: 0

PSCL2 TOTAL     ACCESS:       4476  HIT:       4249  MISS:        227  HIT %:    94.9285  MISS %:    5.07149   MPKI: 0.00454
PSCL2 LOAD TRANSLATION ACCESS:       3793  HIT:       3566  MISS:        227  HIT %:    94.0153  MISS %:    5.98471   MPKI: 0.00454
PSCL2 TRANSLATION FROM L1D PREFETCHER ACCESS:        683  HIT:        683  MISS:          0  HIT %:        100  MISS %:          0   MPKI: 0
PSCL2 PREFETCH  REQUESTED:          0  ISSUED:          0  USEFUL:          0  USELESS:          0
PSCL2 USEFUL LOAD PREFETCHES:          0 PREFETCH ISSUED TO LOWER LEVEL:          0  ACCURACY: -nan
PSCL2 TIMELY PREFETCHES:          0 LATE PREFETCHES: 0 DROPPED PREFETCHES: 0
PSCL2 PREFETCHES SAME FILL-ORIGIN LEVEL: 0 DIFFERENT FILL-ORIGIN LEVEL: 0

LLC TOTAL     ACCESS:     379272  HIT:     273342  MISS:     105930  HIT %:    72.0702  MISS %:    27.9298   MPKI: 2.1186
LLC LOAD      ACCESS:      94974  HIT:      67631  MISS:      27343  HIT %:      71.21  MISS %:      28.79   MPKI: 0.54686
LLC RFO       ACCESS:      80643  HIT:      37313  MISS:      43330  HIT %:    46.2694  MISS %:    53.7306   MPKI: 0.8666
LLC PREFETCH  ACCESS:     109517  HIT:      78369  MISS:      31148  HIT %:    71.5588  MISS %:    28.4412   MPKI: 0.62296
LLC WRITEBACK ACCESS:      91537  HIT:      88452  MISS:       3085  HIT %:    96.6298  MISS %:    3.37022   MPKI: 0.0617
LLC LOAD TRANSLATION ACCESS:       2177  HIT:       1266  MISS:        911  HIT %:    58.1534  MISS %:    41.8466   MPKI: 0.01822
LLC TRANSLATION FROM L1D PREFETCHER ACCESS:        424  HIT:        311  MISS:        113  HIT %:    73.3491  MISS %:    26.6509   MPKI: 0.00226
LLC PREFETCH  REQUESTED:          0  ISSUED:          0  USEFUL:       2350  USELESS:      27181
LLC USEFUL LOAD PREFETCHES:       2350 PREFETCH ISSUED TO LOWER LEVEL:      31148  ACCURACY: 7.54463
LLC TIMELY PREFETCHES:       2350 LATE PREFETCHES: 0 DROPPED PREFETCHES: 0
LLC PREFETCHES SAME FILL-ORIGIN LEVEL: 0 DIFFERENT FILL-ORIGIN LEVEL: 0
LLC AVERAGE MISS LATENCY: 151.111 cycles
LLC RQ	ACCESS:     178219	FORWARD:          0	MERGED:          0	TO_CACHE:     178218
LLC WQ	ACCESS:      91537	FORWARD:          1	MERGED:          0	TO_CACHE:      91537
LLC PQ	ACCESS:     109517	FORWARD:          0	MERGED:          0	TO_CACHE:     109517

LLC Dense regions hint to LLC: 0

RAW hits: 1009388
Loads Generated: 14209317
Loads sent to L1D: 13199928
Stores Generated: 5238050
Stores sent to L1D: 5238055
Major fault: 0 Minor fault: 4055
Allocated PAGES: 4055
I-Shadow cache 408 bytes
Touched + WorthPF tables 6144 bytes 
MMA filter 174 bytes 
FNL filter 272 bytes 
TOTAL PREFETCHER STORAGE SIZE: 25174 bytes
CPU 0 L1I next line prefetcher final stats

stream: 
stream:times selected: 32735
stream:pref_filled: 8970
stream:pref_useful: 2440
stream:pref_late: 149
stream:misses: 457
stream:misses_by_poll: 0

CS: 
CS:times selected: 427
CS:pref_filled: 266
CS:pref_useful: 164
CS:pref_late: 5
CS:misses: 18
CS:misses_by_poll: 0

CPLX: 
CPLX:times selected: 31640
CPLX:pref_filled: 1183
CPLX:pref_useful: 285
CPLX:pref_late: 5
CPLX:misses: 1843
CPLX:misses_by_poll: 1

NL_L1: 
NL:times selected: 380
NL:pref_filled: 106
NL:pref_useful: 35
NL:pref_late: 1
NL:misses: 32
NL:misses_by_poll: 0

total selections: 65182
total_filled: 8881
total_useful: 2477
total_late: 174
total_polluted: 1
total_misses_after_warmup: 13042
conflicts: 108869
Degree Incremented Times: 0
Degree Decremented Times: 3340

L1 IP Table Write Accesses: 177262
L1 IP Table Read Accesses: 68393
L1 RST Write Accesses: 29470
L1 RST Read Accesses: 58940
L1 CSPT Write Accesses: 29470
L1 CSPT Read Accesses: 70803
L1 RR Filter Tag Write Accesses: 23918
L1 RR Filter Tag Read Accesses: 998718
L1 IP Table Tag Write Accesses: 302570
L1 IP Table Tag Read Accesses: 302570
L1 RST Tag Write Accesses: 0
L1 RST Tag Read Accesses: 263426
L1 RR Filter Write Accesses: 0
L1 RR Filter Read Accesses: 33930
test: 13910

DRAM Statistics
 CHANNEL 0
 RQ ROW_BUFFER_HIT:      25511  ROW_BUFFER_MISS:      77328
 DBUS_CONGESTED:        142
 WQ ROW_BUFFER_HIT:       7456  ROW_BUFFER_MISS:      36288  FULL:          0

 AVG_CONGESTED_CYCLE: 4
 All warmup complete: 2
Channel 0 Bank busy for read cycles: 0
Channel 0 Bank busy for write cycles: 0
Channel 0
Rank 0
0banks busy for read cycles: 71454879
0banks busy for write cycles: 16716
1banks busy for read cycles: 4944811
1banks busy for write cycles: 2205276
2banks busy for read cycles: 1329753
2banks busy for write cycles: 716346
3banks busy for read cycles: 497111
3banks busy for write cycles: 367586
4banks busy for read cycles: 274245
4banks busy for write cycles: 226203
5banks busy for read cycles: 176777
5banks busy for write cycles: 145629
6banks busy for read cycles: 171873
6banks busy for write cycles: 100390
7banks busy for read cycles: 69747
7banks busy for write cycles: 82598
8banks busy for read cycles: 36959
8banks busy for write cycles: 128405

CPU 0 Branch Prediction Accuracy: 94.1242% MPKI: 11.6089 Average ROB Occupancy at Mispredict: 34.5539
Branch types
NOT_BRANCH: 40121074 80.2421%
BRANCH_DIRECT_JUMP: 644555 1.28911%
BRANCH_INDIRECT: 201946 0.403892%
BRANCH_CONDITIONAL: 7003556 14.0071%
BRANCH_DIRECT_CALL: 564821 1.12964%
BRANCH_INDIRECT_CALL: 445012 0.890024%
BRANCH_RETURN: 1018716 2.03743%
BRANCH_OTHER: 0 0%

DRAM PAGES: 1048576
Allocated PAGES: 4055
