Initialize SIGNATURE TABLE
ST_SET: 1
ST_WAY: 256
ST_TAG_BIT: 16
ST_TAG_MASK: ffff

Initialize PATTERN TABLE
PT_SET: 512
PT_WAY: 4
SIG_DELTA_BIT: 7
C_SIG_BIT: 4
C_DELTA_BIT: 4

Initialize PREFETCH FILTER
FILTER_SET: 1024

Initialize PERCEPTRON
PERC_ENTRIES: 4096
PERC_FEATURES: 9
MANA initialize 
tds: 2 tdm: 4
size MANA SINGLE: 25.5 KB
size MANA NULTIPLE: 9.875 KB
size HOBPT: 0.703125 KB
size SRQ: 0.0644531 KB
size SABs: 0.0402832 KB
size prefetch queue: 0.453125 KB
total: 36.636 KB

*** ChampSim Multicore Out-of-Order Simulator ***

Warmup Instructions: 50000000
Simulation Instructions: 50000000
Number of CPUs: 1
LLC sets: 2048
LLC ways: 16
Off-chip DRAM Size: 4096 MB Channels: 1 Width: 64-bit Data Rate: 6400 MT/s
CPU 0 runs ../IPC-traces//client_007.champsimtrace.xz
.xz
BTB has LRU replacement policy
ITLB has LRU replacement policy
DTLB has LRU replacement policy
STLB has LRU replacement policy
L1I has LRU replacement policy
L1D has LRU replacement policy
Initialize SRRIP state for L2C
Initialize DRRIP state for LLC
Heartbeat CPU 0 instructions: 10000003 cycles: 3196554 heartbeat IPC: 3.12837 cumulative IPC: 3.12837 (Simulation time: 0 hr 4 min 9 sec) 
Heartbeat CPU 0 instructions: 20000003 cycles: 6257958 heartbeat IPC: 3.26648 cumulative IPC: 3.19593 (Simulation time: 0 hr 7 min 43 sec) 
Heartbeat CPU 0 instructions: 30000000 cycles: 9449038 heartbeat IPC: 3.13373 cumulative IPC: 3.17493 (Simulation time: 0 hr 12 min 42 sec) 
Heartbeat CPU 0 instructions: 40000003 cycles: 12754366 heartbeat IPC: 3.02542 cumulative IPC: 3.13618 (Simulation time: 0 hr 17 min 11 sec) 
Heartbeat CPU 0 instructions: 50000001 cycles: 15725081 heartbeat IPC: 3.36619 cumulative IPC: 3.17963 (Simulation time: 0 hr 20 min 21 sec) 

Warmup complete CPU 0 instructions: 50000001 cycles: 15725081 (Simulation time: 0 hr 20 min 21 sec) 

Epoch all ip prefetch: 0, epoch id: 2
Epoch all ip prefetch: 1, epoch id: 3
Epoch all ip prefetch: 0, epoch id: 4
Epoch all ip prefetch: 0, epoch id: 5
Epoch all ip prefetch: 0, epoch id: 6
Epoch all ip prefetch: 0, epoch id: 7
Epoch all ip prefetch: 0, epoch id: 8
Epoch all ip prefetch: 0, epoch id: 9
Epoch all ip prefetch: 0, epoch id: 10
Epoch all ip prefetch: 0, epoch id: 11
Heartbeat CPU 0 instructions: 60000003 cycles: 29088739 heartbeat IPC: 0.748298 cumulative IPC: 0.748298 (Simulation time: 0 hr 24 min 20 sec) 
Epoch all ip prefetch: 0, epoch id: 12
Epoch all ip prefetch: 0, epoch id: 13
Epoch all ip prefetch: 0, epoch id: 14
Epoch all ip prefetch: 0, epoch id: 15
Epoch all ip prefetch: 0, epoch id: 16
Epoch all ip prefetch: 0, epoch id: 17
Epoch all ip prefetch: 0, epoch id: 18
Epoch all ip prefetch: 0, epoch id: 19
Epoch all ip prefetch: 0, epoch id: 20
Epoch all ip prefetch: 0, epoch id: 21
Heartbeat CPU 0 instructions: 70000003 cycles: 45222193 heartbeat IPC: 0.61983 cumulative IPC: 0.678033 (Simulation time: 0 hr 28 min 29 sec) 
Epoch all ip prefetch: 0, epoch id: 22
Epoch all ip prefetch: 0, epoch id: 23
Epoch all ip prefetch: 0, epoch id: 24
Epoch all ip prefetch: 0, epoch id: 25
Epoch all ip prefetch: 0, epoch id: 26
Epoch all ip prefetch: 0, epoch id: 27
Epoch all ip prefetch: 0, epoch id: 28
Epoch all ip prefetch: 0, epoch id: 29
Epoch all ip prefetch: 0, epoch id: 30
Epoch all ip prefetch: 0, epoch id: 31
Heartbeat CPU 0 instructions: 80000001 cycles: 55658786 heartbeat IPC: 0.958167 cumulative IPC: 0.751245 (Simulation time: 0 hr 31 min 56 sec) 
Epoch all ip prefetch: 0, epoch id: 32
Epoch all ip prefetch: 0, epoch id: 33
Epoch all ip prefetch: 0, epoch id: 34
Epoch all ip prefetch: 0, epoch id: 35
Epoch all ip prefetch: 0, epoch id: 36
Epoch all ip prefetch: 0, epoch id: 37
Epoch all ip prefetch: 0, epoch id: 38
Epoch all ip prefetch: 0, epoch id: 39
Epoch all ip prefetch: 0, epoch id: 40
Epoch all ip prefetch: 0, epoch id: 41
Heartbeat CPU 0 instructions: 90000001 cycles: 69981947 heartbeat IPC: 0.69817 cumulative IPC: 0.737234 (Simulation time: 0 hr 35 min 41 sec) 
Epoch all ip prefetch: 0, epoch id: 42
Epoch all ip prefetch: 0, epoch id: 43
Epoch all ip prefetch: 0, epoch id: 44
Epoch all ip prefetch: 0, epoch id: 45
Epoch all ip prefetch: 0, epoch id: 46
Epoch all ip prefetch: 0, epoch id: 47
Epoch all ip prefetch: 0, epoch id: 48
Epoch all ip prefetch: 0, epoch id: 49
Epoch all ip prefetch: 0, epoch id: 50
Epoch all ip prefetch: 0, epoch id: 51
Heartbeat CPU 0 instructions: 100000000 cycles: 84653185 heartbeat IPC: 0.681606 cumulative IPC: 0.725394 (Simulation time: 0 hr 38 min 29 sec) 
Finished CPU 0 instructions: 50000001 cycles: 68928105 cumulative IPC: 0.725394 (Simulation time: 0 hr 38 min 29 sec) 

ChampSim completed all CPUs

Region of Interest Statistics

CPU 0 cumulative IPC: 0.725394 instructions: 50000001 cycles: 68928105

CPU 0 Average Load ROB stall cycles: 3.40074
CPU 0 Fraction of times ROB stalled by Loads: 26.6025
CPU 0 Percentage of Load stall cycles in Total stall cycles: 46.6979
CPU 0 NUM of IPS identified critical: 0

Average ROB occupancy Load Stall Begin: 85.4955
Average ROB occupancy Load Stall End: 93.6601
Min ROB occupancy Load Stall Begin: 1
Max ROB occupancy Load Stall Begin: 351
Min ROB occupancy Load Stall End: 1
Max ROB occupancy Load Stall End: 352
Average ROB occupancy Critical Load Stall Begin: -nan
Average ROB occupancy Critical Load Stall End: -nan
Min ROB occupancy Critical Load Stall Begin: 400
Max ROB occupancy Critical Load Stall Begin: 0
Min ROB occupancy Critical Load Stall End: 400
Max ROB occupancy Critical Load Stall End: 0
 ROB Load Stall Begin Bucket Count 0: 1034115
 ROB Load Stall End Bucket Count 0: 875082
 ROB Critical Load Stall Begin Bucket Count 0: 0
 ROB Critical Load Stall End Bucket Count 0: 0
 ROB Load Stall Begin Bucket Count 1: 352652
 ROB Load Stall End Bucket Count 1: 464093
 ROB Critical Load Stall Begin Bucket Count 1: 0
 ROB Critical Load Stall End Bucket Count 1: 0
 ROB Load Stall Begin Bucket Count 2: 171801
 ROB Load Stall End Bucket Count 2: 192223
 ROB Critical Load Stall Begin Bucket Count 2: 0
 ROB Critical Load Stall End Bucket Count 2: 0
 ROB Load Stall Begin Bucket Count 3: 87882
 ROB Load Stall End Bucket Count 3: 100360
 ROB Critical Load Stall Begin Bucket Count 3: 0
 ROB Critical Load Stall End Bucket Count 3: 0
 ROB Load Stall Begin Bucket Count 4: 40042
 ROB Load Stall End Bucket Count 4: 46951
 ROB Critical Load Stall Begin Bucket Count 4: 0
 ROB Critical Load Stall End Bucket Count 4: 0
 ROB Load Stall Begin Bucket Count 5: 21617
 ROB Load Stall End Bucket Count 5: 25155
 ROB Critical Load Stall Begin Bucket Count 5: 0
 ROB Critical Load Stall End Bucket Count 5: 0
 ROB Load Stall Begin Bucket Count 6: 168627
 ROB Load Stall End Bucket Count 6: 172872
 ROB Critical Load Stall Begin Bucket Count 6: 0
 ROB Critical Load Stall End Bucket Count 6: 0
Threshold Modified: 1 times, factor: -1
Sturdy critical IP cache stats: 
 Unused entries: 96
Wobbly critical IP cache stats: 
 Unused entries: 192
ITLB TOTAL     ACCESS:   11431239  HIT:   11258880  MISS:     172359  HIT %:    98.4922  MISS %:    1.50779   MPKI: 3.44718
ITLB LOAD TRANSLATION ACCESS:    8136899  HIT:    8098456  MISS:      38443  HIT %:    99.5275  MISS %:   0.472453   MPKI: 0.76886
ITLB TRANSLATION FROM L1D PREFETCHER ACCESS:    3294340  HIT:    3160424  MISS:     133916  HIT %:     95.935  MISS %:    4.06503   MPKI: 2.67832
ITLB AVERAGE MISS LATENCY: 2.02388e+06 cycles
ITLB RQ	ACCESS:   20397937	FORWARD:          0	MERGED:    8932287	TO_CACHE:   11465650

DTLB TOTAL     ACCESS:   11682359  HIT:   11365478  MISS:     316881  HIT %:    97.2875  MISS %:    2.71247   MPKI: 6.33762
DTLB LOAD TRANSLATION ACCESS:   11682359  HIT:   11365478  MISS:     316881  HIT %:    97.2875  MISS %:    2.71247   MPKI: 6.33762
DTLB AVERAGE MISS LATENCY: 10.5244 cycles
DTLB RQ	ACCESS:   13949649	FORWARD:          0	MERGED:    2251968	TO_CACHE:   11697681

STLB TOTAL     ACCESS:     489240  HIT:     485028  MISS:       4212  HIT %:    99.1391  MISS %:   0.860927   MPKI: 0.08424
STLB LOAD TRANSLATION ACCESS:     347435  HIT:     343483  MISS:       3952  HIT %:    98.8625  MISS %:    1.13748   MPKI: 0.07904
STLB TRANSLATION FROM L1D PREFETCHER ACCESS:     141805  HIT:     141545  MISS:        260  HIT %:    99.8166  MISS %:    0.18335   MPKI: 0.0052
STLB AVERAGE MISS LATENCY: 141 cycles
STLB RQ	ACCESS:     495377	FORWARD:          0	MERGED:          0	TO_CACHE:     495377

STLB Hit, L1D data hit: 0
STLB Hit, L2C data hit: 0
STLB Hit, LLC data hit: 0
STLB Hit, LLC data miss: 0
STLB STLB hints to L2: 0
L1D TOTAL     ACCESS:   13790925  HIT:   13224793  MISS:     566132  HIT %:    95.8949  MISS %:    4.10511   MPKI: 11.3226
L1D LOAD      ACCESS:    8865892  HIT:    8375830  MISS:     490062  HIT %:    94.4725  MISS %:     5.5275   MPKI: 9.80124
L1D RFO       ACCESS:    4925033  HIT:    4848963  MISS:      76070  HIT %:    98.4554  MISS %:    1.54456   MPKI: 1.5214
L1D AVERAGE MISS LATENCY: 43.6721 cycles
L1D RQ	ACCESS:   12834927	FORWARD:          0	MERGED:    3842215	TO_CACHE:    8906857
L1D WQ	ACCESS:    5437654	FORWARD:      85855	MERGED:     394862	TO_CACHE:    5042792

L1D UNIQUE REGIONS ACCESSED: 0
L1D REGIONS CONFLICTS: 0
L1D Cross Page Prefetch Requests: 0
L1D Same Page Prefetch Requests: 0
L1D ROI Sum of L1D PQ occupancy: 0
L1D PREFETCHES PUSHED FROM L2C: 0
L1I TOTAL     ACCESS:   20220369  HIT:   19249595  MISS:     970774  HIT %:     95.199  MISS %:    4.80097   MPKI: 19.4155
L1I LOAD      ACCESS:    9607582  HIT:    9444014  MISS:     163568  HIT %:    98.2975  MISS %:    1.70249   MPKI: 3.27136
L1I PREFETCH  ACCESS:   10612787  HIT:    9805581  MISS:     807206  HIT %:     92.394  MISS %:    7.60598   MPKI: 16.1441
L1I PREFETCH  REQUESTED:   13014077  ISSUED:   11765194  USEFUL:     676688  USELESS:     130517
L1I USEFUL LOAD PREFETCHES:     676688 PREFETCH ISSUED TO LOWER LEVEL:     866703  ACCURACY: 78.0761
L1I TIMELY PREFETCHES:     676688 LATE PREFETCHES: 43267 DROPPED PREFETCHES: 6165
L1I AVERAGE MISS LATENCY: 1.95196e+06 cycles
L1I RQ	ACCESS:   14355902	FORWARD:          0	MERGED:    4716925	TO_CACHE:    9638977
L1I PQ	ACCESS:   11765194	FORWARD:          0	MERGED:    1006234	TO_CACHE:   10758960

BTB TOTAL     ACCESS:    6145727  HIT:    5759300  MISS:     386427  HIT %:    93.7123  MISS %:    6.28773   MPKI: 7.72854
BTB BRANCH_DIRECT_JUMP	ACCESS:     735331  HIT:     732025  MISS:       3306
BTB BRANCH_INDIRECT	ACCESS:     269205  HIT:     145710  MISS:     123495
BTB BRANCH_CONDITIONAL	ACCESS:    3930762  HIT:    3920636  MISS:      10126
BTB BRANCH_DIRECT_CALL	ACCESS:     368758  HIT:     363374  MISS:       5384
BTB BRANCH_INDIRECT_CALL	ACCESS:     226975  HIT:     162973  MISS:      64002
BTB BRANCH_RETURN	ACCESS:     614696  HIT:     434582  MISS:     180114
BTB BRANCH_OTHER ACCESS:          0  HIT:          0  MISS:          0

L2C TOTAL     ACCESS:    3502389  HIT:    3112910  MISS:     389479  HIT %:    88.8796  MISS %:    11.1204   MPKI: 7.78958
L2C LOAD      ACCESS:     610229  HIT:     535764  MISS:      74465  HIT %:    87.7972  MISS %:    12.2028   MPKI: 1.4893
L2C DATA LOAD MPKI: 1.35408
L2C INSTRUCTION LOAD MPKI: 0.13522
L2C RFO       ACCESS:      76060  HIT:      30286  MISS:      45774  HIT %:    39.8186  MISS %:    60.1814   MPKI: 0.91548
L2C PREFETCH  ACCESS:    2573348  HIT:    2312462  MISS:     260886  HIT %:     89.862  MISS %:     10.138   MPKI: 5.21772
L2C DATA PREFETCH MPKI: 4.81176
L2C INSTRUCTION PREFETCH MPKI: 0.40596
L2C WRITEBACK ACCESS:     232204  HIT:     225884  MISS:       6320  HIT %:    97.2783  MISS %:    2.72174   MPKI: 0.1264
L2C LOAD TRANSLATION ACCESS:       4132  HIT:       2307  MISS:       1825  HIT %:    55.8325  MISS %:    44.1675   MPKI: 0.0365
L2C TRANSLATION FROM L1D PREFETCHER ACCESS:       6416  HIT:       6207  MISS:        209  HIT %:    96.7425  MISS %:    3.25748   MPKI: 0.00418
L2C PREFETCH  REQUESTED:    2194974  ISSUED:    2192572  USEFUL:      71615  USELESS:     193523
L2C USEFUL LOAD PREFETCHES:      71615 PREFETCH ISSUED TO LOWER LEVEL:     278742  ACCURACY: 25.6922
L2C TIMELY PREFETCHES:      71615 LATE PREFETCHES: 6069 DROPPED PREFETCHES: 0
L2C AVERAGE MISS LATENCY: 107.579 cycles
L2C RQ	ACCESS:     696981	FORWARD:          0	MERGED:          0	TO_CACHE:     696837
L2C WQ	ACCESS:     232204	FORWARD:        149	MERGED:          0	TO_CACHE:     232204
L2C PQ	ACCESS:    3043045	FORWARD:          0	MERGED:     439870	TO_CACHE:    2603170

L2C Instructions Evicting Data23638
L2C Translations Evicting Data1828
L2C Data Evicting Data328169
L2C Instructions Evicting Instructions3255
L2C Translations Evicting Instructions186
L2C Data Evicting Instructions24133
L2C Instructions Evicting Translations166
L2C Translations Evicting Translations20
L2C Data Evicting Translations1764
L2C Dense regions hint from L2: 0
PSCL5 TOTAL     ACCESS:      10349  HIT:      10349  MISS:          0  HIT %:        100  MISS %:          0   MPKI: 0
PSCL5 LOAD TRANSLATION ACCESS:       3952  HIT:       3952  MISS:          0  HIT %:        100  MISS %:          0   MPKI: 0
PSCL5 TRANSLATION FROM L1D PREFETCHER ACCESS:       6397  HIT:       6397  MISS:          0  HIT %:        100  MISS %:          0   MPKI: 0

PSCL4 TOTAL     ACCESS:       9410  HIT:       9403  MISS:          7  HIT %:    99.9256  MISS %:  0.0743889   MPKI: 0.00014
PSCL4 LOAD TRANSLATION ACCESS:       3684  HIT:       3677  MISS:          7  HIT %:      99.81  MISS %:   0.190011   MPKI: 0.00014
PSCL4 TRANSLATION FROM L1D PREFETCHER ACCESS:       5726  HIT:       5726  MISS:          0  HIT %:        100  MISS %:          0   MPKI: 0

PSCL3 TOTAL     ACCESS:      10261  HIT:      10245  MISS:         16  HIT %:    99.8441  MISS %:    0.15593   MPKI: 0.00032
PSCL3 LOAD TRANSLATION ACCESS:       3912  HIT:       3896  MISS:         16  HIT %:     99.591  MISS %:   0.408998   MPKI: 0.00032
PSCL3 TRANSLATION FROM L1D PREFETCHER ACCESS:       6349  HIT:       6349  MISS:          0  HIT %:        100  MISS %:          0   MPKI: 0

PSCL2 TOTAL     ACCESS:      10348  HIT:      10168  MISS:        180  HIT %:    98.2605  MISS %:    1.73947   MPKI: 0.0036
PSCL2 LOAD TRANSLATION ACCESS:       3970  HIT:       3790  MISS:        180  HIT %:     95.466  MISS %:    4.53401   MPKI: 0.0036
PSCL2 TRANSLATION FROM L1D PREFETCHER ACCESS:       6378  HIT:       6378  MISS:          0  HIT %:        100  MISS %:          0   MPKI: 0

LLC TOTAL     ACCESS:     471767  HIT:     283105  MISS:     188662  HIT %:    60.0095  MISS %:    39.9905   MPKI: 3.77324
LLC LOAD      ACCESS:      68412  HIT:      31540  MISS:      36872  HIT %:     46.103  MISS %:     53.897   MPKI: 0.73744
LLC RFO       ACCESS:      45757  HIT:       5511  MISS:      40246  HIT %:    12.0441  MISS %:    87.9559   MPKI: 0.80492
LLC PREFETCH  ACCESS:     278666  HIT:     171936  MISS:     106730  HIT %:    61.6997  MISS %:    38.3003   MPKI: 2.1346
LLC WRITEBACK ACCESS:      76898  HIT:      73487  MISS:       3411  HIT %:    95.5643  MISS %:    4.43575   MPKI: 0.06822
LLC LOAD TRANSLATION ACCESS:       1825  HIT:        568  MISS:       1257  HIT %:    31.1233  MISS %:    68.8767   MPKI: 0.02514
LLC TRANSLATION FROM L1D PREFETCHER ACCESS:        209  HIT:         63  MISS:        146  HIT %:    30.1435  MISS %:    69.8565   MPKI: 0.00292
LLC AVERAGE MISS LATENCY: 165.773 cycles
LLC RQ	ACCESS:     116204	FORWARD:          0	MERGED:          0	TO_CACHE:     116203
LLC WQ	ACCESS:      76898	FORWARD:          2	MERGED:          0	TO_CACHE:      76898
LLC PQ	ACCESS:     278742	FORWARD:          0	MERGED:         10	TO_CACHE:     278731

LLC Dense regions hint to LLC: 0

RAW hits: 1045008
Loads Generated: 13879936
Loads sent to L1D: 12834927
Stores Generated: 5437650
Stores sent to L1D: 5437654
Major fault: 0 Minor fault: 4494
Allocated PAGES: 4494



Printing Logs
statHeadFound: 2025629
statHeadMissing: 1476993
statStreamBufferHit: 12149872
statPrefetchEntryFound: 7753805
statCompactorMatch: 13929726
statStreamTrackerLookup: 15652494
statRecord: 1722768
statGetPointer: 3502622
statEnqueuePrefetch: 23374404
statPrefetchQueueIsFull: 1576
StreamBufferHitRate: 0.776226
Regions' size: 5768
next_region_correct: 1101591
next_region_wrong: 615401
next_region_correct_prediction: 0.641582
statStreamBufferLookups: 156524940
statL1iLookups: 186995232
statCompactorLookups: 250439904
------------------
Depth Distribution
------------------
depth 0: 101525
depth 1: 291061
depth 2: 1367401
depth 3: 1045376
depth 4: 46689
depth 5: 5785
depth 6: 785
depth 7: 677
depth 8: 514
depth 9: 613
depth 10: 523
depth 11: 836
depth 12: 756
depth 13: 215
depth 14: 141
depth 15: 8
depth 16: 1
depth 17: 0
depth 18: 0
depth 19: 0
depth 20: 0
depth 21: 0
depth 22: 0
depth 23: 0
depth 24: 0
depth 25: 0
depth 26: 0
depth 27: 0
depth 28: 0
depth 29: 0
Total: 2862906
------------------
ST read accesses: 552516026
ST write accesses: 57635345
PT read accesses: 25145415
PT write accesses: 1743732
FILTER read accesses: 6580726
FILTER write accesses: 3750333
GHR read accesses: 2610966
GHR write accesses: 291443
PERC read accesses: 162702234
PERC write accesses: 10957591
GHR counter read accesses: 2660662
GHR counter write accesses: 4398088
GHR ip read accesses: 10674075
GHR ip write accesses: 5321324

DRAM Statistics
 CHANNEL 0
 RQ ROW_BUFFER_HIT:      36372  ROW_BUFFER_MISS:     148874
 DBUS_CONGESTED:         76
 WQ ROW_BUFFER_HIT:       9702  ROW_BUFFER_MISS:      47145  FULL:          0

 AVG_CONGESTED_CYCLE: 4

CPU 0 Branch Prediction Accuracy: 98.8607% MPKI: 1.8623 Average ROB Occupancy at Mispredict: 69.9962
Branch types
NOT_BRANCH: 41826899 83.6538%
BRANCH_DIRECT_JUMP: 735331 1.47066%
BRANCH_INDIRECT: 269205 0.53841%
BRANCH_CONDITIONAL: 5957968 11.9159%
BRANCH_DIRECT_CALL: 368758 0.737516%
BRANCH_INDIRECT_CALL: 226975 0.45395%
BRANCH_RETURN: 614696 1.22939%
BRANCH_OTHER: 0 0%

DRAM PAGES: 1048576
Allocated PAGES: 4494
