
*** ChampSim Multicore Out-of-Order Simulator ***

Warmup Instructions: 50000000
Simulation Instructions: 50000000
Number of CPUs: 1
LLC sets: 2048
LLC ways: 16
Off-chip DRAM Size: 4096 MB Channels: 1 Width: 64-bit Data Rate: 6400 MT/s
CPU 0 runs ../IPC-traces//client_004.champsimtrace.xz
.xz
NUM_OF_IPS_IN_CRITICAL_IP_TRAINING: 64
NUM_OF_CRITICAL_IP_TRAINING_TABLE_WAYS: 2
NUM_OF_CRITICAL_IP_TRAINING_TABLE_SETS: 32
WOBBLY_CRITICAL_IP_CACHE_SETS: 32
WOBBLY_CRITICAL_IP_CACHE_WAYS: 4
BTB has LRU replacement policy
ITLB has LRU replacement policy
DTLB has LRU replacement policy
STLB has LRU replacement policy
CPU 0 L1I next line prefetcher
L1I has LRU replacement policy
IP Table Entries: 64
L1D has LRU replacement policy
Initialize SRRIP state for L2C
Initialize DRRIP state for LLC
Heartbeat CPU 0 instructions: 10000000 cycles: 3024400 heartbeat IPC: 3.30644 cumulative IPC: 3.30644 (Simulation time: 0 hr 4 min 56 sec) 
Heartbeat CPU 0 instructions: 20000001 cycles: 5874258 heartbeat IPC: 3.50895 cumulative IPC: 3.40469 (Simulation time: 0 hr 9 min 17 sec) 
Heartbeat CPU 0 instructions: 30000001 cycles: 8871301 heartbeat IPC: 3.33662 cumulative IPC: 3.38169 (Simulation time: 0 hr 13 min 43 sec) 
Heartbeat CPU 0 instructions: 40000001 cycles: 11862450 heartbeat IPC: 3.3432 cumulative IPC: 3.37198 (Simulation time: 0 hr 17 min 53 sec) 
Heartbeat CPU 0 instructions: 50000002 cycles: 14854769 heartbeat IPC: 3.34189 cumulative IPC: 3.36592 (Simulation time: 0 hr 22 min 5 sec) 

Warmup complete CPU 0 instructions: 50000002 cycles: 14854769 (Simulation time: 0 hr 22 min 5 sec) 

% increase in all ip prefetch 464.382
% increase in all ip prefetch -3.98414
Heartbeat CPU 0 instructions: 60000000 cycles: 31032146 heartbeat IPC: 0.618147 cumulative IPC: 0.618147 (Simulation time: 0 hr 25 min 43 sec) 
Heartbeat CPU 0 instructions: 70000001 cycles: 48054940 heartbeat IPC: 0.587448 cumulative IPC: 0.602407 (Simulation time: 0 hr 29 min 12 sec) 
Heartbeat CPU 0 instructions: 80000000 cycles: 65286219 heartbeat IPC: 0.58034 cumulative IPC: 0.594867 (Simulation time: 0 hr 32 min 42 sec) 
Heartbeat CPU 0 instructions: 90000000 cycles: 81823166 heartbeat IPC: 0.604707 cumulative IPC: 0.597297 (Simulation time: 0 hr 36 min 6 sec) 
Heartbeat CPU 0 instructions: 100000002 cycles: 97797689 heartbeat IPC: 0.625997 cumulative IPC: 0.602824 (Simulation time: 0 hr 39 min 27 sec) 
Finished CPU 0 instructions: 50000000 cycles: 82942920 cumulative IPC: 0.602824 (Simulation time: 0 hr 39 min 27 sec) 

ChampSim completed all CPUs

Region of Interest Statistics

CPU 0 cumulative IPC: 0.602824 instructions: 50000000 cycles: 82942920

CPU 0 Average Load ROB stall cycles: 2.36536e+07
CPU 0 Fraction of times ROB stalled by Loads: 41.7842
CPU 0 Percentage of Load stall cycles in Total stall cycles: 3.22233e+08
Issued all: 27702044
Issued LT all: 22005972
rob_not_full_when_issued_lt_all: 21173448
Issued LT one: 16683288
rob_not_full_when_issued_lt_one: 15999612
 Total stall cycles: 67532461
 Total load stall cycles: 217611730206840
CPU 0 NUM of IPS identified critical: 0
CPU 0 Num of Load IPs stalling ROB: 54358
Threshold modification factor: -1
Max PIST entries: 64
Min PIST entries: 0
Avg PIST entries: 32
Trouble in retire width: 0.903078
MaC = Marked as critical.
lt_50_percent_before_Mac: 0
gt_90_percent_before_Mac: 0
gt_75_percent_before_Mac: 0
gt_50_percent_before_Mac: 0
stall_proportion_bin_same_before_after: 0
stall_proportion_bin_lower_before_after: 0
stall_proportion_bin_upper_before_after: 0
average_stall_proportion_before: -nan
average_stall_proportion_after: -nan
Critical IP stalls, total frequency: 0
Non-critical IP stalls, total frequency: 3844121
Total Freq all stalling IPs: 3844121
stat_90_percent_critical_ip_stalls_freq: 3459750
stat_90_percent_non_critical_ip_stalls_freq: 384371
Critical_IP_ROB_Stalls_Bucket_0: 0
Non-critical_IP_ROB_Stalls_Bucket_0: 2423323
Critical_IP_ROB_Stalls_Bucket_1: 0
Non-critical_IP_ROB_Stalls_Bucket_1: 916222
Critical_IP_ROB_Stalls_Bucket_2: 0
Non-critical_IP_ROB_Stalls_Bucket_2: 314005
Critical_IP_ROB_Stalls_Bucket_3: 0
Non-critical_IP_ROB_Stalls_Bucket_3: 93106
Critical_IP_ROB_Stalls_Bucket_4: 0
Non-critical_IP_ROB_Stalls_Bucket_4: 31883
Critical_IP_ROB_Stalls_Bucket_5: 0
Non-critical_IP_ROB_Stalls_Bucket_5: 17124
Critical_IP_ROB_Stalls_Bucket_6: 0
Non-critical_IP_ROB_Stalls_Bucket_6: 48458
0 => IPs accounting for >50 percent of stalls, 1 => 55, 2 => 60, 3 => 65 and so on till 90.
percent50: 50.0127 num IPs:  849
percent55: 55.0116 num IPs: 1129
percent60: 60.004 num IPs: 1493
percent65: 65.0046 num IPs: 1967
percent70: 70.0027 num IPs: 2614
percent75: 75.0003 num IPs: 3506
percent80: 80.0001 num IPs: 4780
percent85: 85.0014 num IPs: 6731
percent90: 90.0001 num IPs: 9994
Critical_ROB_Stalls_Percent_0_Bucket_0: 1052390
Non-critical_ROB_Stalls_Percent_0_Bucket_0: 1370933
Critical_ROB_Stalls_Percent_0_Bucket_1: 538138
Non-critical_ROB_Stalls_Percent_0_Bucket_1: 378084
Critical_ROB_Stalls_Percent_0_Bucket_2: 197936
Non-critical_ROB_Stalls_Percent_0_Bucket_2: 116069
Critical_ROB_Stalls_Percent_0_Bucket_3: 62669
Non-critical_ROB_Stalls_Percent_0_Bucket_3: 30437
Critical_ROB_Stalls_Percent_0_Bucket_4: 21899
Non-critical_ROB_Stalls_Percent_0_Bucket_4: 9984
Critical_ROB_Stalls_Percent_0_Bucket_5: 11851
Non-critical_ROB_Stalls_Percent_0_Bucket_5: 5273
Critical_ROB_Stalls_Percent_0_Bucket_6: 37669
Non-critical_ROB_Stalls_Percent_0_Bucket_6: 10789
Critical_ROB_Stalls_Percent_1_Bucket_0: 1170129
Non-critical_ROB_Stalls_Percent_1_Bucket_0: 1253194
Critical_ROB_Stalls_Percent_1_Bucket_1: 588211
Non-critical_ROB_Stalls_Percent_1_Bucket_1: 328011
Critical_ROB_Stalls_Percent_1_Bucket_2: 214778
Non-critical_ROB_Stalls_Percent_1_Bucket_2: 99227
Critical_ROB_Stalls_Percent_1_Bucket_3: 67320
Non-critical_ROB_Stalls_Percent_1_Bucket_3: 25786
Critical_ROB_Stalls_Percent_1_Bucket_4: 23175
Non-critical_ROB_Stalls_Percent_1_Bucket_4: 8708
Critical_ROB_Stalls_Percent_1_Bucket_5: 12487
Non-critical_ROB_Stalls_Percent_1_Bucket_5: 4637
Critical_ROB_Stalls_Percent_1_Bucket_6: 38612
Non-critical_ROB_Stalls_Percent_1_Bucket_6: 9846
Critical_ROB_Stalls_Percent_2_Bucket_0: 1282162
Non-critical_ROB_Stalls_Percent_2_Bucket_0: 1141161
Critical_ROB_Stalls_Percent_2_Bucket_1: 639054
Non-critical_ROB_Stalls_Percent_2_Bucket_1: 277168
Critical_ROB_Stalls_Percent_2_Bucket_2: 233350
Non-critical_ROB_Stalls_Percent_2_Bucket_2: 80655
Critical_ROB_Stalls_Percent_2_Bucket_3: 72970
Non-critical_ROB_Stalls_Percent_2_Bucket_3: 20136
Critical_ROB_Stalls_Percent_2_Bucket_4: 25232
Non-critical_ROB_Stalls_Percent_2_Bucket_4: 6651
Critical_ROB_Stalls_Percent_2_Bucket_5: 13630
Non-critical_ROB_Stalls_Percent_2_Bucket_5: 3494
Critical_ROB_Stalls_Percent_2_Bucket_6: 40228
Non-critical_ROB_Stalls_Percent_2_Bucket_6: 8230
Critical_ROB_Stalls_Percent_3_Bucket_0: 1414349
Non-critical_ROB_Stalls_Percent_3_Bucket_0: 1008974
Critical_ROB_Stalls_Percent_3_Bucket_1: 679706
Non-critical_ROB_Stalls_Percent_3_Bucket_1: 236516
Critical_ROB_Stalls_Percent_3_Bucket_2: 246580
Non-critical_ROB_Stalls_Percent_3_Bucket_2: 67425
Critical_ROB_Stalls_Percent_3_Bucket_3: 76233
Non-critical_ROB_Stalls_Percent_3_Bucket_3: 16873
Critical_ROB_Stalls_Percent_3_Bucket_4: 26441
Non-critical_ROB_Stalls_Percent_3_Bucket_4: 5442
Critical_ROB_Stalls_Percent_3_Bucket_5: 14287
Non-critical_ROB_Stalls_Percent_3_Bucket_5: 2837
Critical_ROB_Stalls_Percent_3_Bucket_6: 41259
Non-critical_ROB_Stalls_Percent_3_Bucket_6: 7199
Critical_ROB_Stalls_Percent_4_Bucket_0: 1541815
Non-critical_ROB_Stalls_Percent_4_Bucket_0: 881508
Critical_ROB_Stalls_Percent_4_Bucket_1: 726179
Non-critical_ROB_Stalls_Percent_4_Bucket_1: 190043
Critical_ROB_Stalls_Percent_4_Bucket_2: 259389
Non-critical_ROB_Stalls_Percent_4_Bucket_2: 54616
Critical_ROB_Stalls_Percent_4_Bucket_3: 79359
Non-critical_ROB_Stalls_Percent_4_Bucket_3: 13747
Critical_ROB_Stalls_Percent_4_Bucket_4: 27217
Non-critical_ROB_Stalls_Percent_4_Bucket_4: 4666
Critical_ROB_Stalls_Percent_4_Bucket_5: 14755
Non-critical_ROB_Stalls_Percent_4_Bucket_5: 2369
Critical_ROB_Stalls_Percent_4_Bucket_6: 42273
Non-critical_ROB_Stalls_Percent_4_Bucket_6: 6185
Critical_ROB_Stalls_Percent_5_Bucket_0: 1668499
Non-critical_ROB_Stalls_Percent_5_Bucket_0: 754824
Critical_ROB_Stalls_Percent_5_Bucket_1: 772295
Non-critical_ROB_Stalls_Percent_5_Bucket_1: 143927
Critical_ROB_Stalls_Percent_5_Bucket_2: 272686
Non-critical_ROB_Stalls_Percent_5_Bucket_2: 41319
Critical_ROB_Stalls_Percent_5_Bucket_3: 82575
Non-critical_ROB_Stalls_Percent_5_Bucket_3: 10531
Critical_ROB_Stalls_Percent_5_Bucket_4: 28285
Non-critical_ROB_Stalls_Percent_5_Bucket_4: 3598
Critical_ROB_Stalls_Percent_5_Bucket_5: 15291
Non-critical_ROB_Stalls_Percent_5_Bucket_5: 1833
Critical_ROB_Stalls_Percent_5_Bucket_6: 43471
Non-critical_ROB_Stalls_Percent_5_Bucket_6: 4987
Critical_ROB_Stalls_Percent_6_Bucket_0: 1800120
Non-critical_ROB_Stalls_Percent_6_Bucket_0: 623203
Critical_ROB_Stalls_Percent_6_Bucket_1: 811580
Non-critical_ROB_Stalls_Percent_6_Bucket_1: 104642
Critical_ROB_Stalls_Percent_6_Bucket_2: 286241
Non-critical_ROB_Stalls_Percent_6_Bucket_2: 27764
Critical_ROB_Stalls_Percent_6_Bucket_3: 85946
Non-critical_ROB_Stalls_Percent_6_Bucket_3: 7160
Critical_ROB_Stalls_Percent_6_Bucket_4: 29407
Non-critical_ROB_Stalls_Percent_6_Bucket_4: 2476
Critical_ROB_Stalls_Percent_6_Bucket_5: 15920
Non-critical_ROB_Stalls_Percent_6_Bucket_5: 1204
Critical_ROB_Stalls_Percent_6_Bucket_6: 46096
Non-critical_ROB_Stalls_Percent_6_Bucket_6: 2362
Critical_ROB_Stalls_Percent_7_Bucket_0: 1943337
Non-critical_ROB_Stalls_Percent_7_Bucket_0: 479986
Critical_ROB_Stalls_Percent_7_Bucket_1: 846394
Non-critical_ROB_Stalls_Percent_7_Bucket_1: 69828
Critical_ROB_Stalls_Percent_7_Bucket_2: 295668
Non-critical_ROB_Stalls_Percent_7_Bucket_2: 18337
Critical_ROB_Stalls_Percent_7_Bucket_3: 88378
Non-critical_ROB_Stalls_Percent_7_Bucket_3: 4728
Critical_ROB_Stalls_Percent_7_Bucket_4: 30228
Non-critical_ROB_Stalls_Percent_7_Bucket_4: 1655
Critical_ROB_Stalls_Percent_7_Bucket_5: 16408
Non-critical_ROB_Stalls_Percent_7_Bucket_5: 716
Critical_ROB_Stalls_Percent_7_Bucket_6: 47155
Non-critical_ROB_Stalls_Percent_7_Bucket_6: 1303
Critical_ROB_Stalls_Percent_8_Bucket_0: 2092343
Non-critical_ROB_Stalls_Percent_8_Bucket_0: 330980
Critical_ROB_Stalls_Percent_8_Bucket_1: 877418
Non-critical_ROB_Stalls_Percent_8_Bucket_1: 38804
Critical_ROB_Stalls_Percent_8_Bucket_2: 304079
Non-critical_ROB_Stalls_Percent_8_Bucket_2: 9926
Critical_ROB_Stalls_Percent_8_Bucket_3: 90464
Non-critical_ROB_Stalls_Percent_8_Bucket_3: 2642
Critical_ROB_Stalls_Percent_8_Bucket_4: 30886
Non-critical_ROB_Stalls_Percent_8_Bucket_4: 997
Critical_ROB_Stalls_Percent_8_Bucket_5: 16780
Non-critical_ROB_Stalls_Percent_8_Bucket_5: 344
Critical_ROB_Stalls_Percent_8_Bucket_6: 47780
Non-critical_ROB_Stalls_Percent_8_Bucket_6: 678
Average ROB occupancy Load Stall Begin: 45.6298
Average ROB occupancy Load Stall End: 53.1048
Min ROB occupancy Load Stall Begin: 1
Max ROB occupancy Load Stall Begin: 352
Min ROB occupancy Load Stall End: 1
Max ROB occupancy Load Stall End: 352
Average ROB occupancy Critical Load Stall Begin: -nan
Average ROB occupancy Critical Load Stall End: -nan
Min ROB occupancy Critical Load Stall Begin: 400
Max ROB occupancy Critical Load Stall Begin: 0
Min ROB occupancy Critical Load Stall End: 400
Max ROB occupancy Critical Load Stall End: 0
 ROB Load Stall Begin Bucket Count 0: 2715443
 ROB Load Stall End Bucket Count 0: 2423323
 ROB Critical Load Stall Begin Bucket Count 0: 0
 ROB Critical Load Stall End Bucket Count 0: 0
 ROB Load Stall Begin Bucket Count 1: 716804
 ROB Load Stall End Bucket Count 1: 916222
 ROB Critical Load Stall Begin Bucket Count 1: 0
 ROB Critical Load Stall End Bucket Count 1: 0
 ROB Load Stall Begin Bucket Count 2: 249573
 ROB Load Stall End Bucket Count 2: 314005
 ROB Critical Load Stall Begin Bucket Count 2: 0
 ROB Critical Load Stall End Bucket Count 2: 0
 ROB Load Stall Begin Bucket Count 3: 73467
 ROB Load Stall End Bucket Count 3: 93106
 ROB Critical Load Stall Begin Bucket Count 3: 0
 ROB Critical Load Stall End Bucket Count 3: 0
 ROB Load Stall Begin Bucket Count 4: 27130
 ROB Load Stall End Bucket Count 4: 31883
 ROB Critical Load Stall Begin Bucket Count 4: 0
 ROB Critical Load Stall End Bucket Count 4: 0
 ROB Load Stall Begin Bucket Count 5: 15678
 ROB Load Stall End Bucket Count 5: 17124
 ROB Critical Load Stall Begin Bucket Count 5: 0
 ROB Critical Load Stall End Bucket Count 5: 0
 ROB Load Stall Begin Bucket Count 6: 46026
 ROB Load Stall End Bucket Count 6: 48458
 ROB Critical Load Stall Begin Bucket Count 6: 0
 ROB Critical Load Stall End Bucket Count 6: 0
PIST Tag Read Accesses: 2827598
PIST Read Accesses: 1413799
PIST Tag Write Accesses: 2827598
PIST Write Accesses: 1413799
Criticality detector called times: 3467978
Max global_stall_cycles_count: 4365189
Threshold Modified: 1 times, factor: -1
Sturdy critical IP cache stats: 
 Unused entries: 0
CIC Tag Read Accesses: 0
CIC Read Accesses: 0
CIC Tag Write Accesses: 0
CIC Write Accesses: 0
Wobbly critical IP cache stats: 
 Unused entries: 0
CIC Tag Read Accesses: 88493143
CIC Read Accesses: 0
CIC Tag Write Accesses: 16891
CIC Write Accesses: 0
ITLB TOTAL     ACCESS:    9142350  HIT:    9047463  MISS:      94887  HIT %:    98.9621  MISS %:    1.03788   MPKI: 1.89774
ITLB LOAD TRANSLATION ACCESS:    8557176  HIT:    8508323  MISS:      48853  HIT %:    99.4291  MISS %:   0.570901   MPKI: 0.97706
ITLB TRANSLATION FROM L1D PREFETCHER ACCESS:     585174  HIT:     539140  MISS:      46034  HIT %:    92.1333  MISS %:    7.86672   MPKI: 0.92068
ITLB PREFETCH  REQUESTED:          0  ISSUED:          0  USEFUL:      35105  USELESS:      10926
ITLB USEFUL LOAD PREFETCHES:      35105 PREFETCH ISSUED TO LOWER LEVEL:          0  ACCURACY: inf
ITLB TIMELY PREFETCHES:      35105 LATE PREFETCHES: 96 DROPPED PREFETCHES: 90
ITLB PREFETCHES SAME FILL-ORIGIN LEVEL: 0 DIFFERENT FILL-ORIGIN LEVEL: 0
ITLB AVERAGE MISS LATENCY: 57075.2 cycles
ITLB RQ	ACCESS:   11319947	FORWARD:          0	MERGED:    2164111	TO_CACHE:    9155836

DTLB TOTAL     ACCESS:   11881302  HIT:   11688249  MISS:     193053  HIT %:    98.3752  MISS %:    1.62485   MPKI: 3.86106
DTLB LOAD TRANSLATION ACCESS:   11881302  HIT:   11688249  MISS:     193053  HIT %:    98.3752  MISS %:    1.62485   MPKI: 3.86106
DTLB PREFETCH  REQUESTED:          0  ISSUED:          0  USEFUL:          0  USELESS:          0
DTLB USEFUL LOAD PREFETCHES:          0 PREFETCH ISSUED TO LOWER LEVEL:          0  ACCURACY: -nan
DTLB TIMELY PREFETCHES:          0 LATE PREFETCHES: 0 DROPPED PREFETCHES: 0
DTLB PREFETCHES SAME FILL-ORIGIN LEVEL: 0 DIFFERENT FILL-ORIGIN LEVEL: 0
DTLB AVERAGE MISS LATENCY: 10.3462 cycles
DTLB RQ	ACCESS:   14392477	FORWARD:          0	MERGED:    2501024	TO_CACHE:   11891453

STLB TOTAL     ACCESS:     434974  HIT:     430521  MISS:       4453  HIT %:    98.9763  MISS %:    1.02374   MPKI: 0.08906
STLB LOAD TRANSLATION ACCESS:     241810  HIT:     238000  MISS:       3810  HIT %:    98.4244  MISS %:    1.57562   MPKI: 0.0762
STLB TRANSLATION FROM L1D PREFETCHER ACCESS:     193164  HIT:     192521  MISS:        643  HIT %:    99.6671  MISS %:   0.332878   MPKI: 0.01286
STLB PREFETCH  REQUESTED:          0  ISSUED:          0  USEFUL:        525  USELESS:        139
STLB USEFUL LOAD PREFETCHES:        525 PREFETCH ISSUED TO LOWER LEVEL:          0  ACCURACY: inf
STLB TIMELY PREFETCHES:        525 LATE PREFETCHES: 0 DROPPED PREFETCHES: 90
STLB PREFETCHES SAME FILL-ORIGIN LEVEL: 0 DIFFERENT FILL-ORIGIN LEVEL: 0
STLB AVERAGE MISS LATENCY: 93.8001 cycles
STLB RQ	ACCESS:     470484	FORWARD:          0	MERGED:      35420	TO_CACHE:     435064

STLB Hit, L1D data hit: 0
STLB Hit, L2C data hit: 0
STLB Hit, LLC data hit: 0
STLB Hit, LLC data miss: 0
STLB STLB hints to L2: 0
L1D TOTAL     ACCESS:   14293307  HIT:   13712561  MISS:     580746  HIT %:    95.9369  MISS %:    4.06306   MPKI: 11.6149
L1D LOAD      ACCESS:    9287126  HIT:    8884613  MISS:     402513  HIT %:    95.6659  MISS %:     4.3341   MPKI: 8.05026
L1D RFO       ACCESS:    4827536  HIT:    4696841  MISS:     130695  HIT %:    97.2927  MISS %:    2.70728   MPKI: 2.6139
L1D PREFETCH  ACCESS:     178645  HIT:     131107  MISS:      47538  HIT %:    73.3897  MISS %:    26.6103   MPKI: 0.95076
L1D PREFETCH  REQUESTED:     364948  ISSUED:     364948  USEFUL:      16513  USELESS:      31075
L1D USEFUL LOAD PREFETCHES:      16513 PREFETCH ISSUED TO LOWER LEVEL:      49248  ACCURACY: 33.5303
L1D TIMELY PREFETCHES:      16513 LATE PREFETCHES: 1674 DROPPED PREFETCHES: 0
L1D PREFETCHES SAME FILL-ORIGIN LEVEL: 49248 DIFFERENT FILL-ORIGIN LEVEL: 0
L1D AVERAGE MISS LATENCY: 172154 cycles
L1D RQ	ACCESS:   13200162	FORWARD:          0	MERGED:    3783212	TO_CACHE:    9320149
L1D WQ	ACCESS:    5238055	FORWARD:      96841	MERGED:     165727	TO_CACHE:    5072328
L1D PQ	ACCESS:     182494	FORWARD:          0	MERGED:          0	TO_CACHE:     182454

L1D UNIQUE REGIONS ACCESSED: 0
L1D REGIONS CONFLICTS: 0
L1D Cross Page Prefetch Requests: 0
L1D Same Page Prefetch Requests: 544112
L1D ROI Sum of L1D PQ occupancy: 2362797
L1D PREFETCHES PUSHED FROM L2C: 0
L1I TOTAL     ACCESS:   11240091  HIT:   10349462  MISS:     890629  HIT %:    92.0763  MISS %:    7.92368   MPKI: 17.8126
L1I LOAD      ACCESS:    9789141  HIT:    9596059  MISS:     193082  HIT %:    98.0276  MISS %:    1.97241   MPKI: 3.86164
L1I PREFETCH  ACCESS:    1450950  HIT:     753403  MISS:     697547  HIT %:    51.9248  MISS %:    48.0752   MPKI: 13.9509
L1I PREFETCH  REQUESTED:    1587284  ISSUED:    1585464  USEFUL:     425262  USELESS:     272269
L1I USEFUL LOAD PREFETCHES:     425262 PREFETCH ISSUED TO LOWER LEVEL:     713880  ACCURACY: 59.5705
L1I TIMELY PREFETCHES:     425262 LATE PREFETCHES: 16333 DROPPED PREFETCHES: 168
L1I PREFETCHES SAME FILL-ORIGIN LEVEL: 713880 DIFFERENT FILL-ORIGIN LEVEL: 0
L1I AVERAGE MISS LATENCY: 1.04576e+06 cycles
L1I RQ	ACCESS:   14422271	FORWARD:          0	MERGED:    4615017	TO_CACHE:    9807254
L1I PQ	ACCESS:    1585464	FORWARD:          0	MERGED:      72771	TO_CACHE:    1512693

BTB TOTAL     ACCESS:    7750112  HIT:    6953064  MISS:     797048  HIT %:    89.7157  MISS %:    10.2843   MPKI: 15.941
BTB BRANCH_DIRECT_JUMP	ACCESS:     644555  HIT:     617941  MISS:      26614
BTB BRANCH_INDIRECT	ACCESS:     201946  HIT:     110721  MISS:      91225
BTB BRANCH_CONDITIONAL	ACCESS:    4875062  HIT:    4805966  MISS:      69096
BTB BRANCH_DIRECT_CALL	ACCESS:     564821  HIT:     520817  MISS:      44004
BTB BRANCH_INDIRECT_CALL	ACCESS:     445012  HIT:     287828  MISS:     157184
BTB BRANCH_RETURN	ACCESS:    1018716  HIT:     609791  MISS:     408925
BTB BRANCH_OTHER ACCESS:          0  HIT:          0  MISS:          0

L2C TOTAL     ACCESS:    1670032  HIT:    1369121  MISS:     300911  HIT %:    81.9817  MISS %:    18.0183   MPKI: 6.01822
L2C LOAD      ACCESS:     577561  HIT:     483373  MISS:      94188  HIT %:    83.6921  MISS %:    16.3079   MPKI: 1.88376
L2C DATA LOAD MPKI: 1.0808
L2C INSTRUCTION LOAD MPKI: 0.80296
L2C RFO       ACCESS:     130655  HIT:      49828  MISS:      80827  HIT %:    38.1371  MISS %:    61.8629   MPKI: 1.61654
L2C PREFETCH  ACCESS:     763126  HIT:     648439  MISS:     114687  HIT %:    84.9714  MISS %:    15.0286   MPKI: 2.29374
L2C DATA PREFETCH MPKI: 0.1554
L2C INSTRUCTION PREFETCH MPKI: 2.13834
L2C WRITEBACK ACCESS:     193881  HIT:     185329  MISS:       8552  HIT %:     95.589  MISS %:    4.41095   MPKI: 0.17104
L2C LOAD TRANSLATION ACCESS:       4042  HIT:       1857  MISS:       2185  HIT %:    45.9426  MISS %:    54.0574   MPKI: 0.0437
L2C TRANSLATION FROM L1D PREFETCHER ACCESS:        767  HIT:        295  MISS:        472  HIT %:    38.4615  MISS %:    61.5385   MPKI: 0.00944
L2C PREFETCH  REQUESTED:          0  ISSUED:          0  USEFUL:      10377  USELESS:     104502
L2C USEFUL LOAD PREFETCHES:      10377 PREFETCH ISSUED TO LOWER LEVEL:     114687  ACCURACY: 9.0481
L2C TIMELY PREFETCHES:      10377 LATE PREFETCHES: 0 DROPPED PREFETCHES: 0
L2C PREFETCHES SAME FILL-ORIGIN LEVEL: 0 DIFFERENT FILL-ORIGIN LEVEL: 0
L2C AVERAGE MISS LATENCY: 83.4662 cycles
L2C RQ	ACCESS:     713056	FORWARD:          0	MERGED:          0	TO_CACHE:     713025
L2C WQ	ACCESS:     193881	FORWARD:         33	MERGED:          0	TO_CACHE:     193881
L2C PQ	ACCESS:     763128	FORWARD:          0	MERGED:          0	TO_CACHE:     763126

L2C Instructions Evicting Data 72661
L2C Translations Evicting Data 1356
L2C Data Evicting Data 73662
L2C Instructions Evicting Instructions 73092
L2C Translations Evicting Instructions 1270
L2C Data Evicting Instructions 67756
L2C Instructions Evicting Translations 1312
L2C Translations Evicting Translations 31
L2C Data Evicting Translations 1219
L2C Dense regions hint from L2: 0
PSCL5 TOTAL     ACCESS:       4543  HIT:       4543  MISS:          0  HIT %:        100  MISS %:          0   MPKI: 0
PSCL5 LOAD TRANSLATION ACCESS:       3810  HIT:       3810  MISS:          0  HIT %:        100  MISS %:          0   MPKI: 0
PSCL5 TRANSLATION FROM L1D PREFETCHER ACCESS:        733  HIT:        733  MISS:          0  HIT %:        100  MISS %:          0   MPKI: 0
PSCL5 PREFETCH  REQUESTED:          0  ISSUED:          0  USEFUL:          0  USELESS:          0
PSCL5 USEFUL LOAD PREFETCHES:          0 PREFETCH ISSUED TO LOWER LEVEL:          0  ACCURACY: -nan
PSCL5 TIMELY PREFETCHES:          0 LATE PREFETCHES: 0 DROPPED PREFETCHES: 0
PSCL5 PREFETCHES SAME FILL-ORIGIN LEVEL: 0 DIFFERENT FILL-ORIGIN LEVEL: 0

PSCL4 TOTAL     ACCESS:       4540  HIT:       4539  MISS:          1  HIT %:     99.978  MISS %:  0.0220264   MPKI: 2e-05
PSCL4 LOAD TRANSLATION ACCESS:       3807  HIT:       3806  MISS:          1  HIT %:    99.9737  MISS %:  0.0262674   MPKI: 2e-05
PSCL4 TRANSLATION FROM L1D PREFETCHER ACCESS:        733  HIT:        733  MISS:          0  HIT %:        100  MISS %:          0   MPKI: 0
PSCL4 PREFETCH  REQUESTED:          0  ISSUED:          0  USEFUL:          0  USELESS:          0
PSCL4 USEFUL LOAD PREFETCHES:          0 PREFETCH ISSUED TO LOWER LEVEL:          0  ACCURACY: -nan
PSCL4 TIMELY PREFETCHES:          0 LATE PREFETCHES: 0 DROPPED PREFETCHES: 0
PSCL4 PREFETCHES SAME FILL-ORIGIN LEVEL: 0 DIFFERENT FILL-ORIGIN LEVEL: 0

PSCL3 TOTAL     ACCESS:       4259  HIT:       4239  MISS:         20  HIT %:    99.5304  MISS %:   0.469594   MPKI: 0.0004
PSCL3 LOAD TRANSLATION ACCESS:       3607  HIT:       3587  MISS:         20  HIT %:    99.4455  MISS %:   0.554477   MPKI: 0.0004
PSCL3 TRANSLATION FROM L1D PREFETCHER ACCESS:        652  HIT:        652  MISS:          0  HIT %:        100  MISS %:          0   MPKI: 0
PSCL3 PREFETCH  REQUESTED:          0  ISSUED:          0  USEFUL:          0  USELESS:          0
PSCL3 USEFUL LOAD PREFETCHES:          0 PREFETCH ISSUED TO LOWER LEVEL:          0  ACCURACY: -nan
PSCL3 TIMELY PREFETCHES:          0 LATE PREFETCHES: 0 DROPPED PREFETCHES: 0
PSCL3 PREFETCHES SAME FILL-ORIGIN LEVEL: 0 DIFFERENT FILL-ORIGIN LEVEL: 0

PSCL2 TOTAL     ACCESS:       4539  HIT:       4297  MISS:        242  HIT %:    94.6684  MISS %:    5.33157   MPKI: 0.00484
PSCL2 LOAD TRANSLATION ACCESS:       3838  HIT:       3596  MISS:        242  HIT %:    93.6946  MISS %:    6.30537   MPKI: 0.00484
PSCL2 TRANSLATION FROM L1D PREFETCHER ACCESS:        701  HIT:        701  MISS:          0  HIT %:        100  MISS %:          0   MPKI: 0
PSCL2 PREFETCH  REQUESTED:          0  ISSUED:          0  USEFUL:          0  USELESS:          0
PSCL2 USEFUL LOAD PREFETCHES:          0 PREFETCH ISSUED TO LOWER LEVEL:          0  ACCURACY: -nan
PSCL2 TIMELY PREFETCHES:          0 LATE PREFETCHES: 0 DROPPED PREFETCHES: 0
PSCL2 PREFETCHES SAME FILL-ORIGIN LEVEL: 0 DIFFERENT FILL-ORIGIN LEVEL: 0

LLC TOTAL     ACCESS:     384332  HIT:     276026  MISS:     108306  HIT %:    71.8197  MISS %:    28.1803   MPKI: 2.16612
LLC LOAD      ACCESS:      94188  HIT:      66370  MISS:      27818  HIT %:    70.4655  MISS %:    29.5345   MPKI: 0.55636
LLC RFO       ACCESS:      80827  HIT:      37783  MISS:      43044  HIT %:    46.7455  MISS %:    53.2545   MPKI: 0.86088
LLC PREFETCH  ACCESS:     114687  HIT:      81567  MISS:      33120  HIT %:    71.1214  MISS %:    28.8786   MPKI: 0.6624
LLC WRITEBACK ACCESS:      91973  HIT:      88736  MISS:       3237  HIT %:    96.4805  MISS %:    3.51951   MPKI: 0.06474
LLC LOAD TRANSLATION ACCESS:       2185  HIT:       1230  MISS:        955  HIT %:    56.2929  MISS %:    43.7071   MPKI: 0.0191
LLC TRANSLATION FROM L1D PREFETCHER ACCESS:        472  HIT:        340  MISS:        132  HIT %:    72.0339  MISS %:    27.9661   MPKI: 0.00264
LLC PREFETCH  REQUESTED:          0  ISSUED:          0  USEFUL:       2775  USELESS:      30930
LLC USEFUL LOAD PREFETCHES:       2775 PREFETCH ISSUED TO LOWER LEVEL:      33120  ACCURACY: 8.37862
LLC TIMELY PREFETCHES:       2775 LATE PREFETCHES: 0 DROPPED PREFETCHES: 0
LLC PREFETCHES SAME FILL-ORIGIN LEVEL: 0 DIFFERENT FILL-ORIGIN LEVEL: 0
LLC AVERAGE MISS LATENCY: 150.816 cycles
LLC RQ	ACCESS:     177672	FORWARD:          0	MERGED:          0	TO_CACHE:     177672
LLC WQ	ACCESS:      91973	FORWARD:          0	MERGED:          0	TO_CACHE:      91973
LLC PQ	ACCESS:     114687	FORWARD:          0	MERGED:          0	TO_CACHE:     114687

LLC Dense regions hint to LLC: 0

RAW hits: 1009155
Loads Generated: 14209317
Loads sent to L1D: 13200162
Stores Generated: 5238051
Stores sent to L1D: 5238055
Major fault: 0 Minor fault: 4055
Allocated PAGES: 4055
I-Shadow cache 408 bytes
Touched + WorthPF tables 6144 bytes 
MMA filter 174 bytes 
FNL filter 272 bytes 
TOTAL PREFETCHER STORAGE SIZE: 25174 bytes
CPU 0 L1I next line prefetcher final stats

stream: 
stream:times selected: 809204
stream:pref_filled: 91392
stream:pref_useful: 30931
stream:pref_late: 1446
stream:misses: 10720
stream:misses_by_poll: 0

CS: 
CS:times selected: 64363
CS:pref_filled: 13985
CS:pref_useful: 10744
CS:pref_late: 494
CS:misses: 1122
CS:misses_by_poll: 24

CPLX: 
CPLX:times selected: 737708
CPLX:pref_filled: 32784
CPLX:pref_useful: 7817
CPLX:pref_late: 203
CPLX:misses: 47425
CPLX:misses_by_poll: 42

NL_L1: 
NL:times selected: 6989
NL:pref_filled: 1124
NL:pref_useful: 393
NL:pref_late: 20
NL:misses: 628
NL:misses_by_poll: 0

total selections: 1618264
total_filled: 47538
total_useful: 16513
total_late: 2706
total_polluted: 66
total_misses_after_warmup: 43796
conflicts: 123312
Degree Incremented Times: 52
Degree Decremented Times: 99910

L1 IP Table Write Accesses: 686916
L1 IP Table Read Accesses: 563604
L1 RST Write Accesses: 272573
L1 RST Read Accesses: 545146
L1 CSPT Write Accesses: 272573
L1 CSPT Read Accesses: 517127
L1 RR Filter Tag Write Accesses: 182494
L1 RR Filter Tag Read Accesses: 10665685
L1 IP Table Tag Write Accesses: 842436
L1 IP Table Tag Read Accesses: 842436
L1 RST Tag Write Accesses: 0
L1 RST Tag Read Accesses: 2489135
L1 RR Filter Write Accesses: 0
L1 RR Filter Read Accesses: 398926
test: 256095

DRAM Statistics
 CHANNEL 0
 RQ ROW_BUFFER_HIT:      26297  ROW_BUFFER_MISS:      78768
 DBUS_CONGESTED:        154
 WQ ROW_BUFFER_HIT:       7348  ROW_BUFFER_MISS:      35757  FULL:          0

 AVG_CONGESTED_CYCLE: 4
 All warmup complete: 2
Channel 0 Bank busy for read cycles: 0
Channel 0 Bank busy for write cycles: 0
Channel 0
Rank 0
0banks busy for read cycles: 71321640
0banks busy for write cycles: 16806
1banks busy for read cycles: 5049835
1banks busy for write cycles: 2232082
2banks busy for read cycles: 1335030
2banks busy for write cycles: 703721
3banks busy for read cycles: 506555
3banks busy for write cycles: 363765
4banks busy for read cycles: 282506
4banks busy for write cycles: 213153
5banks busy for read cycles: 183581
5banks busy for write cycles: 141496
6banks busy for read cycles: 174115
6banks busy for write cycles: 105885
7banks busy for read cycles: 71360
7banks busy for write cycles: 88018
8banks busy for read cycles: 39333
8banks busy for write cycles: 114040

CPU 0 Branch Prediction Accuracy: 94.1242% MPKI: 11.6089 Average ROB Occupancy at Mispredict: 34.5008
Branch types
NOT_BRANCH: 40121088 80.2422%
BRANCH_DIRECT_JUMP: 644555 1.28911%
BRANCH_INDIRECT: 201946 0.403892%
BRANCH_CONDITIONAL: 7003557 14.0071%
BRANCH_DIRECT_CALL: 564821 1.12964%
BRANCH_INDIRECT_CALL: 445012 0.890024%
BRANCH_RETURN: 1018716 2.03743%
BRANCH_OTHER: 0 0%

DRAM PAGES: 1048576
Allocated PAGES: 4055
