Initialize SIGNATURE TABLE
ST_SET: 1
ST_WAY: 256
ST_TAG_BIT: 16
ST_TAG_MASK: ffff

Initialize PATTERN TABLE
PT_SET: 512
PT_WAY: 4
SIG_DELTA_BIT: 7
C_SIG_BIT: 4
C_DELTA_BIT: 4

Initialize PREFETCH FILTER
FILTER_SET: 1024
MANA initialize 
tds: 2 tdm: 4
size MANA SINGLE: 25.5 KB
size MANA NULTIPLE: 9.875 KB
size HOBPT: 0.703125 KB
size SRQ: 0.0644531 KB
size SABs: 0.0402832 KB
size prefetch queue: 0.453125 KB
total: 36.636 KB

*** ChampSim Multicore Out-of-Order Simulator ***

Warmup Instructions: 50000000
Simulation Instructions: 50000000
Number of CPUs: 1
LLC sets: 2048
LLC ways: 16
Off-chip DRAM Size: 4096 MB Channels: 1 Width: 64-bit Data Rate: 6400 MT/s
CPU 0 runs ../IPC-traces//client_001.champsimtrace.xz
.xz
BTB has LRU replacement policy
ITLB has LRU replacement policy
DTLB has LRU replacement policy
STLB has LRU replacement policy
L1I has LRU replacement policy
L1D has LRU replacement policy
Initialize SRRIP state for L2C
Initialize DRRIP state for LLC
Heartbeat CPU 0 instructions: 10000003 cycles: 2895108 heartbeat IPC: 3.4541 cumulative IPC: 3.4541 (Simulation time: 0 hr 5 min 18 sec) 
Heartbeat CPU 0 instructions: 20000001 cycles: 5927206 heartbeat IPC: 3.29805 cumulative IPC: 3.37427 (Simulation time: 0 hr 9 min 1 sec) 
Heartbeat CPU 0 instructions: 30000002 cycles: 8892876 heartbeat IPC: 3.37192 cumulative IPC: 3.37349 (Simulation time: 0 hr 12 min 22 sec) 
Heartbeat CPU 0 instructions: 40000001 cycles: 12019801 heartbeat IPC: 3.19803 cumulative IPC: 3.32784 (Simulation time: 0 hr 16 min 11 sec) 
Heartbeat CPU 0 instructions: 50000001 cycles: 14919352 heartbeat IPC: 3.44881 cumulative IPC: 3.35135 (Simulation time: 0 hr 19 min 16 sec) 

Warmup complete CPU 0 instructions: 50000001 cycles: 14919352 (Simulation time: 0 hr 19 min 16 sec) 

Epoch all ip prefetch: 0, epoch id: 2
Epoch all ip prefetch: 1, epoch id: 3
Epoch all ip prefetch: 0, epoch id: 4
Epoch all ip prefetch: 0, epoch id: 5
Epoch all ip prefetch: 0, epoch id: 6
Epoch all ip prefetch: 0, epoch id: 7
Epoch all ip prefetch: 0, epoch id: 8
Epoch all ip prefetch: 0, epoch id: 9
Epoch all ip prefetch: 0, epoch id: 10
Epoch all ip prefetch: 0, epoch id: 11
Heartbeat CPU 0 instructions: 60000000 cycles: 30683012 heartbeat IPC: 0.63437 cumulative IPC: 0.63437 (Simulation time: 0 hr 23 min 2 sec) 
Epoch all ip prefetch: 0, epoch id: 12
Epoch all ip prefetch: 0, epoch id: 13
Epoch all ip prefetch: 0, epoch id: 14
Epoch all ip prefetch: 0, epoch id: 15
Epoch all ip prefetch: 0, epoch id: 16
Epoch all ip prefetch: 0, epoch id: 17
Epoch all ip prefetch: 0, epoch id: 18
Epoch all ip prefetch: 0, epoch id: 19
Epoch all ip prefetch: 0, epoch id: 20
Epoch all ip prefetch: 0, epoch id: 21
Heartbeat CPU 0 instructions: 70000000 cycles: 42757390 heartbeat IPC: 0.8282 cumulative IPC: 0.718441 (Simulation time: 0 hr 26 min 9 sec) 
Epoch all ip prefetch: 0, epoch id: 22
Epoch all ip prefetch: 0, epoch id: 23
Epoch all ip prefetch: 0, epoch id: 24
Epoch all ip prefetch: 0, epoch id: 25
Epoch all ip prefetch: 0, epoch id: 26
Epoch all ip prefetch: 0, epoch id: 27
Epoch all ip prefetch: 0, epoch id: 28
Epoch all ip prefetch: 0, epoch id: 29
Epoch all ip prefetch: 0, epoch id: 30
Epoch all ip prefetch: 0, epoch id: 31
Heartbeat CPU 0 instructions: 80000002 cycles: 59269721 heartbeat IPC: 0.605608 cumulative IPC: 0.676432 (Simulation time: 0 hr 30 min 46 sec) 
Epoch all ip prefetch: 0, epoch id: 32
Epoch all ip prefetch: 0, epoch id: 33
Epoch all ip prefetch: 0, epoch id: 34
Epoch all ip prefetch: 0, epoch id: 35
Epoch all ip prefetch: 0, epoch id: 36
Epoch all ip prefetch: 0, epoch id: 37
Epoch all ip prefetch: 0, epoch id: 38
Epoch all ip prefetch: 0, epoch id: 39
Epoch all ip prefetch: 0, epoch id: 40
Epoch all ip prefetch: 0, epoch id: 41
Heartbeat CPU 0 instructions: 90000001 cycles: 71054839 heartbeat IPC: 0.848528 cumulative IPC: 0.712562 (Simulation time: 0 hr 34 min 21 sec) 
Epoch all ip prefetch: 0, epoch id: 42
Epoch all ip prefetch: 0, epoch id: 43
Epoch all ip prefetch: 0, epoch id: 44
Epoch all ip prefetch: 0, epoch id: 45
Epoch all ip prefetch: 0, epoch id: 46
Epoch all ip prefetch: 0, epoch id: 47
Epoch all ip prefetch: 0, epoch id: 48
Epoch all ip prefetch: 0, epoch id: 49
Epoch all ip prefetch: 0, epoch id: 50
Epoch all ip prefetch: 0, epoch id: 51
Heartbeat CPU 0 instructions: 100000002 cycles: 87128364 heartbeat IPC: 0.622141 cumulative IPC: 0.692434 (Simulation time: 0 hr 37 min 12 sec) 
Finished CPU 0 instructions: 50000001 cycles: 72209012 cumulative IPC: 0.692434 (Simulation time: 0 hr 37 min 12 sec) 

ChampSim completed all CPUs

Region of Interest Statistics

CPU 0 cumulative IPC: 0.692434 instructions: 50000001 cycles: 72209012

CPU 0 Average Load ROB stall cycles: 4.10807
CPU 0 Fraction of times ROB stalled by Loads: 29.5455
CPU 0 Percentage of Load stall cycles in Total stall cycles: 49.9084
CPU 0 NUM of IPS identified critical: 0

Average ROB occupancy Load Stall Begin: 70.4504
Average ROB occupancy Load Stall End: 79.5656
Min ROB occupancy Load Stall Begin: 1
Max ROB occupancy Load Stall Begin: 351
Min ROB occupancy Load Stall End: 1
Max ROB occupancy Load Stall End: 352
Average ROB occupancy Critical Load Stall Begin: -nan
Average ROB occupancy Critical Load Stall End: -nan
Min ROB occupancy Critical Load Stall Begin: 400
Max ROB occupancy Critical Load Stall Begin: 0
Min ROB occupancy Critical Load Stall End: 400
Max ROB occupancy Critical Load Stall End: 0
 ROB Load Stall Begin Bucket Count 0: 1144388
 ROB Load Stall End Bucket Count 0: 968027
 ROB Critical Load Stall Begin Bucket Count 0: 0
 ROB Critical Load Stall End Bucket Count 0: 0
 ROB Load Stall Begin Bucket Count 1: 373475
 ROB Load Stall End Bucket Count 1: 486048
 ROB Critical Load Stall Begin Bucket Count 1: 0
 ROB Critical Load Stall End Bucket Count 1: 0
 ROB Load Stall Begin Bucket Count 2: 206725
 ROB Load Stall End Bucket Count 2: 234495
 ROB Critical Load Stall Begin Bucket Count 2: 0
 ROB Critical Load Stall End Bucket Count 2: 0
 ROB Load Stall Begin Bucket Count 3: 112054
 ROB Load Stall End Bucket Count 3: 129011
 ROB Critical Load Stall Begin Bucket Count 3: 0
 ROB Critical Load Stall End Bucket Count 3: 0
 ROB Load Stall Begin Bucket Count 4: 50318
 ROB Load Stall End Bucket Count 4: 61998
 ROB Critical Load Stall Begin Bucket Count 4: 0
 ROB Critical Load Stall End Bucket Count 4: 0
 ROB Load Stall Begin Bucket Count 5: 24132
 ROB Load Stall End Bucket Count 5: 27509
 ROB Critical Load Stall Begin Bucket Count 5: 0
 ROB Critical Load Stall End Bucket Count 5: 0
 ROB Load Stall Begin Bucket Count 6: 63093
 ROB Load Stall End Bucket Count 6: 67097
 ROB Critical Load Stall Begin Bucket Count 6: 0
 ROB Critical Load Stall End Bucket Count 6: 0
Threshold Modified: 1 times, factor: -1
Sturdy critical IP cache stats: 
 Unused entries: 96
Wobbly critical IP cache stats: 
 Unused entries: 192
ITLB TOTAL     ACCESS:   11641943  HIT:   11573025  MISS:      68918  HIT %:     99.408  MISS %:    0.59198   MPKI: 1.37836
ITLB LOAD TRANSLATION ACCESS:    7710707  HIT:    7699914  MISS:      10793  HIT %:      99.86  MISS %:   0.139974   MPKI: 0.21586
ITLB TRANSLATION FROM L1D PREFETCHER ACCESS:    3931236  HIT:    3873111  MISS:      58125  HIT %:    98.5215  MISS %:    1.47854   MPKI: 1.1625
ITLB AVERAGE MISS LATENCY: 1.95941e+06 cycles
ITLB RQ	ACCESS:   22464898	FORWARD:          0	MERGED:   10803609	TO_CACHE:   11661289

DTLB TOTAL     ACCESS:   11140385  HIT:   10877265  MISS:     263120  HIT %:    97.6381  MISS %:    2.36186   MPKI: 5.2624
DTLB LOAD TRANSLATION ACCESS:   11140385  HIT:   10877265  MISS:     263120  HIT %:    97.6381  MISS %:    2.36186   MPKI: 5.2624
DTLB AVERAGE MISS LATENCY: 10.6821 cycles
DTLB RQ	ACCESS:   13278270	FORWARD:          0	MERGED:    2126587	TO_CACHE:   11151683

STLB TOTAL     ACCESS:     332038  HIT:     327871  MISS:       4167  HIT %:     98.745  MISS %:    1.25498   MPKI: 0.08334
STLB LOAD TRANSLATION ACCESS:     271082  HIT:     267349  MISS:       3733  HIT %:    98.6229  MISS %:    1.37707   MPKI: 0.07466
STLB TRANSLATION FROM L1D PREFETCHER ACCESS:      60956  HIT:      60522  MISS:        434  HIT %:     99.288  MISS %:   0.711989   MPKI: 0.00868
STLB AVERAGE MISS LATENCY: 139.164 cycles
STLB RQ	ACCESS:     338756	FORWARD:          0	MERGED:          0	TO_CACHE:     338756

STLB Hit, L1D data hit: 0
STLB Hit, L2C data hit: 0
STLB Hit, LLC data hit: 0
STLB Hit, LLC data miss: 0
STLB STLB hints to L2: 0
L1D TOTAL     ACCESS:   13123898  HIT:   12709495  MISS:     414403  HIT %:    96.8424  MISS %:    3.15762   MPKI: 8.28806
L1D LOAD      ACCESS:    9092146  HIT:    8737531  MISS:     354615  HIT %:    96.0998  MISS %:    3.90023   MPKI: 7.0923
L1D RFO       ACCESS:    4031752  HIT:    3971964  MISS:      59788  HIT %:    98.5171  MISS %:    1.48293   MPKI: 1.19576
L1D AVERAGE MISS LATENCY: 69.7404 cycles
L1D RQ	ACCESS:   13297005	FORWARD:          0	MERGED:    4087978	TO_CACHE:    9147610
L1D WQ	ACCESS:    4203142	FORWARD:      61417	MERGED:      72482	TO_CACHE:    4130660

L1D UNIQUE REGIONS ACCESSED: 0
L1D REGIONS CONFLICTS: 0
L1D Cross Page Prefetch Requests: 0
L1D Same Page Prefetch Requests: 0
L1D ROI Sum of L1D PQ occupancy: 0
L1D PREFETCHES PUSHED FROM L2C: 0
L1I TOTAL     ACCESS:   22395733  HIT:   22074589  MISS:     321144  HIT %:     98.566  MISS %:    1.43395   MPKI: 6.42288
L1I LOAD      ACCESS:    9413960  HIT:    9360531  MISS:      53429  HIT %:    99.4324  MISS %:   0.567551   MPKI: 1.06858
L1I PREFETCH  ACCESS:   12981773  HIT:   12714058  MISS:     267715  HIT %:    97.9378  MISS %:    2.06224   MPKI: 5.3543
L1I PREFETCH  REQUESTED:   15742984  ISSUED:   14129062  USEFUL:     224345  USELESS:      43377
L1I USEFUL LOAD PREFETCHES:     224345 PREFETCH ISSUED TO LOWER LEVEL:     282879  ACCURACY: 79.3078
L1I TIMELY PREFETCHES:     224345 LATE PREFETCHES: 15054 DROPPED PREFETCHES: 7272
L1I AVERAGE MISS LATENCY: 2.33813e+06 cycles
L1I RQ	ACCESS:   13797042	FORWARD:          0	MERGED:    4371586	TO_CACHE:    9425456
L1I PQ	ACCESS:   14129062	FORWARD:          0	MERGED:    1089620	TO_CACHE:   13039442

BTB TOTAL     ACCESS:    6247434  HIT:    5990703  MISS:     256731  HIT %:    95.8906  MISS %:    4.10938   MPKI: 5.13462
BTB BRANCH_DIRECT_JUMP	ACCESS:     455615  HIT:     454212  MISS:       1403
BTB BRANCH_INDIRECT	ACCESS:      20390  HIT:      13969  MISS:       6421
BTB BRANCH_CONDITIONAL	ACCESS:    4324523  HIT:    4321097  MISS:       3426
BTB BRANCH_DIRECT_CALL	ACCESS:     494532  HIT:     492733  MISS:       1799
BTB BRANCH_INDIRECT_CALL	ACCESS:     228815  HIT:     173167  MISS:      55648
BTB BRANCH_RETURN	ACCESS:     723559  HIT:     535525  MISS:     188034
BTB BRANCH_OTHER ACCESS:          0  HIT:          0  MISS:          0

L2C TOTAL     ACCESS:    1148058  HIT:     894653  MISS:     253405  HIT %:    77.9275  MISS %:    22.0725   MPKI: 5.0681
L2C LOAD      ACCESS:     392985  HIT:     207552  MISS:     185433  HIT %:    52.8142  MISS %:    47.1858   MPKI: 3.70866
L2C DATA LOAD MPKI: 3.62556
L2C INSTRUCTION LOAD MPKI: 0.0831
L2C RFO       ACCESS:      59787  HIT:      18002  MISS:      41785  HIT %:    30.1102  MISS %:    69.8898   MPKI: 0.8357
L2C PREFETCH  ACCESS:     530168  HIT:     508103  MISS:      22065  HIT %:    95.8381  MISS %:    4.16189   MPKI: 0.4413
L2C DATA PREFETCH MPKI: 0.16042
L2C INSTRUCTION PREFETCH MPKI: 0.28088
L2C WRITEBACK ACCESS:     151663  HIT:     149465  MISS:       2198  HIT %:    98.5507  MISS %:    1.44927   MPKI: 0.04396
L2C LOAD TRANSLATION ACCESS:       3943  HIT:       2352  MISS:       1591  HIT %:      59.65  MISS %:      40.35   MPKI: 0.03182
L2C TRANSLATION FROM L1D PREFETCHER ACCESS:       9512  HIT:       9179  MISS:        333  HIT %:    96.4992  MISS %:    3.50084   MPKI: 0.00666
L2C PREFETCH  REQUESTED:     912107  ISSUED:     911933  USEFUL:       8658  USELESS:      12595
L2C USEFUL LOAD PREFETCHES:       8658 PREFETCH ISSUED TO LOWER LEVEL:     346389  ACCURACY: 2.4995
L2C TIMELY PREFETCHES:       8658 LATE PREFETCHES: 813 DROPPED PREFETCHES: 0
L2C AVERAGE MISS LATENCY: 101.722 cycles
L2C RQ	ACCESS:     466233	FORWARD:          0	MERGED:          0	TO_CACHE:     466227
L2C WQ	ACCESS:     151663	FORWARD:          6	MERGED:          0	TO_CACHE:     151663
L2C PQ	ACCESS:    1194702	FORWARD:          0	MERGED:     320948	TO_CACHE:     873754

L2C Instructions Evicting Data16086
L2C Translations Evicting Data1671
L2C Data Evicting Data215279
L2C Instructions Evicting Instructions1926
L2C Translations Evicting Instructions229
L2C Data Evicting Instructions14226
L2C Instructions Evicting Translations187
L2C Translations Evicting Translations24
L2C Data Evicting Translations1579
L2C Dense regions hint from L2: 0
PSCL5 TOTAL     ACCESS:      10885  HIT:      10885  MISS:          0  HIT %:        100  MISS %:          0   MPKI: 0
PSCL5 LOAD TRANSLATION ACCESS:       3733  HIT:       3733  MISS:          0  HIT %:        100  MISS %:          0   MPKI: 0
PSCL5 TRANSLATION FROM L1D PREFETCHER ACCESS:       7152  HIT:       7152  MISS:          0  HIT %:        100  MISS %:          0   MPKI: 0

PSCL4 TOTAL     ACCESS:      10819  HIT:      10814  MISS:          5  HIT %:    99.9538  MISS %:   0.046215   MPKI: 0.0001
PSCL4 LOAD TRANSLATION ACCESS:       3674  HIT:       3669  MISS:          5  HIT %:    99.8639  MISS %:   0.136091   MPKI: 0.0001
PSCL4 TRANSLATION FROM L1D PREFETCHER ACCESS:       7145  HIT:       7145  MISS:          0  HIT %:        100  MISS %:          0   MPKI: 0

PSCL3 TOTAL     ACCESS:      10585  HIT:      10569  MISS:         16  HIT %:    99.8488  MISS %:   0.151157   MPKI: 0.00032
PSCL3 LOAD TRANSLATION ACCESS:       3663  HIT:       3647  MISS:         16  HIT %:    99.5632  MISS %:     0.4368   MPKI: 0.00032
PSCL3 TRANSLATION FROM L1D PREFETCHER ACCESS:       6922  HIT:       6922  MISS:          0  HIT %:        100  MISS %:          0   MPKI: 0

PSCL2 TOTAL     ACCESS:       8572  HIT:       8331  MISS:        241  HIT %:    97.1885  MISS %:    2.81148   MPKI: 0.00482
PSCL2 LOAD TRANSLATION ACCESS:       3776  HIT:       3535  MISS:        241  HIT %:    93.6176  MISS %:    6.38242   MPKI: 0.00482
PSCL2 TRANSLATION FROM L1D PREFETCHER ACCESS:       4796  HIT:       4796  MISS:          0  HIT %:        100  MISS %:          0   MPKI: 0

LLC TOTAL     ACCESS:     661468  HIT:     478568  MISS:     182900  HIT %:    72.3494  MISS %:    27.6506   MPKI: 3.658
LLC LOAD      ACCESS:     184621  HIT:     121414  MISS:      63207  HIT %:    65.7639  MISS %:    34.2361   MPKI: 1.26414
LLC RFO       ACCESS:      41783  HIT:       8397  MISS:      33386  HIT %:    20.0967  MISS %:    79.9033   MPKI: 0.66772
LLC PREFETCH  ACCESS:     335252  HIT:     260176  MISS:      75076  HIT %:    77.6061  MISS %:    22.3939   MPKI: 1.50152
LLC WRITEBACK ACCESS:      97888  HIT:      88096  MISS:       9792  HIT %:    89.9967  MISS %:    10.0033   MPKI: 0.19584
LLC LOAD TRANSLATION ACCESS:       1591  HIT:        398  MISS:       1193  HIT %:    25.0157  MISS %:    74.9843   MPKI: 0.02386
LLC TRANSLATION FROM L1D PREFETCHER ACCESS:        333  HIT:         87  MISS:        246  HIT %:    26.1261  MISS %:    73.8739   MPKI: 0.00492
LLC AVERAGE MISS LATENCY: 157.933 cycles
LLC RQ	ACCESS:     228329	FORWARD:          0	MERGED:          0	TO_CACHE:     228328
LLC WQ	ACCESS:      97888	FORWARD:          1	MERGED:          0	TO_CACHE:      97888
LLC PQ	ACCESS:     346389	FORWARD:          0	MERGED:       2313	TO_CACHE:     344076

LLC Dense regions hint to LLC: 0

RAW hits: 924996
Loads Generated: 14222002
Loads sent to L1D: 13297005
Stores Generated: 4203141
Stores sent to L1D: 4203142
Major fault: 0 Minor fault: 3508
Allocated PAGES: 3508



Printing Logs
statHeadFound: 2139590
statHeadMissing: 1566422
statStreamBufferHit: 11032230
statPrefetchEntryFound: 7932879
statCompactorMatch: 13182278
statStreamTrackerLookup: 14738242
statRecord: 1555964
statGetPointer: 3706012
statEnqueuePrefetch: 24934931
statPrefetchQueueIsFull: 1761
StreamBufferHitRate: 0.748545
Regions' size: 2571
next_region_correct: 1079449
next_region_wrong: 473936
next_region_correct_prediction: 0.694901
statStreamBufferLookups: 147382420
statL1iLookups: 199479448
statCompactorLookups: 235811872
------------------
Depth Distribution
------------------
depth 0: 0
depth 1: 1148356
depth 2: 508023
depth 3: 173817
depth 4: 67905
depth 5: 42007
depth 6: 22411
depth 7: 9647
depth 8: 5613
depth 9: 3658
depth 10: 2670
depth 11: 1802
depth 12: 1083
depth 13: 559
depth 14: 107
depth 15: 103
depth 16: 0
depth 17: 0
depth 18: 0
depth 19: 0
depth 20: 0
depth 21: 0
depth 22: 0
depth 23: 0
depth 24: 0
depth 25: 0
depth 26: 0
depth 27: 0
depth 28: 0
depth 29: 0
Total: 1987761
-----------------------------
-----------------------------
	Captured at Filter
-----------------------------
depth 0: 0
depth 1: 49908
depth 2: 26957
depth 3: 13228
depth 4: 7513
depth 5: 5758
depth 6: 3988
depth 7: 1709
depth 8: 720
depth 9: 38
depth 10: 32
depth 11: 17
depth 12: 10
depth 13: 5
depth 14: 0
depth 15: 3
depth 16: 0
depth 17: 0
depth 18: 0
depth 19: 0
depth 20: 0
depth 21: 0
depth 22: 0
depth 23: 0
depth 24: 0
depth 25: 0
depth 26: 0
depth 27: 0
depth 28: 0
depth 29: 0
-----------------------------
-----------------------------
		Lost at Page
-----------------------------
depth 0: 0
depth 1: 36638
depth 2: 20556
depth 3: 9789
depth 4: 5669
depth 5: 4591
depth 6: 3089
depth 7: 1576
depth 8: 984
depth 9: 633
depth 10: 518
depth 11: 404
depth 12: 267
depth 13: 155
depth 14: 35
depth 15: 36
depth 16: 0
depth 17: 0
depth 18: 0
depth 19: 0
depth 20: 0
depth 21: 0
depth 22: 0
depth 23: 0
depth 24: 0
depth 25: 0
depth 26: 0
depth 27: 0
depth 28: 0
depth 29: 0
-----------------------------
-----------------------------
	Lost due to PQ Size
-----------------------------
9283
-----------------------------
ST read accesses: 270658302
ST write accesses: 28636839
PT read accesses: 9449657
PT write accesses: 803836
FILTER read accesses: 1835356
FILTER write accesses: 293441
GHR read accesses: 612826
GHR write accesses: 36472
GHR counter read accesses: 7616424
GHR counter write accesses: 672139

DRAM Statistics
 CHANNEL 0
 RQ ROW_BUFFER_HIT:      41085  ROW_BUFFER_MISS:     132021
 DBUS_CONGESTED:         88
 WQ ROW_BUFFER_HIT:      12722  ROW_BUFFER_MISS:      66598  FULL:          0

 AVG_CONGESTED_CYCLE: 4

CPU 0 Branch Prediction Accuracy: 97.9037% MPKI: 3.63418 Average ROB Occupancy at Mispredict: 62.9841
Branch types
NOT_BRANCH: 41331383 82.6628%
BRANCH_DIRECT_JUMP: 455615 0.91123%
BRANCH_INDIRECT: 20390 0.04078%
BRANCH_CONDITIONAL: 6745373 13.4907%
BRANCH_DIRECT_CALL: 494532 0.989064%
BRANCH_INDIRECT_CALL: 228815 0.45763%
BRANCH_RETURN: 723559 1.44712%
BRANCH_OTHER: 0 0%

DRAM PAGES: 1048576
Allocated PAGES: 3508
