
*** ChampSim Multicore Out-of-Order Simulator ***

Warmup Instructions: 50000000
Simulation Instructions: 50000000
Number of CPUs: 1
LLC sets: 2048
LLC ways: 16
Off-chip DRAM Size: 4096 MB Channels: 1 Width: 64-bit Data Rate: 6400 MT/s
CPU 0 runs ../IPC-traces//client_005.champsimtrace.xz
.xz
NUM_OF_IPS_IN_CRITICAL_IP_TRAINING: 64
NUM_OF_CRITICAL_IP_TRAINING_TABLE_WAYS: 2
NUM_OF_CRITICAL_IP_TRAINING_TABLE_SETS: 32
WOBBLY_CRITICAL_IP_CACHE_SETS: 32
WOBBLY_CRITICAL_IP_CACHE_WAYS: 4
BTB has LRU replacement policy
ITLB has LRU replacement policy
DTLB has LRU replacement policy
STLB has LRU replacement policy
CPU 0 L1I next line prefetcher
L1I has LRU replacement policy
IP Table Entries: 64
L1D has LRU replacement policy
Initialize SRRIP state for L2C
Initialize DRRIP state for LLC
Heartbeat CPU 0 instructions: 10000001 cycles: 2798997 heartbeat IPC: 3.57271 cumulative IPC: 3.57271 (Simulation time: 0 hr 4 min 58 sec) 
Heartbeat CPU 0 instructions: 20000002 cycles: 5591349 heartbeat IPC: 3.58121 cumulative IPC: 3.57695 (Simulation time: 0 hr 8 min 44 sec) 
Heartbeat CPU 0 instructions: 30000001 cycles: 8439788 heartbeat IPC: 3.51069 cumulative IPC: 3.55459 (Simulation time: 0 hr 12 min 29 sec) 
Heartbeat CPU 0 instructions: 40000000 cycles: 11286007 heartbeat IPC: 3.51343 cumulative IPC: 3.54421 (Simulation time: 0 hr 15 min 50 sec) 
Heartbeat CPU 0 instructions: 50000001 cycles: 14055587 heartbeat IPC: 3.61066 cumulative IPC: 3.5573 (Simulation time: 0 hr 18 min 44 sec) 

Warmup complete CPU 0 instructions: 50000001 cycles: 14055587 (Simulation time: 0 hr 18 min 44 sec) 

% increase in all ip prefetch 399.772
% increase in all ip prefetch 10.6904
% increase in all ip prefetch 11.4921
% increase in all ip prefetch 4.66457
% increase in all ip prefetch -5.51026
Heartbeat CPU 0 instructions: 60000001 cycles: 29834309 heartbeat IPC: 0.633765 cumulative IPC: 0.633765 (Simulation time: 0 hr 21 min 47 sec) 
Heartbeat CPU 0 instructions: 70000002 cycles: 44252881 heartbeat IPC: 0.69355 cumulative IPC: 0.662311 (Simulation time: 0 hr 24 min 46 sec) 
Heartbeat CPU 0 instructions: 80000003 cycles: 57372499 heartbeat IPC: 0.762217 cumulative IPC: 0.69257 (Simulation time: 0 hr 27 min 56 sec) 
Heartbeat CPU 0 instructions: 90000002 cycles: 73134324 heartbeat IPC: 0.634444 cumulative IPC: 0.677063 (Simulation time: 0 hr 31 min 14 sec) 
Heartbeat CPU 0 instructions: 100000002 cycles: 88430599 heartbeat IPC: 0.653754 cumulative IPC: 0.672269 (Simulation time: 0 hr 33 min 49 sec) 
Finished CPU 0 instructions: 50000001 cycles: 74375012 cumulative IPC: 0.672269 (Simulation time: 0 hr 33 min 49 sec) 

ChampSim completed all CPUs

Region of Interest Statistics

CPU 0 cumulative IPC: 0.672269 instructions: 50000001 cycles: 74375012

CPU 0 Average Load ROB stall cycles: 1.72601e+07
CPU 0 Fraction of times ROB stalled by Loads: 34.3437
CPU 0 Percentage of Load stall cycles in Total stall cycles: 2.40901e+08
Issued all: 27148652
Issued LT all: 21442653
rob_not_full_when_issued_lt_all: 20373262
Issued LT one: 16196938
rob_not_full_when_issued_lt_one: 15240423
 Total stall cycles: 60726547
 Total load stall cycles: 146290959343676
CPU 0 NUM of IPS identified critical: 0
CPU 0 Num of Load IPs stalling ROB: 27746
Threshold modification factor: -4
Max PIST entries: 64
Min PIST entries: 0
Avg PIST entries: 31.94
Trouble in retire width: 0.869365
MaC = Marked as critical.
lt_50_percent_before_Mac: 0
gt_90_percent_before_Mac: 0
gt_75_percent_before_Mac: 0
gt_50_percent_before_Mac: 0
stall_proportion_bin_same_before_after: 0
stall_proportion_bin_lower_before_after: 0
stall_proportion_bin_upper_before_after: 0
average_stall_proportion_before: -nan
average_stall_proportion_after: -nan
Critical IP stalls, total frequency: 0
Non-critical IP stalls, total frequency: 2910864
Total Freq all stalling IPs: 2910864
stat_90_percent_critical_ip_stalls_freq: 2619883
stat_90_percent_non_critical_ip_stalls_freq: 290981
Critical_IP_ROB_Stalls_Bucket_0: 0
Non-critical_IP_ROB_Stalls_Bucket_0: 1437535
Critical_IP_ROB_Stalls_Bucket_1: 0
Non-critical_IP_ROB_Stalls_Bucket_1: 830904
Critical_IP_ROB_Stalls_Bucket_2: 0
Non-critical_IP_ROB_Stalls_Bucket_2: 382945
Critical_IP_ROB_Stalls_Bucket_3: 0
Non-critical_IP_ROB_Stalls_Bucket_3: 137041
Critical_IP_ROB_Stalls_Bucket_4: 0
Non-critical_IP_ROB_Stalls_Bucket_4: 51097
Critical_IP_ROB_Stalls_Bucket_5: 0
Non-critical_IP_ROB_Stalls_Bucket_5: 29401
Critical_IP_ROB_Stalls_Bucket_6: 0
Non-critical_IP_ROB_Stalls_Bucket_6: 41941
0 => IPs accounting for >50 percent of stalls, 1 => 55, 2 => 60, 3 => 65 and so on till 90.
percent50: 50.0256 num IPs:  199
percent55: 55.0223 num IPs: 279
percent60: 60.013 num IPs: 389
percent65: 65.015 num IPs: 528
percent70: 70.0142 num IPs: 721
percent75: 75.0004 num IPs: 990
percent80: 80.0085 num IPs: 1360
percent85: 85.0014 num IPs: 1919
percent90: 90.0033 num IPs: 2909
Critical_ROB_Stalls_Percent_0_Bucket_0: 533297
Non-critical_ROB_Stalls_Percent_0_Bucket_0: 904238
Critical_ROB_Stalls_Percent_0_Bucket_1: 487528
Non-critical_ROB_Stalls_Percent_0_Bucket_1: 343376
Critical_ROB_Stalls_Percent_0_Bucket_2: 263784
Non-critical_ROB_Stalls_Percent_0_Bucket_2: 119161
Critical_ROB_Stalls_Percent_0_Bucket_3: 93721
Non-critical_ROB_Stalls_Percent_0_Bucket_3: 43320
Critical_ROB_Stalls_Percent_0_Bucket_4: 30615
Non-critical_ROB_Stalls_Percent_0_Bucket_4: 20482
Critical_ROB_Stalls_Percent_0_Bucket_5: 20208
Non-critical_ROB_Stalls_Percent_0_Bucket_5: 9193
Critical_ROB_Stalls_Percent_0_Bucket_6: 27026
Non-critical_ROB_Stalls_Percent_0_Bucket_6: 14915
Critical_ROB_Stalls_Percent_1_Bucket_0: 608194
Non-critical_ROB_Stalls_Percent_1_Bucket_0: 829341
Critical_ROB_Stalls_Percent_1_Bucket_1: 531202
Non-critical_ROB_Stalls_Percent_1_Bucket_1: 299702
Critical_ROB_Stalls_Percent_1_Bucket_2: 277759
Non-critical_ROB_Stalls_Percent_1_Bucket_2: 105186
Critical_ROB_Stalls_Percent_1_Bucket_3: 98901
Non-critical_ROB_Stalls_Percent_1_Bucket_3: 38140
Critical_ROB_Stalls_Percent_1_Bucket_4: 32717
Non-critical_ROB_Stalls_Percent_1_Bucket_4: 18380
Critical_ROB_Stalls_Percent_1_Bucket_5: 21255
Non-critical_ROB_Stalls_Percent_1_Bucket_5: 8146
Critical_ROB_Stalls_Percent_1_Bucket_6: 31597
Non-critical_ROB_Stalls_Percent_1_Bucket_6: 10344
Critical_ROB_Stalls_Percent_2_Bucket_0: 683083
Non-critical_ROB_Stalls_Percent_2_Bucket_0: 754452
Critical_ROB_Stalls_Percent_2_Bucket_1: 572077
Non-critical_ROB_Stalls_Percent_2_Bucket_1: 258827
Critical_ROB_Stalls_Percent_2_Bucket_2: 291591
Non-critical_ROB_Stalls_Percent_2_Bucket_2: 91354
Critical_ROB_Stalls_Percent_2_Bucket_3: 104721
Non-critical_ROB_Stalls_Percent_2_Bucket_3: 32320
Critical_ROB_Stalls_Percent_2_Bucket_4: 38047
Non-critical_ROB_Stalls_Percent_2_Bucket_4: 13050
Critical_ROB_Stalls_Percent_2_Bucket_5: 22956
Non-critical_ROB_Stalls_Percent_2_Bucket_5: 6445
Critical_ROB_Stalls_Percent_2_Bucket_6: 34422
Non-critical_ROB_Stalls_Percent_2_Bucket_6: 7519
Critical_ROB_Stalls_Percent_3_Bucket_0: 747602
Non-critical_ROB_Stalls_Percent_3_Bucket_0: 689933
Critical_ROB_Stalls_Percent_3_Bucket_1: 622290
Non-critical_ROB_Stalls_Percent_3_Bucket_1: 208614
Critical_ROB_Stalls_Percent_3_Bucket_2: 311605
Non-critical_ROB_Stalls_Percent_3_Bucket_2: 71340
Critical_ROB_Stalls_Percent_3_Bucket_3: 111173
Non-critical_ROB_Stalls_Percent_3_Bucket_3: 25868
Critical_ROB_Stalls_Percent_3_Bucket_4: 40833
Non-critical_ROB_Stalls_Percent_3_Bucket_4: 10264
Critical_ROB_Stalls_Percent_3_Bucket_5: 23983
Non-critical_ROB_Stalls_Percent_3_Bucket_5: 5418
Critical_ROB_Stalls_Percent_3_Bucket_6: 35012
Non-critical_ROB_Stalls_Percent_3_Bucket_6: 6929
Critical_ROB_Stalls_Percent_4_Bucket_0: 842919
Non-critical_ROB_Stalls_Percent_4_Bucket_0: 594616
Critical_ROB_Stalls_Percent_4_Bucket_1: 652248
Non-critical_ROB_Stalls_Percent_4_Bucket_1: 178656
Critical_ROB_Stalls_Percent_4_Bucket_2: 324231
Non-critical_ROB_Stalls_Percent_4_Bucket_2: 58714
Critical_ROB_Stalls_Percent_4_Bucket_3: 115108
Non-critical_ROB_Stalls_Percent_4_Bucket_3: 21933
Critical_ROB_Stalls_Percent_4_Bucket_4: 42721
Non-critical_ROB_Stalls_Percent_4_Bucket_4: 8376
Critical_ROB_Stalls_Percent_4_Bucket_5: 24874
Non-critical_ROB_Stalls_Percent_4_Bucket_5: 4527
Critical_ROB_Stalls_Percent_4_Bucket_6: 35916
Non-critical_ROB_Stalls_Percent_4_Bucket_6: 6025
Critical_ROB_Stalls_Percent_5_Bucket_0: 928173
Non-critical_ROB_Stalls_Percent_5_Bucket_0: 509362
Critical_ROB_Stalls_Percent_5_Bucket_1: 689964
Non-critical_ROB_Stalls_Percent_5_Bucket_1: 140940
Critical_ROB_Stalls_Percent_5_Bucket_2: 337448
Non-critical_ROB_Stalls_Percent_5_Bucket_2: 45497
Critical_ROB_Stalls_Percent_5_Bucket_3: 119825
Non-critical_ROB_Stalls_Percent_5_Bucket_3: 17216
Critical_ROB_Stalls_Percent_5_Bucket_4: 44656
Non-critical_ROB_Stalls_Percent_5_Bucket_4: 6441
Critical_ROB_Stalls_Percent_5_Bucket_5: 26061
Non-critical_ROB_Stalls_Percent_5_Bucket_5: 3340
Critical_ROB_Stalls_Percent_5_Bucket_6: 37030
Non-critical_ROB_Stalls_Percent_5_Bucket_6: 4911
Critical_ROB_Stalls_Percent_6_Bucket_0: 1018661
Non-critical_ROB_Stalls_Percent_6_Bucket_0: 418874
Critical_ROB_Stalls_Percent_6_Bucket_1: 729044
Non-critical_ROB_Stalls_Percent_6_Bucket_1: 101860
Critical_ROB_Stalls_Percent_6_Bucket_2: 346746
Non-critical_ROB_Stalls_Percent_6_Bucket_2: 36199
Critical_ROB_Stalls_Percent_6_Bucket_3: 123471
Non-critical_ROB_Stalls_Percent_6_Bucket_3: 13570
Critical_ROB_Stalls_Percent_6_Bucket_4: 46152
Non-critical_ROB_Stalls_Percent_6_Bucket_4: 4945
Critical_ROB_Stalls_Percent_6_Bucket_5: 26891
Non-critical_ROB_Stalls_Percent_6_Bucket_5: 2510
Critical_ROB_Stalls_Percent_6_Bucket_6: 37967
Non-critical_ROB_Stalls_Percent_6_Bucket_6: 3974
Critical_ROB_Stalls_Percent_7_Bucket_0: 1113643
Non-critical_ROB_Stalls_Percent_7_Bucket_0: 323892
Critical_ROB_Stalls_Percent_7_Bucket_1: 759443
Non-critical_ROB_Stalls_Percent_7_Bucket_1: 71461
Critical_ROB_Stalls_Percent_7_Bucket_2: 358391
Non-critical_ROB_Stalls_Percent_7_Bucket_2: 24554
Critical_ROB_Stalls_Percent_7_Bucket_3: 127068
Non-critical_ROB_Stalls_Percent_7_Bucket_3: 9973
Critical_ROB_Stalls_Percent_7_Bucket_4: 47630
Non-critical_ROB_Stalls_Percent_7_Bucket_4: 3467
Critical_ROB_Stalls_Percent_7_Bucket_5: 27835
Non-critical_ROB_Stalls_Percent_7_Bucket_5: 1566
Critical_ROB_Stalls_Percent_7_Bucket_6: 40256
Non-critical_ROB_Stalls_Percent_7_Bucket_6: 1685
Critical_ROB_Stalls_Percent_8_Bucket_0: 1210727
Non-critical_ROB_Stalls_Percent_8_Bucket_0: 226808
Critical_ROB_Stalls_Percent_8_Bucket_1: 789298
Non-critical_ROB_Stalls_Percent_8_Bucket_1: 41606
Critical_ROB_Stalls_Percent_8_Bucket_2: 369527
Non-critical_ROB_Stalls_Percent_8_Bucket_2: 13418
Critical_ROB_Stalls_Percent_8_Bucket_3: 131910
Non-critical_ROB_Stalls_Percent_8_Bucket_3: 5131
Critical_ROB_Stalls_Percent_8_Bucket_4: 49128
Non-critical_ROB_Stalls_Percent_8_Bucket_4: 1969
Critical_ROB_Stalls_Percent_8_Bucket_5: 28519
Non-critical_ROB_Stalls_Percent_8_Bucket_5: 882
Critical_ROB_Stalls_Percent_8_Bucket_6: 40774
Non-critical_ROB_Stalls_Percent_8_Bucket_6: 1167
Average ROB occupancy Load Stall Begin: 59.4409
Average ROB occupancy Load Stall End: 69.0369
Min ROB occupancy Load Stall Begin: 1
Max ROB occupancy Load Stall Begin: 352
Min ROB occupancy Load Stall End: 1
Max ROB occupancy Load Stall End: 352
Average ROB occupancy Critical Load Stall Begin: -nan
Average ROB occupancy Critical Load Stall End: -nan
Min ROB occupancy Critical Load Stall Begin: 400
Max ROB occupancy Critical Load Stall Begin: 0
Min ROB occupancy Critical Load Stall End: 400
Max ROB occupancy Critical Load Stall End: 0
 ROB Load Stall Begin Bucket Count 0: 1692094
 ROB Load Stall End Bucket Count 0: 1437535
 ROB Critical Load Stall Begin Bucket Count 0: 0
 ROB Critical Load Stall End Bucket Count 0: 0
 ROB Load Stall Begin Bucket Count 1: 701470
 ROB Load Stall End Bucket Count 1: 830904
 ROB Critical Load Stall Begin Bucket Count 1: 0
 ROB Critical Load Stall End Bucket Count 1: 0
 ROB Load Stall Begin Bucket Count 2: 310949
 ROB Load Stall End Bucket Count 2: 382945
 ROB Critical Load Stall Begin Bucket Count 2: 0
 ROB Critical Load Stall End Bucket Count 2: 0
 ROB Load Stall Begin Bucket Count 3: 104256
 ROB Load Stall End Bucket Count 3: 137041
 ROB Critical Load Stall Begin Bucket Count 3: 0
 ROB Critical Load Stall End Bucket Count 3: 0
 ROB Load Stall Begin Bucket Count 4: 39953
 ROB Load Stall End Bucket Count 4: 51097
 ROB Critical Load Stall Begin Bucket Count 4: 0
 ROB Critical Load Stall End Bucket Count 4: 0
 ROB Load Stall Begin Bucket Count 5: 26239
 ROB Load Stall End Bucket Count 5: 29401
 ROB Critical Load Stall Begin Bucket Count 5: 0
 ROB Critical Load Stall End Bucket Count 5: 0
 ROB Load Stall Begin Bucket Count 6: 35903
 ROB Load Stall End Bucket Count 6: 41941
 ROB Critical Load Stall Begin Bucket Count 6: 0
 ROB Critical Load Stall End Bucket Count 6: 0
PIST Tag Read Accesses: 4626910
PIST Read Accesses: 2313455
PIST Tag Write Accesses: 4626910
PIST Write Accesses: 2313455
Criticality detector called times: 2654753
Max global_stall_cycles_count: 4408196
Threshold Modified: 4 times, factor: -4
Sturdy critical IP cache stats: 
 Unused entries: 0
CIC Tag Read Accesses: 0
CIC Read Accesses: 0
CIC Tag Write Accesses: 0
CIC Write Accesses: 0
Wobbly critical IP cache stats: 
 Unused entries: 17
CIC Tag Read Accesses: 80021659
CIC Read Accesses: 0
CIC Tag Write Accesses: 57487
CIC Write Accesses: 0
ITLB TOTAL     ACCESS:    9251810  HIT:    9133202  MISS:     118608  HIT %:     98.718  MISS %:      1.282   MPKI: 2.37216
ITLB LOAD TRANSLATION ACCESS:    8275791  HIT:    8218089  MISS:      57702  HIT %:    99.3028  MISS %:   0.697238   MPKI: 1.15404
ITLB TRANSLATION FROM L1D PREFETCHER ACCESS:     976019  HIT:     915113  MISS:      60906  HIT %:    93.7598  MISS %:    6.24025   MPKI: 1.21812
ITLB PREFETCH  REQUESTED:          0  ISSUED:          0  USEFUL:      49281  USELESS:      11630
ITLB USEFUL LOAD PREFETCHES:      49281 PREFETCH ISSUED TO LOWER LEVEL:          0  ACCURACY: inf
ITLB TIMELY PREFETCHES:      49281 LATE PREFETCHES: 404 DROPPED PREFETCHES: 324
ITLB PREFETCHES SAME FILL-ORIGIN LEVEL: 0 DIFFERENT FILL-ORIGIN LEVEL: 0
ITLB AVERAGE MISS LATENCY: 152483 cycles
ITLB RQ	ACCESS:   12560422	FORWARD:          0	MERGED:    3288785	TO_CACHE:    9271637

DTLB TOTAL     ACCESS:   10412118  HIT:   10210756  MISS:     201362  HIT %:    98.0661  MISS %:    1.93392   MPKI: 4.02724
DTLB LOAD TRANSLATION ACCESS:   10412118  HIT:   10210756  MISS:     201362  HIT %:    98.0661  MISS %:    1.93392   MPKI: 4.02724
DTLB PREFETCH  REQUESTED:          0  ISSUED:          0  USEFUL:          0  USELESS:          0
DTLB USEFUL LOAD PREFETCHES:          0 PREFETCH ISSUED TO LOWER LEVEL:          0  ACCURACY: -nan
DTLB TIMELY PREFETCHES:          0 LATE PREFETCHES: 0 DROPPED PREFETCHES: 0
DTLB PREFETCHES SAME FILL-ORIGIN LEVEL: 0 DIFFERENT FILL-ORIGIN LEVEL: 0
DTLB AVERAGE MISS LATENCY: 12.9158 cycles
DTLB RQ	ACCESS:   14351823	FORWARD:          0	MERGED:    3908901	TO_CACHE:   10442922

STLB TOTAL     ACCESS:     385689  HIT:     373762  MISS:      11927  HIT %:    96.9076  MISS %:    3.09239   MPKI: 0.23854
STLB LOAD TRANSLATION ACCESS:     258662  HIT:     247553  MISS:      11109  HIT %:    95.7052  MISS %:    4.29479   MPKI: 0.22218
STLB TRANSLATION FROM L1D PREFETCHER ACCESS:     127027  HIT:     126209  MISS:        818  HIT %:     99.356  MISS %:   0.643958   MPKI: 0.01636
STLB PREFETCH  REQUESTED:          0  ISSUED:          0  USEFUL:        563  USELESS:        251
STLB USEFUL LOAD PREFETCHES:        563 PREFETCH ISSUED TO LOWER LEVEL:          0  ACCURACY: inf
STLB TIMELY PREFETCHES:        563 LATE PREFETCHES: 0 DROPPED PREFETCHES: 326
STLB PREFETCHES SAME FILL-ORIGIN LEVEL: 0 DIFFERENT FILL-ORIGIN LEVEL: 0
STLB AVERAGE MISS LATENCY: 80.1959 cycles
STLB RQ	ACCESS:     399628	FORWARD:          0	MERGED:      13613	TO_CACHE:     386015

STLB Hit, L1D data hit: 0
STLB Hit, L2C data hit: 0
STLB Hit, LLC data hit: 0
STLB Hit, LLC data miss: 0
STLB STLB hints to L2: 0
L1D TOTAL     ACCESS:   13930377  HIT:   13524658  MISS:     405719  HIT %:    97.0875  MISS %:    2.91248   MPKI: 8.11438
L1D LOAD      ACCESS:    7059682  HIT:    6880866  MISS:     178816  HIT %:    97.4671  MISS %:    2.53292   MPKI: 3.57632
L1D RFO       ACCESS:    6794824  HIT:    6598807  MISS:     196017  HIT %:    97.1152  MISS %:     2.8848   MPKI: 3.92034
L1D PREFETCH  ACCESS:      75871  HIT:      44985  MISS:      30886  HIT %:    59.2914  MISS %:    40.7086   MPKI: 0.61772
L1D PREFETCH  REQUESTED:     158704  ISSUED:     158704  USEFUL:      14744  USELESS:      16210
L1D USEFUL LOAD PREFETCHES:      14744 PREFETCH ISSUED TO LOWER LEVEL:      32515  ACCURACY: 45.3452
L1D TIMELY PREFETCHES:      14744 LATE PREFETCHES: 1505 DROPPED PREFETCHES: 0
L1D PREFETCHES SAME FILL-ORIGIN LEVEL: 32515 DIFFERENT FILL-ORIGIN LEVEL: 0
L1D AVERAGE MISS LATENCY: 209381 cycles
L1D RQ	ACCESS:   10970885	FORWARD:          0	MERGED:    3727182	TO_CACHE:    7091361
L1D WQ	ACCESS:    7412318	FORWARD:     152382	MERGED:     151856	TO_CACHE:    7260462
L1D PQ	ACCESS:      79372	FORWARD:          0	MERGED:          0	TO_CACHE:      79332

L1D UNIQUE REGIONS ACCESSED: 0
L1D REGIONS CONFLICTS: 0
L1D Cross Page Prefetch Requests: 0
L1D Same Page Prefetch Requests: 300660
L1D ROI Sum of L1D PQ occupancy: 1059747
L1D PREFETCHES PUSHED FROM L2C: 0
L1I TOTAL     ACCESS:   12425182  HIT:   11353900  MISS:    1071282  HIT %:    91.3781  MISS %:    8.62186   MPKI: 21.4256
L1I LOAD      ACCESS:    9748557  HIT:    9478771  MISS:     269786  HIT %:    97.2326  MISS %:    2.76745   MPKI: 5.39572
L1I PREFETCH  ACCESS:    2676625  HIT:    1875129  MISS:     801496  HIT %:    70.0557  MISS %:    29.9443   MPKI: 16.0299
L1I PREFETCH  REQUESTED:    2926544  ISSUED:    2923673  USEFUL:     511429  USELESS:     290021
L1I USEFUL LOAD PREFETCHES:     511429 PREFETCH ISSUED TO LOWER LEVEL:     830769  ACCURACY: 61.5609
L1I TIMELY PREFETCHES:     511429 LATE PREFETCHES: 29273 DROPPED PREFETCHES: 690
L1I PREFETCHES SAME FILL-ORIGIN LEVEL: 830769 DIFFERENT FILL-ORIGIN LEVEL: 0
L1I AVERAGE MISS LATENCY: 1.29827e+06 cycles
L1I RQ	ACCESS:   14560754	FORWARD:          0	MERGED:    4775525	TO_CACHE:    9785229
L1I PQ	ACCESS:    2923673	FORWARD:          0	MERGED:     148480	TO_CACHE:    2775193

BTB TOTAL     ACCESS:    6897112  HIT:    6294074  MISS:     603038  HIT %:    91.2567  MISS %:    8.74334   MPKI: 12.0608
BTB BRANCH_DIRECT_JUMP	ACCESS:     484667  HIT:     467652  MISS:      17015
BTB BRANCH_INDIRECT	ACCESS:      85086  HIT:      43882  MISS:      41204
BTB BRANCH_CONDITIONAL	ACCESS:    3984632  HIT:    3933521  MISS:      51111
BTB BRANCH_DIRECT_CALL	ACCESS:    1028917  HIT:     994054  MISS:      34863
BTB BRANCH_INDIRECT_CALL	ACCESS:     141825  HIT:     105579  MISS:      36246
BTB BRANCH_RETURN	ACCESS:    1171985  HIT:     749386  MISS:     422599
BTB BRANCH_OTHER ACCESS:          0  HIT:          0  MISS:          0

L2C TOTAL     ACCESS:    1769946  HIT:    1384821  MISS:     385125  HIT %:    78.2409  MISS %:    21.7591   MPKI: 7.7025
L2C LOAD      ACCESS:     417818  HIT:     299635  MISS:     118183  HIT %:    71.7142  MISS %:    28.2858   MPKI: 2.36366
L2C DATA LOAD MPKI: 1.85348
L2C INSTRUCTION LOAD MPKI: 0.51018
L2C RFO       ACCESS:     195892  HIT:      32758  MISS:     163134  HIT %:    16.7225  MISS %:    83.2775   MPKI: 3.26268
L2C PREFETCH  ACCESS:     901658  HIT:     813915  MISS:      87743  HIT %:    90.2687  MISS %:     9.7313   MPKI: 1.75486
L2C DATA PREFETCH MPKI: 0.6179
L2C INSTRUCTION PREFETCH MPKI: 1.13696
L2C WRITEBACK ACCESS:     241385  HIT:     229450  MISS:      11935  HIT %:    95.0556  MISS %:    4.94438   MPKI: 0.2387
L2C LOAD TRANSLATION ACCESS:      11942  HIT:       8173  MISS:       3769  HIT %:    68.4391  MISS %:    31.5609   MPKI: 0.07538
L2C TRANSLATION FROM L1D PREFETCHER ACCESS:       1251  HIT:        890  MISS:        361  HIT %:    71.1431  MISS %:    28.8569   MPKI: 0.00722
L2C PREFETCH  REQUESTED:      50427  ISSUED:      50427  USEFUL:      10968  USELESS:      76590
L2C USEFUL LOAD PREFETCHES:      10968 PREFETCH ISSUED TO LOWER LEVEL:      88059  ACCURACY: 12.4553
L2C TIMELY PREFETCHES:      10968 LATE PREFETCHES: 316 DROPPED PREFETCHES: 0
L2C PREFETCHES SAME FILL-ORIGIN LEVEL: 13661 DIFFERENT FILL-ORIGIN LEVEL: 0
L2C AVERAGE MISS LATENCY: 128.227 cycles
L2C RQ	ACCESS:     626910	FORWARD:          0	MERGED:          0	TO_CACHE:     626903
L2C WQ	ACCESS:     241385	FORWARD:          8	MERGED:          0	TO_CACHE:     241385
L2C PQ	ACCESS:     913711	FORWARD:          0	MERGED:       9947	TO_CACHE:     903763

L2C Instructions Evicting Data 50632
L2C Translations Evicting Data 2831
L2C Data Evicting Data 238382
L2C Instructions Evicting Instructions 30513
L2C Translations Evicting Instructions 1240
L2C Data Evicting Instructions 45622
L2C Instructions Evicting Translations 1212
L2C Translations Evicting Translations 59
L2C Data Evicting Translations 2699
L2C Dense regions hint from L2: 0
PSCL5 TOTAL     ACCESS:      12253  HIT:      12253  MISS:          0  HIT %:        100  MISS %:          0   MPKI: 0
PSCL5 LOAD TRANSLATION ACCESS:      11109  HIT:      11109  MISS:          0  HIT %:        100  MISS %:          0   MPKI: 0
PSCL5 TRANSLATION FROM L1D PREFETCHER ACCESS:       1144  HIT:       1144  MISS:          0  HIT %:        100  MISS %:          0   MPKI: 0
PSCL5 PREFETCH  REQUESTED:          0  ISSUED:          0  USEFUL:          0  USELESS:          0
PSCL5 USEFUL LOAD PREFETCHES:          0 PREFETCH ISSUED TO LOWER LEVEL:          0  ACCURACY: -nan
PSCL5 TIMELY PREFETCHES:          0 LATE PREFETCHES: 0 DROPPED PREFETCHES: 0
PSCL5 PREFETCHES SAME FILL-ORIGIN LEVEL: 0 DIFFERENT FILL-ORIGIN LEVEL: 0

PSCL4 TOTAL     ACCESS:      12253  HIT:      12253  MISS:          0  HIT %:        100  MISS %:          0   MPKI: 0
PSCL4 LOAD TRANSLATION ACCESS:      11109  HIT:      11109  MISS:          0  HIT %:        100  MISS %:          0   MPKI: 0
PSCL4 TRANSLATION FROM L1D PREFETCHER ACCESS:       1144  HIT:       1144  MISS:          0  HIT %:        100  MISS %:          0   MPKI: 0
PSCL4 PREFETCH  REQUESTED:          0  ISSUED:          0  USEFUL:          0  USELESS:          0
PSCL4 USEFUL LOAD PREFETCHES:          0 PREFETCH ISSUED TO LOWER LEVEL:          0  ACCURACY: -nan
PSCL4 TIMELY PREFETCHES:          0 LATE PREFETCHES: 0 DROPPED PREFETCHES: 0
PSCL4 PREFETCHES SAME FILL-ORIGIN LEVEL: 0 DIFFERENT FILL-ORIGIN LEVEL: 0

PSCL3 TOTAL     ACCESS:      12236  HIT:      12226  MISS:         10  HIT %:    99.9183  MISS %:  0.0817261   MPKI: 0.0002
PSCL3 LOAD TRANSLATION ACCESS:      11095  HIT:      11085  MISS:         10  HIT %:    99.9099  MISS %:  0.0901307   MPKI: 0.0002
PSCL3 TRANSLATION FROM L1D PREFETCHER ACCESS:       1141  HIT:       1141  MISS:          0  HIT %:        100  MISS %:          0   MPKI: 0
PSCL3 PREFETCH  REQUESTED:          0  ISSUED:          0  USEFUL:          0  USELESS:          0
PSCL3 USEFUL LOAD PREFETCHES:          0 PREFETCH ISSUED TO LOWER LEVEL:          0  ACCURACY: -nan
PSCL3 TIMELY PREFETCHES:          0 LATE PREFETCHES: 0 DROPPED PREFETCHES: 0
PSCL3 PREFETCHES SAME FILL-ORIGIN LEVEL: 0 DIFFERENT FILL-ORIGIN LEVEL: 0

PSCL2 TOTAL     ACCESS:      12211  HIT:      11322  MISS:        889  HIT %:    92.7197  MISS %:    7.28032   MPKI: 0.01778
PSCL2 LOAD TRANSLATION ACCESS:      11172  HIT:      10283  MISS:        889  HIT %:    92.0426  MISS %:    7.95739   MPKI: 0.01778
PSCL2 TRANSLATION FROM L1D PREFETCHER ACCESS:       1039  HIT:       1039  MISS:          0  HIT %:        100  MISS %:          0   MPKI: 0
PSCL2 PREFETCH  REQUESTED:          0  ISSUED:          0  USEFUL:          0  USELESS:          0
PSCL2 USEFUL LOAD PREFETCHES:          0 PREFETCH ISSUED TO LOWER LEVEL:          0  ACCURACY: -nan
PSCL2 TIMELY PREFETCHES:          0 LATE PREFETCHES: 0 DROPPED PREFETCHES: 0
PSCL2 PREFETCHES SAME FILL-ORIGIN LEVEL: 0 DIFFERENT FILL-ORIGIN LEVEL: 0

LLC TOTAL     ACCESS:     567672  HIT:     303344  MISS:     264328  HIT %:    53.4365  MISS %:    46.5635   MPKI: 5.28656
LLC LOAD      ACCESS:     117910  HIT:      51933  MISS:      65977  HIT %:    44.0446  MISS %:    55.9554   MPKI: 1.31954
LLC RFO       ACCESS:     163091  HIT:       8228  MISS:     154863  HIT %:    5.04504  MISS %:     94.955   MPKI: 3.09726
LLC PREFETCH  ACCESS:      88059  HIT:      51033  MISS:      37026  HIT %:    57.9532  MISS %:    42.0468   MPKI: 0.74052
LLC WRITEBACK ACCESS:     194482  HIT:     190120  MISS:       4362  HIT %:    97.7571  MISS %:    2.24288   MPKI: 0.08724
LLC LOAD TRANSLATION ACCESS:       3769  HIT:       1837  MISS:       1932  HIT %:    48.7397  MISS %:    51.2603   MPKI: 0.03864
LLC TRANSLATION FROM L1D PREFETCHER ACCESS:        361  HIT:        193  MISS:        168  HIT %:    53.4626  MISS %:    46.5374   MPKI: 0.00336
LLC PREFETCH  REQUESTED:          0  ISSUED:          0  USEFUL:       4708  USELESS:      33859
LLC USEFUL LOAD PREFETCHES:       4708 PREFETCH ISSUED TO LOWER LEVEL:      37026  ACCURACY: 12.7154
LLC TIMELY PREFETCHES:       4708 LATE PREFETCHES: 0 DROPPED PREFETCHES: 0
LLC PREFETCHES SAME FILL-ORIGIN LEVEL: 0 DIFFERENT FILL-ORIGIN LEVEL: 0
LLC AVERAGE MISS LATENCY: 144.427 cycles
LLC RQ	ACCESS:     285131	FORWARD:          0	MERGED:          0	TO_CACHE:     285131
LLC WQ	ACCESS:     194482	FORWARD:          0	MERGED:          0	TO_CACHE:     194482
LLC PQ	ACCESS:      88059	FORWARD:          0	MERGED:          0	TO_CACHE:      88059

LLC Dense regions hint to LLC: 0

RAW hits: 1821314
Loads Generated: 12792198
Loads sent to L1D: 10970885
Stores Generated: 7412307
Stores sent to L1D: 7412318
Major fault: 0 Minor fault: 6178
Allocated PAGES: 6178
I-Shadow cache 408 bytes
Touched + WorthPF tables 6144 bytes 
MMA filter 174 bytes 
FNL filter 272 bytes 
TOTAL PREFETCHER STORAGE SIZE: 25174 bytes
CPU 0 L1I next line prefetcher final stats

stream: 
stream:times selected: 621903
stream:pref_filled: 47805
stream:pref_useful: 14817
stream:pref_late: 955
stream:misses: 6524
stream:misses_by_poll: 0

CS: 
CS:times selected: 100055
CS:pref_filled: 33864
CS:pref_useful: 27775
CS:pref_late: 973
CS:misses: 7215
CS:misses_by_poll: 14

CPLX: 
CPLX:times selected: 518731
CPLX:pref_filled: 17282
CPLX:pref_useful: 3037
CPLX:pref_late: 92
CPLX:misses: 37846
CPLX:misses_by_poll: 2

NL_L1: 
NL:times selected: 5000
NL:pref_filled: 668
NL:pref_useful: 183
NL:pref_late: 7
NL:misses: 323
NL:misses_by_poll: 0

total selections: 1245689
total_filled: 30886
total_useful: 14744
total_late: 2358
total_polluted: 16
total_misses_after_warmup: 210495
conflicts: 2931651
Degree Incremented Times: 34529
Degree Decremented Times: 158882

L1 IP Table Write Accesses: 3904799
L1 IP Table Read Accesses: 973148
L1 RST Write Accesses: 291969
L1 RST Read Accesses: 583938
L1 CSPT Write Accesses: 291969
L1 CSPT Read Accesses: 538722
L1 RR Filter Tag Write Accesses: 79372
L1 RR Filter Tag Read Accesses: 6206188
L1 IP Table Tag Write Accesses: 7091361
L1 IP Table Tag Read Accesses: 7091361
L1 RST Tag Write Accesses: 0
L1 RST Tag Read Accesses: 2755788
L1 RR Filter Write Accesses: 0
L1 RR Filter Read Accesses: 232399
test: 169398
L2 IP Table Read Accesses: 1135992
L2 IP Table Write Accesses: 1975945
L2 IP Table Tag Read Accesses: 1035095
L2 IP Table Tag Write Accesses: 1035095

DRAM Statistics
 CHANNEL 0
 RQ ROW_BUFFER_HIT:      87968  ROW_BUFFER_MISS:     171997
 DBUS_CONGESTED:        240
 WQ ROW_BUFFER_HIT:      34762  ROW_BUFFER_MISS:     145123  FULL:          0

 AVG_CONGESTED_CYCLE: 3
 All warmup complete: 2
Channel 0 Bank busy for read cycles: 0
Channel 0 Bank busy for write cycles: 0
Channel 0
Rank 0
0banks busy for read cycles: 45285101
0banks busy for write cycles: 45298
1banks busy for read cycles: 11048173
1banks busy for write cycles: 5250556
2banks busy for read cycles: 3642582
2banks busy for write cycles: 2615688
3banks busy for read cycles: 945575
3banks busy for write cycles: 1177408
4banks busy for read cycles: 402455
4banks busy for write cycles: 584711
5banks busy for read cycles: 251402
5banks busy for write cycles: 426191
6banks busy for read cycles: 303137
6banks busy for write cycles: 375897
7banks busy for read cycles: 207749
7banks busy for write cycles: 431572
8banks busy for read cycles: 370896
8banks busy for write cycles: 1010622

CPU 0 Branch Prediction Accuracy: 97.8666% MPKI: 3.9013 Average ROB Occupancy at Mispredict: 48.7608
Branch types
NOT_BRANCH: 40856330 81.7127%
BRANCH_DIRECT_JUMP: 484667 0.969334%
BRANCH_INDIRECT: 85086 0.170172%
BRANCH_CONDITIONAL: 6230887 12.4618%
BRANCH_DIRECT_CALL: 1028917 2.05783%
BRANCH_INDIRECT_CALL: 141825 0.28365%
BRANCH_RETURN: 1171985 2.34397%
BRANCH_OTHER: 0 0%

DRAM PAGES: 1048576
Allocated PAGES: 6178
