
*** ChampSim Multicore Out-of-Order Simulator ***

Warmup Instructions: 50000000
Simulation Instructions: 50000000
Number of CPUs: 1
LLC sets: 2048
LLC ways: 16
Off-chip DRAM Size: 4096 MB Channels: 1 Width: 64-bit Data Rate: 6400 MT/s
CPU 0 runs ../IPC-traces//client_003.champsimtrace.xz
.xz
NUM_OF_IPS_IN_CRITICAL_IP_TRAINING: 64
NUM_OF_CRITICAL_IP_TRAINING_TABLE_WAYS: 2
NUM_OF_CRITICAL_IP_TRAINING_TABLE_SETS: 32
WOBBLY_CRITICAL_IP_CACHE_SETS: 32
WOBBLY_CRITICAL_IP_CACHE_WAYS: 4
BTB has LRU replacement policy
ITLB has LRU replacement policy
DTLB has LRU replacement policy
STLB has LRU replacement policy
CPU 0 L1I next line prefetcher
L1I has LRU replacement policy
IP Table Entries: 64
L1D has LRU replacement policy
Initialize SRRIP state for L2C
Initialize DRRIP state for LLC
Heartbeat CPU 0 instructions: 10000000 cycles: 2804672 heartbeat IPC: 3.56548 cumulative IPC: 3.56548 (Simulation time: 0 hr 4 min 48 sec) 
Heartbeat CPU 0 instructions: 20000000 cycles: 5608444 heartbeat IPC: 3.56662 cumulative IPC: 3.56605 (Simulation time: 0 hr 9 min 18 sec) 
Heartbeat CPU 0 instructions: 30000003 cycles: 8417684 heartbeat IPC: 3.55968 cumulative IPC: 3.56393 (Simulation time: 0 hr 13 min 12 sec) 
Heartbeat CPU 0 instructions: 40000001 cycles: 11235373 heartbeat IPC: 3.54901 cumulative IPC: 3.56018 (Simulation time: 0 hr 16 min 49 sec) 
Heartbeat CPU 0 instructions: 50000002 cycles: 14055660 heartbeat IPC: 3.54574 cumulative IPC: 3.55729 (Simulation time: 0 hr 20 min 29 sec) 

Warmup complete CPU 0 instructions: 50000002 cycles: 14055660 (Simulation time: 0 hr 20 min 29 sec) 

% increase in all ip prefetch 308.097
% increase in all ip prefetch 1.6814
Heartbeat CPU 0 instructions: 60000002 cycles: 27027387 heartbeat IPC: 0.770907 cumulative IPC: 0.770907 (Simulation time: 0 hr 23 min 47 sec) 
Heartbeat CPU 0 instructions: 70000001 cycles: 39615762 heartbeat IPC: 0.794384 cumulative IPC: 0.782469 (Simulation time: 0 hr 27 min 0 sec) 
Heartbeat CPU 0 instructions: 80000001 cycles: 53588651 heartbeat IPC: 0.715672 cumulative IPC: 0.75886 (Simulation time: 0 hr 30 min 9 sec) 
Heartbeat CPU 0 instructions: 90000000 cycles: 68144462 heartbeat IPC: 0.687011 cumulative IPC: 0.739525 (Simulation time: 0 hr 33 min 16 sec) 
Heartbeat CPU 0 instructions: 100000000 cycles: 88173048 heartbeat IPC: 0.499286 cumulative IPC: 0.674605 (Simulation time: 0 hr 37 min 29 sec) 
Finished CPU 0 instructions: 50000002 cycles: 74117390 cumulative IPC: 0.674605 (Simulation time: 0 hr 37 min 29 sec) 

ChampSim completed all CPUs

Region of Interest Statistics

CPU 0 cumulative IPC: 0.674605 instructions: 50000002 cycles: 74117390

CPU 0 Average Load ROB stall cycles: 1.81899e+07
CPU 0 Fraction of times ROB stalled by Loads: 36.2074
CPU 0 Percentage of Load stall cycles in Total stall cycles: 2.66123e+08
Issued all: 39671202
Issued LT all: 34154839
rob_not_full_when_issued_lt_all: 17966379
Issued LT one: 28021730
rob_not_full_when_issued_lt_one: 13660913
 Total stall cycles: 61183743
 Total load stall cycles: 162823830338213
CPU 0 NUM of IPS identified critical: 0
CPU 0 Num of Load IPs stalling ROB: 26811
Threshold modification factor: -1
Max PIST entries: 64
Min PIST entries: 0
Avg PIST entries: 27.25
Trouble in retire width: 0.907393
MaC = Marked as critical.
lt_50_percent_before_Mac: 0
gt_90_percent_before_Mac: 0
gt_75_percent_before_Mac: 0
gt_50_percent_before_Mac: 0
stall_proportion_bin_same_before_after: 0
stall_proportion_bin_lower_before_after: 0
stall_proportion_bin_upper_before_after: 0
average_stall_proportion_before: -nan
average_stall_proportion_after: -nan
Critical IP stalls, total frequency: 0
Non-critical IP stalls, total frequency: 3241041
Total Freq all stalling IPs: 3241041
stat_90_percent_critical_ip_stalls_freq: 2917013
stat_90_percent_non_critical_ip_stalls_freq: 324028
Critical_IP_ROB_Stalls_Bucket_0: 0
Non-critical_IP_ROB_Stalls_Bucket_0: 1442165
Critical_IP_ROB_Stalls_Bucket_1: 0
Non-critical_IP_ROB_Stalls_Bucket_1: 660631
Critical_IP_ROB_Stalls_Bucket_2: 0
Non-critical_IP_ROB_Stalls_Bucket_2: 272878
Critical_IP_ROB_Stalls_Bucket_3: 0
Non-critical_IP_ROB_Stalls_Bucket_3: 91257
Critical_IP_ROB_Stalls_Bucket_4: 0
Non-critical_IP_ROB_Stalls_Bucket_4: 37029
Critical_IP_ROB_Stalls_Bucket_5: 0
Non-critical_IP_ROB_Stalls_Bucket_5: 20203
Critical_IP_ROB_Stalls_Bucket_6: 0
Non-critical_IP_ROB_Stalls_Bucket_6: 716878
0 => IPs accounting for >50 percent of stalls, 1 => 55, 2 => 60, 3 => 65 and so on till 90.
percent50: 50.1172 num IPs:  39
percent55: 55.05 num IPs: 62
percent60: 60.1135 num IPs: 97
percent65: 65.0196 num IPs: 154
percent70: 70.0352 num IPs: 250
percent75: 75.0078 num IPs: 397
percent80: 80.0116 num IPs: 638
percent85: 85.0037 num IPs: 1066
percent90: 90.0023 num IPs: 1855
Critical_ROB_Stalls_Percent_0_Bucket_0: 522018
Non-critical_ROB_Stalls_Percent_0_Bucket_0: 920147
Critical_ROB_Stalls_Percent_0_Bucket_1: 213319
Non-critical_ROB_Stalls_Percent_0_Bucket_1: 447312
Critical_ROB_Stalls_Percent_0_Bucket_2: 114853
Non-critical_ROB_Stalls_Percent_0_Bucket_2: 158025
Critical_ROB_Stalls_Percent_0_Bucket_3: 42189
Non-critical_ROB_Stalls_Percent_0_Bucket_3: 49068
Critical_ROB_Stalls_Percent_0_Bucket_4: 18589
Non-critical_ROB_Stalls_Percent_0_Bucket_4: 18440
Critical_ROB_Stalls_Percent_0_Bucket_5: 11002
Non-critical_ROB_Stalls_Percent_0_Bucket_5: 9201
Critical_ROB_Stalls_Percent_0_Bucket_6: 702348
Non-critical_ROB_Stalls_Percent_0_Bucket_6: 14530
Critical_ROB_Stalls_Percent_1_Bucket_0: 594734
Non-critical_ROB_Stalls_Percent_1_Bucket_0: 847431
Critical_ROB_Stalls_Percent_1_Bucket_1: 271619
Non-critical_ROB_Stalls_Percent_1_Bucket_1: 389012
Critical_ROB_Stalls_Percent_1_Bucket_2: 133307
Non-critical_ROB_Stalls_Percent_1_Bucket_2: 139571
Critical_ROB_Stalls_Percent_1_Bucket_3: 48350
Non-critical_ROB_Stalls_Percent_1_Bucket_3: 42907
Critical_ROB_Stalls_Percent_1_Bucket_4: 21095
Non-critical_ROB_Stalls_Percent_1_Bucket_4: 15934
Critical_ROB_Stalls_Percent_1_Bucket_5: 11929
Non-critical_ROB_Stalls_Percent_1_Bucket_5: 8274
Critical_ROB_Stalls_Percent_1_Bucket_6: 703159
Non-critical_ROB_Stalls_Percent_1_Bucket_6: 13719
Critical_ROB_Stalls_Percent_2_Bucket_0: 661128
Non-critical_ROB_Stalls_Percent_2_Bucket_0: 781037
Critical_ROB_Stalls_Percent_2_Bucket_1: 323635
Non-critical_ROB_Stalls_Percent_2_Bucket_1: 336996
Critical_ROB_Stalls_Percent_2_Bucket_2: 158238
Non-critical_ROB_Stalls_Percent_2_Bucket_2: 114640
Critical_ROB_Stalls_Percent_2_Bucket_3: 55838
Non-critical_ROB_Stalls_Percent_2_Bucket_3: 35419
Critical_ROB_Stalls_Percent_2_Bucket_4: 24978
Non-critical_ROB_Stalls_Percent_2_Bucket_4: 12051
Critical_ROB_Stalls_Percent_2_Bucket_5: 14576
Non-critical_ROB_Stalls_Percent_2_Bucket_5: 5627
Critical_ROB_Stalls_Percent_2_Bucket_6: 709910
Non-critical_ROB_Stalls_Percent_2_Bucket_6: 6968
Critical_ROB_Stalls_Percent_3_Bucket_0: 736451
Non-critical_ROB_Stalls_Percent_3_Bucket_0: 705714
Critical_ROB_Stalls_Percent_3_Bucket_1: 372429
Non-critical_ROB_Stalls_Percent_3_Bucket_1: 288202
Critical_ROB_Stalls_Percent_3_Bucket_2: 181009
Non-critical_ROB_Stalls_Percent_3_Bucket_2: 91869
Critical_ROB_Stalls_Percent_3_Bucket_3: 63837
Non-critical_ROB_Stalls_Percent_3_Bucket_3: 27420
Critical_ROB_Stalls_Percent_3_Bucket_4: 27046
Non-critical_ROB_Stalls_Percent_3_Bucket_4: 9983
Critical_ROB_Stalls_Percent_3_Bucket_5: 15842
Non-critical_ROB_Stalls_Percent_3_Bucket_5: 4361
Critical_ROB_Stalls_Percent_3_Bucket_6: 710699
Non-critical_ROB_Stalls_Percent_3_Bucket_6: 6179
Critical_ROB_Stalls_Percent_4_Bucket_0: 816716
Non-critical_ROB_Stalls_Percent_4_Bucket_0: 625449
Critical_ROB_Stalls_Percent_4_Bucket_1: 429684
Non-critical_ROB_Stalls_Percent_4_Bucket_1: 230947
Critical_ROB_Stalls_Percent_4_Bucket_2: 200051
Non-critical_ROB_Stalls_Percent_4_Bucket_2: 72827
Critical_ROB_Stalls_Percent_4_Bucket_3: 68085
Non-critical_ROB_Stalls_Percent_4_Bucket_3: 23172
Critical_ROB_Stalls_Percent_4_Bucket_4: 27954
Non-critical_ROB_Stalls_Percent_4_Bucket_4: 9075
Critical_ROB_Stalls_Percent_4_Bucket_5: 16237
Non-critical_ROB_Stalls_Percent_4_Bucket_5: 3966
Critical_ROB_Stalls_Percent_4_Bucket_6: 711143
Non-critical_ROB_Stalls_Percent_4_Bucket_6: 5735
Critical_ROB_Stalls_Percent_5_Bucket_0: 900606
Non-critical_ROB_Stalls_Percent_5_Bucket_0: 541559
Critical_ROB_Stalls_Percent_5_Bucket_1: 475467
Non-critical_ROB_Stalls_Percent_5_Bucket_1: 185164
Critical_ROB_Stalls_Percent_5_Bucket_2: 217630
Non-critical_ROB_Stalls_Percent_5_Bucket_2: 55248
Critical_ROB_Stalls_Percent_5_Bucket_3: 74911
Non-critical_ROB_Stalls_Percent_5_Bucket_3: 16346
Critical_ROB_Stalls_Percent_5_Bucket_4: 31538
Non-critical_ROB_Stalls_Percent_5_Bucket_4: 5491
Critical_ROB_Stalls_Percent_5_Bucket_5: 16986
Non-critical_ROB_Stalls_Percent_5_Bucket_5: 3217
Critical_ROB_Stalls_Percent_5_Bucket_6: 713897
Non-critical_ROB_Stalls_Percent_5_Bucket_6: 2981
Critical_ROB_Stalls_Percent_6_Bucket_0: 997272
Non-critical_ROB_Stalls_Percent_6_Bucket_0: 444893
Critical_ROB_Stalls_Percent_6_Bucket_1: 521825
Non-critical_ROB_Stalls_Percent_6_Bucket_1: 138806
Critical_ROB_Stalls_Percent_6_Bucket_2: 229918
Non-critical_ROB_Stalls_Percent_6_Bucket_2: 42960
Critical_ROB_Stalls_Percent_6_Bucket_3: 77910
Non-critical_ROB_Stalls_Percent_6_Bucket_3: 13347
Critical_ROB_Stalls_Percent_6_Bucket_4: 33060
Non-critical_ROB_Stalls_Percent_6_Bucket_4: 3969
Critical_ROB_Stalls_Percent_6_Bucket_5: 18086
Non-critical_ROB_Stalls_Percent_6_Bucket_5: 2117
Critical_ROB_Stalls_Percent_6_Bucket_6: 715142
Non-critical_ROB_Stalls_Percent_6_Bucket_6: 1736
Critical_ROB_Stalls_Percent_7_Bucket_0: 1092642
Non-critical_ROB_Stalls_Percent_7_Bucket_0: 349523
Critical_ROB_Stalls_Percent_7_Bucket_1: 565875
Non-critical_ROB_Stalls_Percent_7_Bucket_1: 94756
Critical_ROB_Stalls_Percent_7_Bucket_2: 244142
Non-critical_ROB_Stalls_Percent_7_Bucket_2: 28736
Critical_ROB_Stalls_Percent_7_Bucket_3: 83419
Non-critical_ROB_Stalls_Percent_7_Bucket_3: 7838
Critical_ROB_Stalls_Percent_7_Bucket_4: 34700
Non-critical_ROB_Stalls_Percent_7_Bucket_4: 2329
Critical_ROB_Stalls_Percent_7_Bucket_5: 18635
Non-critical_ROB_Stalls_Percent_7_Bucket_5: 1568
Critical_ROB_Stalls_Percent_7_Bucket_6: 715593
Non-critical_ROB_Stalls_Percent_7_Bucket_6: 1285
Critical_ROB_Stalls_Percent_8_Bucket_0: 1194749
Non-critical_ROB_Stalls_Percent_8_Bucket_0: 247416
Critical_ROB_Stalls_Percent_8_Bucket_1: 606579
Non-critical_ROB_Stalls_Percent_8_Bucket_1: 54052
Critical_ROB_Stalls_Percent_8_Bucket_2: 257556
Non-critical_ROB_Stalls_Percent_8_Bucket_2: 15322
Critical_ROB_Stalls_Percent_8_Bucket_3: 86758
Non-critical_ROB_Stalls_Percent_8_Bucket_3: 4499
Critical_ROB_Stalls_Percent_8_Bucket_4: 35682
Non-critical_ROB_Stalls_Percent_8_Bucket_4: 1347
Critical_ROB_Stalls_Percent_8_Bucket_5: 19596
Non-critical_ROB_Stalls_Percent_8_Bucket_5: 607
Critical_ROB_Stalls_Percent_8_Bucket_6: 716093
Non-critical_ROB_Stalls_Percent_8_Bucket_6: 785
Average ROB occupancy Load Stall Begin: 116.62
Average ROB occupancy Load Stall End: 124.032
Min ROB occupancy Load Stall Begin: 1
Max ROB occupancy Load Stall Begin: 352
Min ROB occupancy Load Stall End: 1
Max ROB occupancy Load Stall End: 352
Average ROB occupancy Critical Load Stall Begin: -nan
Average ROB occupancy Critical Load Stall End: -nan
Min ROB occupancy Critical Load Stall Begin: 400
Max ROB occupancy Critical Load Stall Begin: 0
Min ROB occupancy Critical Load Stall End: 400
Max ROB occupancy Critical Load Stall End: 0
 ROB Load Stall Begin Bucket Count 0: 1655314
 ROB Load Stall End Bucket Count 0: 1442165
 ROB Critical Load Stall Begin Bucket Count 0: 0
 ROB Critical Load Stall End Bucket Count 0: 0
 ROB Load Stall Begin Bucket Count 1: 531981
 ROB Load Stall End Bucket Count 1: 660631
 ROB Critical Load Stall Begin Bucket Count 1: 0
 ROB Critical Load Stall End Bucket Count 1: 0
 ROB Load Stall Begin Bucket Count 2: 219613
 ROB Load Stall End Bucket Count 2: 272878
 ROB Critical Load Stall Begin Bucket Count 2: 0
 ROB Critical Load Stall End Bucket Count 2: 0
 ROB Load Stall Begin Bucket Count 3: 72382
 ROB Load Stall End Bucket Count 3: 91257
 ROB Critical Load Stall Begin Bucket Count 3: 0
 ROB Critical Load Stall End Bucket Count 3: 0
 ROB Load Stall Begin Bucket Count 4: 29878
 ROB Load Stall End Bucket Count 4: 37029
 ROB Critical Load Stall Begin Bucket Count 4: 0
 ROB Critical Load Stall End Bucket Count 4: 0
 ROB Load Stall Begin Bucket Count 5: 19145
 ROB Load Stall End Bucket Count 5: 20203
 ROB Critical Load Stall Begin Bucket Count 5: 0
 ROB Critical Load Stall End Bucket Count 5: 0
 ROB Load Stall Begin Bucket Count 6: 712728
 ROB Load Stall End Bucket Count 6: 716878
 ROB Critical Load Stall Begin Bucket Count 6: 0
 ROB Critical Load Stall End Bucket Count 6: 0
PIST Tag Read Accesses: 2322832
PIST Read Accesses: 1161416
PIST Tag Write Accesses: 2322832
PIST Write Accesses: 1161416
Criticality detector called times: 2048821
Max global_stall_cycles_count: 3883337
Threshold Modified: 1 times, factor: -1
Sturdy critical IP cache stats: 
 Unused entries: 0
CIC Tag Read Accesses: 0
CIC Read Accesses: 0
CIC Tag Write Accesses: 0
CIC Write Accesses: 0
Wobbly critical IP cache stats: 
 Unused entries: 82
CIC Tag Read Accesses: 82069417
CIC Read Accesses: 0
CIC Tag Write Accesses: 10863
CIC Write Accesses: 0
ITLB TOTAL     ACCESS:    9296555  HIT:    9219358  MISS:      77197  HIT %:    99.1696  MISS %:   0.830383   MPKI: 1.54394
ITLB LOAD TRANSLATION ACCESS:    8635459  HIT:    8598262  MISS:      37197  HIT %:    99.5693  MISS %:   0.430747   MPKI: 0.74394
ITLB TRANSLATION FROM L1D PREFETCHER ACCESS:     661096  HIT:     621096  MISS:      40000  HIT %:    93.9494  MISS %:    6.05056   MPKI: 0.8
ITLB PREFETCH  REQUESTED:          0  ISSUED:          0  USEFUL:      31222  USELESS:       8781
ITLB USEFUL LOAD PREFETCHES:      31222 PREFETCH ISSUED TO LOWER LEVEL:          0  ACCURACY: inf
ITLB TIMELY PREFETCHES:      31222 LATE PREFETCHES: 207 DROPPED PREFETCHES: 363
ITLB PREFETCHES SAME FILL-ORIGIN LEVEL: 0 DIFFERENT FILL-ORIGIN LEVEL: 0
ITLB AVERAGE MISS LATENCY: 112197 cycles
ITLB RQ	ACCESS:   11674392	FORWARD:          0	MERGED:    2364208	TO_CACHE:    9310184

DTLB TOTAL     ACCESS:    9889789  HIT:    9789236  MISS:     100553  HIT %:    98.9833  MISS %:    1.01674   MPKI: 2.01106
DTLB LOAD TRANSLATION ACCESS:    9889789  HIT:    9789236  MISS:     100553  HIT %:    98.9833  MISS %:    1.01674   MPKI: 2.01106
DTLB PREFETCH  REQUESTED:          0  ISSUED:          0  USEFUL:          0  USELESS:          0
DTLB USEFUL LOAD PREFETCHES:          0 PREFETCH ISSUED TO LOWER LEVEL:          0  ACCURACY: -nan
DTLB TIMELY PREFETCHES:          0 LATE PREFETCHES: 0 DROPPED PREFETCHES: 0
DTLB PREFETCHES SAME FILL-ORIGIN LEVEL: 0 DIFFERENT FILL-ORIGIN LEVEL: 0
DTLB AVERAGE MISS LATENCY: 14.1411 cycles
DTLB RQ	ACCESS:   12769055	FORWARD:          0	MERGED:    2862083	TO_CACHE:    9906972

STLB TOTAL     ACCESS:     266987  HIT:     262365  MISS:       4622  HIT %:    98.2688  MISS %:    1.73117   MPKI: 0.09244
STLB LOAD TRANSLATION ACCESS:     137543  HIT:     133125  MISS:       4418  HIT %:    96.7879  MISS %:    3.21209   MPKI: 0.08836
STLB TRANSLATION FROM L1D PREFETCHER ACCESS:     129444  HIT:     129240  MISS:        204  HIT %:    99.8424  MISS %:   0.157597   MPKI: 0.00408
STLB PREFETCH  REQUESTED:          0  ISSUED:          0  USEFUL:        128  USELESS:         46
STLB USEFUL LOAD PREFETCHES:        128 PREFETCH ISSUED TO LOWER LEVEL:          0  ACCURACY: inf
STLB TIMELY PREFETCHES:        128 LATE PREFETCHES: 0 DROPPED PREFETCHES: 363
STLB PREFETCHES SAME FILL-ORIGIN LEVEL: 0 DIFFERENT FILL-ORIGIN LEVEL: 0
STLB AVERAGE MISS LATENCY: 133.417 cycles
STLB RQ	ACCESS:     278871	FORWARD:          0	MERGED:      11521	TO_CACHE:     267350

STLB Hit, L1D data hit: 0
STLB Hit, L2C data hit: 0
STLB Hit, LLC data hit: 0
STLB Hit, LLC data miss: 0
STLB STLB hints to L2: 0
L1D TOTAL     ACCESS:   12258399  HIT:   11843008  MISS:     415391  HIT %:    96.6114  MISS %:    3.38862   MPKI: 8.30782
L1D LOAD      ACCESS:    6213321  HIT:    6106560  MISS:     106761  HIT %:    98.2817  MISS %:    1.71826   MPKI: 2.13522
L1D RFO       ACCESS:    5955031  HIT:    5715375  MISS:     239656  HIT %:    95.9756  MISS %:    4.02443   MPKI: 4.79312
L1D PREFETCH  ACCESS:      90047  HIT:      21073  MISS:      68974  HIT %:    23.4022  MISS %:    76.5978   MPKI: 1.37948
L1D PREFETCH  REQUESTED:     201539  ISSUED:     201539  USEFUL:      62267  USELESS:       6736
L1D USEFUL LOAD PREFETCHES:      62267 PREFETCH ISSUED TO LOWER LEVEL:      78549  ACCURACY: 79.2715
L1D TIMELY PREFETCHES:      62267 LATE PREFETCHES: 9560 DROPPED PREFETCHES: 0
L1D PREFETCHES SAME FILL-ORIGIN LEVEL: 78549 DIFFERENT FILL-ORIGIN LEVEL: 0
L1D AVERAGE MISS LATENCY: 1.60019e+06 cycles
L1D RQ	ACCESS:    9776367	FORWARD:          0	MERGED:    3410873	TO_CACHE:    6236196
L1D WQ	ACCESS:    6907394	FORWARD:     129321	MERGED:     374535	TO_CACHE:    6532859
L1D PQ	ACCESS:     100781	FORWARD:          0	MERGED:          0	TO_CACHE:     100758

L1D UNIQUE REGIONS ACCESSED: 0
L1D REGIONS CONFLICTS: 0
L1D Cross Page Prefetch Requests: 0
L1D Same Page Prefetch Requests: 264098
L1D ROI Sum of L1D PQ occupancy: 1542286
L1D PREFETCHES PUSHED FROM L2C: 0
L1I TOTAL     ACCESS:   11585012  HIT:   10854042  MISS:     730970  HIT %:    93.6904  MISS %:    6.30962   MPKI: 14.6194
L1I LOAD      ACCESS:    9753962  HIT:    9574691  MISS:     179271  HIT %:    98.1621  MISS %:    1.83793   MPKI: 3.58542
L1I PREFETCH  ACCESS:    1831050  HIT:    1279351  MISS:     551699  HIT %:    69.8698  MISS %:    30.1302   MPKI: 11.034
L1I PREFETCH  REQUESTED:    2001168  ISSUED:    1999130  USEFUL:     352311  USELESS:     199412
L1I USEFUL LOAD PREFETCHES:     352311 PREFETCH ISSUED TO LOWER LEVEL:     569570  ACCURACY: 61.8556
L1I TIMELY PREFETCHES:     352311 LATE PREFETCHES: 17871 DROPPED PREFETCHES: 622
L1I PREFETCHES SAME FILL-ORIGIN LEVEL: 569570 DIFFERENT FILL-ORIGIN LEVEL: 0
L1I AVERAGE MISS LATENCY: 975715 cycles
L1I RQ	ACCESS:   14256404	FORWARD:          0	MERGED:    4478286	TO_CACHE:    9778118
L1I PQ	ACCESS:    1999130	FORWARD:          0	MERGED:     102856	TO_CACHE:    1896274

BTB TOTAL     ACCESS:    7502677  HIT:    7071437  MISS:     431240  HIT %:    94.2522  MISS %:    5.74782   MPKI: 8.6248
BTB BRANCH_DIRECT_JUMP	ACCESS:     370859  HIT:     358934  MISS:      11925
BTB BRANCH_INDIRECT	ACCESS:      83252  HIT:      39140  MISS:      44112
BTB BRANCH_CONDITIONAL	ACCESS:    5399005  HIT:    5361920  MISS:      37085
BTB BRANCH_DIRECT_CALL	ACCESS:     722308  HIT:     695961  MISS:      26347
BTB BRANCH_INDIRECT_CALL	ACCESS:     101901  HIT:      81558  MISS:      20343
BTB BRANCH_RETURN	ACCESS:     825352  HIT:     533924  MISS:     291428
BTB BRANCH_OTHER ACCESS:          0  HIT:          0  MISS:          0

L2C TOTAL     ACCESS:    1461402  HIT:    1069508  MISS:     391894  HIT %:    73.1837  MISS %:    26.8163   MPKI: 7.83788
L2C LOAD      ACCESS:     258598  HIT:     201167  MISS:      57431  HIT %:    77.7914  MISS %:    22.2086   MPKI: 1.14862
L2C DATA LOAD MPKI: 0.75144
L2C INSTRUCTION LOAD MPKI: 0.39718
L2C RFO       ACCESS:     239636  HIT:      29191  MISS:     210445  HIT %:    12.1814  MISS %:    87.8186   MPKI: 4.2089
L2C PREFETCH  ACCESS:     695997  HIT:     581431  MISS:     114566  HIT %:    83.5393  MISS %:    16.4607   MPKI: 2.29132
L2C DATA PREFETCH MPKI: 1.44428
L2C INSTRUCTION PREFETCH MPKI: 0.84704
L2C WRITEBACK ACCESS:     262063  HIT:     254186  MISS:       7877  HIT %:    96.9942  MISS %:    3.00577   MPKI: 0.15754
L2C LOAD TRANSLATION ACCESS:       4525  HIT:       3084  MISS:       1441  HIT %:    68.1547  MISS %:    31.8453   MPKI: 0.02882
L2C TRANSLATION FROM L1D PREFETCHER ACCESS:        583  HIT:        449  MISS:        134  HIT %:    77.0154  MISS %:    22.9846   MPKI: 0.00268
L2C PREFETCH  REQUESTED:      61868  ISSUED:      61868  USEFUL:       6587  USELESS:     109216
L2C USEFUL LOAD PREFETCHES:       6587 PREFETCH ISSUED TO LOWER LEVEL:     114585  ACCURACY: 5.74857
L2C TIMELY PREFETCHES:       6587 LATE PREFETCHES: 19 DROPPED PREFETCHES: 0
L2C PREFETCHES SAME FILL-ORIGIN LEVEL: 25846 DIFFERENT FILL-ORIGIN LEVEL: 0
L2C AVERAGE MISS LATENCY: 139.814 cycles
L2C RQ	ACCESS:     503350	FORWARD:          0	MERGED:          0	TO_CACHE:     503342
L2C WQ	ACCESS:     262063	FORWARD:          8	MERGED:          0	TO_CACHE:     262063
L2C PQ	ACCESS:     709987	FORWARD:          0	MERGED:       1795	TO_CACHE:     708192

L2C Instructions Evicting Data 37130
L2C Translations Evicting Data 1138
L2C Data Evicting Data 281551
L2C Instructions Evicting Instructions 24688
L2C Translations Evicting Instructions 427
L2C Data Evicting Instructions 37643
L2C Instructions Evicting Translations 393
L2C Translations Evicting Translations 10
L2C Data Evicting Translations 1037
L2C Dense regions hint from L2: 0
PSCL5 TOTAL     ACCESS:       4985  HIT:       4985  MISS:          0  HIT %:        100  MISS %:          0   MPKI: 0
PSCL5 LOAD TRANSLATION ACCESS:       4418  HIT:       4418  MISS:          0  HIT %:        100  MISS %:          0   MPKI: 0
PSCL5 TRANSLATION FROM L1D PREFETCHER ACCESS:        567  HIT:        567  MISS:          0  HIT %:        100  MISS %:          0   MPKI: 0
PSCL5 PREFETCH  REQUESTED:          0  ISSUED:          0  USEFUL:          0  USELESS:          0
PSCL5 USEFUL LOAD PREFETCHES:          0 PREFETCH ISSUED TO LOWER LEVEL:          0  ACCURACY: -nan
PSCL5 TIMELY PREFETCHES:          0 LATE PREFETCHES: 0 DROPPED PREFETCHES: 0
PSCL5 PREFETCHES SAME FILL-ORIGIN LEVEL: 0 DIFFERENT FILL-ORIGIN LEVEL: 0

PSCL4 TOTAL     ACCESS:       4985  HIT:       4985  MISS:          0  HIT %:        100  MISS %:          0   MPKI: 0
PSCL4 LOAD TRANSLATION ACCESS:       4418  HIT:       4418  MISS:          0  HIT %:        100  MISS %:          0   MPKI: 0
PSCL4 TRANSLATION FROM L1D PREFETCHER ACCESS:        567  HIT:        567  MISS:          0  HIT %:        100  MISS %:          0   MPKI: 0
PSCL4 PREFETCH  REQUESTED:          0  ISSUED:          0  USEFUL:          0  USELESS:          0
PSCL4 USEFUL LOAD PREFETCHES:          0 PREFETCH ISSUED TO LOWER LEVEL:          0  ACCURACY: -nan
PSCL4 TIMELY PREFETCHES:          0 LATE PREFETCHES: 0 DROPPED PREFETCHES: 0
PSCL4 PREFETCHES SAME FILL-ORIGIN LEVEL: 0 DIFFERENT FILL-ORIGIN LEVEL: 0

PSCL3 TOTAL     ACCESS:       4958  HIT:       4956  MISS:          2  HIT %:    99.9597  MISS %:  0.0403388   MPKI: 4e-05
PSCL3 LOAD TRANSLATION ACCESS:       4394  HIT:       4392  MISS:          2  HIT %:    99.9545  MISS %:  0.0455166   MPKI: 4e-05
PSCL3 TRANSLATION FROM L1D PREFETCHER ACCESS:        564  HIT:        564  MISS:          0  HIT %:        100  MISS %:          0   MPKI: 0
PSCL3 PREFETCH  REQUESTED:          0  ISSUED:          0  USEFUL:          0  USELESS:          0
PSCL3 USEFUL LOAD PREFETCHES:          0 PREFETCH ISSUED TO LOWER LEVEL:          0  ACCURACY: -nan
PSCL3 TIMELY PREFETCHES:          0 LATE PREFETCHES: 0 DROPPED PREFETCHES: 0
PSCL3 PREFETCHES SAME FILL-ORIGIN LEVEL: 0 DIFFERENT FILL-ORIGIN LEVEL: 0

PSCL2 TOTAL     ACCESS:       4983  HIT:       4851  MISS:        132  HIT %:     97.351  MISS %:    2.64901   MPKI: 0.00264
PSCL2 LOAD TRANSLATION ACCESS:       4431  HIT:       4299  MISS:        132  HIT %:     97.021  MISS %:    2.97901   MPKI: 0.00264
PSCL2 TRANSLATION FROM L1D PREFETCHER ACCESS:        552  HIT:        552  MISS:          0  HIT %:        100  MISS %:          0   MPKI: 0
PSCL2 PREFETCH  REQUESTED:          0  ISSUED:          0  USEFUL:          0  USELESS:          0
PSCL2 USEFUL LOAD PREFETCHES:          0 PREFETCH ISSUED TO LOWER LEVEL:          0  ACCURACY: -nan
PSCL2 TIMELY PREFETCHES:          0 LATE PREFETCHES: 0 DROPPED PREFETCHES: 0
PSCL2 PREFETCHES SAME FILL-ORIGIN LEVEL: 0 DIFFERENT FILL-ORIGIN LEVEL: 0

LLC TOTAL     ACCESS:     602071  HIT:     335048  MISS:     267023  HIT %:    55.6493  MISS %:    44.3507   MPKI: 5.34046
LLC LOAD      ACCESS:      57414  HIT:      40385  MISS:      17029  HIT %:      70.34  MISS %:      29.66   MPKI: 0.34058
LLC RFO       ACCESS:     210442  HIT:      35035  MISS:     175407  HIT %:    16.6483  MISS %:    83.3517   MPKI: 3.50814
LLC PREFETCH  ACCESS:     114585  HIT:      45348  MISS:      69237  HIT %:    39.5759  MISS %:    60.4241   MPKI: 1.38474
LLC WRITEBACK ACCESS:     218055  HIT:     213764  MISS:       4291  HIT %:    98.0321  MISS %:    1.96785   MPKI: 0.08582
LLC LOAD TRANSLATION ACCESS:       1441  HIT:        439  MISS:       1002  HIT %:     30.465  MISS %:     69.535   MPKI: 0.02004
LLC TRANSLATION FROM L1D PREFETCHER ACCESS:        134  HIT:         77  MISS:         57  HIT %:    57.4627  MISS %:    42.5373   MPKI: 0.00114
LLC PREFETCH  REQUESTED:          0  ISSUED:          0  USEFUL:       1127  USELESS:      67024
LLC USEFUL LOAD PREFETCHES:       1127 PREFETCH ISSUED TO LOWER LEVEL:      69237  ACCURACY: 1.62774
LLC TIMELY PREFETCHES:       1127 LATE PREFETCHES: 0 DROPPED PREFETCHES: 0
LLC PREFETCHES SAME FILL-ORIGIN LEVEL: 0 DIFFERENT FILL-ORIGIN LEVEL: 0
LLC AVERAGE MISS LATENCY: 161.799 cycles
LLC RQ	ACCESS:     269432	FORWARD:          0	MERGED:          0	TO_CACHE:     269431
LLC WQ	ACCESS:     218055	FORWARD:          1	MERGED:          0	TO_CACHE:     218055
LLC PQ	ACCESS:     114585	FORWARD:          0	MERGED:          0	TO_CACHE:     114585

LLC Dense regions hint to LLC: 0

RAW hits: 1279909
Loads Generated: 11056274
Loads sent to L1D: 9776367
Stores Generated: 6907390
Stores sent to L1D: 6907394
Major fault: 0 Minor fault: 5106
Allocated PAGES: 5106
I-Shadow cache 408 bytes
Touched + WorthPF tables 6144 bytes 
MMA filter 174 bytes 
FNL filter 272 bytes 
TOTAL PREFETCHER STORAGE SIZE: 25174 bytes
CPU 0 L1I next line prefetcher final stats

stream: 
stream:times selected: 442872
stream:pref_filled: 30093
stream:pref_useful: 9645
stream:pref_late: 1478
stream:misses: 2685
stream:misses_by_poll: 0

CS: 
CS:times selected: 102603
CS:pref_filled: 69052
CS:pref_useful: 65427
CS:pref_late: 8360
CS:misses: 19445
CS:misses_by_poll: 268

CPLX: 
CPLX:times selected: 339045
CPLX:pref_filled: 10637
CPLX:pref_useful: 1973
CPLX:pref_late: 64
CPLX:misses: 17291
CPLX:misses_by_poll: 10

NL_L1: 
NL:times selected: 5019
NL:pref_filled: 307
NL:pref_useful: 111
NL:pref_late: 3
NL:misses: 154
NL:misses_by_poll: 0

total selections: 889539
total_filled: 68974
total_useful: 62267
total_late: 10197
total_polluted: 278
total_misses_after_warmup: 33057
conflicts: 120359
Degree Incremented Times: 4275
Degree Decremented Times: 113669

L1 IP Table Write Accesses: 1394688
L1 IP Table Read Accesses: 1274329
L1 RST Write Accesses: 159485
L1 RST Read Accesses: 318970
L1 CSPT Write Accesses: 159485
L1 CSPT Read Accesses: 243169
L1 RR Filter Tag Write Accesses: 100781
L1 RR Filter Tag Read Accesses: 11666126
L1 IP Table Tag Write Accesses: 1533046
L1 IP Table Tag Read Accesses: 1533046
L1 RST Tag Write Accesses: 0
L1 RST Tag Read Accesses: 1603728
L1 RR Filter Write Accesses: 0
L1 RR Filter Read Accesses: 408487
test: 86188
L2 IP Table Read Accesses: 74608
L2 IP Table Write Accesses: 66655
L2 IP Table Tag Read Accesses: 38738
L2 IP Table Tag Write Accesses: 38738

DRAM Statistics
 CHANNEL 0
 RQ ROW_BUFFER_HIT:     104221  ROW_BUFFER_MISS:     158509
 DBUS_CONGESTED:        139
 WQ ROW_BUFFER_HIT:      39071  ROW_BUFFER_MISS:     135919  FULL:          0

 AVG_CONGESTED_CYCLE: 2
 All warmup complete: 2
Channel 0 Bank busy for read cycles: 0
Channel 0 Bank busy for write cycles: 0
Channel 0
Rank 0
0banks busy for read cycles: 51986233
0banks busy for write cycles: 33345
1banks busy for read cycles: 7565033
1banks busy for write cycles: 4014524
2banks busy for read cycles: 2677080
2banks busy for write cycles: 1230195
3banks busy for read cycles: 1073865
3banks busy for write cycles: 360574
4banks busy for read cycles: 462013
4banks busy for write cycles: 275039
5banks busy for read cycles: 281538
5banks busy for write cycles: 228590
6banks busy for read cycles: 341819
6banks busy for write cycles: 242564
7banks busy for read cycles: 386906
7banks busy for write cycles: 390871
8banks busy for read cycles: 656287
8banks busy for write cycles: 1910915

CPU 0 Branch Prediction Accuracy: 98.6631% MPKI: 2.66884 Average ROB Occupancy at Mispredict: 41.73
Branch types
NOT_BRANCH: 40018632 80.0373%
BRANCH_DIRECT_JUMP: 370859 0.741718%
BRANCH_INDIRECT: 83252 0.166504%
BRANCH_CONDITIONAL: 7877415 15.7548%
BRANCH_DIRECT_CALL: 722308 1.44462%
BRANCH_INDIRECT_CALL: 101901 0.203802%
BRANCH_RETURN: 825352 1.6507%
BRANCH_OTHER: 0 0%

DRAM PAGES: 1048576
Allocated PAGES: 5106
