
*** ChampSim Multicore Out-of-Order Simulator ***

Warmup Instructions: 50000000
Simulation Instructions: 50000000
Number of CPUs: 1
LLC sets: 2048
LLC ways: 16
Off-chip DRAM Size: 4096 MB Channels: 1 Width: 64-bit Data Rate: 6400 MT/s
CPU 0 runs ../IPC-traces//client_001.champsimtrace.xz
.xz
NUM_OF_IPS_IN_CRITICAL_IP_TRAINING: 64
NUM_OF_CRITICAL_IP_TRAINING_TABLE_WAYS: 2
NUM_OF_CRITICAL_IP_TRAINING_TABLE_SETS: 32
WOBBLY_CRITICAL_IP_CACHE_SETS: 32
WOBBLY_CRITICAL_IP_CACHE_WAYS: 4
BTB has LRU replacement policy
ITLB has LRU replacement policy
DTLB has LRU replacement policy
STLB has LRU replacement policy
CPU 0 L1I next line prefetcher
L1I has LRU replacement policy
IP Table Entries: 64
L1D has LRU replacement policy
Initialize SRRIP state for L2C
Initialize DRRIP state for LLC
Heartbeat CPU 0 instructions: 10000003 cycles: 2871989 heartbeat IPC: 3.48191 cumulative IPC: 3.48191 (Simulation time: 0 hr 3 min 30 sec) 
Heartbeat CPU 0 instructions: 20000001 cycles: 5807472 heartbeat IPC: 3.40659 cumulative IPC: 3.44384 (Simulation time: 0 hr 6 min 38 sec) 
Heartbeat CPU 0 instructions: 30000001 cycles: 8651449 heartbeat IPC: 3.5162 cumulative IPC: 3.46763 (Simulation time: 0 hr 9 min 3 sec) 
Heartbeat CPU 0 instructions: 40000001 cycles: 11715723 heartbeat IPC: 3.26342 cumulative IPC: 3.41422 (Simulation time: 0 hr 11 min 35 sec) 
Heartbeat CPU 0 instructions: 50000001 cycles: 14534229 heartbeat IPC: 3.54798 cumulative IPC: 3.44016 (Simulation time: 0 hr 13 min 47 sec) 

Warmup complete CPU 0 instructions: 50000001 cycles: 14534229 (Simulation time: 0 hr 13 min 47 sec) 

% increase in all ip prefetch 330.505
% increase in all ip prefetch 0.61588
Heartbeat CPU 0 instructions: 60000000 cycles: 30318770 heartbeat IPC: 0.633531 cumulative IPC: 0.633531 (Simulation time: 0 hr 16 min 8 sec) 
Heartbeat CPU 0 instructions: 70000000 cycles: 42801583 heartbeat IPC: 0.801102 cumulative IPC: 0.70753 (Simulation time: 0 hr 18 min 11 sec) 
Heartbeat CPU 0 instructions: 80000002 cycles: 59683534 heartbeat IPC: 0.592349 cumulative IPC: 0.664462 (Simulation time: 0 hr 20 min 42 sec) 
Heartbeat CPU 0 instructions: 90000001 cycles: 71725555 heartbeat IPC: 0.830425 cumulative IPC: 0.699407 (Simulation time: 0 hr 22 min 45 sec) 
Heartbeat CPU 0 instructions: 100000002 cycles: 87698760 heartbeat IPC: 0.626049 cumulative IPC: 0.683391 (Simulation time: 0 hr 24 min 44 sec) 
Finished CPU 0 instructions: 50000001 cycles: 73164531 cumulative IPC: 0.683391 (Simulation time: 0 hr 24 min 44 sec) 

ChampSim completed all CPUs

Region of Interest Statistics

CPU 0 cumulative IPC: 0.683391 instructions: 50000001 cycles: 73164531

CPU 0 Average Load ROB stall cycles: 5.57965e+06
CPU 0 Fraction of times ROB stalled by Loads: 11.0051
CPU 0 Percentage of Load stall cycles in Total stall cycles: 6.63615e+07
 Total stall cycles: 43924934
 Total load stall cycles: 29149226514995
CPU 0 NUM of IPS identified critical: 31
CPU 0 Num of Load IPs stalling ROB: 4114
Threshold modification factor: -1
Max PIST entries: 64
Min PIST entries: 0
Avg PIST entries: 31.57
Trouble in retire width: 0.813641
MaC = Marked as critical.
lt_50_percent_before_Mac: 20
gt_90_percent_before_Mac: 2
gt_75_percent_before_Mac: 3
gt_50_percent_before_Mac: 6
stall_proportion_bin_same_before_after: 0
stall_proportion_bin_lower_before_after: 0
stall_proportion_bin_upper_before_after: 0
average_stall_proportion_before: 0.155789
average_stall_proportion_after: 0.154125
Critical IP stalls, total frequency: 82452
Non-critical IP stalls, total frequency: 484531
Critical_IP_ROB_Stalls_Bucket_0: 12154
Non-critical_IP_ROB_Stalls_Bucket_0: 314662
Critical_IP_ROB_Stalls_Bucket_1: 15182
Non-critical_IP_ROB_Stalls_Bucket_1: 92859
Critical_IP_ROB_Stalls_Bucket_2: 21339
Non-critical_IP_ROB_Stalls_Bucket_2: 42366
Critical_IP_ROB_Stalls_Bucket_3: 7056
Non-critical_IP_ROB_Stalls_Bucket_3: 22605
Critical_IP_ROB_Stalls_Bucket_4: 6364
Non-critical_IP_ROB_Stalls_Bucket_4: 9915
Critical_IP_ROB_Stalls_Bucket_5: 2425
Non-critical_IP_ROB_Stalls_Bucket_5: 5421
Critical_IP_ROB_Stalls_Bucket_6: 17932
Non-critical_IP_ROB_Stalls_Bucket_6: 4649
0 => IPs accounting for >50 percent of stalls, 1 => 55, 2 => 60, 3 => 65 and so on till 90.
percent50: 50.169 num IPs:102
percent55: 55.0098 num IPs:127
percent60: 60.0223 num IPs:158
percent65: 65.0813 num IPs:199
percent70: 70.0527 num IPs:252
percent75: 75.0601 num IPs:322
percent80: 80.0308 num IPs:417
percent85: 85.0149 num IPs:552
percent90: 90.0107 num IPs:776
Critical_ROB_Stalls_Percent_0_Bucket_0: 160453
Non-critical_ROB_Stalls_Percent_0_Bucket_0: 166363
Critical_ROB_Stalls_Percent_0_Bucket_1: 42447
Non-critical_ROB_Stalls_Percent_0_Bucket_1: 65594
Critical_ROB_Stalls_Percent_0_Bucket_2: 36342
Non-critical_ROB_Stalls_Percent_0_Bucket_2: 27363
Critical_ROB_Stalls_Percent_0_Bucket_3: 14855
Non-critical_ROB_Stalls_Percent_0_Bucket_3: 14806
Critical_ROB_Stalls_Percent_0_Bucket_4: 9255
Non-critical_ROB_Stalls_Percent_0_Bucket_4: 7024
Critical_ROB_Stalls_Percent_0_Bucket_5: 3964
Non-critical_ROB_Stalls_Percent_0_Bucket_5: 3882
Critical_ROB_Stalls_Percent_0_Bucket_6: 17134
Non-critical_ROB_Stalls_Percent_0_Bucket_6: 5447
Critical_ROB_Stalls_Percent_1_Bucket_0: 181036
Non-critical_ROB_Stalls_Percent_1_Bucket_0: 145780
Critical_ROB_Stalls_Percent_1_Bucket_1: 45183
Non-critical_ROB_Stalls_Percent_1_Bucket_1: 62858
Critical_ROB_Stalls_Percent_1_Bucket_2: 37680
Non-critical_ROB_Stalls_Percent_1_Bucket_2: 26025
Critical_ROB_Stalls_Percent_1_Bucket_3: 16812
Non-critical_ROB_Stalls_Percent_1_Bucket_3: 12849
Critical_ROB_Stalls_Percent_1_Bucket_4: 9559
Non-critical_ROB_Stalls_Percent_1_Bucket_4: 6720
Critical_ROB_Stalls_Percent_1_Bucket_5: 4232
Non-critical_ROB_Stalls_Percent_1_Bucket_5: 3614
Critical_ROB_Stalls_Percent_1_Bucket_6: 17394
Non-critical_ROB_Stalls_Percent_1_Bucket_6: 5187
Critical_ROB_Stalls_Percent_2_Bucket_0: 199788
Non-critical_ROB_Stalls_Percent_2_Bucket_0: 127028
Critical_ROB_Stalls_Percent_2_Bucket_1: 50507
Non-critical_ROB_Stalls_Percent_2_Bucket_1: 57534
Critical_ROB_Stalls_Percent_2_Bucket_2: 39666
Non-critical_ROB_Stalls_Percent_2_Bucket_2: 24039
Critical_ROB_Stalls_Percent_2_Bucket_3: 17976
Non-critical_ROB_Stalls_Percent_2_Bucket_3: 11685
Critical_ROB_Stalls_Percent_2_Bucket_4: 10090
Non-critical_ROB_Stalls_Percent_2_Bucket_4: 6189
Critical_ROB_Stalls_Percent_2_Bucket_5: 4574
Non-critical_ROB_Stalls_Percent_2_Bucket_5: 3272
Critical_ROB_Stalls_Percent_2_Bucket_6: 17715
Non-critical_ROB_Stalls_Percent_2_Bucket_6: 4866
Critical_ROB_Stalls_Percent_3_Bucket_0: 212665
Non-critical_ROB_Stalls_Percent_3_Bucket_0: 114151
Critical_ROB_Stalls_Percent_3_Bucket_1: 58563
Non-critical_ROB_Stalls_Percent_3_Bucket_1: 49478
Critical_ROB_Stalls_Percent_3_Bucket_2: 43715
Non-critical_ROB_Stalls_Percent_3_Bucket_2: 19990
Critical_ROB_Stalls_Percent_3_Bucket_3: 20041
Non-critical_ROB_Stalls_Percent_3_Bucket_3: 9620
Critical_ROB_Stalls_Percent_3_Bucket_4: 11051
Non-critical_ROB_Stalls_Percent_3_Bucket_4: 5228
Critical_ROB_Stalls_Percent_3_Bucket_5: 5033
Non-critical_ROB_Stalls_Percent_3_Bucket_5: 2813
Critical_ROB_Stalls_Percent_3_Bucket_6: 17932
Non-critical_ROB_Stalls_Percent_3_Bucket_6: 4649
Critical_ROB_Stalls_Percent_4_Bucket_0: 229544
Non-critical_ROB_Stalls_Percent_4_Bucket_0: 97272
Critical_ROB_Stalls_Percent_4_Bucket_1: 64926
Non-critical_ROB_Stalls_Percent_4_Bucket_1: 43115
Critical_ROB_Stalls_Percent_4_Bucket_2: 46202
Non-critical_ROB_Stalls_Percent_4_Bucket_2: 17503
Critical_ROB_Stalls_Percent_4_Bucket_3: 21284
Non-critical_ROB_Stalls_Percent_4_Bucket_3: 8377
Critical_ROB_Stalls_Percent_4_Bucket_4: 11583
Non-critical_ROB_Stalls_Percent_4_Bucket_4: 4696
Critical_ROB_Stalls_Percent_4_Bucket_5: 5436
Non-critical_ROB_Stalls_Percent_4_Bucket_5: 2410
Critical_ROB_Stalls_Percent_4_Bucket_6: 18212
Non-critical_ROB_Stalls_Percent_4_Bucket_6: 4369
Critical_ROB_Stalls_Percent_5_Bucket_0: 246486
Non-critical_ROB_Stalls_Percent_5_Bucket_0: 80330
Critical_ROB_Stalls_Percent_5_Bucket_1: 70518
Non-critical_ROB_Stalls_Percent_5_Bucket_1: 37523
Critical_ROB_Stalls_Percent_5_Bucket_2: 48783
Non-critical_ROB_Stalls_Percent_5_Bucket_2: 14922
Critical_ROB_Stalls_Percent_5_Bucket_3: 22410
Non-critical_ROB_Stalls_Percent_5_Bucket_3: 7251
Critical_ROB_Stalls_Percent_5_Bucket_4: 12250
Non-critical_ROB_Stalls_Percent_5_Bucket_4: 4029
Critical_ROB_Stalls_Percent_5_Bucket_5: 5835
Non-critical_ROB_Stalls_Percent_5_Bucket_5: 2011
Critical_ROB_Stalls_Percent_5_Bucket_6: 19296
Non-critical_ROB_Stalls_Percent_5_Bucket_6: 3285
Critical_ROB_Stalls_Percent_6_Bucket_0: 261335
Non-critical_ROB_Stalls_Percent_6_Bucket_0: 65481
Critical_ROB_Stalls_Percent_6_Bucket_1: 76470
Non-critical_ROB_Stalls_Percent_6_Bucket_1: 31571
Critical_ROB_Stalls_Percent_6_Bucket_2: 51799
Non-critical_ROB_Stalls_Percent_6_Bucket_2: 11906
Critical_ROB_Stalls_Percent_6_Bucket_3: 23928
Non-critical_ROB_Stalls_Percent_6_Bucket_3: 5733
Critical_ROB_Stalls_Percent_6_Bucket_4: 13259
Non-critical_ROB_Stalls_Percent_6_Bucket_4: 3020
Critical_ROB_Stalls_Percent_6_Bucket_5: 6394
Non-critical_ROB_Stalls_Percent_6_Bucket_5: 1452
Critical_ROB_Stalls_Percent_6_Bucket_6: 20576
Non-critical_ROB_Stalls_Percent_6_Bucket_6: 2005
Critical_ROB_Stalls_Percent_7_Bucket_0: 276108
Non-critical_ROB_Stalls_Percent_7_Bucket_0: 50708
Critical_ROB_Stalls_Percent_7_Bucket_1: 84322
Non-critical_ROB_Stalls_Percent_7_Bucket_1: 23719
Critical_ROB_Stalls_Percent_7_Bucket_2: 54590
Non-critical_ROB_Stalls_Percent_7_Bucket_2: 9115
Critical_ROB_Stalls_Percent_7_Bucket_3: 25341
Non-critical_ROB_Stalls_Percent_7_Bucket_3: 4320
Critical_ROB_Stalls_Percent_7_Bucket_4: 13948
Non-critical_ROB_Stalls_Percent_7_Bucket_4: 2331
Critical_ROB_Stalls_Percent_7_Bucket_5: 6688
Non-critical_ROB_Stalls_Percent_7_Bucket_5: 1158
Critical_ROB_Stalls_Percent_7_Bucket_6: 21023
Non-critical_ROB_Stalls_Percent_7_Bucket_6: 1558
Critical_ROB_Stalls_Percent_8_Bucket_0: 292385
Non-critical_ROB_Stalls_Percent_8_Bucket_0: 34431
Critical_ROB_Stalls_Percent_8_Bucket_1: 90658
Non-critical_ROB_Stalls_Percent_8_Bucket_1: 17383
Critical_ROB_Stalls_Percent_8_Bucket_2: 57350
Non-critical_ROB_Stalls_Percent_8_Bucket_2: 6355
Critical_ROB_Stalls_Percent_8_Bucket_3: 26785
Non-critical_ROB_Stalls_Percent_8_Bucket_3: 2876
Critical_ROB_Stalls_Percent_8_Bucket_4: 14694
Non-critical_ROB_Stalls_Percent_8_Bucket_4: 1585
Critical_ROB_Stalls_Percent_8_Bucket_5: 7038
Non-critical_ROB_Stalls_Percent_8_Bucket_5: 808
Critical_ROB_Stalls_Percent_8_Bucket_6: 21435
Non-critical_ROB_Stalls_Percent_8_Bucket_6: 1146
Average ROB occupancy Load Stall Begin: 66.3455
Average ROB occupancy Load Stall End: 74.1762
Min ROB occupancy Load Stall Begin: 1
Max ROB occupancy Load Stall Begin: 351
Min ROB occupancy Load Stall End: 1
Max ROB occupancy Load Stall End: 352
Average ROB occupancy Critical Load Stall Begin: 180.088
Average ROB occupancy Critical Load Stall End: 189.425
Min ROB occupancy Critical Load Stall Begin: 2
Max ROB occupancy Critical Load Stall Begin: 351
Min ROB occupancy Critical Load Stall End: 2
Max ROB occupancy Critical Load Stall End: 352
 ROB Load Stall Begin Bucket Count 0: 363811
 ROB Load Stall End Bucket Count 0: 326816
 ROB Critical Load Stall Begin Bucket Count 0: 9034
 ROB Critical Load Stall End Bucket Count 0: 5754
 ROB Load Stall Begin Bucket Count 1: 93636
 ROB Load Stall End Bucket Count 1: 108041
 ROB Critical Load Stall Begin Bucket Count 1: 9787
 ROB Critical Load Stall End Bucket Count 1: 8007
 ROB Load Stall Begin Bucket Count 2: 53192
 ROB Load Stall End Bucket Count 2: 63705
 ROB Critical Load Stall Begin Bucket Count 2: 12711
 ROB Critical Load Stall End Bucket Count 2: 16572
 ROB Load Stall Begin Bucket Count 3: 24335
 ROB Load Stall End Bucket Count 3: 29661
 ROB Critical Load Stall Begin Bucket Count 3: 5466
 ROB Critical Load Stall End Bucket Count 3: 5758
 ROB Load Stall Begin Bucket Count 4: 12461
 ROB Load Stall End Bucket Count 4: 16279
 ROB Critical Load Stall Begin Bucket Count 4: 4490
 ROB Critical Load Stall End Bucket Count 4: 5185
 ROB Load Stall Begin Bucket Count 5: 6124
 ROB Load Stall End Bucket Count 5: 7846
 ROB Critical Load Stall Begin Bucket Count 5: 1748
 ROB Critical Load Stall End Bucket Count 5: 1829
 ROB Load Stall Begin Bucket Count 6: 21370
 ROB Load Stall End Bucket Count 6: 22581
 ROB Critical Load Stall Begin Bucket Count 6: 16898
 ROB Critical Load Stall End Bucket Count 6: 17029
PIST Tag Read Accesses: 255528
PIST Read Accesses: 127764
PIST Tag Write Accesses: 255528
PIST Write Accesses: 127764
Criticality detector called times: 247135
Max global_stall_cycles_count: 459277
Threshold Modified: 1 times, factor: -1
ITLB TOTAL     ACCESS:    8226401  HIT:    8142104  MISS:      84297  HIT %:    98.9753  MISS %:    1.02471   MPKI: 1.68594
ITLB LOAD TRANSLATION ACCESS:    7755031  HIT:    7748766  MISS:       6265  HIT %:    99.9192  MISS %:  0.0807863   MPKI: 0.1253
ITLB TRANSLATION FROM L1D PREFETCHER ACCESS:     471370  HIT:     393338  MISS:      78032  HIT %:    83.4457  MISS %:    16.5543   MPKI: 1.56064
ITLB PREFETCH  REQUESTED:          0  ISSUED:          0  USEFUL:      59131  USELESS:      18894
ITLB USEFUL LOAD PREFETCHES:      59131 PREFETCH ISSUED TO LOWER LEVEL:          0  ACCURACY: inf
ITLB TIMELY PREFETCHES:      59131 LATE PREFETCHES: 29 DROPPED PREFETCHES: 2
ITLB PREFETCHES SAME FILL-ORIGIN LEVEL: 0 DIFFERENT FILL-ORIGIN LEVEL: 0
ITLB AVERAGE MISS LATENCY: 20023 cycles
ITLB RQ	ACCESS:   10750457	FORWARD:          0	MERGED:    2520318	TO_CACHE:    8230139

DTLB TOTAL     ACCESS:   11122363  HIT:   10859310  MISS:     263053  HIT %:    97.6349  MISS %:    2.36508   MPKI: 5.26106
DTLB LOAD TRANSLATION ACCESS:   11122363  HIT:   10859310  MISS:     263053  HIT %:    97.6349  MISS %:    2.36508   MPKI: 5.26106
DTLB PREFETCH  REQUESTED:          0  ISSUED:          0  USEFUL:          0  USELESS:          0
DTLB USEFUL LOAD PREFETCHES:          0 PREFETCH ISSUED TO LOWER LEVEL:          0  ACCURACY: -nan
DTLB TIMELY PREFETCHES:          0 LATE PREFETCHES: 0 DROPPED PREFETCHES: 0
DTLB PREFETCHES SAME FILL-ORIGIN LEVEL: 0 DIFFERENT FILL-ORIGIN LEVEL: 0
DTLB AVERAGE MISS LATENCY: 10.6005 cycles
DTLB RQ	ACCESS:   13255105	FORWARD:          0	MERGED:    2120791	TO_CACHE:   11134314

STLB TOTAL     ACCESS:     658165  HIT:     654036  MISS:       4129  HIT %:    99.3726  MISS %:    0.62735   MPKI: 0.08258
STLB LOAD TRANSLATION ACCESS:     269289  HIT:     265580  MISS:       3709  HIT %:    98.6227  MISS %:    1.37733   MPKI: 0.07418
STLB TRANSLATION FROM L1D PREFETCHER ACCESS:     388876  HIT:     388456  MISS:        420  HIT %:     99.892  MISS %:   0.108004   MPKI: 0.0084
STLB PREFETCH  REQUESTED:          0  ISSUED:          0  USEFUL:        364  USELESS:         55
STLB USEFUL LOAD PREFETCHES:        364 PREFETCH ISSUED TO LOWER LEVEL:          0  ACCURACY: inf
STLB TIMELY PREFETCHES:        364 LATE PREFETCHES: 0 DROPPED PREFETCHES: 2
STLB PREFETCHES SAME FILL-ORIGIN LEVEL: 0 DIFFERENT FILL-ORIGIN LEVEL: 0
STLB AVERAGE MISS LATENCY: 132.802 cycles
STLB RQ	ACCESS:     787830	FORWARD:          0	MERGED:     129664	TO_CACHE:     658166

STLB Hit, L1D data hit: 0
STLB Hit, L2C data hit: 0
STLB Hit, LLC data hit: 0
STLB Hit, LLC data miss: 0
STLB STLB hints to L2: 0
L1D TOTAL     ACCESS:   13533059  HIT:   12975735  MISS:     557324  HIT %:    95.8818  MISS %:    4.11824   MPKI: 11.1465
L1D LOAD      ACCESS:    9076541  HIT:    8734074  MISS:     342467  HIT %:    96.2269  MISS %:     3.7731   MPKI: 6.84934
L1D RFO       ACCESS:    4030553  HIT:    3972389  MISS:      58164  HIT %:    98.5569  MISS %:    1.44308   MPKI: 1.16328
L1D PREFETCH  ACCESS:     425965  HIT:     269272  MISS:     156693  HIT %:    63.2146  MISS %:    36.7854   MPKI: 3.13386
L1D PREFETCH  REQUESTED:     881063  ISSUED:     881055  USEFUL:      55878  USELESS:     100908
L1D USEFUL LOAD PREFETCHES:      55878 PREFETCH ISSUED TO LOWER LEVEL:     163152  ACCURACY: 34.249
L1D TIMELY PREFETCHES:      55878 LATE PREFETCHES: 5911 DROPPED PREFETCHES: 0
L1D PREFETCHES SAME FILL-ORIGIN LEVEL: 163152 DIFFERENT FILL-ORIGIN LEVEL: 0
L1D AVERAGE MISS LATENCY: 652549 cycles
L1D RQ	ACCESS:   13265505	FORWARD:          0	MERGED:    4076558	TO_CACHE:    9129002
L1D WQ	ACCESS:    4203142	FORWARD:      60044	MERGED:      77039	TO_CACHE:    4126103
L1D PQ	ACCESS:     440577	FORWARD:          0	MERGED:          0	TO_CACHE:     440478

L1D UNIQUE REGIONS ACCESSED: 0
L1D REGIONS CONFLICTS: 0
L1D Cross Page Prefetch Requests: 0
L1D Same Page Prefetch Requests: 1236731
L1D ROI Sum of L1D PQ occupancy: 5725431
L1D PREFETCHES PUSHED FROM L2C: 0
L1I TOTAL     ACCESS:   10741222  HIT:   10304129  MISS:     437093  HIT %:    95.9307  MISS %:     4.0693   MPKI: 8.74186
L1I LOAD      ACCESS:    9465164  HIT:    9452650  MISS:      12514  HIT %:    99.8678  MISS %:   0.132211   MPKI: 0.25028
L1I PREFETCH  ACCESS:    1276058  HIT:     851479  MISS:     424579  HIT %:    66.7273  MISS %:    33.2727   MPKI: 8.49158
L1I PREFETCH  REQUESTED:    1304999  ISSUED:    1302855  USEFUL:     307079  USELESS:     117453
L1I USEFUL LOAD PREFETCHES:     307079 PREFETCH ISSUED TO LOWER LEVEL:     427399  ACCURACY: 71.8483
L1I TIMELY PREFETCHES:     307079 LATE PREFETCHES: 2820 DROPPED PREFETCHES: 2
L1I PREFETCHES SAME FILL-ORIGIN LEVEL: 427399 DIFFERENT FILL-ORIGIN LEVEL: 0
L1I AVERAGE MISS LATENCY: 333484 cycles
L1I RQ	ACCESS:   13832649	FORWARD:          0	MERGED:    4364769	TO_CACHE:    9467880
L1I PQ	ACCESS:    1302855	FORWARD:          0	MERGED:      20278	TO_CACHE:    1282577

BTB TOTAL     ACCESS:    6247434  HIT:    5990703  MISS:     256731  HIT %:    95.8906  MISS %:    4.10938   MPKI: 5.13462
BTB BRANCH_DIRECT_JUMP	ACCESS:     455615  HIT:     454212  MISS:       1403
BTB BRANCH_INDIRECT	ACCESS:      20390  HIT:      13969  MISS:       6421
BTB BRANCH_CONDITIONAL	ACCESS:    4324523  HIT:    4321097  MISS:       3426
BTB BRANCH_DIRECT_CALL	ACCESS:     494532  HIT:     492733  MISS:       1799
BTB BRANCH_INDIRECT_CALL	ACCESS:     228815  HIT:     173167  MISS:      55648
BTB BRANCH_RETURN	ACCESS:     723559  HIT:     535525  MISS:     188034
BTB BRANCH_OTHER ACCESS:          0  HIT:          0  MISS:          0

L2C TOTAL     ACCESS:    1156524  HIT:     880258  MISS:     276266  HIT %:    76.1124  MISS %:    23.8876   MPKI: 5.52532
L2C LOAD      ACCESS:     346242  HIT:     180435  MISS:     165807  HIT %:    52.1124  MISS %:    47.8876   MPKI: 3.31614
L2C DATA LOAD MPKI: 3.25162
L2C INSTRUCTION LOAD MPKI: 0.06452
L2C RFO       ACCESS:      57615  HIT:      19279  MISS:      38336  HIT %:    33.4618  MISS %:    66.5382   MPKI: 0.76672
L2C PREFETCH  ACCESS:     590549  HIT:     522239  MISS:      68310  HIT %:    88.4328  MISS %:    11.5672   MPKI: 1.3662
L2C DATA PREFETCH MPKI: 1.05338
L2C INSTRUCTION PREFETCH MPKI: 0.31282
L2C WRITEBACK ACCESS:     157718  HIT:     155734  MISS:       1984  HIT %:    98.7421  MISS %:    1.25794   MPKI: 0.03968
L2C LOAD TRANSLATION ACCESS:       3924  HIT:       2379  MISS:       1545  HIT %:    60.6269  MISS %:    39.3731   MPKI: 0.0309
L2C TRANSLATION FROM L1D PREFETCHER ACCESS:        476  HIT:        192  MISS:        284  HIT %:    40.3361  MISS %:    59.6639   MPKI: 0.00568
L2C PREFETCH  REQUESTED:          0  ISSUED:          0  USEFUL:       7918  USELESS:      60547
L2C USEFUL LOAD PREFETCHES:       7918 PREFETCH ISSUED TO LOWER LEVEL:      68310  ACCURACY: 11.5913
L2C TIMELY PREFETCHES:       7918 LATE PREFETCHES: 0 DROPPED PREFETCHES: 0
L2C PREFETCHES SAME FILL-ORIGIN LEVEL: 0 DIFFERENT FILL-ORIGIN LEVEL: 0
L2C AVERAGE MISS LATENCY: 119.559 cycles
L2C RQ	ACCESS:     408266	FORWARD:          0	MERGED:          0	TO_CACHE:     408257
L2C WQ	ACCESS:     157718	FORWARD:         11	MERGED:          0	TO_CACHE:     157718
L2C PQ	ACCESS:     590551	FORWARD:          0	MERGED:          0	TO_CACHE:     590549

L2C Instructions Evicting Data 16604
L2C Translations Evicting Data 1613
L2C Data Evicting Data 237405
L2C Instructions Evicting Instructions 2076
L2C Translations Evicting Instructions 199
L2C Data Evicting Instructions 14692
L2C Instructions Evicting Translations 187
L2C Translations Evicting Translations 17
L2C Data Evicting Translations 1489
L2C Dense regions hint from L2: 0
PSCL5 TOTAL     ACCESS:       4131  HIT:       4131  MISS:          0  HIT %:        100  MISS %:          0   MPKI: 0
PSCL5 LOAD TRANSLATION ACCESS:       3709  HIT:       3709  MISS:          0  HIT %:        100  MISS %:          0   MPKI: 0
PSCL5 TRANSLATION FROM L1D PREFETCHER ACCESS:        422  HIT:        422  MISS:          0  HIT %:        100  MISS %:          0   MPKI: 0
PSCL5 PREFETCH  REQUESTED:          0  ISSUED:          0  USEFUL:          0  USELESS:          0
PSCL5 USEFUL LOAD PREFETCHES:          0 PREFETCH ISSUED TO LOWER LEVEL:          0  ACCURACY: -nan
PSCL5 TIMELY PREFETCHES:          0 LATE PREFETCHES: 0 DROPPED PREFETCHES: 0
PSCL5 PREFETCHES SAME FILL-ORIGIN LEVEL: 0 DIFFERENT FILL-ORIGIN LEVEL: 0

PSCL4 TOTAL     ACCESS:       4074  HIT:       4070  MISS:          4  HIT %:    99.9018  MISS %:  0.0981836   MPKI: 8e-05
PSCL4 LOAD TRANSLATION ACCESS:       3659  HIT:       3655  MISS:          4  HIT %:    99.8907  MISS %:   0.109319   MPKI: 8e-05
PSCL4 TRANSLATION FROM L1D PREFETCHER ACCESS:        415  HIT:        415  MISS:          0  HIT %:        100  MISS %:          0   MPKI: 0
PSCL4 PREFETCH  REQUESTED:          0  ISSUED:          0  USEFUL:          0  USELESS:          0
PSCL4 USEFUL LOAD PREFETCHES:          0 PREFETCH ISSUED TO LOWER LEVEL:          0  ACCURACY: -nan
PSCL4 TIMELY PREFETCHES:          0 LATE PREFETCHES: 0 DROPPED PREFETCHES: 0
PSCL4 PREFETCHES SAME FILL-ORIGIN LEVEL: 0 DIFFERENT FILL-ORIGIN LEVEL: 0

PSCL3 TOTAL     ACCESS:       4055  HIT:       4044  MISS:         11  HIT %:    99.7287  MISS %:    0.27127   MPKI: 0.00022
PSCL3 LOAD TRANSLATION ACCESS:       3641  HIT:       3630  MISS:         11  HIT %:    99.6979  MISS %:   0.302115   MPKI: 0.00022
PSCL3 TRANSLATION FROM L1D PREFETCHER ACCESS:        414  HIT:        414  MISS:          0  HIT %:        100  MISS %:          0   MPKI: 0
PSCL3 PREFETCH  REQUESTED:          0  ISSUED:          0  USEFUL:          0  USELESS:          0
PSCL3 USEFUL LOAD PREFETCHES:          0 PREFETCH ISSUED TO LOWER LEVEL:          0  ACCURACY: -nan
PSCL3 TIMELY PREFETCHES:          0 LATE PREFETCHES: 0 DROPPED PREFETCHES: 0
PSCL3 PREFETCHES SAME FILL-ORIGIN LEVEL: 0 DIFFERENT FILL-ORIGIN LEVEL: 0

PSCL2 TOTAL     ACCESS:       4131  HIT:       3872  MISS:        259  HIT %:    93.7303  MISS %:    6.26967   MPKI: 0.00518
PSCL2 LOAD TRANSLATION ACCESS:       3761  HIT:       3502  MISS:        259  HIT %:    93.1135  MISS %:    6.88647   MPKI: 0.00518
PSCL2 TRANSLATION FROM L1D PREFETCHER ACCESS:        370  HIT:        370  MISS:          0  HIT %:        100  MISS %:          0   MPKI: 0
PSCL2 PREFETCH  REQUESTED:          0  ISSUED:          0  USEFUL:          0  USELESS:          0
PSCL2 USEFUL LOAD PREFETCHES:          0 PREFETCH ISSUED TO LOWER LEVEL:          0  ACCURACY: -nan
PSCL2 TIMELY PREFETCHES:          0 LATE PREFETCHES: 0 DROPPED PREFETCHES: 0
PSCL2 PREFETCHES SAME FILL-ORIGIN LEVEL: 0 DIFFERENT FILL-ORIGIN LEVEL: 0

LLC TOTAL     ACCESS:     372078  HIT:     218113  MISS:     153965  HIT %:    58.6202  MISS %:    41.3798   MPKI: 3.0793
LLC LOAD      ACCESS:     165807  HIT:      81806  MISS:      84001  HIT %:    49.3381  MISS %:    50.6619   MPKI: 1.68002
LLC RFO       ACCESS:      38336  HIT:       5571  MISS:      32765  HIT %:     14.532  MISS %:     85.468   MPKI: 0.6553
LLC PREFETCH  ACCESS:      68310  HIT:      39076  MISS:      29234  HIT %:    57.2039  MISS %:    42.7961   MPKI: 0.58468
LLC WRITEBACK ACCESS:      97796  HIT:      91141  MISS:       6655  HIT %:     93.195  MISS %:    6.80498   MPKI: 0.1331
LLC LOAD TRANSLATION ACCESS:       1545  HIT:        451  MISS:       1094  HIT %:    29.1909  MISS %:    70.8091   MPKI: 0.02188
LLC TRANSLATION FROM L1D PREFETCHER ACCESS:        284  HIT:         68  MISS:        216  HIT %:    23.9437  MISS %:    76.0563   MPKI: 0.00432
LLC PREFETCH  REQUESTED:          0  ISSUED:          0  USEFUL:       7224  USELESS:      24210
LLC USEFUL LOAD PREFETCHES:       7224 PREFETCH ISSUED TO LOWER LEVEL:      29234  ACCURACY: 24.711
LLC TIMELY PREFETCHES:       7224 LATE PREFETCHES: 0 DROPPED PREFETCHES: 0
LLC PREFETCHES SAME FILL-ORIGIN LEVEL: 0 DIFFERENT FILL-ORIGIN LEVEL: 0
LLC AVERAGE MISS LATENCY: 160.736 cycles
LLC RQ	ACCESS:     205972	FORWARD:          0	MERGED:          0	TO_CACHE:     205972
LLC WQ	ACCESS:      97796	FORWARD:          0	MERGED:          0	TO_CACHE:      97796
LLC PQ	ACCESS:      68310	FORWARD:          0	MERGED:          0	TO_CACHE:      68310

LLC Dense regions hint to LLC: 0

RAW hits: 956504
Loads Generated: 14222010
Loads sent to L1D: 13265505
Stores Generated: 4203141
Stores sent to L1D: 4203142
Major fault: 0 Minor fault: 3508
Allocated PAGES: 3508
I-Shadow cache 408 bytes
Touched + WorthPF tables 6144 bytes 
MMA filter 174 bytes 
FNL filter 272 bytes 
TOTAL PREFETCHER STORAGE SIZE: 25174 bytes
CPU 0 L1I next line prefetcher final stats

stream: 
stream:times selected: 1401419
stream:pref_filled: 355063
stream:pref_useful: 63469
stream:pref_late: 8960
stream:misses: 53204
stream:misses_by_poll: 0

CS: 
CS:times selected: 184206
CS:pref_filled: 62298
CS:pref_useful: 42897
CS:pref_late: 2577
CS:misses: 17374
CS:misses_by_poll: 29

CPLX: 
CPLX:times selected: 1204229
CPLX:pref_filled: 85249
CPLX:pref_useful: 28130
CPLX:pref_late: 2207
CPLX:misses: 234454
CPLX:misses_by_poll: 20

NL_L1: 
NL:times selected: 12612
NL:pref_filled: 3253
NL:pref_useful: 623
NL:pref_late: 76
NL:misses: 2726
NL:misses_by_poll: 0

total selections: 2802466
total_filled: 156693
total_useful: 55878
total_late: 14743
total_polluted: 49
total_misses_after_warmup: 394935
conflicts: 3039096
Degree Incremented Times: 0
Degree Decremented Times: 148715

L1 IP Table Write Accesses: 5512787
L1 IP Table Read Accesses: 2473691
L1 RST Write Accesses: 499385
L1 RST Read Accesses: 998770
L1 CSPT Write Accesses: 499385
L1 CSPT Read Accesses: 894197
L1 RR Filter Tag Write Accesses: 440585
L1 RR Filter Tag Read Accesses: 25748072
L1 IP Table Tag Write Accesses: 9129009
L1 IP Table Tag Read Accesses: 9129009
L1 RST Tag Write Accesses: 0
L1 RST Tag Read Accesses: 4635980
L1 RR Filter Write Accesses: 0
L1 RR Filter Read Accesses: 923432
test: 487438

DRAM Statistics
 CHANNEL 0
 RQ ROW_BUFFER_HIT:      36804  ROW_BUFFER_MISS:     110505
 DBUS_CONGESTED:         63
 WQ ROW_BUFFER_HIT:      12997  ROW_BUFFER_MISS:      63954  FULL:          0

 AVG_CONGESTED_CYCLE: 4
 All warmup complete: 2
Channel 0 Bank busy for read cycles: 0
Channel 0 Bank busy for write cycles: 0
Channel 0
Rank 0
0banks busy for read cycles: 54023493
0banks busy for write cycles: 30649
1banks busy for read cycles: 8299564
1banks busy for write cycles: 4232778
2banks busy for read cycles: 2187225
2banks busy for write cycles: 1401965
3banks busy for read cycles: 729925
3banks busy for write cycles: 589698
4banks busy for read cycles: 262069
4banks busy for write cycles: 297623
5banks busy for read cycles: 140646
5banks busy for write cycles: 160759
6banks busy for read cycles: 101347
6banks busy for write cycles: 107414
7banks busy for read cycles: 67197
7banks busy for write cycles: 110224
8banks busy for read cycles: 101854
8banks busy for write cycles: 320102

CPU 0 Branch Prediction Accuracy: 97.9037% MPKI: 3.63418 Average ROB Occupancy at Mispredict: 63.3887
Branch types
NOT_BRANCH: 41331377 82.6628%
BRANCH_DIRECT_JUMP: 455615 0.91123%
BRANCH_INDIRECT: 20390 0.04078%
BRANCH_CONDITIONAL: 6745373 13.4907%
BRANCH_DIRECT_CALL: 494532 0.989064%
BRANCH_INDIRECT_CALL: 228815 0.45763%
BRANCH_RETURN: 723559 1.44712%
BRANCH_OTHER: 0 0%

DRAM PAGES: 1048576
Allocated PAGES: 3508
