
*** ChampSim Multicore Out-of-Order Simulator ***

Warmup Instructions: 50000000
Simulation Instructions: 50000000
Number of CPUs: 1
LLC sets: 2048
LLC ways: 16
Off-chip DRAM Size: 4096 MB Channels: 1 Width: 64-bit Data Rate: 6400 MT/s
CPU 0 runs ../IPC-traces//client_003.champsimtrace.xz
.xz
NUM_OF_IPS_IN_CRITICAL_IP_TRAINING: 64
NUM_OF_CRITICAL_IP_TRAINING_TABLE_WAYS: 2
NUM_OF_CRITICAL_IP_TRAINING_TABLE_SETS: 32
WOBBLY_CRITICAL_IP_CACHE_SETS: 32
WOBBLY_CRITICAL_IP_CACHE_WAYS: 4
BTB has LRU replacement policy
ITLB has LRU replacement policy
DTLB has LRU replacement policy
STLB has LRU replacement policy
CPU 0 L1I next line prefetcher
L1I has LRU replacement policy
IP Table Entries: 64
L1D has LRU replacement policy
Initialize SRRIP state for L2C
Initialize DRRIP state for LLC
Heartbeat CPU 0 instructions: 10000000 cycles: 2805599 heartbeat IPC: 3.5643 cumulative IPC: 3.5643 (Simulation time: 0 hr 1 min 49 sec) 
Heartbeat CPU 0 instructions: 20000000 cycles: 5609321 heartbeat IPC: 3.56669 cumulative IPC: 3.56549 (Simulation time: 0 hr 3 min 46 sec) 
Heartbeat CPU 0 instructions: 30000003 cycles: 8418817 heartbeat IPC: 3.55936 cumulative IPC: 3.56345 (Simulation time: 0 hr 5 min 40 sec) 
Heartbeat CPU 0 instructions: 40000001 cycles: 11236743 heartbeat IPC: 3.54871 cumulative IPC: 3.55975 (Simulation time: 0 hr 7 min 36 sec) 
Heartbeat CPU 0 instructions: 50000002 cycles: 14057611 heartbeat IPC: 3.54501 cumulative IPC: 3.55679 (Simulation time: 0 hr 9 min 26 sec) 

Warmup complete CPU 0 instructions: 50000002 cycles: 14057611 (Simulation time: 0 hr 9 min 26 sec) 

% increase in all ip prefetch 308.005
% increase in all ip prefetch 1.73888
Heartbeat CPU 0 instructions: 60000002 cycles: 27040738 heartbeat IPC: 0.77023 cumulative IPC: 0.77023 (Simulation time: 0 hr 11 min 46 sec) 
Heartbeat CPU 0 instructions: 70000001 cycles: 39633096 heartbeat IPC: 0.794132 cumulative IPC: 0.781999 (Simulation time: 0 hr 14 min 3 sec) 
Heartbeat CPU 0 instructions: 80000001 cycles: 53605252 heartbeat IPC: 0.715709 cumulative IPC: 0.758579 (Simulation time: 0 hr 16 min 20 sec) 
Heartbeat CPU 0 instructions: 90000000 cycles: 68157385 heartbeat IPC: 0.687184 cumulative IPC: 0.739375 (Simulation time: 0 hr 18 min 21 sec) 
Heartbeat CPU 0 instructions: 100000000 cycles: 88189874 heartbeat IPC: 0.499189 cumulative IPC: 0.67447 (Simulation time: 0 hr 20 min 59 sec) 
Finished CPU 0 instructions: 50000002 cycles: 74132265 cumulative IPC: 0.67447 (Simulation time: 0 hr 20 min 59 sec) 

ChampSim completed all CPUs

Region of Interest Statistics

CPU 0 cumulative IPC: 0.67447 instructions: 50000002 cycles: 74132265

CPU 0 Average Load ROB stall cycles: 1.81838e+07
CPU 0 Fraction of times ROB stalled by Loads: 36.2098
CPU 0 Percentage of Load stall cycles in Total stall cycles: 2.65272e+08
Issued all: 39677534
Issued LT all: 34160669
rob_not_full_when_issued_lt_all: 17971790
Issued LT one: 28027842
rob_not_full_when_issued_lt_one: 13666505
 Total stall cycles: 61209702
 Total load stall cycles: 162372437617358
Unique Load IPs: 39814
CPU 0 NUM of IPS identified critical: 45
CPU 0 Num of Load IPs stalling ROB: 26813
Threshold modification factor: -1
Max PIST entries: 64
Min PIST entries: 0
Avg PIST entries: 27.26
Trouble in retire width: 0.907336
MaC = Marked as critical.
lt_50_percent_before_Mac: 29
gt_90_percent_before_Mac: 2
gt_75_percent_before_Mac: 9
gt_50_percent_before_Mac: 5
stall_proportion_bin_same_before_after: 0
stall_proportion_bin_lower_before_after: 0
stall_proportion_bin_upper_before_after: 0
average_stall_proportion_before: 0.0584975
average_stall_proportion_after: 0.0629833
Critical IP stalls, total frequency: 1268530
Non-critical IP stalls, total frequency: 1964825
Total Freq all stalling IPs: 3233355
Critical_IP_Detector_Accuracy_70: 0.555556
Critical_IP_Detector_Accuracy_80: 0.866667
Critical_IP_Detector_Accuracy_90: 1
Critical_IP_Detector_Coverage_70: 0.0996016
Critical_IP_Detector_Coverage_80: 0.0609375
Critical_IP_Detector_Coverage_90: 0.0242066
stat_90_percent_critical_ip_stalls_freq: 2910042
stat_90_percent_non_critical_ip_stalls_freq: 323313
AVERAGE_ROB_Occupancy_90_Percent_Critical_IP_Stalls: 133.939
AVERAGE_ROB_Occupancy_90_Percent_Non_Critical_IP_Stalls: 37.7456
Critical_IP_ROB_Stalls_Bucket_0: 398922
Non-critical_IP_ROB_Stalls_Bucket_0: 1034244
Critical_IP_ROB_Stalls_Bucket_1: 76720
Non-critical_IP_ROB_Stalls_Bucket_1: 585055
Critical_IP_ROB_Stalls_Bucket_2: 31775
Non-critical_IP_ROB_Stalls_Bucket_2: 241860
Critical_IP_ROB_Stalls_Bucket_3: 21673
Non-critical_IP_ROB_Stalls_Bucket_3: 69213
Critical_IP_ROB_Stalls_Bucket_4: 15656
Non-critical_IP_ROB_Stalls_Bucket_4: 21194
Critical_IP_ROB_Stalls_Bucket_5: 12762
Non-critical_IP_ROB_Stalls_Bucket_5: 7465
Critical_IP_ROB_Stalls_Bucket_6: 711022
Non-critical_IP_ROB_Stalls_Bucket_6: 5794
0 => IPs accounting for >50 percent of stalls, 1 => 55, 2 => 60, 3 => 65 and so on till 90.
percent50: 50.0092 num IPs:  39
percent55: 55.1273 num IPs: 63
percent60: 60.0317 num IPs: 97
percent65: 65.0119 num IPs: 155
percent70: 70.0189 num IPs: 251
percent75: 75.0125 num IPs: 399
percent80: 80.0048 num IPs: 640
percent85: 85.0018 num IPs: 1069
percent90: 90.0006 num IPs: 1859
Critical_ROB_Stalls_Percent_0_Bucket_0: 513226
Non-critical_ROB_Stalls_Percent_0_Bucket_0: 919940
Critical_ROB_Stalls_Percent_0_Bucket_1: 214275
Non-critical_ROB_Stalls_Percent_0_Bucket_1: 447500
Critical_ROB_Stalls_Percent_0_Bucket_2: 115309
Non-critical_ROB_Stalls_Percent_0_Bucket_2: 158326
Critical_ROB_Stalls_Percent_0_Bucket_3: 42285
Non-critical_ROB_Stalls_Percent_0_Bucket_3: 48601
Critical_ROB_Stalls_Percent_0_Bucket_4: 18479
Non-critical_ROB_Stalls_Percent_0_Bucket_4: 18371
Critical_ROB_Stalls_Percent_0_Bucket_5: 11014
Non-critical_ROB_Stalls_Percent_0_Bucket_5: 9213
Critical_ROB_Stalls_Percent_0_Bucket_6: 702386
Non-critical_ROB_Stalls_Percent_0_Bucket_6: 14430
Critical_ROB_Stalls_Percent_1_Bucket_0: 586173
Non-critical_ROB_Stalls_Percent_1_Bucket_0: 846993
Critical_ROB_Stalls_Percent_1_Bucket_1: 275760
Non-critical_ROB_Stalls_Percent_1_Bucket_1: 386015
Critical_ROB_Stalls_Percent_1_Bucket_2: 135489
Non-critical_ROB_Stalls_Percent_1_Bucket_2: 138146
Critical_ROB_Stalls_Percent_1_Bucket_3: 48623
Non-critical_ROB_Stalls_Percent_1_Bucket_3: 42263
Critical_ROB_Stalls_Percent_1_Bucket_4: 21120
Non-critical_ROB_Stalls_Percent_1_Bucket_4: 15730
Critical_ROB_Stalls_Percent_1_Bucket_5: 12017
Non-critical_ROB_Stalls_Percent_1_Bucket_5: 8210
Critical_ROB_Stalls_Percent_1_Bucket_6: 703279
Non-critical_ROB_Stalls_Percent_1_Bucket_6: 13537
Critical_ROB_Stalls_Percent_2_Bucket_0: 652292
Non-critical_ROB_Stalls_Percent_2_Bucket_0: 780874
Critical_ROB_Stalls_Percent_2_Bucket_1: 324809
Non-critical_ROB_Stalls_Percent_2_Bucket_1: 336966
Critical_ROB_Stalls_Percent_2_Bucket_2: 158800
Non-critical_ROB_Stalls_Percent_2_Bucket_2: 114835
Critical_ROB_Stalls_Percent_2_Bucket_3: 55880
Non-critical_ROB_Stalls_Percent_2_Bucket_3: 35006
Critical_ROB_Stalls_Percent_2_Bucket_4: 24811
Non-critical_ROB_Stalls_Percent_2_Bucket_4: 12039
Critical_ROB_Stalls_Percent_2_Bucket_5: 14561
Non-critical_ROB_Stalls_Percent_2_Bucket_5: 5666
Critical_ROB_Stalls_Percent_2_Bucket_6: 709884
Non-critical_ROB_Stalls_Percent_2_Bucket_6: 6932
Critical_ROB_Stalls_Percent_3_Bucket_0: 728919
Non-critical_ROB_Stalls_Percent_3_Bucket_0: 704247
Critical_ROB_Stalls_Percent_3_Bucket_1: 374080
Non-critical_ROB_Stalls_Percent_3_Bucket_1: 287695
Critical_ROB_Stalls_Percent_3_Bucket_2: 181753
Non-critical_ROB_Stalls_Percent_3_Bucket_2: 91882
Critical_ROB_Stalls_Percent_3_Bucket_3: 63870
Non-critical_ROB_Stalls_Percent_3_Bucket_3: 27016
Critical_ROB_Stalls_Percent_3_Bucket_4: 26895
Non-critical_ROB_Stalls_Percent_3_Bucket_4: 9955
Critical_ROB_Stalls_Percent_3_Bucket_5: 15859
Non-critical_ROB_Stalls_Percent_3_Bucket_5: 4368
Critical_ROB_Stalls_Percent_3_Bucket_6: 710688
Non-critical_ROB_Stalls_Percent_3_Bucket_6: 6128
Critical_ROB_Stalls_Percent_4_Bucket_0: 807742
Non-critical_ROB_Stalls_Percent_4_Bucket_0: 625424
Critical_ROB_Stalls_Percent_4_Bucket_1: 432426
Non-critical_ROB_Stalls_Percent_4_Bucket_1: 229349
Critical_ROB_Stalls_Percent_4_Bucket_2: 200800
Non-critical_ROB_Stalls_Percent_4_Bucket_2: 72835
Critical_ROB_Stalls_Percent_4_Bucket_3: 67817
Non-critical_ROB_Stalls_Percent_4_Bucket_3: 23069
Critical_ROB_Stalls_Percent_4_Bucket_4: 27787
Non-critical_ROB_Stalls_Percent_4_Bucket_4: 9063
Critical_ROB_Stalls_Percent_4_Bucket_5: 16242
Non-critical_ROB_Stalls_Percent_4_Bucket_5: 3985
Critical_ROB_Stalls_Percent_4_Bucket_6: 711145
Non-critical_ROB_Stalls_Percent_4_Bucket_6: 5671
Critical_ROB_Stalls_Percent_5_Bucket_0: 892656
Non-critical_ROB_Stalls_Percent_5_Bucket_0: 540510
Critical_ROB_Stalls_Percent_5_Bucket_1: 477247
Non-critical_ROB_Stalls_Percent_5_Bucket_1: 184528
Critical_ROB_Stalls_Percent_5_Bucket_2: 218562
Non-critical_ROB_Stalls_Percent_5_Bucket_2: 55073
Critical_ROB_Stalls_Percent_5_Bucket_3: 74663
Non-critical_ROB_Stalls_Percent_5_Bucket_3: 16223
Critical_ROB_Stalls_Percent_5_Bucket_4: 31434
Non-critical_ROB_Stalls_Percent_5_Bucket_4: 5416
Critical_ROB_Stalls_Percent_5_Bucket_5: 17001
Non-critical_ROB_Stalls_Percent_5_Bucket_5: 3226
Critical_ROB_Stalls_Percent_5_Bucket_6: 713859
Non-critical_ROB_Stalls_Percent_5_Bucket_6: 2957
Critical_ROB_Stalls_Percent_6_Bucket_0: 989187
Non-critical_ROB_Stalls_Percent_6_Bucket_0: 443979
Critical_ROB_Stalls_Percent_6_Bucket_1: 522955
Non-critical_ROB_Stalls_Percent_6_Bucket_1: 138820
Critical_ROB_Stalls_Percent_6_Bucket_2: 230921
Non-critical_ROB_Stalls_Percent_6_Bucket_2: 42714
Critical_ROB_Stalls_Percent_6_Bucket_3: 77646
Non-critical_ROB_Stalls_Percent_6_Bucket_3: 13240
Critical_ROB_Stalls_Percent_6_Bucket_4: 32948
Non-critical_ROB_Stalls_Percent_6_Bucket_4: 3902
Critical_ROB_Stalls_Percent_6_Bucket_5: 18102
Non-critical_ROB_Stalls_Percent_6_Bucket_5: 2125
Critical_ROB_Stalls_Percent_6_Bucket_6: 715081
Non-critical_ROB_Stalls_Percent_6_Bucket_6: 1735
Critical_ROB_Stalls_Percent_7_Bucket_0: 1084026
Non-critical_ROB_Stalls_Percent_7_Bucket_0: 349140
Critical_ROB_Stalls_Percent_7_Bucket_1: 567234
Non-critical_ROB_Stalls_Percent_7_Bucket_1: 94541
Critical_ROB_Stalls_Percent_7_Bucket_2: 245109
Non-critical_ROB_Stalls_Percent_7_Bucket_2: 28526
Critical_ROB_Stalls_Percent_7_Bucket_3: 83254
Non-critical_ROB_Stalls_Percent_7_Bucket_3: 7632
Critical_ROB_Stalls_Percent_7_Bucket_4: 34574
Non-critical_ROB_Stalls_Percent_7_Bucket_4: 2276
Critical_ROB_Stalls_Percent_7_Bucket_5: 18691
Non-critical_ROB_Stalls_Percent_7_Bucket_5: 1536
Critical_ROB_Stalls_Percent_7_Bucket_6: 715524
Non-critical_ROB_Stalls_Percent_7_Bucket_6: 1292
Critical_ROB_Stalls_Percent_8_Bucket_0: 1185845
Non-critical_ROB_Stalls_Percent_8_Bucket_0: 247321
Critical_ROB_Stalls_Percent_8_Bucket_1: 607957
Non-critical_ROB_Stalls_Percent_8_Bucket_1: 53818
Critical_ROB_Stalls_Percent_8_Bucket_2: 258548
Non-critical_ROB_Stalls_Percent_8_Bucket_2: 15087
Critical_ROB_Stalls_Percent_8_Bucket_3: 86472
Non-critical_ROB_Stalls_Percent_8_Bucket_3: 4414
Critical_ROB_Stalls_Percent_8_Bucket_4: 35565
Non-critical_ROB_Stalls_Percent_8_Bucket_4: 1285
Critical_ROB_Stalls_Percent_8_Bucket_5: 19623
Non-critical_ROB_Stalls_Percent_8_Bucket_5: 604
Critical_ROB_Stalls_Percent_8_Bucket_6: 716032
Non-critical_ROB_Stalls_Percent_8_Bucket_6: 784
Average ROB occupancy Load Stall Begin: 116.88
Average ROB occupancy Load Stall End: 124.32
Min ROB occupancy Load Stall Begin: 1
Max ROB occupancy Load Stall Begin: 352
Min ROB occupancy Load Stall End: 1
Max ROB occupancy Load Stall End: 352
Average ROB occupancy Critical Load Stall Begin: 227.371
Average ROB occupancy Critical Load Stall End: 232.128
Min ROB occupancy Critical Load Stall Begin: 2
Max ROB occupancy Critical Load Stall Begin: 352
Min ROB occupancy Critical Load Stall End: 2
Max ROB occupancy Critical Load Stall End: 352
 ROB Load Stall Begin Bucket Count 0: 1647271
 ROB Load Stall End Bucket Count 0: 1433166
 ROB Critical Load Stall Begin Bucket Count 0: 391160
 ROB Critical Load Stall End Bucket Count 0: 363294
 ROB Load Stall Begin Bucket Count 1: 532284
 ROB Load Stall End Bucket Count 1: 661775
 ROB Critical Load Stall Begin Bucket Count 1: 33589
 ROB Critical Load Stall End Bucket Count 1: 55111
 ROB Load Stall Begin Bucket Count 2: 220059
 ROB Load Stall End Bucket Count 2: 273635
 ROB Critical Load Stall Begin Bucket Count 2: 22218
 ROB Critical Load Stall End Bucket Count 2: 24548
 ROB Load Stall Begin Bucket Count 3: 72128
 ROB Load Stall End Bucket Count 3: 90886
 ROB Critical Load Stall Begin Bucket Count 3: 16744
 ROB Critical Load Stall End Bucket Count 3: 17679
 ROB Load Stall Begin Bucket Count 4: 29804
 ROB Load Stall End Bucket Count 4: 36850
 ROB Critical Load Stall Begin Bucket Count 4: 12593
 ROB Critical Load Stall End Bucket Count 4: 13458
 ROB Load Stall Begin Bucket Count 5: 19150
 ROB Load Stall End Bucket Count 5: 20227
 ROB Critical Load Stall Begin Bucket Count 5: 11295
 ROB Critical Load Stall End Bucket Count 5: 11040
 ROB Load Stall Begin Bucket Count 6: 712659
 ROB Load Stall End Bucket Count 6: 716816
 ROB Critical Load Stall Begin Bucket Count 6: 705274
 ROB Critical Load Stall End Bucket Count 6: 707743
PIST Tag Read Accesses: 2312664
PIST Read Accesses: 1156332
PIST Tag Write Accesses: 2312664
PIST Write Accesses: 1156332
Criticality detector called times: 2040482
Max global_stall_cycles_count: 3870614
Threshold Modified: 1 times, factor: -1
Sturdy critical IP cache stats: 
 Unused entries: 0
CIC Tag Read Accesses: 0
CIC Read Accesses: 0
CIC Tag Write Accesses: 0
CIC Write Accesses: 0
Wobbly critical IP cache stats: 
 Unused entries: 83
CIC Tag Read Accesses: 81952620
CIC Read Accesses: 0
CIC Tag Write Accesses: 10881
CIC Write Accesses: 0
ITLB TOTAL     ACCESS:    9301491  HIT:    9224296  MISS:      77195  HIT %:    99.1701  MISS %:   0.829921   MPKI: 1.5439
ITLB LOAD TRANSLATION ACCESS:    8635403  HIT:    8597594  MISS:      37809  HIT %:    99.5622  MISS %:   0.437837   MPKI: 0.75618
ITLB TRANSLATION FROM L1D PREFETCHER ACCESS:     666088  HIT:     626702  MISS:      39386  HIT %:     94.087  MISS %:    5.91303   MPKI: 0.78772
ITLB PREFETCH  REQUESTED:          0  ISSUED:          0  USEFUL:      30858  USELESS:       8528
ITLB USEFUL LOAD PREFETCHES:      30858 PREFETCH ISSUED TO LOWER LEVEL:          0  ACCURACY: inf
ITLB TIMELY PREFETCHES:      30858 LATE PREFETCHES: 169 DROPPED PREFETCHES: 353
ITLB PREFETCHES SAME FILL-ORIGIN LEVEL: 0 DIFFERENT FILL-ORIGIN LEVEL: 0
ITLB AVERAGE MISS LATENCY: 88294.8 cycles
ITLB RQ	ACCESS:   11688079	FORWARD:          0	MERGED:    2372502	TO_CACHE:    9315577

DTLB TOTAL     ACCESS:    9890622  HIT:    9790074  MISS:     100548  HIT %:    98.9834  MISS %:     1.0166   MPKI: 2.01096
DTLB LOAD TRANSLATION ACCESS:    9890622  HIT:    9790074  MISS:     100548  HIT %:    98.9834  MISS %:     1.0166   MPKI: 2.01096
DTLB PREFETCH  REQUESTED:          0  ISSUED:          0  USEFUL:          0  USELESS:          0
DTLB USEFUL LOAD PREFETCHES:          0 PREFETCH ISSUED TO LOWER LEVEL:          0  ACCURACY: -nan
DTLB TIMELY PREFETCHES:          0 LATE PREFETCHES: 0 DROPPED PREFETCHES: 0
DTLB PREFETCHES SAME FILL-ORIGIN LEVEL: 0 DIFFERENT FILL-ORIGIN LEVEL: 0
DTLB AVERAGE MISS LATENCY: 14.1028 cycles
DTLB RQ	ACCESS:   12769924	FORWARD:          0	MERGED:    2862213	TO_CACHE:    9907711

STLB TOTAL     ACCESS:     267405  HIT:     262801  MISS:       4604  HIT %:    98.2783  MISS %:    1.72173   MPKI: 0.09208
STLB LOAD TRANSLATION ACCESS:     138188  HIT:     133784  MISS:       4404  HIT %:     96.813  MISS %:    3.18696   MPKI: 0.08808
STLB TRANSLATION FROM L1D PREFETCHER ACCESS:     129217  HIT:     129017  MISS:        200  HIT %:    99.8452  MISS %:   0.154778   MPKI: 0.004
STLB PREFETCH  REQUESTED:          0  ISSUED:          0  USEFUL:        124  USELESS:         47
STLB USEFUL LOAD PREFETCHES:        124 PREFETCH ISSUED TO LOWER LEVEL:          0  ACCURACY: inf
STLB TIMELY PREFETCHES:        124 LATE PREFETCHES: 0 DROPPED PREFETCHES: 353
STLB PREFETCHES SAME FILL-ORIGIN LEVEL: 0 DIFFERENT FILL-ORIGIN LEVEL: 0
STLB AVERAGE MISS LATENCY: 133.249 cycles
STLB RQ	ACCESS:     280497	FORWARD:          0	MERGED:      12739	TO_CACHE:     267758

STLB Hit, L1D data hit: 0
STLB Hit, L2C data hit: 0
STLB Hit, LLC data hit: 0
STLB Hit, LLC data miss: 0
STLB STLB hints to L2: 0
L1D TOTAL     ACCESS:   12254768  HIT:   11838994  MISS:     415774  HIT %:    96.6072  MISS %:    3.39275   MPKI: 8.31548
L1D LOAD      ACCESS:    6209691  HIT:    6100893  MISS:     108798  HIT %:    98.2479  MISS %:    1.75207   MPKI: 2.17596
L1D RFO       ACCESS:    5955421  HIT:    5715724  MISS:     239697  HIT %:    95.9751  MISS %:    4.02485   MPKI: 4.79394
L1D PREFETCH  ACCESS:      89656  HIT:      22377  MISS:      67279  HIT %:    24.9587  MISS %:    75.0413   MPKI: 1.34558
L1D PREFETCH  REQUESTED:     204831  ISSUED:     204826  USEFUL:      60299  USELESS:       6974
L1D USEFUL LOAD PREFETCHES:      60299 PREFETCH ISSUED TO LOWER LEVEL:      78892  ACCURACY: 76.4323
L1D TIMELY PREFETCHES:      60299 LATE PREFETCHES: 11595 DROPPED PREFETCHES: 0
L1D PREFETCHES SAME FILL-ORIGIN LEVEL: 78892 DIFFERENT FILL-ORIGIN LEVEL: 0
L1D AVERAGE MISS LATENCY: 1.9132e+06 cycles
L1D RQ	ACCESS:    9776990	FORWARD:          0	MERGED:    3411730	TO_CACHE:    6236619
L1D WQ	ACCESS:    6907394	FORWARD:     128665	MERGED:     374089	TO_CACHE:    6533305
L1D PQ	ACCESS:     102425	FORWARD:          0	MERGED:          0	TO_CACHE:     102401

L1D UNIQUE REGIONS ACCESSED: 0
L1D REGIONS CONFLICTS: 0
L1D Cross Page Prefetch Requests: 0
L1D Same Page Prefetch Requests: 104239
L1D ROI Sum of L1D PQ occupancy: 1544397
L1D PREFETCHES PUSHED FROM L2C: 0
L1I TOTAL     ACCESS:   11598320  HIT:   10865064  MISS:     733256  HIT %:    93.6779  MISS %:    6.32209   MPKI: 14.6651
L1I LOAD      ACCESS:    9754588  HIT:    9574572  MISS:     180016  HIT %:    98.1546  MISS %:    1.84545   MPKI: 3.60032
L1I PREFETCH  ACCESS:    1843732  HIT:    1290492  MISS:     553240  HIT %:    69.9935  MISS %:    30.0065   MPKI: 11.0648
L1I PREFETCH  REQUESTED:    2015833  ISSUED:    2013654  USEFUL:     352445  USELESS:     200821
L1I USEFUL LOAD PREFETCHES:     352445 PREFETCH ISSUED TO LOWER LEVEL:     571501  ACCURACY: 61.6701
L1I TIMELY PREFETCHES:     352445 LATE PREFETCHES: 18261 DROPPED PREFETCHES: 649
L1I PREFETCHES SAME FILL-ORIGIN LEVEL: 571501 DIFFERENT FILL-ORIGIN LEVEL: 0
L1I AVERAGE MISS LATENCY: 993115 cycles
L1I RQ	ACCESS:   14258282	FORWARD:          0	MERGED:    4479324	TO_CACHE:    9778958
L1I PQ	ACCESS:    2013654	FORWARD:          0	MERGED:     104533	TO_CACHE:    1909121

BTB TOTAL     ACCESS:    7502677  HIT:    7071437  MISS:     431240  HIT %:    94.2522  MISS %:    5.74782   MPKI: 8.6248
BTB BRANCH_DIRECT_JUMP	ACCESS:     370859  HIT:     358934  MISS:      11925
BTB BRANCH_INDIRECT	ACCESS:      83252  HIT:      39140  MISS:      44112
BTB BRANCH_CONDITIONAL	ACCESS:    5399005  HIT:    5361920  MISS:      37085
BTB BRANCH_DIRECT_CALL	ACCESS:     722308  HIT:     695961  MISS:      26347
BTB BRANCH_INDIRECT_CALL	ACCESS:     101901  HIT:      81558  MISS:      20343
BTB BRANCH_RETURN	ACCESS:     825352  HIT:     533924  MISS:     291428
BTB BRANCH_OTHER ACCESS:          0  HIT:          0  MISS:          0

L2C TOTAL     ACCESS:    1416230  HIT:    1025827  MISS:     390403  HIT %:    72.4336  MISS %:    27.5664   MPKI: 7.80806
L2C LOAD      ACCESS:     258956  HIT:     201525  MISS:      57431  HIT %:    77.8221  MISS %:    22.1779   MPKI: 1.14862
L2C DATA LOAD MPKI: 0.7539
L2C INSTRUCTION LOAD MPKI: 0.39472
L2C RFO       ACCESS:     239672  HIT:      29254  MISS:     210418  HIT %:    12.2058  MISS %:    87.7942   MPKI: 4.20836
L2C PREFETCH  ACCESS:     650393  HIT:     537075  MISS:     113318  HIT %:     82.577  MISS %:     17.423   MPKI: 2.26636
L2C DATA PREFETCH MPKI: 1.43308
L2C INSTRUCTION PREFETCH MPKI: 0.83328
L2C WRITEBACK ACCESS:     262129  HIT:     254464  MISS:       7665  HIT %:    97.0759  MISS %:    2.92413   MPKI: 0.1533
L2C LOAD TRANSLATION ACCESS:       4518  HIT:       3071  MISS:       1447  HIT %:    67.9726  MISS %:    32.0274   MPKI: 0.02894
L2C TRANSLATION FROM L1D PREFETCHER ACCESS:        562  HIT:        438  MISS:        124  HIT %:    77.9359  MISS %:    22.0641   MPKI: 0.00248
L2C PREFETCH  REQUESTED:          0  ISSUED:          0  USEFUL:       6196  USELESS:     108284
L2C USEFUL LOAD PREFETCHES:       6196 PREFETCH ISSUED TO LOWER LEVEL:     113318  ACCURACY: 5.4678
L2C TIMELY PREFETCHES:       6196 LATE PREFETCHES: 0 DROPPED PREFETCHES: 0
L2C PREFETCHES SAME FILL-ORIGIN LEVEL: 0 DIFFERENT FILL-ORIGIN LEVEL: 0
L2C AVERAGE MISS LATENCY: 139.612 cycles
L2C RQ	ACCESS:     503717	FORWARD:          0	MERGED:          0	TO_CACHE:     503708
L2C WQ	ACCESS:     262129	FORWARD:          9	MERGED:          0	TO_CACHE:     262129
L2C PQ	ACCESS:     650393	FORWARD:          0	MERGED:          0	TO_CACHE:     650393

L2C Instructions Evicting Data 36955
L2C Translations Evicting Data 1142
L2C Data Evicting Data 281118
L2C Instructions Evicting Instructions 24048
L2C Translations Evicting Instructions 418
L2C Data Evicting Instructions 37632
L2C Instructions Evicting Translations 397
L2C Translations Evicting Translations 11
L2C Data Evicting Translations 1017
L2C Dense regions hint from L2: 0
PSCL5 TOTAL     ACCESS:       4957  HIT:       4957  MISS:          0  HIT %:        100  MISS %:          0   MPKI: 0
PSCL5 LOAD TRANSLATION ACCESS:       4404  HIT:       4404  MISS:          0  HIT %:        100  MISS %:          0   MPKI: 0
PSCL5 TRANSLATION FROM L1D PREFETCHER ACCESS:        553  HIT:        553  MISS:          0  HIT %:        100  MISS %:          0   MPKI: 0
PSCL5 PREFETCH  REQUESTED:          0  ISSUED:          0  USEFUL:          0  USELESS:          0
PSCL5 USEFUL LOAD PREFETCHES:          0 PREFETCH ISSUED TO LOWER LEVEL:          0  ACCURACY: -nan
PSCL5 TIMELY PREFETCHES:          0 LATE PREFETCHES: 0 DROPPED PREFETCHES: 0
PSCL5 PREFETCHES SAME FILL-ORIGIN LEVEL: 0 DIFFERENT FILL-ORIGIN LEVEL: 0

PSCL4 TOTAL     ACCESS:       4957  HIT:       4957  MISS:          0  HIT %:        100  MISS %:          0   MPKI: 0
PSCL4 LOAD TRANSLATION ACCESS:       4404  HIT:       4404  MISS:          0  HIT %:        100  MISS %:          0   MPKI: 0
PSCL4 TRANSLATION FROM L1D PREFETCHER ACCESS:        553  HIT:        553  MISS:          0  HIT %:        100  MISS %:          0   MPKI: 0
PSCL4 PREFETCH  REQUESTED:          0  ISSUED:          0  USEFUL:          0  USELESS:          0
PSCL4 USEFUL LOAD PREFETCHES:          0 PREFETCH ISSUED TO LOWER LEVEL:          0  ACCURACY: -nan
PSCL4 TIMELY PREFETCHES:          0 LATE PREFETCHES: 0 DROPPED PREFETCHES: 0
PSCL4 PREFETCHES SAME FILL-ORIGIN LEVEL: 0 DIFFERENT FILL-ORIGIN LEVEL: 0

PSCL3 TOTAL     ACCESS:       4929  HIT:       4927  MISS:          2  HIT %:    99.9594  MISS %:  0.0405762   MPKI: 4e-05
PSCL3 LOAD TRANSLATION ACCESS:       4379  HIT:       4377  MISS:          2  HIT %:    99.9543  MISS %:  0.0456725   MPKI: 4e-05
PSCL3 TRANSLATION FROM L1D PREFETCHER ACCESS:        550  HIT:        550  MISS:          0  HIT %:        100  MISS %:          0   MPKI: 0
PSCL3 PREFETCH  REQUESTED:          0  ISSUED:          0  USEFUL:          0  USELESS:          0
PSCL3 USEFUL LOAD PREFETCHES:          0 PREFETCH ISSUED TO LOWER LEVEL:          0  ACCURACY: -nan
PSCL3 TIMELY PREFETCHES:          0 LATE PREFETCHES: 0 DROPPED PREFETCHES: 0
PSCL3 PREFETCHES SAME FILL-ORIGIN LEVEL: 0 DIFFERENT FILL-ORIGIN LEVEL: 0

PSCL2 TOTAL     ACCESS:       4957  HIT:       4823  MISS:        134  HIT %:    97.2968  MISS %:    2.70325   MPKI: 0.00268
PSCL2 LOAD TRANSLATION ACCESS:       4412  HIT:       4278  MISS:        134  HIT %:    96.9628  MISS %:    3.03717   MPKI: 0.00268
PSCL2 TRANSLATION FROM L1D PREFETCHER ACCESS:        545  HIT:        545  MISS:          0  HIT %:        100  MISS %:          0   MPKI: 0
PSCL2 PREFETCH  REQUESTED:          0  ISSUED:          0  USEFUL:          0  USELESS:          0
PSCL2 USEFUL LOAD PREFETCHES:          0 PREFETCH ISSUED TO LOWER LEVEL:          0  ACCURACY: -nan
PSCL2 TIMELY PREFETCHES:          0 LATE PREFETCHES: 0 DROPPED PREFETCHES: 0
PSCL2 PREFETCHES SAME FILL-ORIGIN LEVEL: 0 DIFFERENT FILL-ORIGIN LEVEL: 0

LLC TOTAL     ACCESS:     600706  HIT:     334389  MISS:     266317  HIT %:     55.666  MISS %:     44.334   MPKI: 5.32634
LLC LOAD      ACCESS:      57431  HIT:      40413  MISS:      17018  HIT %:    70.3679  MISS %:    29.6321   MPKI: 0.34036
LLC RFO       ACCESS:     210418  HIT:      35513  MISS:     174905  HIT %:    16.8774  MISS %:    83.1226   MPKI: 3.4981
LLC PREFETCH  ACCESS:     113318  HIT:      44215  MISS:      69103  HIT %:    39.0185  MISS %:    60.9815   MPKI: 1.38206
LLC WRITEBACK ACCESS:     217968  HIT:     213725  MISS:       4243  HIT %:    98.0534  MISS %:    1.94662   MPKI: 0.08486
LLC LOAD TRANSLATION ACCESS:       1447  HIT:        455  MISS:        992  HIT %:    31.4444  MISS %:    68.5556   MPKI: 0.01984
LLC TRANSLATION FROM L1D PREFETCHER ACCESS:        124  HIT:         68  MISS:         56  HIT %:    54.8387  MISS %:    45.1613   MPKI: 0.00112
LLC PREFETCH  REQUESTED:          0  ISSUED:          0  USEFUL:        830  USELESS:      65421
LLC USEFUL LOAD PREFETCHES:        830 PREFETCH ISSUED TO LOWER LEVEL:      69103  ACCURACY: 1.20111
LLC TIMELY PREFETCHES:        830 LATE PREFETCHES: 0 DROPPED PREFETCHES: 0
LLC PREFETCHES SAME FILL-ORIGIN LEVEL: 0 DIFFERENT FILL-ORIGIN LEVEL: 0
LLC AVERAGE MISS LATENCY: 161.283 cycles
LLC RQ	ACCESS:     269420	FORWARD:          0	MERGED:          0	TO_CACHE:     269420
LLC WQ	ACCESS:     217968	FORWARD:          0	MERGED:          0	TO_CACHE:     217968
LLC PQ	ACCESS:     113318	FORWARD:          0	MERGED:          0	TO_CACHE:     113318

LLC Dense regions hint to LLC: 0

RAW hits: 1279286
Loads Generated: 11056274
Loads sent to L1D: 9776990
Stores Generated: 6907390
Stores sent to L1D: 6907394
Major fault: 0 Minor fault: 5106
Allocated PAGES: 5106
I-Shadow cache 408 bytes
Touched + WorthPF tables 6144 bytes 
MMA filter 174 bytes 
FNL filter 272 bytes 
TOTAL PREFETCHER STORAGE SIZE: 25174 bytes
CPU 0 L1I next line prefetcher final stats

stream: 
stream:times selected: 164331
stream:pref_filled: 7814
stream:pref_useful: 3028
stream:pref_late: 1240
stream:misses: 740
stream:misses_by_poll: 0

CS: 
CS:times selected: 75647
CS:pref_filled: 57799
CS:pref_useful: 56960
CS:pref_late: 10137
CS:misses: 24839
CS:misses_by_poll: 200

CPLX: 
CPLX:times selected: 88211
CPLX:pref_filled: 2278
CPLX:pref_useful: 452
CPLX:pref_late: 32
CPLX:misses: 6851
CPLX:misses_by_poll: 7

NL_L1: 
NL:times selected: 1519
NL:pref_filled: 60
NL:pref_useful: 11
NL:pref_late: 2
NL:misses: 48
NL:misses_by_poll: 0

total selections: 329708
total_filled: 67279
total_useful: 60299
total_late: 11598
total_polluted: 207
total_misses_after_warmup: 39178
conflicts: 120340
Degree Incremented Times: 4289
Degree Decremented Times: 9156

L1 IP Table Write Accesses: 1399786
L1 IP Table Read Accesses: 1279446
L1 RST Write Accesses: 163882
L1 RST Read Accesses: 327764
L1 CSPT Write Accesses: 163882
L1 CSPT Read Accesses: 254813
L1 RR Filter Tag Write Accesses: 102430
L1 RR Filter Tag Read Accesses: 11907795
L1 IP Table Tag Write Accesses: 1538135
L1 IP Table Tag Read Accesses: 1538135
L1 RST Tag Write Accesses: 0
L1 RST Tag Read Accesses: 1832673
L1 RR Filter Write Accesses: 0
L1 RR Filter Read Accesses: 418345
test: 16863

DRAM Statistics
 CHANNEL 0
 RQ ROW_BUFFER_HIT:     104544  ROW_BUFFER_MISS:     157527
 DBUS_CONGESTED:        135
 WQ ROW_BUFFER_HIT:      36118  ROW_BUFFER_MISS:     138809  FULL:          0

 AVG_CONGESTED_CYCLE: 2
 All warmup complete: 2
Channel 0 Bank busy for read cycles: 0
Channel 0 Bank busy for write cycles: 0
Channel 0
Rank 0
0banks busy for read cycles: 51861661
0banks busy for write cycles: 33466
1banks busy for read cycles: 7828572
1banks busy for write cycles: 4007376
2banks busy for read cycles: 2933461
2banks busy for write cycles: 1282801
3banks busy for read cycles: 847142
3banks busy for write cycles: 352394
4banks busy for read cycles: 431605
4banks busy for write cycles: 262690
5banks busy for read cycles: 293482
5banks busy for write cycles: 225497
6banks busy for read cycles: 337712
6banks busy for write cycles: 229676
7banks busy for read cycles: 384594
7banks busy for write cycles: 367768
8banks busy for read cycles: 639766
8banks busy for write cycles: 1812603

CPU 0 Branch Prediction Accuracy: 98.6631% MPKI: 2.66884 Average ROB Occupancy at Mispredict: 41.7129
Branch types
NOT_BRANCH: 40018632 80.0373%
BRANCH_DIRECT_JUMP: 370859 0.741718%
BRANCH_INDIRECT: 83252 0.166504%
BRANCH_CONDITIONAL: 7877415 15.7548%
BRANCH_DIRECT_CALL: 722308 1.44462%
BRANCH_INDIRECT_CALL: 101901 0.203802%
BRANCH_RETURN: 825352 1.6507%
BRANCH_OTHER: 0 0%

DRAM PAGES: 1048576
Allocated PAGES: 5106
