Initialize SIGNATURE TABLE
ST_SET: 1
ST_WAY: 256
ST_TAG_BIT: 16
ST_TAG_MASK: ffff

Initialize PATTERN TABLE
PT_SET: 512
PT_WAY: 4
SIG_DELTA_BIT: 7
C_SIG_BIT: 4
C_DELTA_BIT: 4

Initialize PREFETCH FILTER
FILTER_SET: 1024

Initialize PERCEPTRON
PERC_ENTRIES: 4096
PERC_FEATURES: 9
MANA initialize 
tds: 2 tdm: 4
size MANA SINGLE: 25.5 KB
size MANA NULTIPLE: 9.875 KB
size HOBPT: 0.703125 KB
size SRQ: 0.0644531 KB
size SABs: 0.0402832 KB
size prefetch queue: 0.453125 KB
total: 36.636 KB

*** ChampSim Multicore Out-of-Order Simulator ***

Warmup Instructions: 50000000
Simulation Instructions: 50000000
Number of CPUs: 1
LLC sets: 2048
LLC ways: 16
Off-chip DRAM Size: 4096 MB Channels: 1 Width: 64-bit Data Rate: 6400 MT/s
CPU 0 runs ../IPC-traces//client_005.champsimtrace.xz
.xz
BTB has LRU replacement policy
ITLB has LRU replacement policy
DTLB has LRU replacement policy
STLB has LRU replacement policy
L1I has LRU replacement policy
L1D has LRU replacement policy
Initialize SRRIP state for L2C
Initialize DRRIP state for LLC
Heartbeat CPU 0 instructions: 10000001 cycles: 2915758 heartbeat IPC: 3.42964 cumulative IPC: 3.42964 (Simulation time: 0 hr 3 min 59 sec) 
Heartbeat CPU 0 instructions: 20000002 cycles: 5815189 heartbeat IPC: 3.44895 cumulative IPC: 3.43927 (Simulation time: 0 hr 7 min 42 sec) 
Heartbeat CPU 0 instructions: 30000000 cycles: 8681922 heartbeat IPC: 3.48829 cumulative IPC: 3.45546 (Simulation time: 0 hr 11 min 53 sec) 
Heartbeat CPU 0 instructions: 40000000 cycles: 11554045 heartbeat IPC: 3.48175 cumulative IPC: 3.46199 (Simulation time: 0 hr 16 min 4 sec) 
Heartbeat CPU 0 instructions: 50000001 cycles: 14564768 heartbeat IPC: 3.32146 cumulative IPC: 3.43294 (Simulation time: 0 hr 18 min 50 sec) 

Warmup complete CPU 0 instructions: 50000001 cycles: 14564768 (Simulation time: 0 hr 18 min 50 sec) 

Epoch all ip prefetch: 0, epoch id: 2
Epoch all ip prefetch: 1, epoch id: 3
Epoch all ip prefetch: 0, epoch id: 4
Epoch all ip prefetch: 0, epoch id: 5
Epoch all ip prefetch: 0, epoch id: 6
Epoch all ip prefetch: 0, epoch id: 7
Epoch all ip prefetch: 0, epoch id: 8
Epoch all ip prefetch: 0, epoch id: 9
Epoch all ip prefetch: 0, epoch id: 10
Epoch all ip prefetch: 0, epoch id: 11
Heartbeat CPU 0 instructions: 60000001 cycles: 30764575 heartbeat IPC: 0.617291 cumulative IPC: 0.617291 (Simulation time: 0 hr 22 min 50 sec) 
Epoch all ip prefetch: 0, epoch id: 12
Epoch all ip prefetch: 0, epoch id: 13
Epoch all ip prefetch: 0, epoch id: 14
Epoch all ip prefetch: 0, epoch id: 15
Epoch all ip prefetch: 0, epoch id: 16
Epoch all ip prefetch: 0, epoch id: 17
Epoch all ip prefetch: 0, epoch id: 18
Epoch all ip prefetch: 0, epoch id: 19
Epoch all ip prefetch: 0, epoch id: 20
Epoch all ip prefetch: 0, epoch id: 21
Heartbeat CPU 0 instructions: 70000002 cycles: 44872163 heartbeat IPC: 0.708838 cumulative IPC: 0.659905 (Simulation time: 0 hr 26 min 52 sec) 
Epoch all ip prefetch: 0, epoch id: 22
Epoch all ip prefetch: 0, epoch id: 23
Epoch all ip prefetch: 0, epoch id: 24
Epoch all ip prefetch: 0, epoch id: 25
Epoch all ip prefetch: 0, epoch id: 26
Epoch all ip prefetch: 0, epoch id: 27
Epoch all ip prefetch: 0, epoch id: 28
Epoch all ip prefetch: 0, epoch id: 29
Epoch all ip prefetch: 0, epoch id: 30
Epoch all ip prefetch: 0, epoch id: 31
Heartbeat CPU 0 instructions: 80000003 cycles: 57819711 heartbeat IPC: 0.772347 cumulative IPC: 0.693562 (Simulation time: 0 hr 31 min 18 sec) 
Epoch all ip prefetch: 0, epoch id: 32
Epoch all ip prefetch: 0, epoch id: 33
Epoch all ip prefetch: 0, epoch id: 34
Epoch all ip prefetch: 0, epoch id: 35
Epoch all ip prefetch: 0, epoch id: 36
Epoch all ip prefetch: 0, epoch id: 37
Epoch all ip prefetch: 0, epoch id: 38
Epoch all ip prefetch: 0, epoch id: 39
Epoch all ip prefetch: 0, epoch id: 40
Epoch all ip prefetch: 0, epoch id: 41
Heartbeat CPU 0 instructions: 90000002 cycles: 73110693 heartbeat IPC: 0.65398 cumulative IPC: 0.683224 (Simulation time: 0 hr 35 min 43 sec) 
Epoch all ip prefetch: 0, epoch id: 42
Epoch all ip prefetch: 0, epoch id: 43
Epoch all ip prefetch: 0, epoch id: 44
Epoch all ip prefetch: 0, epoch id: 45
Epoch all ip prefetch: 0, epoch id: 46
Epoch all ip prefetch: 0, epoch id: 47
Epoch all ip prefetch: 0, epoch id: 48
Epoch all ip prefetch: 0, epoch id: 49
Epoch all ip prefetch: 0, epoch id: 50
Epoch all ip prefetch: 0, epoch id: 51
Heartbeat CPU 0 instructions: 100000002 cycles: 88270677 heartbeat IPC: 0.659631 cumulative IPC: 0.678372 (Simulation time: 0 hr 38 min 24 sec) 
Finished CPU 0 instructions: 50000001 cycles: 73705909 cumulative IPC: 0.678372 (Simulation time: 0 hr 38 min 24 sec) 

ChampSim completed all CPUs

Region of Interest Statistics

CPU 0 cumulative IPC: 0.678372 instructions: 50000001 cycles: 73705909

CPU 0 Average Load ROB stall cycles: 3.32294
CPU 0 Fraction of times ROB stalled by Loads: 25.2175
CPU 0 Percentage of Load stall cycles in Total stall cycles: 51.1182
CPU 0 NUM of IPS identified critical: 0

Average ROB occupancy Load Stall Begin: 59.7571
Average ROB occupancy Load Stall End: 68.5426
Min ROB occupancy Load Stall Begin: 1
Max ROB occupancy Load Stall Begin: 351
Min ROB occupancy Load Stall End: 1
Max ROB occupancy Load Stall End: 352
Average ROB occupancy Critical Load Stall Begin: -nan
Average ROB occupancy Critical Load Stall End: -nan
Min ROB occupancy Critical Load Stall Begin: 400
Max ROB occupancy Critical Load Stall Begin: 0
Min ROB occupancy Critical Load Stall End: 400
Max ROB occupancy Critical Load Stall End: 0
 ROB Load Stall Begin Bucket Count 0: 1144667
 ROB Load Stall End Bucket Count 0: 992951
 ROB Critical Load Stall Begin Bucket Count 0: 0
 ROB Critical Load Stall End Bucket Count 0: 0
 ROB Load Stall Begin Bucket Count 1: 504866
 ROB Load Stall End Bucket Count 1: 575933
 ROB Critical Load Stall Begin Bucket Count 1: 0
 ROB Critical Load Stall End Bucket Count 1: 0
 ROB Load Stall Begin Bucket Count 2: 218055
 ROB Load Stall End Bucket Count 2: 264790
 ROB Critical Load Stall Begin Bucket Count 2: 0
 ROB Critical Load Stall End Bucket Count 2: 0
 ROB Load Stall Begin Bucket Count 3: 66736
 ROB Load Stall End Bucket Count 3: 89190
 ROB Critical Load Stall Begin Bucket Count 3: 0
 ROB Critical Load Stall End Bucket Count 3: 0
 ROB Load Stall Begin Bucket Count 4: 22779
 ROB Load Stall End Bucket Count 4: 29027
 ROB Critical Load Stall Begin Bucket Count 4: 0
 ROB Critical Load Stall End Bucket Count 4: 0
 ROB Load Stall Begin Bucket Count 5: 16940
 ROB Load Stall End Bucket Count 5: 18892
 ROB Critical Load Stall Begin Bucket Count 5: 0
 ROB Critical Load Stall End Bucket Count 5: 0
 ROB Load Stall Begin Bucket Count 6: 26825
 ROB Load Stall End Bucket Count 6: 30085
 ROB Critical Load Stall Begin Bucket Count 6: 0
 ROB Critical Load Stall End Bucket Count 6: 0
Threshold Modified: 2 times, factor: 0
Sturdy critical IP cache stats: 
 Unused entries: 96
Wobbly critical IP cache stats: 
 Unused entries: 192
ITLB TOTAL     ACCESS:   13001137  HIT:   12809764  MISS:     191373  HIT %:     98.528  MISS %:    1.47197   MPKI: 3.82746
ITLB LOAD TRANSLATION ACCESS:    8240549  HIT:    8185588  MISS:      54961  HIT %:     99.333  MISS %:   0.666958   MPKI: 1.09922
ITLB TRANSLATION FROM L1D PREFETCHER ACCESS:    4760588  HIT:    4624176  MISS:     136412  HIT %:    97.1346  MISS %:    2.86544   MPKI: 2.72824
ITLB AVERAGE MISS LATENCY: 2.60488e+06 cycles
ITLB RQ	ACCESS:   23114776	FORWARD:          0	MERGED:   10026347	TO_CACHE:   13088429

DTLB TOTAL     ACCESS:   10420788  HIT:   10218774  MISS:     202014  HIT %:    98.0614  MISS %:    1.93857   MPKI: 4.04028
DTLB LOAD TRANSLATION ACCESS:   10420788  HIT:   10218774  MISS:     202014  HIT %:    98.0614  MISS %:    1.93857   MPKI: 4.04028
DTLB AVERAGE MISS LATENCY: 13.0854 cycles
DTLB RQ	ACCESS:   14361480	FORWARD:          0	MERGED:    3910353	TO_CACHE:   10451127

STLB TOTAL     ACCESS:     393387  HIT:     381313  MISS:      12074  HIT %:    96.9308  MISS %:    3.06924   MPKI: 0.24148
STLB LOAD TRANSLATION ACCESS:     246847  HIT:     235337  MISS:      11510  HIT %:    95.3372  MISS %:    4.66281   MPKI: 0.2302
STLB TRANSLATION FROM L1D PREFETCHER ACCESS:     146540  HIT:     145976  MISS:        564  HIT %:    99.6151  MISS %:   0.384878   MPKI: 0.01128
STLB AVERAGE MISS LATENCY: 82.3228 cycles
STLB RQ	ACCESS:     440739	FORWARD:          0	MERGED:          0	TO_CACHE:     440739

STLB Hit, L1D data hit: 0
STLB Hit, L2C data hit: 0
STLB Hit, LLC data hit: 0
STLB Hit, LLC data miss: 0
STLB STLB hints to L2: 0
L1D TOTAL     ACCESS:   13880905  HIT:   13493644  MISS:     387261  HIT %:    97.2101  MISS %:    2.78988   MPKI: 7.74522
L1D LOAD      ACCESS:    7073632  HIT:    6882925  MISS:     190707  HIT %:     97.304  MISS %:    2.69603   MPKI: 3.81414
L1D RFO       ACCESS:    6807273  HIT:    6610719  MISS:     196554  HIT %:    97.1126  MISS %:    2.88741   MPKI: 3.93108
L1D AVERAGE MISS LATENCY: 101.624 cycles
L1D RQ	ACCESS:   10966294	FORWARD:          0	MERGED:    3716289	TO_CACHE:    7099608
L1D WQ	ACCESS:    7412318	FORWARD:     150397	MERGED:     150446	TO_CACHE:    7261872

L1D UNIQUE REGIONS ACCESSED: 0
L1D REGIONS CONFLICTS: 0
L1D Cross Page Prefetch Requests: 0
L1D Same Page Prefetch Requests: 0
L1D ROI Sum of L1D PQ occupancy: 0
L1D PREFETCHES PUSHED FROM L2C: 0
L1I TOTAL     ACCESS:   22800649  HIT:   21885666  MISS:     914983  HIT %:     95.987  MISS %:    4.01297   MPKI: 18.2997
L1I LOAD      ACCESS:    9710884  HIT:    9440918  MISS:     269966  HIT %:      97.22  MISS %:    2.78004   MPKI: 5.39932
L1I PREFETCH  ACCESS:   13089765  HIT:   12444748  MISS:     645017  HIT %:    95.0724  MISS %:    4.92764   MPKI: 12.9003
L1I PREFETCH  REQUESTED:   15722212  ISSUED:   14690588  USEFUL:     428311  USELESS:     216674
L1I USEFUL LOAD PREFETCHES:     428311 PREFETCH ISSUED TO LOWER LEVEL:     689773  ACCURACY: 62.0945
L1I TIMELY PREFETCHES:     428311 LATE PREFETCHES: 44662 DROPPED PREFETCHES: 47635
L1I AVERAGE MISS LATENCY: 2.40031e+06 cycles
L1I RQ	ACCESS:   14542137	FORWARD:          0	MERGED:    4789946	TO_CACHE:    9752191
L1I PQ	ACCESS:   14690588	FORWARD:          0	MERGED:    1328003	TO_CACHE:   13362585

BTB TOTAL     ACCESS:    6897150  HIT:    6294110  MISS:     603040  HIT %:    91.2567  MISS %:    8.74332   MPKI: 12.0608
BTB BRANCH_DIRECT_JUMP	ACCESS:     484668  HIT:     467653  MISS:      17015
BTB BRANCH_INDIRECT	ACCESS:      85086  HIT:      43882  MISS:      41204
BTB BRANCH_CONDITIONAL	ACCESS:    3984654  HIT:    3933543  MISS:      51111
BTB BRANCH_DIRECT_CALL	ACCESS:    1028925  HIT:     994062  MISS:      34863
BTB BRANCH_INDIRECT_CALL	ACCESS:     141825  HIT:     105579  MISS:      36246
BTB BRANCH_RETURN	ACCESS:    1171992  HIT:     749391  MISS:     422601
BTB BRANCH_OTHER ACCESS:          0  HIT:          0  MISS:          0

L2C TOTAL     ACCESS:    2309285  HIT:    1785654  MISS:     523631  HIT %:     77.325  MISS %:     22.675   MPKI: 10.4726
L2C LOAD      ACCESS:     416007  HIT:     298575  MISS:     117432  HIT %:    71.7716  MISS %:    28.2284   MPKI: 2.34864
L2C DATA LOAD MPKI: 1.51004
L2C INSTRUCTION LOAD MPKI: 0.8386
L2C RFO       ACCESS:     196552  HIT:      32951  MISS:     163601  HIT %:    16.7645  MISS %:    83.2355   MPKI: 3.27202
L2C PREFETCH  ACCESS:    1395642  HIT:    1175689  MISS:     219953  HIT %:      84.24  MISS %:      15.76   MPKI: 4.39906
L2C DATA PREFETCH MPKI: 3.64956
L2C INSTRUCTION PREFETCH MPKI: 0.7495
L2C WRITEBACK ACCESS:     240658  HIT:     222385  MISS:      18273  HIT %:    92.4071  MISS %:    7.59293   MPKI: 0.36546
L2C LOAD TRANSLATION ACCESS:      12364  HIT:       8171  MISS:       4193  HIT %:     66.087  MISS %:     33.913   MPKI: 0.08386
L2C TRANSLATION FROM L1D PREFETCHER ACCESS:      48062  HIT:      47883  MISS:        179  HIT %:    99.6276  MISS %:   0.372436   MPKI: 0.00358
L2C PREFETCH  REQUESTED:     965725  ISSUED:     965699  USEFUL:      54756  USELESS:     164104
L2C USEFUL LOAD PREFETCHES:      54756 PREFETCH ISSUED TO LOWER LEVEL:     246309  ACCURACY: 22.2306
L2C TIMELY PREFETCHES:      54756 LATE PREFETCHES: 4442 DROPPED PREFETCHES: 0
L2C AVERAGE MISS LATENCY: 109.693 cycles
L2C RQ	ACCESS:     672991	FORWARD:          0	MERGED:          0	TO_CACHE:     672985
L2C WQ	ACCESS:     240658	FORWARD:          7	MERGED:          0	TO_CACHE:     240658
L2C PQ	ACCESS:    1655378	FORWARD:          0	MERGED:     223520	TO_CACHE:    1431857

L2C Instructions Evicting Data59080
L2C Translations Evicting Data3446
L2C Data Evicting Data363504
L2C Instructions Evicting Instructions19476
L2C Translations Evicting Instructions871
L2C Data Evicting Instructions54773
L2C Instructions Evicting Translations849
L2C Translations Evicting Translations55
L2C Data Evicting Translations3304
L2C Dense regions hint from L2: 0
PSCL5 TOTAL     ACCESS:      59426  HIT:      59426  MISS:          0  HIT %:        100  MISS %:          0   MPKI: 0
PSCL5 LOAD TRANSLATION ACCESS:      11510  HIT:      11510  MISS:          0  HIT %:        100  MISS %:          0   MPKI: 0
PSCL5 TRANSLATION FROM L1D PREFETCHER ACCESS:      47916  HIT:      47916  MISS:          0  HIT %:        100  MISS %:          0   MPKI: 0

PSCL4 TOTAL     ACCESS:      59426  HIT:      59426  MISS:          0  HIT %:        100  MISS %:          0   MPKI: 0
PSCL4 LOAD TRANSLATION ACCESS:      11510  HIT:      11510  MISS:          0  HIT %:        100  MISS %:          0   MPKI: 0
PSCL4 TRANSLATION FROM L1D PREFETCHER ACCESS:      47916  HIT:      47916  MISS:          0  HIT %:        100  MISS %:          0   MPKI: 0

PSCL3 TOTAL     ACCESS:      59304  HIT:      59294  MISS:         10  HIT %:    99.9831  MISS %:  0.0168623   MPKI: 0.0002
PSCL3 LOAD TRANSLATION ACCESS:      11500  HIT:      11490  MISS:         10  HIT %:     99.913  MISS %:  0.0869565   MPKI: 0.0002
PSCL3 TRANSLATION FROM L1D PREFETCHER ACCESS:      47804  HIT:      47804  MISS:          0  HIT %:        100  MISS %:          0   MPKI: 0

PSCL2 TOTAL     ACCESS:      12074  HIT:      11192  MISS:        882  HIT %:     92.695  MISS %:    7.30495   MPKI: 0.01764
PSCL2 LOAD TRANSLATION ACCESS:      11545  HIT:      10663  MISS:        882  HIT %:    92.3603  MISS %:    7.63967   MPKI: 0.01764
PSCL2 TRANSLATION FROM L1D PREFETCHER ACCESS:        529  HIT:        529  MISS:          0  HIT %:        100  MISS %:          0   MPKI: 0

LLC TOTAL     ACCESS:     727451  HIT:     425990  MISS:     301461  HIT %:    58.5593  MISS %:    41.4407   MPKI: 6.02922
LLC LOAD      ACCESS:     113161  HIT:      60877  MISS:      52284  HIT %:    53.7968  MISS %:    46.2032   MPKI: 1.04568
LLC RFO       ACCESS:     163430  HIT:      11977  MISS:     151453  HIT %:    7.32852  MISS %:    92.6715   MPKI: 3.02906
LLC PREFETCH  ACCESS:     246120  HIT:     155249  MISS:      90871  HIT %:    63.0786  MISS %:    36.9214   MPKI: 1.81742
LLC WRITEBACK ACCESS:     200368  HIT:     195727  MISS:       4641  HIT %:    97.6838  MISS %:    2.31624   MPKI: 0.09282
LLC LOAD TRANSLATION ACCESS:       4193  HIT:       2078  MISS:       2115  HIT %:    49.5588  MISS %:    50.4412   MPKI: 0.0423
LLC TRANSLATION FROM L1D PREFETCHER ACCESS:        179  HIT:         82  MISS:         97  HIT %:    45.8101  MISS %:    54.1899   MPKI: 0.00194
LLC AVERAGE MISS LATENCY: 146.464 cycles
LLC RQ	ACCESS:     280963	FORWARD:          0	MERGED:          0	TO_CACHE:     280963
LLC WQ	ACCESS:     200368	FORWARD:          0	MERGED:          0	TO_CACHE:     200368
LLC PQ	ACCESS:     246309	FORWARD:          0	MERGED:         17	TO_CACHE:     246292

LLC Dense regions hint to LLC: 0

RAW hits: 1825905
Loads Generated: 12792198
Loads sent to L1D: 10966294
Stores Generated: 7412307
Stores sent to L1D: 7412318
Major fault: 0 Minor fault: 6178
Allocated PAGES: 6178



Printing Logs
statHeadFound: 2893539
statHeadMissing: 1820778
statStreamBufferHit: 11536604
statPrefetchEntryFound: 11111337
statCompactorMatch: 12741383
statStreamTrackerLookup: 16250921
statRecord: 3509538
statGetPointer: 4714317
statEnqueuePrefetch: 27392594
statPrefetchQueueIsFull: 350
StreamBufferHitRate: 0.709905
Regions' size: 9619
next_region_correct: 2318461
next_region_wrong: 1181450
next_region_correct_prediction: 0.662434
statStreamBufferLookups: 162509210
statL1iLookups: 219140752
statCompactorLookups: 260014736
------------------
Depth Distribution
------------------
depth 0: 68189
depth 1: 413476
depth 2: 1168975
depth 3: 76838
depth 4: 4302
depth 5: 3068
depth 6: 1615
depth 7: 1393
depth 8: 1186
depth 9: 1314
depth 10: 277
depth 11: 1100
depth 12: 566
depth 13: 93
depth 14: 873
depth 15: 171
depth 16: 199
depth 17: 110
depth 18: 42
depth 19: 0
depth 20: 0
depth 21: 0
depth 22: 0
depth 23: 0
depth 24: 0
depth 25: 0
depth 26: 0
depth 27: 0
depth 28: 0
depth 29: 0
Total: 1743787
------------------
ST read accesses: 367753176
ST write accesses: 38790904
PT read accesses: 14420920
PT write accesses: 1106806
FILTER read accesses: 3738251
FILTER write accesses: 2436792
GHR read accesses: 861563
GHR write accesses: 63245
PERC read accesses: 89204949
PERC write accesses: 8090845
GHR counter read accesses: 1753374
GHR counter write accesses: 2329361
GHR ip read accesses: 5757885
GHR ip write accesses: 3506748

DRAM Statistics
 CHANNEL 0
 RQ ROW_BUFFER_HIT:      97250  ROW_BUFFER_MISS:     199569
 DBUS_CONGESTED:        330
 WQ ROW_BUFFER_HIT:      36115  ROW_BUFFER_MISS:     147317  FULL:          0

 AVG_CONGESTED_CYCLE: 3

CPU 0 Branch Prediction Accuracy: 97.8666% MPKI: 3.90132 Average ROB Occupancy at Mispredict: 47.3564
Branch types
NOT_BRANCH: 40856522 81.713%
BRANCH_DIRECT_JUMP: 484668 0.969336%
BRANCH_INDIRECT: 85086 0.170172%
BRANCH_CONDITIONAL: 6230913 12.4618%
BRANCH_DIRECT_CALL: 1028925 2.05785%
BRANCH_INDIRECT_CALL: 141825 0.28365%
BRANCH_RETURN: 1171992 2.34398%
BRANCH_OTHER: 0 0%

DRAM PAGES: 1048576
Allocated PAGES: 6178
