
*** ChampSim Multicore Out-of-Order Simulator ***

Warmup Instructions: 50000000
Simulation Instructions: 50000000
Number of CPUs: 1
LLC sets: 2048
LLC ways: 16
Off-chip DRAM Size: 4096 MB Channels: 1 Width: 64-bit Data Rate: 6400 MT/s
CPU 0 runs ../IPC-traces//client_006.champsimtrace.xz
.xz
BTB has LRU replacement policy
ITLB has LRU replacement policy
DTLB has LRU replacement policy
STLB has LRU replacement policy
CPU 0 L1I next line prefetcher
L1I has LRU replacement policy
IP Table Entries: 64
L1D has LRU replacement policy
Initialize SRRIP state for L2C
Initialize DRRIP state for LLC
Heartbeat CPU 0 instructions: 10000001 cycles: 3367389 heartbeat IPC: 2.96966 cumulative IPC: 2.96966 (Simulation time: 0 hr 2 min 56 sec) 
Heartbeat CPU 0 instructions: 20000002 cycles: 6630436 heartbeat IPC: 3.06462 cumulative IPC: 3.01639 (Simulation time: 0 hr 5 min 49 sec) 
Heartbeat CPU 0 instructions: 30000003 cycles: 9424942 heartbeat IPC: 3.57845 cumulative IPC: 3.18304 (Simulation time: 0 hr 8 min 8 sec) 
Heartbeat CPU 0 instructions: 40000000 cycles: 12350954 heartbeat IPC: 3.41762 cumulative IPC: 3.23862 (Simulation time: 0 hr 10 min 33 sec) 
Heartbeat CPU 0 instructions: 50000003 cycles: 15549344 heartbeat IPC: 3.12657 cumulative IPC: 3.21557 (Simulation time: 0 hr 13 min 8 sec) 

Warmup complete CPU 0 instructions: 50000003 cycles: 15549344 (Simulation time: 0 hr 13 min 8 sec) 

Heartbeat CPU 0 instructions: 60000002 cycles: 30191251 heartbeat IPC: 0.682971 cumulative IPC: 0.682971 (Simulation time: 0 hr 16 min 11 sec) 
Heartbeat CPU 0 instructions: 70000000 cycles: 47867444 heartbeat IPC: 0.565733 cumulative IPC: 0.618848 (Simulation time: 0 hr 19 min 33 sec) 
Heartbeat CPU 0 instructions: 80000002 cycles: 62731867 heartbeat IPC: 0.672747 cumulative IPC: 0.635829 (Simulation time: 0 hr 22 min 36 sec) 
Heartbeat CPU 0 instructions: 90000003 cycles: 77603761 heartbeat IPC: 0.672409 cumulative IPC: 0.644596 (Simulation time: 0 hr 25 min 29 sec) 
Heartbeat CPU 0 instructions: 100000001 cycles: 92179567 heartbeat IPC: 0.686068 cumulative IPC: 0.652484 (Simulation time: 0 hr 28 min 21 sec) 
Finished CPU 0 instructions: 50000002 cycles: 76630224 cumulative IPC: 0.652484 (Simulation time: 0 hr 28 min 21 sec) 

ChampSim completed all CPUs

Region of Interest Statistics

CPU 0 cumulative IPC: 0.652484 instructions: 50000002 cycles: 76630224

CPU 0 Average Load ROB stall cycles: 1.8382e+07
CPU 0 Fraction of times ROB stalled by Loads: 33.6698
CPU 0 Percentage of Load stall cycles in Total stall cycles: 1.99499e+08
Issued all: 30730310
Issued LT all: 24544361
rob_not_full_when_issued_lt_all: 19394110
Issued LT one: 20416983
rob_not_full_when_issued_lt_one: 15590974
HPCA_2009 critical_dynamic_instances_0: 86696
HPCA_2009 unique_critical_ips_0: 6200
multiple_destinations_0: 0
load_to_same_dest_0: 0
low_issue_rate_0: 13946718
total_issue_rate_checked_count_0: 15080487
 Total stall cycles: 64352408
 Total load stall cycles: 128382183749228
Unique Load IPs: 14924
CPU 0 NUM of IPS identified critical: 0
CPU 0 Num of Load IPs stalling ROB: 0
Threshold modification factor: 0
Trouble in retire width: -nan
MaC = Marked as critical.
lt_50_percent_before_Mac: 0
gt_90_percent_before_Mac: 0
gt_75_percent_before_Mac: 0
gt_50_percent_before_Mac: 0
stall_proportion_bin_same_before_after: 0
stall_proportion_bin_lower_before_after: 0
stall_proportion_bin_upper_before_after: 0
average_stall_proportion_before: -nan
average_stall_proportion_after: -nan
Critical IP stalls, total frequency: 0
Non-critical IP stalls, total frequency: 0
Total Freq all stalling IPs: 0
Critical_IP_Detector_Accuracy_70: 0
Critical_IP_Detector_Accuracy_80: 0
Critical_IP_Detector_Accuracy_90: 0
Critical_IP_Detector_Coverage_70: 0
Critical_IP_Detector_Coverage_80: 0
Critical_IP_Detector_Coverage_90: 0
stat_90_percent_critical_ip_stalls_freq: 82727
stat_90_percent_non_critical_ip_stalls_freq: 18446744073709468889
AVERAGE_ROB_Occupancy_90_Percent_Critical_IP_Stalls: 65.1006
AVERAGE_ROB_Occupancy_90_Percent_Non_Critical_IP_Stalls: 1.00134e-11
Critical_IP_ROB_Stalls_Bucket_0: 0
Non-critical_IP_ROB_Stalls_Bucket_0: 1257581
Critical_IP_ROB_Stalls_Bucket_1: 0
Non-critical_IP_ROB_Stalls_Bucket_1: 493116
Critical_IP_ROB_Stalls_Bucket_2: 0
Non-critical_IP_ROB_Stalls_Bucket_2: 252024
Critical_IP_ROB_Stalls_Bucket_3: 0
Non-critical_IP_ROB_Stalls_Bucket_3: 124519
Critical_IP_ROB_Stalls_Bucket_4: 0
Non-critical_IP_ROB_Stalls_Bucket_4: 61869
Critical_IP_ROB_Stalls_Bucket_5: 0
Non-critical_IP_ROB_Stalls_Bucket_5: 39111
Critical_IP_ROB_Stalls_Bucket_6: 0
Non-critical_IP_ROB_Stalls_Bucket_6: 123325
0 => IPs accounting for >50 percent of stalls, 1 => 55, 2 => 60, 3 => 65 and so on till 90.
percent50: inf num IPs:  1
percent55: inf num IPs: 1
percent60: inf num IPs: 1
percent65: inf num IPs: 1
percent70: inf num IPs: 1
percent75: inf num IPs: 1
percent80: inf num IPs: 1
percent85: inf num IPs: 1
percent90: inf num IPs: 1
Critical_ROB_Stalls_Percent_0_Bucket_0: 69721
Non-critical_ROB_Stalls_Percent_0_Bucket_0: 1187860
Critical_ROB_Stalls_Percent_0_Bucket_1: 5423
Non-critical_ROB_Stalls_Percent_0_Bucket_1: 487693
Critical_ROB_Stalls_Percent_0_Bucket_2: 751
Non-critical_ROB_Stalls_Percent_0_Bucket_2: 251273
Critical_ROB_Stalls_Percent_0_Bucket_3: 1070
Non-critical_ROB_Stalls_Percent_0_Bucket_3: 123449
Critical_ROB_Stalls_Percent_0_Bucket_4: 189
Non-critical_ROB_Stalls_Percent_0_Bucket_4: 61680
Critical_ROB_Stalls_Percent_0_Bucket_5: 522
Non-critical_ROB_Stalls_Percent_0_Bucket_5: 38589
Critical_ROB_Stalls_Percent_0_Bucket_6: 5051
Non-critical_ROB_Stalls_Percent_0_Bucket_6: 118274
Critical_ROB_Stalls_Percent_1_Bucket_0: 69721
Non-critical_ROB_Stalls_Percent_1_Bucket_0: 1187860
Critical_ROB_Stalls_Percent_1_Bucket_1: 5423
Non-critical_ROB_Stalls_Percent_1_Bucket_1: 487693
Critical_ROB_Stalls_Percent_1_Bucket_2: 751
Non-critical_ROB_Stalls_Percent_1_Bucket_2: 251273
Critical_ROB_Stalls_Percent_1_Bucket_3: 1070
Non-critical_ROB_Stalls_Percent_1_Bucket_3: 123449
Critical_ROB_Stalls_Percent_1_Bucket_4: 189
Non-critical_ROB_Stalls_Percent_1_Bucket_4: 61680
Critical_ROB_Stalls_Percent_1_Bucket_5: 522
Non-critical_ROB_Stalls_Percent_1_Bucket_5: 38589
Critical_ROB_Stalls_Percent_1_Bucket_6: 5051
Non-critical_ROB_Stalls_Percent_1_Bucket_6: 118274
Critical_ROB_Stalls_Percent_2_Bucket_0: 69721
Non-critical_ROB_Stalls_Percent_2_Bucket_0: 1187860
Critical_ROB_Stalls_Percent_2_Bucket_1: 5423
Non-critical_ROB_Stalls_Percent_2_Bucket_1: 487693
Critical_ROB_Stalls_Percent_2_Bucket_2: 751
Non-critical_ROB_Stalls_Percent_2_Bucket_2: 251273
Critical_ROB_Stalls_Percent_2_Bucket_3: 1070
Non-critical_ROB_Stalls_Percent_2_Bucket_3: 123449
Critical_ROB_Stalls_Percent_2_Bucket_4: 189
Non-critical_ROB_Stalls_Percent_2_Bucket_4: 61680
Critical_ROB_Stalls_Percent_2_Bucket_5: 522
Non-critical_ROB_Stalls_Percent_2_Bucket_5: 38589
Critical_ROB_Stalls_Percent_2_Bucket_6: 5051
Non-critical_ROB_Stalls_Percent_2_Bucket_6: 118274
Critical_ROB_Stalls_Percent_3_Bucket_0: 69721
Non-critical_ROB_Stalls_Percent_3_Bucket_0: 1187860
Critical_ROB_Stalls_Percent_3_Bucket_1: 5423
Non-critical_ROB_Stalls_Percent_3_Bucket_1: 487693
Critical_ROB_Stalls_Percent_3_Bucket_2: 751
Non-critical_ROB_Stalls_Percent_3_Bucket_2: 251273
Critical_ROB_Stalls_Percent_3_Bucket_3: 1070
Non-critical_ROB_Stalls_Percent_3_Bucket_3: 123449
Critical_ROB_Stalls_Percent_3_Bucket_4: 189
Non-critical_ROB_Stalls_Percent_3_Bucket_4: 61680
Critical_ROB_Stalls_Percent_3_Bucket_5: 522
Non-critical_ROB_Stalls_Percent_3_Bucket_5: 38589
Critical_ROB_Stalls_Percent_3_Bucket_6: 5051
Non-critical_ROB_Stalls_Percent_3_Bucket_6: 118274
Critical_ROB_Stalls_Percent_4_Bucket_0: 69721
Non-critical_ROB_Stalls_Percent_4_Bucket_0: 1187860
Critical_ROB_Stalls_Percent_4_Bucket_1: 5423
Non-critical_ROB_Stalls_Percent_4_Bucket_1: 487693
Critical_ROB_Stalls_Percent_4_Bucket_2: 751
Non-critical_ROB_Stalls_Percent_4_Bucket_2: 251273
Critical_ROB_Stalls_Percent_4_Bucket_3: 1070
Non-critical_ROB_Stalls_Percent_4_Bucket_3: 123449
Critical_ROB_Stalls_Percent_4_Bucket_4: 189
Non-critical_ROB_Stalls_Percent_4_Bucket_4: 61680
Critical_ROB_Stalls_Percent_4_Bucket_5: 522
Non-critical_ROB_Stalls_Percent_4_Bucket_5: 38589
Critical_ROB_Stalls_Percent_4_Bucket_6: 5051
Non-critical_ROB_Stalls_Percent_4_Bucket_6: 118274
Critical_ROB_Stalls_Percent_5_Bucket_0: 69721
Non-critical_ROB_Stalls_Percent_5_Bucket_0: 1187860
Critical_ROB_Stalls_Percent_5_Bucket_1: 5423
Non-critical_ROB_Stalls_Percent_5_Bucket_1: 487693
Critical_ROB_Stalls_Percent_5_Bucket_2: 751
Non-critical_ROB_Stalls_Percent_5_Bucket_2: 251273
Critical_ROB_Stalls_Percent_5_Bucket_3: 1070
Non-critical_ROB_Stalls_Percent_5_Bucket_3: 123449
Critical_ROB_Stalls_Percent_5_Bucket_4: 189
Non-critical_ROB_Stalls_Percent_5_Bucket_4: 61680
Critical_ROB_Stalls_Percent_5_Bucket_5: 522
Non-critical_ROB_Stalls_Percent_5_Bucket_5: 38589
Critical_ROB_Stalls_Percent_5_Bucket_6: 5051
Non-critical_ROB_Stalls_Percent_5_Bucket_6: 118274
Critical_ROB_Stalls_Percent_6_Bucket_0: 69721
Non-critical_ROB_Stalls_Percent_6_Bucket_0: 1187860
Critical_ROB_Stalls_Percent_6_Bucket_1: 5423
Non-critical_ROB_Stalls_Percent_6_Bucket_1: 487693
Critical_ROB_Stalls_Percent_6_Bucket_2: 751
Non-critical_ROB_Stalls_Percent_6_Bucket_2: 251273
Critical_ROB_Stalls_Percent_6_Bucket_3: 1070
Non-critical_ROB_Stalls_Percent_6_Bucket_3: 123449
Critical_ROB_Stalls_Percent_6_Bucket_4: 189
Non-critical_ROB_Stalls_Percent_6_Bucket_4: 61680
Critical_ROB_Stalls_Percent_6_Bucket_5: 522
Non-critical_ROB_Stalls_Percent_6_Bucket_5: 38589
Critical_ROB_Stalls_Percent_6_Bucket_6: 5051
Non-critical_ROB_Stalls_Percent_6_Bucket_6: 118274
Critical_ROB_Stalls_Percent_7_Bucket_0: 69721
Non-critical_ROB_Stalls_Percent_7_Bucket_0: 1187860
Critical_ROB_Stalls_Percent_7_Bucket_1: 5423
Non-critical_ROB_Stalls_Percent_7_Bucket_1: 487693
Critical_ROB_Stalls_Percent_7_Bucket_2: 751
Non-critical_ROB_Stalls_Percent_7_Bucket_2: 251273
Critical_ROB_Stalls_Percent_7_Bucket_3: 1070
Non-critical_ROB_Stalls_Percent_7_Bucket_3: 123449
Critical_ROB_Stalls_Percent_7_Bucket_4: 189
Non-critical_ROB_Stalls_Percent_7_Bucket_4: 61680
Critical_ROB_Stalls_Percent_7_Bucket_5: 522
Non-critical_ROB_Stalls_Percent_7_Bucket_5: 38589
Critical_ROB_Stalls_Percent_7_Bucket_6: 5051
Non-critical_ROB_Stalls_Percent_7_Bucket_6: 118274
Critical_ROB_Stalls_Percent_8_Bucket_0: 69721
Non-critical_ROB_Stalls_Percent_8_Bucket_0: 1187860
Critical_ROB_Stalls_Percent_8_Bucket_1: 5423
Non-critical_ROB_Stalls_Percent_8_Bucket_1: 487693
Critical_ROB_Stalls_Percent_8_Bucket_2: 751
Non-critical_ROB_Stalls_Percent_8_Bucket_2: 251273
Critical_ROB_Stalls_Percent_8_Bucket_3: 1070
Non-critical_ROB_Stalls_Percent_8_Bucket_3: 123449
Critical_ROB_Stalls_Percent_8_Bucket_4: 189
Non-critical_ROB_Stalls_Percent_8_Bucket_4: 61680
Critical_ROB_Stalls_Percent_8_Bucket_5: 522
Non-critical_ROB_Stalls_Percent_8_Bucket_5: 38589
Critical_ROB_Stalls_Percent_8_Bucket_6: 5051
Non-critical_ROB_Stalls_Percent_8_Bucket_6: 118274
Average ROB occupancy Load Stall Begin: 68.7229
Average ROB occupancy Load Stall End: 80.8406
Min ROB occupancy Load Stall Begin: 1
Max ROB occupancy Load Stall Begin: 352
Min ROB occupancy Load Stall End: 1
Max ROB occupancy Load Stall End: 352
Average ROB occupancy Critical Load Stall Begin: -nan
Average ROB occupancy Critical Load Stall End: -nan
Min ROB occupancy Critical Load Stall Begin: 400
Max ROB occupancy Critical Load Stall Begin: 0
Min ROB occupancy Critical Load Stall End: 400
Max ROB occupancy Critical Load Stall End: 0
 ROB Load Stall Begin Bucket Count 0: 1474114
 ROB Load Stall End Bucket Count 0: 1257581
 ROB Critical Load Stall Begin Bucket Count 0: 0
 ROB Critical Load Stall End Bucket Count 0: 0
 ROB Load Stall Begin Bucket Count 1: 395963
 ROB Load Stall End Bucket Count 1: 493116
 ROB Critical Load Stall Begin Bucket Count 1: 0
 ROB Critical Load Stall End Bucket Count 1: 0
 ROB Load Stall Begin Bucket Count 2: 202091
 ROB Load Stall End Bucket Count 2: 252024
 ROB Critical Load Stall Begin Bucket Count 2: 0
 ROB Critical Load Stall End Bucket Count 2: 0
 ROB Load Stall Begin Bucket Count 3: 90534
 ROB Load Stall End Bucket Count 3: 124519
 ROB Critical Load Stall Begin Bucket Count 3: 0
 ROB Critical Load Stall End Bucket Count 3: 0
 ROB Load Stall Begin Bucket Count 4: 47128
 ROB Load Stall End Bucket Count 4: 61869
 ROB Critical Load Stall Begin Bucket Count 4: 0
 ROB Critical Load Stall End Bucket Count 4: 0
 ROB Load Stall Begin Bucket Count 5: 35102
 ROB Load Stall End Bucket Count 5: 39111
 ROB Critical Load Stall Begin Bucket Count 5: 0
 ROB Critical Load Stall End Bucket Count 5: 0
 ROB Load Stall Begin Bucket Count 6: 106613
 ROB Load Stall End Bucket Count 6: 123325
 ROB Critical Load Stall Begin Bucket Count 6: 0
 ROB Critical Load Stall End Bucket Count 6: 0
PIST Tag Read Accesses: 0
PIST Read Accesses: 0
PIST Tag Write Accesses: 0
PIST Write Accesses: 0
Criticality detector called times: 0
Max global_stall_cycles_count: 0
Threshold Modified: 0 times, factor: 0
ITLB TOTAL     ACCESS:    8344872  HIT:    8146410  MISS:     198462  HIT %:    97.6217  MISS %:    2.37825   MPKI: 3.96924
ITLB LOAD TRANSLATION ACCESS:    7600824  HIT:    7585128  MISS:      15696  HIT %:    99.7935  MISS %:   0.206504   MPKI: 0.31392
ITLB TRANSLATION FROM L1D PREFETCHER ACCESS:     744048  HIT:     561282  MISS:     182766  HIT %:    75.4363  MISS %:    24.5637   MPKI: 3.65532
ITLB PREFETCH  REQUESTED:          0  ISSUED:          0  USEFUL:     149535  USELESS:      33229
ITLB USEFUL LOAD PREFETCHES:     149535 PREFETCH ISSUED TO LOWER LEVEL:          0  ACCURACY: inf
ITLB TIMELY PREFETCHES:     149535 LATE PREFETCHES: 150 DROPPED PREFETCHES: 15
ITLB PREFETCHES SAME FILL-ORIGIN LEVEL: 0 DIFFERENT FILL-ORIGIN LEVEL: 0
ITLB AVERAGE MISS LATENCY: 44071.3 cycles
ITLB RQ	ACCESS:   11073892	FORWARD:          0	MERGED:    2720318	TO_CACHE:    8353574

DTLB TOTAL     ACCESS:    8979741  HIT:    8688475  MISS:     291266  HIT %:    96.7564  MISS %:    3.24359   MPKI: 5.82532
DTLB LOAD TRANSLATION ACCESS:    8979741  HIT:    8688475  MISS:     291266  HIT %:    96.7564  MISS %:    3.24359   MPKI: 5.82532
DTLB PREFETCH  REQUESTED:          0  ISSUED:          0  USEFUL:          0  USELESS:          0
DTLB USEFUL LOAD PREFETCHES:          0 PREFETCH ISSUED TO LOWER LEVEL:          0  ACCURACY: -nan
DTLB TIMELY PREFETCHES:          0 LATE PREFETCHES: 0 DROPPED PREFETCHES: 0
DTLB PREFETCHES SAME FILL-ORIGIN LEVEL: 0 DIFFERENT FILL-ORIGIN LEVEL: 0
DTLB AVERAGE MISS LATENCY: 18.3162 cycles
DTLB RQ	ACCESS:   10982010	FORWARD:          0	MERGED:    1985204	TO_CACHE:    8996806

STLB TOTAL     ACCESS:     495870  HIT:     470662  MISS:      25208  HIT %:    94.9164  MISS %:    5.08359   MPKI: 0.50416
STLB LOAD TRANSLATION ACCESS:     306812  HIT:     283257  MISS:      23555  HIT %:    92.3227  MISS %:    7.67734   MPKI: 0.4711
STLB TRANSLATION FROM L1D PREFETCHER ACCESS:     189058  HIT:     187405  MISS:       1653  HIT %:    99.1257  MISS %:   0.874335   MPKI: 0.03306
STLB PREFETCH  REQUESTED:          0  ISSUED:          0  USEFUL:       1082  USELESS:        586
STLB USEFUL LOAD PREFETCHES:       1082 PREFETCH ISSUED TO LOWER LEVEL:          0  ACCURACY: inf
STLB TIMELY PREFETCHES:       1082 LATE PREFETCHES: 0 DROPPED PREFETCHES: 15
STLB PREFETCHES SAME FILL-ORIGIN LEVEL: 0 DIFFERENT FILL-ORIGIN LEVEL: 0
STLB AVERAGE MISS LATENCY: 125.862 cycles
STLB RQ	ACCESS:     497500	FORWARD:          0	MERGED:       1615	TO_CACHE:     495885

STLB Hit, L1D data hit: 0
STLB Hit, L2C data hit: 0
STLB Hit, LLC data hit: 0
STLB Hit, LLC data miss: 0
STLB STLB hints to L2: 0
L1D TOTAL     ACCESS:   10813758  HIT:   10308807  MISS:     504951  HIT %:    95.3305  MISS %:    4.66952   MPKI: 10.099
L1D LOAD      ACCESS:    6469538  HIT:    6007592  MISS:     461946  HIT %:    92.8597  MISS %:    7.14032   MPKI: 9.23892
L1D RFO       ACCESS:    4337018  HIT:    4297171  MISS:      39847  HIT %:    99.0812  MISS %:   0.918765   MPKI: 0.79694
L1D PREFETCH  ACCESS:       7202  HIT:       4044  MISS:       3158  HIT %:    56.1511  MISS %:    43.8489   MPKI: 0.06316
L1D PREFETCH  REQUESTED:      15518  ISSUED:      15518  USEFUL:       1167  USELESS:       1993
L1D USEFUL LOAD PREFETCHES:       1167 PREFETCH ISSUED TO LOWER LEVEL:       3439  ACCURACY: 33.9343
L1D TIMELY PREFETCHES:       1167 LATE PREFETCHES: 278 DROPPED PREFETCHES: 0
L1D PREFETCHES SAME FILL-ORIGIN LEVEL: 3439 DIFFERENT FILL-ORIGIN LEVEL: 0
L1D AVERAGE MISS LATENCY: 27044.9 cycles
L1D RQ	ACCESS:   10554903	FORWARD:          0	MERGED:    3924910	TO_CACHE:    6543027
L1D WQ	ACCESS:    4525584	FORWARD:      86970	MERGED:      86601	TO_CACHE:    4438983
L1D PQ	ACCESS:       7761	FORWARD:          0	MERGED:          0	TO_CACHE:       7757

L1D UNIQUE REGIONS ACCESSED: 0
L1D REGIONS CONFLICTS: 0
L1D Cross Page Prefetch Requests: 0
L1D Same Page Prefetch Requests: 23717
L1D ROI Sum of L1D PQ occupancy: 100677
L1D PREFETCHES PUSHED FROM L2C: 0
L1I TOTAL     ACCESS:   11057420  HIT:   10092644  MISS:     964776  HIT %:    91.2749  MISS %:    8.72515   MPKI: 19.2955
L1I LOAD      ACCESS:    9122011  HIT:    9101049  MISS:      20962  HIT %:    99.7702  MISS %:   0.229796   MPKI: 0.41924
L1I PREFETCH  ACCESS:    1935409  HIT:     991595  MISS:     943814  HIT %:    51.2344  MISS %:    48.7656   MPKI: 18.8763
L1I PREFETCH  REQUESTED:    1982148  ISSUED:    1978481  USEFUL:     744620  USELESS:     199204
L1I USEFUL LOAD PREFETCHES:     744620 PREFETCH ISSUED TO LOWER LEVEL:     949918  ACCURACY: 78.3878
L1I TIMELY PREFETCHES:     744620 LATE PREFETCHES: 6104 DROPPED PREFETCHES: 27
L1I PREFETCHES SAME FILL-ORIGIN LEVEL: 949918 DIFFERENT FILL-ORIGIN LEVEL: 0
L1I AVERAGE MISS LATENCY: 351955 cycles
L1I RQ	ACCESS:   13303745	FORWARD:          0	MERGED:    4177609	TO_CACHE:    9126136
L1I PQ	ACCESS:    1978481	FORWARD:          0	MERGED:      30725	TO_CACHE:    1947756

BTB TOTAL     ACCESS:    5652927  HIT:    5410510  MISS:     242417  HIT %:    95.7117  MISS %:    4.28834   MPKI: 4.84834
BTB BRANCH_DIRECT_JUMP	ACCESS:     413829  HIT:     410707  MISS:       3122
BTB BRANCH_INDIRECT	ACCESS:      47058  HIT:      28780  MISS:      18278
BTB BRANCH_CONDITIONAL	ACCESS:    3935184  HIT:    3928918  MISS:       6266
BTB BRANCH_DIRECT_CALL	ACCESS:     536885  HIT:     534001  MISS:       2884
BTB BRANCH_INDIRECT_CALL	ACCESS:      90642  HIT:      74824  MISS:      15818
BTB BRANCH_RETURN	ACCESS:     629329  HIT:     433280  MISS:     196049
BTB BRANCH_OTHER ACCESS:          0  HIT:          0  MISS:          0

L2C TOTAL     ACCESS:    1653850  HIT:    1190046  MISS:     463804  HIT %:    71.9561  MISS %:    28.0439   MPKI: 9.27608
L2C LOAD      ACCESS:     476444  HIT:      92506  MISS:     383938  HIT %:    19.4159  MISS %:    80.5841   MPKI: 7.67876
L2C DATA LOAD MPKI: 7.5555
L2C INSTRUCTION LOAD MPKI: 0.12326
L2C RFO       ACCESS:      39839  HIT:       8973  MISS:      30866  HIT %:    22.5232  MISS %:    77.4768   MPKI: 0.61732
L2C PREFETCH  ACCESS:     953357  HIT:     921061  MISS:      32296  HIT %:    96.6124  MISS %:    3.38761   MPKI: 0.64592
L2C DATA PREFETCH MPKI: 0.05714
L2C INSTRUCTION PREFETCH MPKI: 0.58878
L2C WRITEBACK ACCESS:     156071  HIT:     152289  MISS:       3782  HIT %:    97.5767  MISS %:    2.42326   MPKI: 0.07564
L2C LOAD TRANSLATION ACCESS:      26130  HIT:      14366  MISS:      11764  HIT %:     54.979  MISS %:     45.021   MPKI: 0.23528
L2C TRANSLATION FROM L1D PREFETCHER ACCESS:       2009  HIT:        851  MISS:       1158  HIT %:    42.3594  MISS %:    57.6406   MPKI: 0.02316
L2C PREFETCH  REQUESTED:          0  ISSUED:          0  USEFUL:       2154  USELESS:      32647
L2C USEFUL LOAD PREFETCHES:       2154 PREFETCH ISSUED TO LOWER LEVEL:      32296  ACCURACY: 6.66956
L2C TIMELY PREFETCHES:       2154 LATE PREFETCHES: 0 DROPPED PREFETCHES: 0
L2C PREFETCHES SAME FILL-ORIGIN LEVEL: 0 DIFFERENT FILL-ORIGIN LEVEL: 0
L2C AVERAGE MISS LATENCY: 128.698 cycles
L2C RQ	ACCESS:     544509	FORWARD:          0	MERGED:          0	TO_CACHE:     544422
L2C WQ	ACCESS:     156071	FORWARD:         87	MERGED:          0	TO_CACHE:     156071
L2C PQ	ACCESS:     953357	FORWARD:          0	MERGED:          0	TO_CACHE:     953357

L2C Instructions Evicting Data 29821
L2C Translations Evicting Data 10914
L2C Data Evicting Data 369264
L2C Instructions Evicting Instructions 4548
L2C Translations Evicting Instructions 1500
L2C Data Evicting Instructions 30982
L2C Instructions Evicting Translations 1233
L2C Translations Evicting Translations 508
L2C Data Evicting Translations 11252
L2C Dense regions hint from L2: 0
PSCL5 TOTAL     ACCESS:      25223  HIT:      25223  MISS:          0  HIT %:        100  MISS %:          0   MPKI: 0
PSCL5 LOAD TRANSLATION ACCESS:      23555  HIT:      23555  MISS:          0  HIT %:        100  MISS %:          0   MPKI: 0
PSCL5 TRANSLATION FROM L1D PREFETCHER ACCESS:       1668  HIT:       1668  MISS:          0  HIT %:        100  MISS %:          0   MPKI: 0
PSCL5 PREFETCH  REQUESTED:          0  ISSUED:          0  USEFUL:          0  USELESS:          0
PSCL5 USEFUL LOAD PREFETCHES:          0 PREFETCH ISSUED TO LOWER LEVEL:          0  ACCURACY: -nan
PSCL5 TIMELY PREFETCHES:          0 LATE PREFETCHES: 0 DROPPED PREFETCHES: 0
PSCL5 PREFETCHES SAME FILL-ORIGIN LEVEL: 0 DIFFERENT FILL-ORIGIN LEVEL: 0

PSCL4 TOTAL     ACCESS:      22831  HIT:      22801  MISS:         30  HIT %:    99.8686  MISS %:     0.1314   MPKI: 0.0006
PSCL4 LOAD TRANSLATION ACCESS:      21214  HIT:      21184  MISS:         30  HIT %:    99.8586  MISS %:   0.141416   MPKI: 0.0006
PSCL4 TRANSLATION FROM L1D PREFETCHER ACCESS:       1617  HIT:       1617  MISS:          0  HIT %:        100  MISS %:          0   MPKI: 0
PSCL4 PREFETCH  REQUESTED:          0  ISSUED:          0  USEFUL:          0  USELESS:          0
PSCL4 USEFUL LOAD PREFETCHES:          0 PREFETCH ISSUED TO LOWER LEVEL:          0  ACCURACY: -nan
PSCL4 TIMELY PREFETCHES:          0 LATE PREFETCHES: 0 DROPPED PREFETCHES: 0
PSCL4 PREFETCHES SAME FILL-ORIGIN LEVEL: 0 DIFFERENT FILL-ORIGIN LEVEL: 0

PSCL3 TOTAL     ACCESS:      25149  HIT:      25061  MISS:         88  HIT %:    99.6501  MISS %:   0.349915   MPKI: 0.00176
PSCL3 LOAD TRANSLATION ACCESS:      23531  HIT:      23443  MISS:         88  HIT %:     99.626  MISS %:   0.373975   MPKI: 0.00176
PSCL3 TRANSLATION FROM L1D PREFETCHER ACCESS:       1618  HIT:       1618  MISS:          0  HIT %:        100  MISS %:          0   MPKI: 0
PSCL3 PREFETCH  REQUESTED:          0  ISSUED:          0  USEFUL:          0  USELESS:          0
PSCL3 USEFUL LOAD PREFETCHES:          0 PREFETCH ISSUED TO LOWER LEVEL:          0  ACCURACY: -nan
PSCL3 TIMELY PREFETCHES:          0 LATE PREFETCHES: 0 DROPPED PREFETCHES: 0
PSCL3 PREFETCHES SAME FILL-ORIGIN LEVEL: 0 DIFFERENT FILL-ORIGIN LEVEL: 0

PSCL2 TOTAL     ACCESS:      25221  HIT:      22404  MISS:       2817  HIT %:    88.8307  MISS %:    11.1693   MPKI: 0.05634
PSCL2 LOAD TRANSLATION ACCESS:      23868  HIT:      21051  MISS:       2817  HIT %:    88.1976  MISS %:    11.8024   MPKI: 0.05634
PSCL2 TRANSLATION FROM L1D PREFETCHER ACCESS:       1353  HIT:       1353  MISS:          0  HIT %:        100  MISS %:          0   MPKI: 0
PSCL2 PREFETCH  REQUESTED:          0  ISSUED:          0  USEFUL:          0  USELESS:          0
PSCL2 USEFUL LOAD PREFETCHES:          0 PREFETCH ISSUED TO LOWER LEVEL:          0  ACCURACY: -nan
PSCL2 TIMELY PREFETCHES:          0 LATE PREFETCHES: 0 DROPPED PREFETCHES: 0
PSCL2 PREFETCHES SAME FILL-ORIGIN LEVEL: 0 DIFFERENT FILL-ORIGIN LEVEL: 0

LLC TOTAL     ACCESS:     584504  HIT:     307262  MISS:     277242  HIT %:     52.568  MISS %:     47.432   MPKI: 5.54484
LLC LOAD      ACCESS:     383938  HIT:     169144  MISS:     214794  HIT %:     44.055  MISS %:     55.945   MPKI: 4.29588
LLC RFO       ACCESS:      30866  HIT:       2163  MISS:      28703  HIT %:    7.00771  MISS %:    92.9923   MPKI: 0.57406
LLC PREFETCH  ACCESS:      32296  HIT:      13452  MISS:      18844  HIT %:    41.6522  MISS %:    58.3478   MPKI: 0.37688
LLC WRITEBACK ACCESS:     124482  HIT:     116638  MISS:       7844  HIT %:    93.6987  MISS %:    6.30131   MPKI: 0.15688
LLC LOAD TRANSLATION ACCESS:      11764  HIT:       5286  MISS:       6478  HIT %:    44.9337  MISS %:    55.0663   MPKI: 0.12956
LLC TRANSLATION FROM L1D PREFETCHER ACCESS:       1158  HIT:        579  MISS:        579  HIT %:         50  MISS %:         50   MPKI: 0.01158
LLC PREFETCH  REQUESTED:          0  ISSUED:          0  USEFUL:        783  USELESS:      19735
LLC USEFUL LOAD PREFETCHES:        783 PREFETCH ISSUED TO LOWER LEVEL:      18844  ACCURACY: 4.15517
LLC TIMELY PREFETCHES:        783 LATE PREFETCHES: 0 DROPPED PREFETCHES: 0
LLC PREFETCHES SAME FILL-ORIGIN LEVEL: 0 DIFFERENT FILL-ORIGIN LEVEL: 0
LLC AVERAGE MISS LATENCY: 165.357 cycles
LLC RQ	ACCESS:     427726	FORWARD:          0	MERGED:          0	TO_CACHE:     427726
LLC WQ	ACCESS:     124482	FORWARD:          0	MERGED:          0	TO_CACHE:     124482
LLC PQ	ACCESS:      32296	FORWARD:          0	MERGED:          0	TO_CACHE:      32296

LLC Dense regions hint to LLC: 0

RAW hits: 1020666
Loads Generated: 11575568
Loads sent to L1D: 10554903
Stores Generated: 4525581
Stores sent to L1D: 4525584
Major fault: 0 Minor fault: 10830
Allocated PAGES: 10830
I-Shadow cache 408 bytes
Touched + WorthPF tables 6144 bytes 
MMA filter 174 bytes 
FNL filter 272 bytes 
TOTAL PREFETCHER STORAGE SIZE: 25174 bytes
CPU 0 L1I next line prefetcher final stats

stream: 
stream:times selected: 20774
stream:pref_filled: 9038
stream:pref_useful: 4107
stream:pref_late: 1030
stream:misses: 560
stream:misses_by_poll: 0

CS: 
CS:times selected: 2330
CS:pref_filled: 2925
CS:pref_useful: 2875
CS:pref_late: 43
CS:misses: 828
CS:misses_by_poll: 0

CPLX: 
CPLX:times selected: 18086
CPLX:pref_filled: 3504
CPLX:pref_useful: 2423
CPLX:pref_late: 59
CPLX:misses: 2907
CPLX:misses_by_poll: 0

NL_L1: 
NL:times selected: 153
NL:pref_filled: 62
NL:pref_useful: 26
NL:pref_late: 6
NL:misses: 17
NL:misses_by_poll: 0

total selections: 41343
total_filled: 3158
total_useful: 1167
total_late: 1144
total_polluted: 0
total_misses_after_warmup: 10489
conflicts: 45825
Degree Incremented Times: 318
Degree Decremented Times: 27

L1 IP Table Write Accesses: 66628
L1 IP Table Read Accesses: 20803
L1 RST Write Accesses: 7919
L1 RST Read Accesses: 15838
L1 CSPT Write Accesses: 7919
L1 CSPT Read Accesses: 27604
L1 RR Filter Tag Write Accesses: 7761
L1 RR Filter Tag Read Accesses: 302978
L1 IP Table Tag Write Accesses: 118074
L1 IP Table Tag Read Accesses: 118074
L1 RST Tag Write Accesses: 0
L1 RST Tag Read Accesses: 73273
L1 RR Filter Write Accesses: 0
L1 RR Filter Read Accesses: 10126
test: 6431

DRAM Statistics
 CHANNEL 0
 RQ ROW_BUFFER_HIT:      55890  ROW_BUFFER_MISS:     213507
 DBUS_CONGESTED:        145
 WQ ROW_BUFFER_HIT:      27562  ROW_BUFFER_MISS:      86568  FULL:          0

 AVG_CONGESTED_CYCLE: 4
 All warmup complete: 2
Channel 0 Bank busy for read cycles: 0
Channel 0 Bank busy for write cycles: 0
Channel 0
Rank 0
0banks busy for read cycles: 43765103
0banks busy for write cycles: 39122
1banks busy for read cycles: 14456772
1banks busy for write cycles: 5841784
2banks busy for read cycles: 4450073
2banks busy for write cycles: 2192210
3banks busy for read cycles: 1564976
3banks busy for write cycles: 1043379
4banks busy for read cycles: 487670
4banks busy for write cycles: 537824
5banks busy for read cycles: 198874
5banks busy for write cycles: 291676
6banks busy for read cycles: 156231
6banks busy for write cycles: 207538
7banks busy for read cycles: 104770
7banks busy for write cycles: 225295
8banks busy for read cycles: 273143
8banks busy for write cycles: 793785

CPU 0 Branch Prediction Accuracy: 98.1683% MPKI: 3.13642 Average ROB Occupancy at Mispredict: 70.1782
Branch types
NOT_BRANCH: 41438057 82.8761%
BRANCH_DIRECT_JUMP: 413829 0.827658%
BRANCH_INDIRECT: 47058 0.094116%
BRANCH_CONDITIONAL: 6843835 13.6877%
BRANCH_DIRECT_CALL: 536885 1.07377%
BRANCH_INDIRECT_CALL: 90642 0.181284%
BRANCH_RETURN: 629329 1.25866%
BRANCH_OTHER: 0 0%

DRAM PAGES: 1048576
Allocated PAGES: 10830
