
*** ChampSim Multicore Out-of-Order Simulator ***

Warmup Instructions: 50000000
Simulation Instructions: 50000000
Number of CPUs: 1
LLC sets: 2048
LLC ways: 16
Off-chip DRAM Size: 4096 MB Channels: 1 Width: 64-bit Data Rate: 6400 MT/s
CPU 0 runs ../IPC-traces//client_005.champsimtrace.xz
.xz
BTB has LRU replacement policy
ITLB has LRU replacement policy
DTLB has LRU replacement policy
STLB has LRU replacement policy
CPU 0 L1I next line prefetcher
L1I has LRU replacement policy
IP Table Entries: 64
L1D has LRU replacement policy
Initialize SRRIP state for L2C
Initialize DRRIP state for LLC
Heartbeat CPU 0 instructions: 10000001 cycles: 2800269 heartbeat IPC: 3.57109 cumulative IPC: 3.57109 (Simulation time: 0 hr 2 min 58 sec) 
Heartbeat CPU 0 instructions: 20000002 cycles: 5594228 heartbeat IPC: 3.57915 cumulative IPC: 3.57511 (Simulation time: 0 hr 5 min 30 sec) 
Heartbeat CPU 0 instructions: 30000001 cycles: 8442959 heartbeat IPC: 3.51033 cumulative IPC: 3.55326 (Simulation time: 0 hr 8 min 7 sec) 
Heartbeat CPU 0 instructions: 40000000 cycles: 11289574 heartbeat IPC: 3.51294 cumulative IPC: 3.54309 (Simulation time: 0 hr 10 min 28 sec) 
Heartbeat CPU 0 instructions: 50000001 cycles: 14062275 heartbeat IPC: 3.60659 cumulative IPC: 3.55561 (Simulation time: 0 hr 12 min 27 sec) 

Warmup complete CPU 0 instructions: 50000001 cycles: 14062275 (Simulation time: 0 hr 12 min 27 sec) 

Heartbeat CPU 0 instructions: 60000001 cycles: 29847072 heartbeat IPC: 0.633521 cumulative IPC: 0.633521 (Simulation time: 0 hr 14 min 58 sec) 
Heartbeat CPU 0 instructions: 70000002 cycles: 44121275 heartbeat IPC: 0.700565 cumulative IPC: 0.665358 (Simulation time: 0 hr 17 min 26 sec) 
Heartbeat CPU 0 instructions: 80000003 cycles: 57219200 heartbeat IPC: 0.76348 cumulative IPC: 0.695138 (Simulation time: 0 hr 20 min 3 sec) 
Heartbeat CPU 0 instructions: 90000002 cycles: 72779484 heartbeat IPC: 0.642662 cumulative IPC: 0.681231 (Simulation time: 0 hr 22 min 47 sec) 
Heartbeat CPU 0 instructions: 100000002 cycles: 87913801 heartbeat IPC: 0.66075 cumulative IPC: 0.677034 (Simulation time: 0 hr 24 min 57 sec) 
Finished CPU 0 instructions: 50000001 cycles: 73851526 cumulative IPC: 0.677034 (Simulation time: 0 hr 24 min 57 sec) 

ChampSim completed all CPUs

Region of Interest Statistics

CPU 0 cumulative IPC: 0.677034 instructions: 50000001 cycles: 73851526

CPU 0 Average Load ROB stall cycles: 1.72151e+07
CPU 0 Fraction of times ROB stalled by Loads: 34.3474
CPU 0 Percentage of Load stall cycles in Total stall cycles: 2.43007e+08
Issued all: 27118255
Issued LT all: 21411427
rob_not_full_when_issued_lt_all: 20380165
Issued LT one: 16167676
rob_not_full_when_issued_lt_one: 15246229
FVP critical_dynamic_instances_0: 2108282
FVP unique_critical_ips_0: 16328
 Total stall cycles: 60202022
 Total load stall cycles: 146294844042597
Unique Load IPs: 41101
CPU 0 NUM of IPS identified critical: 0
CPU 0 Num of Load IPs stalling ROB: 0
Threshold modification factor: 0
Trouble in retire width: -nan
MaC = Marked as critical.
lt_50_percent_before_Mac: 0
gt_90_percent_before_Mac: 0
gt_75_percent_before_Mac: 0
gt_50_percent_before_Mac: 0
stall_proportion_bin_same_before_after: 0
stall_proportion_bin_lower_before_after: 0
stall_proportion_bin_upper_before_after: 0
average_stall_proportion_before: -nan
average_stall_proportion_after: -nan
Critical IP stalls, total frequency: 0
Non-critical IP stalls, total frequency: 0
Total Freq all stalling IPs: 0
Critical_IP_Detector_Accuracy_70: 6.12445e-05
Critical_IP_Detector_Accuracy_80: 6.12445e-05
Critical_IP_Detector_Accuracy_90: 6.12445e-05
Critical_IP_Detector_Coverage_70: 1
Critical_IP_Detector_Coverage_80: 1
Critical_IP_Detector_Coverage_90: 1
stat_90_percent_critical_ip_stalls_freq: 46661
stat_90_percent_non_critical_ip_stalls_freq: 18446744073709504955
AVERAGE_ROB_Occupancy_90_Percent_Critical_IP_Stalls: 78.4713
AVERAGE_ROB_Occupancy_90_Percent_Non_Critical_IP_Stalls: 1.06424e-11
Critical_IP_ROB_Stalls_Bucket_0: 0
Non-critical_IP_ROB_Stalls_Bucket_0: 1450981
Critical_IP_ROB_Stalls_Bucket_1: 0
Non-critical_IP_ROB_Stalls_Bucket_1: 833831
Critical_IP_ROB_Stalls_Bucket_2: 0
Non-critical_IP_ROB_Stalls_Bucket_2: 378821
Critical_IP_ROB_Stalls_Bucket_3: 0
Non-critical_IP_ROB_Stalls_Bucket_3: 135557
Critical_IP_ROB_Stalls_Bucket_4: 0
Non-critical_IP_ROB_Stalls_Bucket_4: 49929
Critical_IP_ROB_Stalls_Bucket_5: 0
Non-critical_IP_ROB_Stalls_Bucket_5: 29046
Critical_IP_ROB_Stalls_Bucket_6: 0
Non-critical_IP_ROB_Stalls_Bucket_6: 40685
0 => IPs accounting for >50 percent of stalls, 1 => 55, 2 => 60, 3 => 65 and so on till 90.
percent50: inf num IPs:  1
percent55: inf num IPs: 1
percent60: inf num IPs: 1
percent65: inf num IPs: 1
percent70: inf num IPs: 1
percent75: inf num IPs: 1
percent80: inf num IPs: 1
percent85: inf num IPs: 1
percent90: inf num IPs: 1
Critical_ROB_Stalls_Percent_0_Bucket_0: 17593
Non-critical_ROB_Stalls_Percent_0_Bucket_0: 1433388
Critical_ROB_Stalls_Percent_0_Bucket_1: 16649
Non-critical_ROB_Stalls_Percent_0_Bucket_1: 817182
Critical_ROB_Stalls_Percent_0_Bucket_2: 7181
Non-critical_ROB_Stalls_Percent_0_Bucket_2: 371640
Critical_ROB_Stalls_Percent_0_Bucket_3: 3430
Non-critical_ROB_Stalls_Percent_0_Bucket_3: 132127
Critical_ROB_Stalls_Percent_0_Bucket_4: 1236
Non-critical_ROB_Stalls_Percent_0_Bucket_4: 48693
Critical_ROB_Stalls_Percent_0_Bucket_5: 283
Non-critical_ROB_Stalls_Percent_0_Bucket_5: 28763
Critical_ROB_Stalls_Percent_0_Bucket_6: 289
Non-critical_ROB_Stalls_Percent_0_Bucket_6: 40396
Critical_ROB_Stalls_Percent_1_Bucket_0: 17593
Non-critical_ROB_Stalls_Percent_1_Bucket_0: 1433388
Critical_ROB_Stalls_Percent_1_Bucket_1: 16649
Non-critical_ROB_Stalls_Percent_1_Bucket_1: 817182
Critical_ROB_Stalls_Percent_1_Bucket_2: 7181
Non-critical_ROB_Stalls_Percent_1_Bucket_2: 371640
Critical_ROB_Stalls_Percent_1_Bucket_3: 3430
Non-critical_ROB_Stalls_Percent_1_Bucket_3: 132127
Critical_ROB_Stalls_Percent_1_Bucket_4: 1236
Non-critical_ROB_Stalls_Percent_1_Bucket_4: 48693
Critical_ROB_Stalls_Percent_1_Bucket_5: 283
Non-critical_ROB_Stalls_Percent_1_Bucket_5: 28763
Critical_ROB_Stalls_Percent_1_Bucket_6: 289
Non-critical_ROB_Stalls_Percent_1_Bucket_6: 40396
Critical_ROB_Stalls_Percent_2_Bucket_0: 17593
Non-critical_ROB_Stalls_Percent_2_Bucket_0: 1433388
Critical_ROB_Stalls_Percent_2_Bucket_1: 16649
Non-critical_ROB_Stalls_Percent_2_Bucket_1: 817182
Critical_ROB_Stalls_Percent_2_Bucket_2: 7181
Non-critical_ROB_Stalls_Percent_2_Bucket_2: 371640
Critical_ROB_Stalls_Percent_2_Bucket_3: 3430
Non-critical_ROB_Stalls_Percent_2_Bucket_3: 132127
Critical_ROB_Stalls_Percent_2_Bucket_4: 1236
Non-critical_ROB_Stalls_Percent_2_Bucket_4: 48693
Critical_ROB_Stalls_Percent_2_Bucket_5: 283
Non-critical_ROB_Stalls_Percent_2_Bucket_5: 28763
Critical_ROB_Stalls_Percent_2_Bucket_6: 289
Non-critical_ROB_Stalls_Percent_2_Bucket_6: 40396
Critical_ROB_Stalls_Percent_3_Bucket_0: 17593
Non-critical_ROB_Stalls_Percent_3_Bucket_0: 1433388
Critical_ROB_Stalls_Percent_3_Bucket_1: 16649
Non-critical_ROB_Stalls_Percent_3_Bucket_1: 817182
Critical_ROB_Stalls_Percent_3_Bucket_2: 7181
Non-critical_ROB_Stalls_Percent_3_Bucket_2: 371640
Critical_ROB_Stalls_Percent_3_Bucket_3: 3430
Non-critical_ROB_Stalls_Percent_3_Bucket_3: 132127
Critical_ROB_Stalls_Percent_3_Bucket_4: 1236
Non-critical_ROB_Stalls_Percent_3_Bucket_4: 48693
Critical_ROB_Stalls_Percent_3_Bucket_5: 283
Non-critical_ROB_Stalls_Percent_3_Bucket_5: 28763
Critical_ROB_Stalls_Percent_3_Bucket_6: 289
Non-critical_ROB_Stalls_Percent_3_Bucket_6: 40396
Critical_ROB_Stalls_Percent_4_Bucket_0: 17593
Non-critical_ROB_Stalls_Percent_4_Bucket_0: 1433388
Critical_ROB_Stalls_Percent_4_Bucket_1: 16649
Non-critical_ROB_Stalls_Percent_4_Bucket_1: 817182
Critical_ROB_Stalls_Percent_4_Bucket_2: 7181
Non-critical_ROB_Stalls_Percent_4_Bucket_2: 371640
Critical_ROB_Stalls_Percent_4_Bucket_3: 3430
Non-critical_ROB_Stalls_Percent_4_Bucket_3: 132127
Critical_ROB_Stalls_Percent_4_Bucket_4: 1236
Non-critical_ROB_Stalls_Percent_4_Bucket_4: 48693
Critical_ROB_Stalls_Percent_4_Bucket_5: 283
Non-critical_ROB_Stalls_Percent_4_Bucket_5: 28763
Critical_ROB_Stalls_Percent_4_Bucket_6: 289
Non-critical_ROB_Stalls_Percent_4_Bucket_6: 40396
Critical_ROB_Stalls_Percent_5_Bucket_0: 17593
Non-critical_ROB_Stalls_Percent_5_Bucket_0: 1433388
Critical_ROB_Stalls_Percent_5_Bucket_1: 16649
Non-critical_ROB_Stalls_Percent_5_Bucket_1: 817182
Critical_ROB_Stalls_Percent_5_Bucket_2: 7181
Non-critical_ROB_Stalls_Percent_5_Bucket_2: 371640
Critical_ROB_Stalls_Percent_5_Bucket_3: 3430
Non-critical_ROB_Stalls_Percent_5_Bucket_3: 132127
Critical_ROB_Stalls_Percent_5_Bucket_4: 1236
Non-critical_ROB_Stalls_Percent_5_Bucket_4: 48693
Critical_ROB_Stalls_Percent_5_Bucket_5: 283
Non-critical_ROB_Stalls_Percent_5_Bucket_5: 28763
Critical_ROB_Stalls_Percent_5_Bucket_6: 289
Non-critical_ROB_Stalls_Percent_5_Bucket_6: 40396
Critical_ROB_Stalls_Percent_6_Bucket_0: 17593
Non-critical_ROB_Stalls_Percent_6_Bucket_0: 1433388
Critical_ROB_Stalls_Percent_6_Bucket_1: 16649
Non-critical_ROB_Stalls_Percent_6_Bucket_1: 817182
Critical_ROB_Stalls_Percent_6_Bucket_2: 7181
Non-critical_ROB_Stalls_Percent_6_Bucket_2: 371640
Critical_ROB_Stalls_Percent_6_Bucket_3: 3430
Non-critical_ROB_Stalls_Percent_6_Bucket_3: 132127
Critical_ROB_Stalls_Percent_6_Bucket_4: 1236
Non-critical_ROB_Stalls_Percent_6_Bucket_4: 48693
Critical_ROB_Stalls_Percent_6_Bucket_5: 283
Non-critical_ROB_Stalls_Percent_6_Bucket_5: 28763
Critical_ROB_Stalls_Percent_6_Bucket_6: 289
Non-critical_ROB_Stalls_Percent_6_Bucket_6: 40396
Critical_ROB_Stalls_Percent_7_Bucket_0: 17593
Non-critical_ROB_Stalls_Percent_7_Bucket_0: 1433388
Critical_ROB_Stalls_Percent_7_Bucket_1: 16649
Non-critical_ROB_Stalls_Percent_7_Bucket_1: 817182
Critical_ROB_Stalls_Percent_7_Bucket_2: 7181
Non-critical_ROB_Stalls_Percent_7_Bucket_2: 371640
Critical_ROB_Stalls_Percent_7_Bucket_3: 3430
Non-critical_ROB_Stalls_Percent_7_Bucket_3: 132127
Critical_ROB_Stalls_Percent_7_Bucket_4: 1236
Non-critical_ROB_Stalls_Percent_7_Bucket_4: 48693
Critical_ROB_Stalls_Percent_7_Bucket_5: 283
Non-critical_ROB_Stalls_Percent_7_Bucket_5: 28763
Critical_ROB_Stalls_Percent_7_Bucket_6: 289
Non-critical_ROB_Stalls_Percent_7_Bucket_6: 40396
Critical_ROB_Stalls_Percent_8_Bucket_0: 17593
Non-critical_ROB_Stalls_Percent_8_Bucket_0: 1433388
Critical_ROB_Stalls_Percent_8_Bucket_1: 16649
Non-critical_ROB_Stalls_Percent_8_Bucket_1: 817182
Critical_ROB_Stalls_Percent_8_Bucket_2: 7181
Non-critical_ROB_Stalls_Percent_8_Bucket_2: 371640
Critical_ROB_Stalls_Percent_8_Bucket_3: 3430
Non-critical_ROB_Stalls_Percent_8_Bucket_3: 132127
Critical_ROB_Stalls_Percent_8_Bucket_4: 1236
Non-critical_ROB_Stalls_Percent_8_Bucket_4: 48693
Critical_ROB_Stalls_Percent_8_Bucket_5: 283
Non-critical_ROB_Stalls_Percent_8_Bucket_5: 28763
Critical_ROB_Stalls_Percent_8_Bucket_6: 289
Non-critical_ROB_Stalls_Percent_8_Bucket_6: 40396
Average ROB occupancy Load Stall Begin: 58.9741
Average ROB occupancy Load Stall End: 68.5128
Min ROB occupancy Load Stall Begin: 1
Max ROB occupancy Load Stall Begin: 352
Min ROB occupancy Load Stall End: 1
Max ROB occupancy Load Stall End: 352
Average ROB occupancy Critical Load Stall Begin: -nan
Average ROB occupancy Critical Load Stall End: -nan
Min ROB occupancy Critical Load Stall Begin: 400
Max ROB occupancy Critical Load Stall Begin: 0
Min ROB occupancy Critical Load Stall End: 400
Max ROB occupancy Critical Load Stall End: 0
 ROB Load Stall Begin Bucket Count 0: 1707356
 ROB Load Stall End Bucket Count 0: 1450981
 ROB Critical Load Stall Begin Bucket Count 0: 0
 ROB Critical Load Stall End Bucket Count 0: 0
 ROB Load Stall Begin Bucket Count 1: 700952
 ROB Load Stall End Bucket Count 1: 833831
 ROB Critical Load Stall Begin Bucket Count 1: 0
 ROB Critical Load Stall End Bucket Count 1: 0
 ROB Load Stall Begin Bucket Count 2: 307474
 ROB Load Stall End Bucket Count 2: 378821
 ROB Critical Load Stall Begin Bucket Count 2: 0
 ROB Critical Load Stall End Bucket Count 2: 0
 ROB Load Stall Begin Bucket Count 3: 103185
 ROB Load Stall End Bucket Count 3: 135557
 ROB Critical Load Stall Begin Bucket Count 3: 0
 ROB Critical Load Stall End Bucket Count 3: 0
 ROB Load Stall Begin Bucket Count 4: 39088
 ROB Load Stall End Bucket Count 4: 49929
 ROB Critical Load Stall Begin Bucket Count 4: 0
 ROB Critical Load Stall End Bucket Count 4: 0
 ROB Load Stall Begin Bucket Count 5: 25952
 ROB Load Stall End Bucket Count 5: 29046
 ROB Critical Load Stall Begin Bucket Count 5: 0
 ROB Critical Load Stall End Bucket Count 5: 0
 ROB Load Stall Begin Bucket Count 6: 34843
 ROB Load Stall End Bucket Count 6: 40685
 ROB Critical Load Stall Begin Bucket Count 6: 0
 ROB Critical Load Stall End Bucket Count 6: 0
PIST Tag Read Accesses: 0
PIST Read Accesses: 0
PIST Tag Write Accesses: 0
PIST Write Accesses: 0
Criticality detector called times: 0
Max global_stall_cycles_count: 0
Threshold Modified: 0 times, factor: 0
ITLB TOTAL     ACCESS:    9250864  HIT:    9130652  MISS:     120212  HIT %:    98.7005  MISS %:    1.29947   MPKI: 2.40424
ITLB LOAD TRANSLATION ACCESS:    8275679  HIT:    8216694  MISS:      58985  HIT %:    99.2872  MISS %:   0.712751   MPKI: 1.1797
ITLB TRANSLATION FROM L1D PREFETCHER ACCESS:     975185  HIT:     913958  MISS:      61227  HIT %:    93.7215  MISS %:     6.2785   MPKI: 1.22454
ITLB PREFETCH  REQUESTED:          0  ISSUED:          0  USEFUL:      48888  USELESS:      12339
ITLB USEFUL LOAD PREFETCHES:      48888 PREFETCH ISSUED TO LOWER LEVEL:          0  ACCURACY: inf
ITLB TIMELY PREFETCHES:      48888 LATE PREFETCHES: 322 DROPPED PREFETCHES: 342
ITLB PREFETCHES SAME FILL-ORIGIN LEVEL: 0 DIFFERENT FILL-ORIGIN LEVEL: 0
ITLB AVERAGE MISS LATENCY: 134109 cycles
ITLB RQ	ACCESS:   12557441	FORWARD:          0	MERGED:    3286296	TO_CACHE:    9271145

DTLB TOTAL     ACCESS:   10417247  HIT:   10215628  MISS:     201619  HIT %:    98.0646  MISS %:    1.93543   MPKI: 4.03238
DTLB LOAD TRANSLATION ACCESS:   10417247  HIT:   10215628  MISS:     201619  HIT %:    98.0646  MISS %:    1.93543   MPKI: 4.03238
DTLB PREFETCH  REQUESTED:          0  ISSUED:          0  USEFUL:          0  USELESS:          0
DTLB USEFUL LOAD PREFETCHES:          0 PREFETCH ISSUED TO LOWER LEVEL:          0  ACCURACY: -nan
DTLB TIMELY PREFETCHES:          0 LATE PREFETCHES: 0 DROPPED PREFETCHES: 0
DTLB PREFETCHES SAME FILL-ORIGIN LEVEL: 0 DIFFERENT FILL-ORIGIN LEVEL: 0
DTLB AVERAGE MISS LATENCY: 12.9111 cycles
DTLB RQ	ACCESS:   14357610	FORWARD:          0	MERGED:    3909245	TO_CACHE:   10448365

STLB TOTAL     ACCESS:     461144  HIT:     449225  MISS:      11919  HIT %:    97.4153  MISS %:    2.58466   MPKI: 0.23838
STLB LOAD TRANSLATION ACCESS:     260284  HIT:     249196  MISS:      11088  HIT %:      95.74  MISS %:    4.25996   MPKI: 0.22176
STLB TRANSLATION FROM L1D PREFETCHER ACCESS:     200860  HIT:     200029  MISS:        831  HIT %:    99.5863  MISS %:   0.413721   MPKI: 0.01662
STLB PREFETCH  REQUESTED:          0  ISSUED:          0  USEFUL:        571  USELESS:        252
STLB USEFUL LOAD PREFETCHES:        571 PREFETCH ISSUED TO LOWER LEVEL:          0  ACCURACY: inf
STLB TIMELY PREFETCHES:        571 LATE PREFETCHES: 0 DROPPED PREFETCHES: 344
STLB PREFETCHES SAME FILL-ORIGIN LEVEL: 0 DIFFERENT FILL-ORIGIN LEVEL: 0
STLB AVERAGE MISS LATENCY: 79.9338 cycles
STLB RQ	ACCESS:     489902	FORWARD:          0	MERGED:      28414	TO_CACHE:     461488

STLB Hit, L1D data hit: 0
STLB Hit, L2C data hit: 0
STLB Hit, LLC data hit: 0
STLB Hit, LLC data miss: 0
STLB STLB hints to L2: 0
L1D TOTAL     ACCESS:   14028716  HIT:   13597813  MISS:     430903  HIT %:    96.9284  MISS %:    3.07158   MPKI: 8.61806
L1D LOAD      ACCESS:    7068693  HIT:    6894656  MISS:     174037  HIT %:    97.5379  MISS %:    2.46208   MPKI: 3.48074
L1D RFO       ACCESS:    6798081  HIT:    6602728  MISS:     195353  HIT %:    97.1264  MISS %:    2.87365   MPKI: 3.90706
L1D PREFETCH  ACCESS:     161942  HIT:     100429  MISS:      61513  HIT %:    62.0154  MISS %:    37.9846   MPKI: 1.23026
L1D PREFETCH  REQUESTED:     335667  ISSUED:     335667  USEFUL:      23666  USELESS:      37798
L1D USEFUL LOAD PREFETCHES:      23666 PREFETCH ISSUED TO LOWER LEVEL:      64189  ACCURACY: 36.8692
L1D TIMELY PREFETCHES:      23666 LATE PREFETCHES: 2360 DROPPED PREFETCHES: 0
L1D PREFETCHES SAME FILL-ORIGIN LEVEL: 64189 DIFFERENT FILL-ORIGIN LEVEL: 0
L1D AVERAGE MISS LATENCY: 336535 cycles
L1D RQ	ACCESS:   10975501	FORWARD:          0	MERGED:    3725808	TO_CACHE:    7096555
L1D WQ	ACCESS:    7412318	FORWARD:     153351	MERGED:     151263	TO_CACHE:    7261055
L1D PQ	ACCESS:     167940	FORWARD:          0	MERGED:          0	TO_CACHE:     167727

L1D UNIQUE REGIONS ACCESSED: 0
L1D REGIONS CONFLICTS: 0
L1D Cross Page Prefetch Requests: 0
L1D Same Page Prefetch Requests: 176695
L1D ROI Sum of L1D PQ occupancy: 2217922
L1D PREFETCHES PUSHED FROM L2C: 0
L1I TOTAL     ACCESS:   12422644  HIT:   11352050  MISS:    1070594  HIT %:    91.3819  MISS %:    8.61808   MPKI: 21.4119
L1I LOAD      ACCESS:    9748813  HIT:    9479440  MISS:     269373  HIT %:    97.2369  MISS %:    2.76314   MPKI: 5.38746
L1I PREFETCH  ACCESS:    2673831  HIT:    1872610  MISS:     801221  HIT %:    70.0347  MISS %:    29.9653   MPKI: 16.0244
L1I PREFETCH  REQUESTED:    2924796  ISSUED:    2921892  USEFUL:     511406  USELESS:     289773
L1I USEFUL LOAD PREFETCHES:     511406 PREFETCH ISSUED TO LOWER LEVEL:     830060  ACCURACY: 61.6107
L1I TIMELY PREFETCHES:     511406 LATE PREFETCHES: 28839 DROPPED PREFETCHES: 716
L1I PREFETCHES SAME FILL-ORIGIN LEVEL: 830060 DIFFERENT FILL-ORIGIN LEVEL: 0
L1I AVERAGE MISS LATENCY: 1.27779e+06 cycles
L1I RQ	ACCESS:   14560660	FORWARD:          0	MERGED:    4775178	TO_CACHE:    9785482
L1I PQ	ACCESS:    2921892	FORWARD:          0	MERGED:     149933	TO_CACHE:    2771959

BTB TOTAL     ACCESS:    6897112  HIT:    6294074  MISS:     603038  HIT %:    91.2567  MISS %:    8.74334   MPKI: 12.0608
BTB BRANCH_DIRECT_JUMP	ACCESS:     484667  HIT:     467652  MISS:      17015
BTB BRANCH_INDIRECT	ACCESS:      85086  HIT:      43882  MISS:      41204
BTB BRANCH_CONDITIONAL	ACCESS:    3984632  HIT:    3933521  MISS:      51111
BTB BRANCH_DIRECT_CALL	ACCESS:    1028917  HIT:     994054  MISS:      34863
BTB BRANCH_INDIRECT_CALL	ACCESS:     141825  HIT:     105579  MISS:      36246
BTB BRANCH_RETURN	ACCESS:    1171985  HIT:     749386  MISS:     422599
BTB BRANCH_OTHER ACCESS:          0  HIT:          0  MISS:          0

L2C TOTAL     ACCESS:    1783675  HIT:    1387310  MISS:     396365  HIT %:    77.7782  MISS %:    22.2218   MPKI: 7.9273
L2C LOAD      ACCESS:     412200  HIT:     299314  MISS:     112886  HIT %:    72.6138  MISS %:    27.3862   MPKI: 2.25772
L2C DATA LOAD MPKI: 1.74618
L2C INSTRUCTION LOAD MPKI: 0.51154
L2C RFO       ACCESS:     195035  HIT:      33168  MISS:     161867  HIT %:    17.0062  MISS %:    82.9938   MPKI: 3.23734
L2C PREFETCH  ACCESS:     920320  HIT:     814093  MISS:     106227  HIT %:    88.4576  MISS %:    11.5424   MPKI: 2.12454
L2C DATA PREFETCH MPKI: 0.97974
L2C INSTRUCTION PREFETCH MPKI: 1.1448
L2C WRITEBACK ACCESS:     242916  HIT:     231640  MISS:      11276  HIT %:    95.3581  MISS %:    4.64193   MPKI: 0.22552
L2C LOAD TRANSLATION ACCESS:      11923  HIT:       8169  MISS:       3754  HIT %:    68.5146  MISS %:    31.4854   MPKI: 0.07508
L2C TRANSLATION FROM L1D PREFETCHER ACCESS:       1281  HIT:        926  MISS:        355  HIT %:    72.2873  MISS %:    27.7127   MPKI: 0.0071
L2C PREFETCH  REQUESTED:      36123  ISSUED:      36123  USEFUL:      10927  USELESS:      93399
L2C USEFUL LOAD PREFETCHES:      10927 PREFETCH ISSUED TO LOWER LEVEL:     106429  ACCURACY: 10.2669
L2C TIMELY PREFETCHES:      10927 LATE PREFETCHES: 202 DROPPED PREFETCHES: 0
L2C PREFETCHES SAME FILL-ORIGIN LEVEL: 9369 DIFFERENT FILL-ORIGIN LEVEL: 0
L2C AVERAGE MISS LATENCY: 128.884 cycles
L2C RQ	ACCESS:     620452	FORWARD:          0	MERGED:          0	TO_CACHE:     620439
L2C WQ	ACCESS:     242916	FORWARD:         13	MERGED:          0	TO_CACHE:     242916
L2C PQ	ACCESS:     930372	FORWARD:          0	MERGED:       8751	TO_CACHE:     921621

L2C Instructions Evicting Data 50626
L2C Translations Evicting Data 2811
L2C Data Evicting Data 249336
L2C Instructions Evicting Instructions 31005
L2C Translations Evicting Instructions 1208
L2C Data Evicting Instructions 46142
L2C Instructions Evicting Translations 1186
L2C Translations Evicting Translations 90
L2C Data Evicting Translations 2685
L2C Dense regions hint from L2: 0
PSCL5 TOTAL     ACCESS:      12263  HIT:      12263  MISS:          0  HIT %:        100  MISS %:          0   MPKI: 0
PSCL5 LOAD TRANSLATION ACCESS:      11088  HIT:      11088  MISS:          0  HIT %:        100  MISS %:          0   MPKI: 0
PSCL5 TRANSLATION FROM L1D PREFETCHER ACCESS:       1175  HIT:       1175  MISS:          0  HIT %:        100  MISS %:          0   MPKI: 0
PSCL5 PREFETCH  REQUESTED:          0  ISSUED:          0  USEFUL:          0  USELESS:          0
PSCL5 USEFUL LOAD PREFETCHES:          0 PREFETCH ISSUED TO LOWER LEVEL:          0  ACCURACY: -nan
PSCL5 TIMELY PREFETCHES:          0 LATE PREFETCHES: 0 DROPPED PREFETCHES: 0
PSCL5 PREFETCHES SAME FILL-ORIGIN LEVEL: 0 DIFFERENT FILL-ORIGIN LEVEL: 0

PSCL4 TOTAL     ACCESS:      12263  HIT:      12263  MISS:          0  HIT %:        100  MISS %:          0   MPKI: 0
PSCL4 LOAD TRANSLATION ACCESS:      11088  HIT:      11088  MISS:          0  HIT %:        100  MISS %:          0   MPKI: 0
PSCL4 TRANSLATION FROM L1D PREFETCHER ACCESS:       1175  HIT:       1175  MISS:          0  HIT %:        100  MISS %:          0   MPKI: 0
PSCL4 PREFETCH  REQUESTED:          0  ISSUED:          0  USEFUL:          0  USELESS:          0
PSCL4 USEFUL LOAD PREFETCHES:          0 PREFETCH ISSUED TO LOWER LEVEL:          0  ACCURACY: -nan
PSCL4 TIMELY PREFETCHES:          0 LATE PREFETCHES: 0 DROPPED PREFETCHES: 0
PSCL4 PREFETCHES SAME FILL-ORIGIN LEVEL: 0 DIFFERENT FILL-ORIGIN LEVEL: 0

PSCL3 TOTAL     ACCESS:      12246  HIT:      12236  MISS:         10  HIT %:    99.9183  MISS %:  0.0816593   MPKI: 0.0002
PSCL3 LOAD TRANSLATION ACCESS:      11073  HIT:      11063  MISS:         10  HIT %:    99.9097  MISS %:  0.0903098   MPKI: 0.0002
PSCL3 TRANSLATION FROM L1D PREFETCHER ACCESS:       1173  HIT:       1173  MISS:          0  HIT %:        100  MISS %:          0   MPKI: 0
PSCL3 PREFETCH  REQUESTED:          0  ISSUED:          0  USEFUL:          0  USELESS:          0
PSCL3 USEFUL LOAD PREFETCHES:          0 PREFETCH ISSUED TO LOWER LEVEL:          0  ACCURACY: -nan
PSCL3 TIMELY PREFETCHES:          0 LATE PREFETCHES: 0 DROPPED PREFETCHES: 0
PSCL3 PREFETCHES SAME FILL-ORIGIN LEVEL: 0 DIFFERENT FILL-ORIGIN LEVEL: 0

PSCL2 TOTAL     ACCESS:      12211  HIT:      11331  MISS:        880  HIT %:    92.7934  MISS %:    7.20662   MPKI: 0.0176
PSCL2 LOAD TRANSLATION ACCESS:      11141  HIT:      10261  MISS:        880  HIT %:    92.1012  MISS %:    7.89875   MPKI: 0.0176
PSCL2 TRANSLATION FROM L1D PREFETCHER ACCESS:       1070  HIT:       1070  MISS:          0  HIT %:        100  MISS %:          0   MPKI: 0
PSCL2 PREFETCH  REQUESTED:          0  ISSUED:          0  USEFUL:          0  USELESS:          0
PSCL2 USEFUL LOAD PREFETCHES:          0 PREFETCH ISSUED TO LOWER LEVEL:          0  ACCURACY: -nan
PSCL2 TIMELY PREFETCHES:          0 LATE PREFETCHES: 0 DROPPED PREFETCHES: 0
PSCL2 PREFETCHES SAME FILL-ORIGIN LEVEL: 0 DIFFERENT FILL-ORIGIN LEVEL: 0

LLC TOTAL     ACCESS:     580261  HIT:     307178  MISS:     273083  HIT %:    52.9379  MISS %:    47.0621   MPKI: 5.46166
LLC LOAD      ACCESS:     112711  HIT:      51301  MISS:      61410  HIT %:    45.5155  MISS %:    54.4845   MPKI: 1.2282
LLC RFO       ACCESS:     161840  HIT:       8192  MISS:     153648  HIT %:    5.06179  MISS %:    94.9382   MPKI: 3.07296
LLC PREFETCH  ACCESS:     106428  HIT:      54991  MISS:      51437  HIT %:    51.6697  MISS %:    48.3303   MPKI: 1.02874
LLC WRITEBACK ACCESS:     195173  HIT:     190682  MISS:       4491  HIT %:     97.699  MISS %:    2.30104   MPKI: 0.08982
LLC LOAD TRANSLATION ACCESS:       3754  HIT:       1818  MISS:       1936  HIT %:    48.4283  MISS %:    51.5717   MPKI: 0.03872
LLC TRANSLATION FROM L1D PREFETCHER ACCESS:        355  HIT:        194  MISS:        161  HIT %:    54.6479  MISS %:    45.3521   MPKI: 0.00322
LLC PREFETCH  REQUESTED:          0  ISSUED:          0  USEFUL:       5310  USELESS:      39627
LLC USEFUL LOAD PREFETCHES:       5310 PREFETCH ISSUED TO LOWER LEVEL:      51437  ACCURACY: 10.3233
LLC TIMELY PREFETCHES:       5310 LATE PREFETCHES: 0 DROPPED PREFETCHES: 0
LLC PREFETCHES SAME FILL-ORIGIN LEVEL: 0 DIFFERENT FILL-ORIGIN LEVEL: 0
LLC AVERAGE MISS LATENCY: 144.683 cycles
LLC RQ	ACCESS:     278660	FORWARD:          0	MERGED:          0	TO_CACHE:     278660
LLC WQ	ACCESS:     195173	FORWARD:          1	MERGED:          0	TO_CACHE:     195173
LLC PQ	ACCESS:     106429	FORWARD:          0	MERGED:          0	TO_CACHE:     106428

LLC Dense regions hint to LLC: 0

RAW hits: 1816698
Loads Generated: 12792198
Loads sent to L1D: 10975501
Stores Generated: 7412307
Stores sent to L1D: 7412318
Major fault: 0 Minor fault: 6178
Allocated PAGES: 6178
I-Shadow cache 408 bytes
Touched + WorthPF tables 6144 bytes 
MMA filter 174 bytes 
FNL filter 272 bytes 
TOTAL PREFETCHER STORAGE SIZE: 25174 bytes
CPU 0 L1I next line prefetcher final stats

stream: 
stream:times selected: 285106
stream:pref_filled: 35923
stream:pref_useful: 10153
stream:pref_late: 1217
stream:misses: 4012
stream:misses_by_poll: 0

CS: 
CS:times selected: 35454
CS:pref_filled: 17211
CS:pref_useful: 13515
CS:pref_late: 1044
CS:misses: 2331
CS:misses_by_poll: 37

CPLX: 
CPLX:times selected: 247331
CPLX:pref_filled: 11634
CPLX:pref_useful: 1905
CPLX:pref_late: 51
CPLX:misses: 20541
CPLX:misses_by_poll: 18

NL_L1: 
NL:times selected: 2369
NL:pref_filled: 456
NL:pref_useful: 135
NL:pref_late: 7
NL:misses: 191
NL:misses_by_poll: 0

total selections: 570260
total_filled: 61513
total_useful: 23666
total_late: 2584
total_polluted: 55
total_misses_after_warmup: 53316
conflicts: 255364
Degree Incremented Times: 551
Degree Decremented Times: 12789

L1 IP Table Write Accesses: 1017422
L1 IP Table Read Accesses: 762058
L1 RST Write Accesses: 277788
L1 RST Read Accesses: 555576
L1 CSPT Write Accesses: 277788
L1 CSPT Read Accesses: 528953
L1 RR Filter Tag Write Accesses: 167940
L1 RR Filter Tag Read Accesses: 11753148
L1 IP Table Tag Write Accesses: 1423448
L1 IP Table Tag Read Accesses: 1423448
L1 RST Tag Write Accesses: 0
L1 RST Tag Read Accesses: 2359156
L1 RR Filter Write Accesses: 0
L1 RR Filter Read Accesses: 451230
test: 80773
L2 IP Table Read Accesses: 173575
L2 IP Table Write Accesses: 150230
L2 IP Table Tag Read Accesses: 96774
L2 IP Table Tag Write Accesses: 96774

DRAM Statistics
 CHANNEL 0
 RQ ROW_BUFFER_HIT:      90152  ROW_BUFFER_MISS:     178440
 DBUS_CONGESTED:        264
 WQ ROW_BUFFER_HIT:      34367  ROW_BUFFER_MISS:     148296  FULL:          0

 AVG_CONGESTED_CYCLE: 3
 All warmup complete: 2
Channel 0 Bank busy for read cycles: 0
Channel 0 Bank busy for write cycles: 0
Channel 0
Rank 0
0banks busy for read cycles: 44508651
0banks busy for write cycles: 45178
1banks busy for read cycles: 10776788
1banks busy for write cycles: 5172239
2banks busy for read cycles: 3916673
2banks busy for write cycles: 2608111
3banks busy for read cycles: 1064973
3banks busy for write cycles: 1196495
4banks busy for read cycles: 480053
4banks busy for write cycles: 596328
5banks busy for read cycles: 283806
5banks busy for write cycles: 421988
6banks busy for read cycles: 314668
6banks busy for write cycles: 377338
7banks busy for read cycles: 195512
7banks busy for write cycles: 447144
8banks busy for read cycles: 369545
8banks busy for write cycles: 1076037

CPU 0 Branch Prediction Accuracy: 97.8666% MPKI: 3.9013 Average ROB Occupancy at Mispredict: 48.328
Branch types
NOT_BRANCH: 40856330 81.7127%
BRANCH_DIRECT_JUMP: 484667 0.969334%
BRANCH_INDIRECT: 85086 0.170172%
BRANCH_CONDITIONAL: 6230887 12.4618%
BRANCH_DIRECT_CALL: 1028917 2.05783%
BRANCH_INDIRECT_CALL: 141825 0.28365%
BRANCH_RETURN: 1171985 2.34397%
BRANCH_OTHER: 0 0%

DRAM PAGES: 1048576
Allocated PAGES: 6178
