Initialize SIGNATURE TABLE
ST_SET: 1
ST_WAY: 256
ST_TAG_BIT: 16
ST_TAG_MASK: ffff

Initialize PATTERN TABLE
PT_SET: 512
PT_WAY: 4
SIG_DELTA_BIT: 7
C_SIG_BIT: 4
C_DELTA_BIT: 4

Initialize PREFETCH FILTER
FILTER_SET: 1024

Initialize PERCEPTRON
PERC_ENTRIES: 4096
PERC_FEATURES: 9

*** ChampSim Multicore Out-of-Order Simulator ***

Warmup Instructions: 50000000
Simulation Instructions: 50000000
Number of CPUs: 1
LLC sets: 2048
LLC ways: 16
Off-chip DRAM Size: 4096 MB Channels: 1 Width: 64-bit Data Rate: 6400 MT/s
CPU 0 runs ../IPC-traces//client_007.champsimtrace.xz
.xz
NUM_OF_IPS_IN_CRITICAL_IP_TRAINING: 64
NUM_OF_CRITICAL_IP_TRAINING_TABLE_WAYS: 2
NUM_OF_CRITICAL_IP_TRAINING_TABLE_SETS: 32
WOBBLY_CRITICAL_IP_CACHE_SETS: 32
WOBBLY_CRITICAL_IP_CACHE_WAYS: 4
BTB has LRU replacement policy
ITLB has LRU replacement policy
DTLB has LRU replacement policy
STLB has LRU replacement policy
CPU 0 L1I next line prefetcher
L1I has LRU replacement policy
L1D has LRU replacement policy
Initialize SRRIP state for L2C
Initialize DRRIP state for LLC
Heartbeat CPU 0 instructions: 10000003 cycles: 3032777 heartbeat IPC: 3.29731 cumulative IPC: 3.29731 (Simulation time: 0 hr 3 min 9 sec) 
Heartbeat CPU 0 instructions: 20000003 cycles: 5973275 heartbeat IPC: 3.40078 cumulative IPC: 3.34825 (Simulation time: 0 hr 5 min 31 sec) 
Heartbeat CPU 0 instructions: 30000000 cycles: 9154164 heartbeat IPC: 3.14377 cumulative IPC: 3.2772 (Simulation time: 0 hr 8 min 17 sec) 
Heartbeat CPU 0 instructions: 40000003 cycles: 12441425 heartbeat IPC: 3.04205 cumulative IPC: 3.21507 (Simulation time: 0 hr 10 min 34 sec) 
Heartbeat CPU 0 instructions: 50000001 cycles: 15341684 heartbeat IPC: 3.44797 cumulative IPC: 3.25909 (Simulation time: 0 hr 12 min 35 sec) 

Warmup complete CPU 0 instructions: 50000001 cycles: 15341684 (Simulation time: 0 hr 12 min 35 sec) 

% increase in all ip prefetch 264.627
% increase in all ip prefetch 0.91755
Heartbeat CPU 0 instructions: 60000003 cycles: 28445978 heartbeat IPC: 0.763109 cumulative IPC: 0.763109 (Simulation time: 0 hr 15 min 13 sec) 
Heartbeat CPU 0 instructions: 70000003 cycles: 45168175 heartbeat IPC: 0.598008 cumulative IPC: 0.670545 (Simulation time: 0 hr 17 min 55 sec) 
Heartbeat CPU 0 instructions: 80000001 cycles: 55503111 heartbeat IPC: 0.967592 cumulative IPC: 0.746985 (Simulation time: 0 hr 20 min 14 sec) 
Heartbeat CPU 0 instructions: 90000001 cycles: 69708836 heartbeat IPC: 0.703942 cumulative IPC: 0.735738 (Simulation time: 0 hr 22 min 47 sec) 
Heartbeat CPU 0 instructions: 100000000 cycles: 85676873 heartbeat IPC: 0.626251 cumulative IPC: 0.710882 (Simulation time: 0 hr 25 min 0 sec) 
Finished CPU 0 instructions: 50000001 cycles: 70335190 cumulative IPC: 0.710882 (Simulation time: 0 hr 25 min 0 sec) 

ChampSim completed all CPUs

Region of Interest Statistics

CPU 0 cumulative IPC: 0.710882 instructions: 50000001 cycles: 70335190

CPU 0 Average Load ROB stall cycles: 1.86359e+07
CPU 0 Fraction of times ROB stalled by Loads: 39.0288
CPU 0 Percentage of Load stall cycles in Total stall cycles: 2.39551e+08
Issued all: 30307416
Issued LT all: 24885248
rob_not_full_when_issued_lt_all: 18633359
Issued LT one: 19170940
rob_not_full_when_issued_lt_one: 14274859
 Total stall cycles: 57840259
 Total load stall cycles: 138556906398730
CPU 0 NUM of IPS identified critical: 0
CPU 0 Num of Load IPs stalling ROB: 12221
Threshold modification factor: -1
Max PIST entries: 64
Min PIST entries: 0
Avg PIST entries: 30.26
Trouble in retire width: 0.905799
MaC = Marked as critical.
lt_50_percent_before_Mac: 0
gt_90_percent_before_Mac: 0
gt_75_percent_before_Mac: 0
gt_50_percent_before_Mac: 0
stall_proportion_bin_same_before_after: 0
stall_proportion_bin_lower_before_after: 0
stall_proportion_bin_upper_before_after: 0
average_stall_proportion_before: -nan
average_stall_proportion_after: -nan
Critical IP stalls, total frequency: 0
Non-critical IP stalls, total frequency: 2901776
Total Freq all stalling IPs: 2901776
stat_90_percent_critical_ip_stalls_freq: 2611769
stat_90_percent_non_critical_ip_stalls_freq: 290007
Critical_IP_ROB_Stalls_Bucket_0: 0
Non-critical_IP_ROB_Stalls_Bucket_0: 1062262
Critical_IP_ROB_Stalls_Bucket_1: 0
Non-critical_IP_ROB_Stalls_Bucket_1: 800318
Critical_IP_ROB_Stalls_Bucket_2: 0
Non-critical_IP_ROB_Stalls_Bucket_2: 382547
Critical_IP_ROB_Stalls_Bucket_3: 0
Non-critical_IP_ROB_Stalls_Bucket_3: 193809
Critical_IP_ROB_Stalls_Bucket_4: 0
Non-critical_IP_ROB_Stalls_Bucket_4: 82226
Critical_IP_ROB_Stalls_Bucket_5: 0
Non-critical_IP_ROB_Stalls_Bucket_5: 48251
Critical_IP_ROB_Stalls_Bucket_6: 0
Non-critical_IP_ROB_Stalls_Bucket_6: 332363
0 => IPs accounting for >50 percent of stalls, 1 => 55, 2 => 60, 3 => 65 and so on till 90.
percent50: 50.0956 num IPs:  117
percent55: 55.0425 num IPs: 159
percent60: 60.037 num IPs: 215
percent65: 65.0358 num IPs: 288
percent70: 70.0272 num IPs: 388
percent75: 75.0229 num IPs: 526
percent80: 80.0111 num IPs: 720
percent85: 85.0136 num IPs: 971
percent90: 90.0059 num IPs: 1362
Critical_ROB_Stalls_Percent_0_Bucket_0: 328244
Non-critical_ROB_Stalls_Percent_0_Bucket_0: 734018
Critical_ROB_Stalls_Percent_0_Bucket_1: 346018
Non-critical_ROB_Stalls_Percent_0_Bucket_1: 454300
Critical_ROB_Stalls_Percent_0_Bucket_2: 249454
Non-critical_ROB_Stalls_Percent_0_Bucket_2: 133093
Critical_ROB_Stalls_Percent_0_Bucket_3: 146165
Non-critical_ROB_Stalls_Percent_0_Bucket_3: 47644
Critical_ROB_Stalls_Percent_0_Bucket_4: 56832
Non-critical_ROB_Stalls_Percent_0_Bucket_4: 25394
Critical_ROB_Stalls_Percent_0_Bucket_5: 33905
Non-critical_ROB_Stalls_Percent_0_Bucket_5: 14346
Critical_ROB_Stalls_Percent_0_Bucket_6: 293046
Non-critical_ROB_Stalls_Percent_0_Bucket_6: 39317
Critical_ROB_Stalls_Percent_1_Bucket_0: 397661
Non-critical_ROB_Stalls_Percent_1_Bucket_0: 664601
Critical_ROB_Stalls_Percent_1_Bucket_1: 396248
Non-critical_ROB_Stalls_Percent_1_Bucket_1: 404070
Critical_ROB_Stalls_Percent_1_Bucket_2: 261421
Non-critical_ROB_Stalls_Percent_1_Bucket_2: 121126
Critical_ROB_Stalls_Percent_1_Bucket_3: 151030
Non-critical_ROB_Stalls_Percent_1_Bucket_3: 42779
Critical_ROB_Stalls_Percent_1_Bucket_4: 59008
Non-critical_ROB_Stalls_Percent_1_Bucket_4: 23218
Critical_ROB_Stalls_Percent_1_Bucket_5: 35532
Non-critical_ROB_Stalls_Percent_1_Bucket_5: 12719
Critical_ROB_Stalls_Percent_1_Bucket_6: 296310
Non-critical_ROB_Stalls_Percent_1_Bucket_6: 36053
Critical_ROB_Stalls_Percent_2_Bucket_0: 464986
Non-critical_ROB_Stalls_Percent_2_Bucket_0: 597276
Critical_ROB_Stalls_Percent_2_Bucket_1: 446871
Non-critical_ROB_Stalls_Percent_2_Bucket_1: 353447
Critical_ROB_Stalls_Percent_2_Bucket_2: 273786
Non-critical_ROB_Stalls_Percent_2_Bucket_2: 108761
Critical_ROB_Stalls_Percent_2_Bucket_3: 156530
Non-critical_ROB_Stalls_Percent_2_Bucket_3: 37279
Critical_ROB_Stalls_Percent_2_Bucket_4: 61534
Non-critical_ROB_Stalls_Percent_2_Bucket_4: 20692
Critical_ROB_Stalls_Percent_2_Bucket_5: 36586
Non-critical_ROB_Stalls_Percent_2_Bucket_5: 11665
Critical_ROB_Stalls_Percent_2_Bucket_6: 301847
Non-critical_ROB_Stalls_Percent_2_Bucket_6: 30516
Critical_ROB_Stalls_Percent_3_Bucket_0: 527817
Non-critical_ROB_Stalls_Percent_3_Bucket_0: 534445
Critical_ROB_Stalls_Percent_3_Bucket_1: 499831
Non-critical_ROB_Stalls_Percent_3_Bucket_1: 300487
Critical_ROB_Stalls_Percent_3_Bucket_2: 292081
Non-critical_ROB_Stalls_Percent_3_Bucket_2: 90466
Critical_ROB_Stalls_Percent_3_Bucket_3: 161599
Non-critical_ROB_Stalls_Percent_3_Bucket_3: 32210
Critical_ROB_Stalls_Percent_3_Bucket_4: 64436
Non-critical_ROB_Stalls_Percent_3_Bucket_4: 17790
Critical_ROB_Stalls_Percent_3_Bucket_5: 37802
Non-critical_ROB_Stalls_Percent_3_Bucket_5: 10449
Critical_ROB_Stalls_Percent_3_Bucket_6: 303628
Non-critical_ROB_Stalls_Percent_3_Bucket_6: 28735
Critical_ROB_Stalls_Percent_4_Bucket_0: 588939
Non-critical_ROB_Stalls_Percent_4_Bucket_0: 473323
Critical_ROB_Stalls_Percent_4_Bucket_1: 548621
Non-critical_ROB_Stalls_Percent_4_Bucket_1: 251697
Critical_ROB_Stalls_Percent_4_Bucket_2: 306788
Non-critical_ROB_Stalls_Percent_4_Bucket_2: 75759
Critical_ROB_Stalls_Percent_4_Bucket_3: 167255
Non-critical_ROB_Stalls_Percent_4_Bucket_3: 26554
Critical_ROB_Stalls_Percent_4_Bucket_4: 68680
Non-critical_ROB_Stalls_Percent_4_Bucket_4: 13546
Critical_ROB_Stalls_Percent_4_Bucket_5: 40554
Non-critical_ROB_Stalls_Percent_4_Bucket_5: 7697
Critical_ROB_Stalls_Percent_4_Bucket_6: 311195
Non-critical_ROB_Stalls_Percent_4_Bucket_6: 21168
Critical_ROB_Stalls_Percent_5_Bucket_0: 668125
Non-critical_ROB_Stalls_Percent_5_Bucket_0: 394137
Critical_ROB_Stalls_Percent_5_Bucket_1: 590970
Non-critical_ROB_Stalls_Percent_5_Bucket_1: 209348
Critical_ROB_Stalls_Percent_5_Bucket_2: 318683
Non-critical_ROB_Stalls_Percent_5_Bucket_2: 63864
Critical_ROB_Stalls_Percent_5_Bucket_3: 171109
Non-critical_ROB_Stalls_Percent_5_Bucket_3: 22700
Critical_ROB_Stalls_Percent_5_Bucket_4: 71988
Non-critical_ROB_Stalls_Percent_5_Bucket_4: 10238
Critical_ROB_Stalls_Percent_5_Bucket_5: 42399
Non-critical_ROB_Stalls_Percent_5_Bucket_5: 5852
Critical_ROB_Stalls_Percent_5_Bucket_6: 313721
Non-critical_ROB_Stalls_Percent_5_Bucket_6: 18642
Critical_ROB_Stalls_Percent_6_Bucket_0: 737158
Non-critical_ROB_Stalls_Percent_6_Bucket_0: 325104
Critical_ROB_Stalls_Percent_6_Bucket_1: 642763
Non-critical_ROB_Stalls_Percent_6_Bucket_1: 157555
Critical_ROB_Stalls_Percent_6_Bucket_2: 331808
Non-critical_ROB_Stalls_Percent_6_Bucket_2: 50739
Critical_ROB_Stalls_Percent_6_Bucket_3: 175380
Non-critical_ROB_Stalls_Percent_6_Bucket_3: 18429
Critical_ROB_Stalls_Percent_6_Bucket_4: 73813
Non-critical_ROB_Stalls_Percent_6_Bucket_4: 8413
Critical_ROB_Stalls_Percent_6_Bucket_5: 43453
Non-critical_ROB_Stalls_Percent_6_Bucket_5: 4798
Critical_ROB_Stalls_Percent_6_Bucket_6: 317366
Non-critical_ROB_Stalls_Percent_6_Bucket_6: 14997
Critical_ROB_Stalls_Percent_7_Bucket_0: 823210
Non-critical_ROB_Stalls_Percent_7_Bucket_0: 239052
Critical_ROB_Stalls_Percent_7_Bucket_1: 680061
Non-critical_ROB_Stalls_Percent_7_Bucket_1: 120257
Critical_ROB_Stalls_Percent_7_Bucket_2: 342302
Non-critical_ROB_Stalls_Percent_7_Bucket_2: 40245
Critical_ROB_Stalls_Percent_7_Bucket_3: 179407
Non-critical_ROB_Stalls_Percent_7_Bucket_3: 14402
Critical_ROB_Stalls_Percent_7_Bucket_4: 75898
Non-critical_ROB_Stalls_Percent_7_Bucket_4: 6328
Critical_ROB_Stalls_Percent_7_Bucket_5: 44446
Non-critical_ROB_Stalls_Percent_7_Bucket_5: 3805
Critical_ROB_Stalls_Percent_7_Bucket_6: 321579
Non-critical_ROB_Stalls_Percent_7_Bucket_6: 10784
Critical_ROB_Stalls_Percent_8_Bucket_0: 898509
Non-critical_ROB_Stalls_Percent_8_Bucket_0: 163753
Critical_ROB_Stalls_Percent_8_Bucket_1: 720798
Non-critical_ROB_Stalls_Percent_8_Bucket_1: 79520
Critical_ROB_Stalls_Percent_8_Bucket_2: 357789
Non-critical_ROB_Stalls_Percent_8_Bucket_2: 24758
Critical_ROB_Stalls_Percent_8_Bucket_3: 185099
Non-critical_ROB_Stalls_Percent_8_Bucket_3: 8710
Critical_ROB_Stalls_Percent_8_Bucket_4: 78500
Non-critical_ROB_Stalls_Percent_8_Bucket_4: 3726
Critical_ROB_Stalls_Percent_8_Bucket_5: 45973
Non-critical_ROB_Stalls_Percent_8_Bucket_5: 2278
Critical_ROB_Stalls_Percent_8_Bucket_6: 325101
Non-critical_ROB_Stalls_Percent_8_Bucket_6: 7262
Average ROB occupancy Load Stall Begin: 99.451
Average ROB occupancy Load Stall End: 108.569
Min ROB occupancy Load Stall Begin: 1
Max ROB occupancy Load Stall Begin: 352
Min ROB occupancy Load Stall End: 1
Max ROB occupancy Load Stall End: 352
Average ROB occupancy Critical Load Stall Begin: -nan
Average ROB occupancy Critical Load Stall End: -nan
Min ROB occupancy Critical Load Stall Begin: 400
Max ROB occupancy Critical Load Stall Begin: 0
Min ROB occupancy Critical Load Stall End: 400
Max ROB occupancy Critical Load Stall End: 0
 ROB Load Stall Begin Bucket Count 0: 1327765
 ROB Load Stall End Bucket Count 0: 1062262
 ROB Critical Load Stall Begin Bucket Count 0: 0
 ROB Critical Load Stall End Bucket Count 0: 0
 ROB Load Stall Begin Bucket Count 1: 644468
 ROB Load Stall End Bucket Count 1: 800318
 ROB Critical Load Stall Begin Bucket Count 1: 0
 ROB Critical Load Stall End Bucket Count 1: 0
 ROB Load Stall Begin Bucket Count 2: 331549
 ROB Load Stall End Bucket Count 2: 382547
 ROB Critical Load Stall Begin Bucket Count 2: 0
 ROB Critical Load Stall End Bucket Count 2: 0
 ROB Load Stall Begin Bucket Count 3: 161463
 ROB Load Stall End Bucket Count 3: 193809
 ROB Critical Load Stall Begin Bucket Count 3: 0
 ROB Critical Load Stall End Bucket Count 3: 0
 ROB Load Stall Begin Bucket Count 4: 70288
 ROB Load Stall End Bucket Count 4: 82226
 ROB Critical Load Stall Begin Bucket Count 4: 0
 ROB Critical Load Stall End Bucket Count 4: 0
 ROB Load Stall Begin Bucket Count 5: 42607
 ROB Load Stall End Bucket Count 5: 48251
 ROB Critical Load Stall Begin Bucket Count 5: 0
 ROB Critical Load Stall End Bucket Count 5: 0
 ROB Load Stall Begin Bucket Count 6: 323636
 ROB Load Stall End Bucket Count 6: 332363
 ROB Critical Load Stall Begin Bucket Count 6: 0
 ROB Critical Load Stall End Bucket Count 6: 0
PIST Tag Read Accesses: 2189724
PIST Read Accesses: 1094862
PIST Tag Write Accesses: 2189724
PIST Write Accesses: 1094862
Criticality detector called times: 1878277
Max global_stall_cycles_count: 4107559
Threshold Modified: 1 times, factor: -1
Sturdy critical IP cache stats: 
 Unused entries: 0
CIC Tag Read Accesses: 0
CIC Read Accesses: 0
CIC Tag Write Accesses: 0
CIC Write Accesses: 0
Wobbly critical IP cache stats: 
 Unused entries: 15
CIC Tag Read Accesses: 89297086
CIC Read Accesses: 0
CIC Tag Write Accesses: 310958
CIC Write Accesses: 0
ITLB TOTAL     ACCESS:    8759245  HIT:    8584766  MISS:     174479  HIT %:    98.0081  MISS %:    1.99194   MPKI: 3.48958
ITLB LOAD TRANSLATION ACCESS:    8148581  HIT:    8136583  MISS:      11998  HIT %:    99.8528  MISS %:    0.14724   MPKI: 0.23996
ITLB TRANSLATION FROM L1D PREFETCHER ACCESS:     610664  HIT:     448183  MISS:     162481  HIT %:    73.3927  MISS %:    26.6073   MPKI: 3.24962
ITLB PREFETCH  REQUESTED:          0  ISSUED:          0  USEFUL:     139241  USELESS:      23239
ITLB USEFUL LOAD PREFETCHES:     139241 PREFETCH ISSUED TO LOWER LEVEL:          0  ACCURACY: inf
ITLB TIMELY PREFETCHES:     139241 LATE PREFETCHES: 19 DROPPED PREFETCHES: 16
ITLB PREFETCHES SAME FILL-ORIGIN LEVEL: 0 DIFFERENT FILL-ORIGIN LEVEL: 0
ITLB AVERAGE MISS LATENCY: 5402.36 cycles
ITLB RQ	ACCESS:   11192668	FORWARD:          0	MERGED:    2420353	TO_CACHE:    8772315

DTLB TOTAL     ACCESS:   11616108  HIT:   11299337  MISS:     316771  HIT %:     97.273  MISS %:      2.727   MPKI: 6.33542
DTLB LOAD TRANSLATION ACCESS:   11616108  HIT:   11299337  MISS:     316771  HIT %:     97.273  MISS %:      2.727   MPKI: 6.33542
DTLB PREFETCH  REQUESTED:          0  ISSUED:          0  USEFUL:          0  USELESS:          0
DTLB USEFUL LOAD PREFETCHES:          0 PREFETCH ISSUED TO LOWER LEVEL:          0  ACCURACY: -nan
DTLB TIMELY PREFETCHES:          0 LATE PREFETCHES: 0 DROPPED PREFETCHES: 0
DTLB PREFETCHES SAME FILL-ORIGIN LEVEL: 0 DIFFERENT FILL-ORIGIN LEVEL: 0
DTLB AVERAGE MISS LATENCY: 10.4072 cycles
DTLB RQ	ACCESS:   13884217	FORWARD:          0	MERGED:    2251530	TO_CACHE:   11632687

STLB TOTAL     ACCESS:     491250  HIT:     487059  MISS:       4191  HIT %:    99.1469  MISS %:    0.85313   MPKI: 0.08382
STLB LOAD TRANSLATION ACCESS:     328750  HIT:     324852  MISS:       3898  HIT %:    98.8143  MISS %:     1.1857   MPKI: 0.07796
STLB TRANSLATION FROM L1D PREFETCHER ACCESS:     162500  HIT:     162207  MISS:        293  HIT %:    99.8197  MISS %:   0.180308   MPKI: 0.00586
STLB PREFETCH  REQUESTED:          0  ISSUED:          0  USEFUL:        228  USELESS:         51
STLB USEFUL LOAD PREFETCHES:        228 PREFETCH ISSUED TO LOWER LEVEL:          0  ACCURACY: inf
STLB TIMELY PREFETCHES:        228 LATE PREFETCHES: 0 DROPPED PREFETCHES: 16
STLB PREFETCHES SAME FILL-ORIGIN LEVEL: 0 DIFFERENT FILL-ORIGIN LEVEL: 0
STLB AVERAGE MISS LATENCY: 130.911 cycles
STLB RQ	ACCESS:     491266	FORWARD:          0	MERGED:          0	TO_CACHE:     491266

STLB Hit, L1D data hit: 0
STLB Hit, L2C data hit: 0
STLB Hit, LLC data hit: 0
STLB Hit, LLC data miss: 0
STLB STLB hints to L2: 0
L1D TOTAL     ACCESS:   13712030  HIT:   13145912  MISS:     566118  HIT %:    95.8714  MISS %:    4.12862   MPKI: 11.3224
L1D LOAD      ACCESS:    8793687  HIT:    8303640  MISS:     490047  HIT %:    94.4273  MISS %:    5.57271   MPKI: 9.80094
L1D RFO       ACCESS:    4918343  HIT:    4842272  MISS:      76071  HIT %:    98.4533  MISS %:    1.54668   MPKI: 1.52142
L1D PREFETCH  REQUESTED:          0  ISSUED:          0  USEFUL:          0  USELESS:          0
L1D USEFUL LOAD PREFETCHES:          0 PREFETCH ISSUED TO LOWER LEVEL:          0  ACCURACY: -nan
L1D TIMELY PREFETCHES:          0 LATE PREFETCHES: 0 DROPPED PREFETCHES: 0
L1D PREFETCHES SAME FILL-ORIGIN LEVEL: 0 DIFFERENT FILL-ORIGIN LEVEL: 0
L1D AVERAGE MISS LATENCY: 52.8308 cycles
L1D RQ	ACCESS:   12806679	FORWARD:          0	MERGED:    3874994	TO_CACHE:    8846470
L1D WQ	ACCESS:    5437654	FORWARD:      85215	MERGED:     399907	TO_CACHE:    5037747

L1D UNIQUE REGIONS ACCESSED: 0
L1D REGIONS CONFLICTS: 0
L1D Cross Page Prefetch Requests: 0
L1D Same Page Prefetch Requests: 0
L1D ROI Sum of L1D PQ occupancy: 0
L1D PREFETCHES PUSHED FROM L2C: 0
L1I TOTAL     ACCESS:   11163728  HIT:   10012006  MISS:    1151722  HIT %:    89.6834  MISS %:    10.3166   MPKI: 23.0344
L1I LOAD      ACCESS:    9639669  HIT:    9593625  MISS:      46044  HIT %:    99.5223  MISS %:   0.477651   MPKI: 0.92088
L1I PREFETCH  ACCESS:    1524059  HIT:     418381  MISS:    1105678  HIT %:    27.4518  MISS %:    72.5482   MPKI: 22.1136
L1I PREFETCH  REQUESTED:    1567888  ISSUED:    1567375  USEFUL:     840410  USELESS:     265308
L1I USEFUL LOAD PREFETCHES:     840410 PREFETCH ISSUED TO LOWER LEVEL:    1112498  ACCURACY: 75.5426
L1I TIMELY PREFETCHES:     840410 LATE PREFETCHES: 6809 DROPPED PREFETCHES: 21
L1I PREFETCHES SAME FILL-ORIGIN LEVEL: 1112498 DIFFERENT FILL-ORIGIN LEVEL: 0
L1I AVERAGE MISS LATENCY: 256956 cycles
L1I RQ	ACCESS:   14354530	FORWARD:          0	MERGED:    4707332	TO_CACHE:    9647198
L1I PQ	ACCESS:    1567375	FORWARD:          0	MERGED:      21905	TO_CACHE:    1545470

BTB TOTAL     ACCESS:    6145704  HIT:    5759281  MISS:     386423  HIT %:    93.7123  MISS %:    6.28769   MPKI: 7.72846
BTB BRANCH_DIRECT_JUMP	ACCESS:     735331  HIT:     732025  MISS:       3306
BTB BRANCH_INDIRECT	ACCESS:     269194  HIT:     145703  MISS:     123491
BTB BRANCH_CONDITIONAL	ACCESS:    3930750  HIT:    3920624  MISS:      10126
BTB BRANCH_DIRECT_CALL	ACCESS:     368758  HIT:     363374  MISS:       5384
BTB BRANCH_INDIRECT_CALL	ACCESS:     226975  HIT:     162973  MISS:      64002
BTB BRANCH_RETURN	ACCESS:     614696  HIT:     434582  MISS:     180114
BTB BRANCH_OTHER ACCESS:          0  HIT:          0  MISS:          0

L2C TOTAL     ACCESS:    2135096  HIT:    1936725  MISS:     198371  HIT %:     90.709  MISS %:    9.29096   MPKI: 3.96742
L2C LOAD      ACCESS:     529157  HIT:     429084  MISS:     100073  HIT %:    81.0882  MISS %:    18.9118   MPKI: 2.00146
L2C DATA LOAD MPKI: 1.91414
L2C INSTRUCTION LOAD MPKI: 0.08732
L2C RFO       ACCESS:      76066  HIT:      29673  MISS:      46393  HIT %:    39.0095  MISS %:    60.9905   MPKI: 0.92786
L2C PREFETCH  ACCESS:    1293321  HIT:    1245338  MISS:      47983  HIT %:    96.2899  MISS %:    3.71006   MPKI: 0.95966
L2C DATA PREFETCH MPKI: 0.77994
L2C INSTRUCTION PREFETCH MPKI: 0.17972
L2C WRITEBACK ACCESS:     232153  HIT:     230051  MISS:       2102  HIT %:    99.0946  MISS %:   0.905437   MPKI: 0.04204
L2C LOAD TRANSLATION ACCESS:       4071  HIT:       2446  MISS:       1625  HIT %:    60.0835  MISS %:    39.9165   MPKI: 0.0325
L2C TRANSLATION FROM L1D PREFETCHER ACCESS:        328  HIT:        133  MISS:        195  HIT %:    40.5488  MISS %:    59.4512   MPKI: 0.0039
L2C PREFETCH  REQUESTED:     185707  ISSUED:     185703  USEFUL:      22772  USELESS:      29347
L2C USEFUL LOAD PREFETCHES:      22772 PREFETCH ISSUED TO LOWER LEVEL:      50939  ACCURACY: 44.7045
L2C TIMELY PREFETCHES:      22772 LATE PREFETCHES: 1942 DROPPED PREFETCHES: 0
L2C PREFETCHES SAME FILL-ORIGIN LEVEL: 40939 DIFFERENT FILL-ORIGIN LEVEL: 1014
L2C AVERAGE MISS LATENCY: 144.718 cycles
L2C RQ	ACCESS:     609752	FORWARD:          0	MERGED:          0	TO_CACHE:     609622
L2C WQ	ACCESS:     232153	FORWARD:        130	MERGED:          0	TO_CACHE:     232153
L2C PQ	ACCESS:    1298190	FORWARD:          0	MERGED:         24	TO_CACHE:    1298166

L2C Instructions Evicting Data 10146
L2C Translations Evicting Data 1466
L2C Data Evicting Data 167538
L2C Instructions Evicting Instructions 2945
L2C Translations Evicting Instructions 324
L2C Data Evicting Instructions 11997
L2C Instructions Evicting Translations 261
L2C Translations Evicting Translations 30
L2C Data Evicting Translations 1562
L2C Dense regions hint from L2: 0
PSCL5 TOTAL     ACCESS:       4207  HIT:       4207  MISS:          0  HIT %:        100  MISS %:          0   MPKI: 0
PSCL5 LOAD TRANSLATION ACCESS:       3898  HIT:       3898  MISS:          0  HIT %:        100  MISS %:          0   MPKI: 0
PSCL5 TRANSLATION FROM L1D PREFETCHER ACCESS:        309  HIT:        309  MISS:          0  HIT %:        100  MISS %:          0   MPKI: 0
PSCL5 PREFETCH  REQUESTED:          0  ISSUED:          0  USEFUL:          0  USELESS:          0
PSCL5 USEFUL LOAD PREFETCHES:          0 PREFETCH ISSUED TO LOWER LEVEL:          0  ACCURACY: -nan
PSCL5 TIMELY PREFETCHES:          0 LATE PREFETCHES: 0 DROPPED PREFETCHES: 0
PSCL5 PREFETCHES SAME FILL-ORIGIN LEVEL: 0 DIFFERENT FILL-ORIGIN LEVEL: 0

PSCL4 TOTAL     ACCESS:       3909  HIT:       3902  MISS:          7  HIT %:    99.8209  MISS %:   0.179074   MPKI: 0.00014
PSCL4 LOAD TRANSLATION ACCESS:       3632  HIT:       3625  MISS:          7  HIT %:    99.8073  MISS %:   0.192731   MPKI: 0.00014
PSCL4 TRANSLATION FROM L1D PREFETCHER ACCESS:        277  HIT:        277  MISS:          0  HIT %:        100  MISS %:          0   MPKI: 0
PSCL4 PREFETCH  REQUESTED:          0  ISSUED:          0  USEFUL:          0  USELESS:          0
PSCL4 USEFUL LOAD PREFETCHES:          0 PREFETCH ISSUED TO LOWER LEVEL:          0  ACCURACY: -nan
PSCL4 TIMELY PREFETCHES:          0 LATE PREFETCHES: 0 DROPPED PREFETCHES: 0
PSCL4 PREFETCHES SAME FILL-ORIGIN LEVEL: 0 DIFFERENT FILL-ORIGIN LEVEL: 0

PSCL3 TOTAL     ACCESS:       4148  HIT:       4131  MISS:         17  HIT %:    99.5902  MISS %:   0.409836   MPKI: 0.00034
PSCL3 LOAD TRANSLATION ACCESS:       3848  HIT:       3831  MISS:         17  HIT %:    99.5582  MISS %:   0.441788   MPKI: 0.00034
PSCL3 TRANSLATION FROM L1D PREFETCHER ACCESS:        300  HIT:        300  MISS:          0  HIT %:        100  MISS %:          0   MPKI: 0
PSCL3 PREFETCH  REQUESTED:          0  ISSUED:          0  USEFUL:          0  USELESS:          0
PSCL3 USEFUL LOAD PREFETCHES:          0 PREFETCH ISSUED TO LOWER LEVEL:          0  ACCURACY: -nan
PSCL3 TIMELY PREFETCHES:          0 LATE PREFETCHES: 0 DROPPED PREFETCHES: 0
PSCL3 PREFETCHES SAME FILL-ORIGIN LEVEL: 0 DIFFERENT FILL-ORIGIN LEVEL: 0

PSCL2 TOTAL     ACCESS:       4207  HIT:       4034  MISS:        173  HIT %:    95.8878  MISS %:    4.11219   MPKI: 0.00346
PSCL2 LOAD TRANSLATION ACCESS:       3917  HIT:       3744  MISS:        173  HIT %:    95.5834  MISS %:    4.41665   MPKI: 0.00346
PSCL2 TRANSLATION FROM L1D PREFETCHER ACCESS:        290  HIT:        290  MISS:          0  HIT %:        100  MISS %:          0   MPKI: 0
PSCL2 PREFETCH  REQUESTED:          0  ISSUED:          0  USEFUL:          0  USELESS:          0
PSCL2 USEFUL LOAD PREFETCHES:          0 PREFETCH ISSUED TO LOWER LEVEL:          0  ACCURACY: -nan
PSCL2 TIMELY PREFETCHES:          0 LATE PREFETCHES: 0 DROPPED PREFETCHES: 0
PSCL2 PREFETCHES SAME FILL-ORIGIN LEVEL: 0 DIFFERENT FILL-ORIGIN LEVEL: 0

LLC TOTAL     ACCESS:     267016  HIT:     126201  MISS:     140815  HIT %:    47.2635  MISS %:    52.7365   MPKI: 2.8163
LLC LOAD      ACCESS:      98152  HIT:      34485  MISS:      63667  HIT %:    35.1343  MISS %:    64.8657   MPKI: 1.27334
LLC RFO       ACCESS:      46371  HIT:       5187  MISS:      41184  HIT %:    11.1859  MISS %:    88.8141   MPKI: 0.82368
LLC PREFETCH  ACCESS:      50932  HIT:      18495  MISS:      32437  HIT %:    36.3131  MISS %:    63.6869   MPKI: 0.64874
LLC WRITEBACK ACCESS:      69741  HIT:      67408  MISS:       2333  HIT %:    96.6548  MISS %:    3.34523   MPKI: 0.04666
LLC LOAD TRANSLATION ACCESS:       1625  HIT:        552  MISS:       1073  HIT %:    33.9692  MISS %:    66.0308   MPKI: 0.02146
LLC TRANSLATION FROM L1D PREFETCHER ACCESS:        195  HIT:         74  MISS:        121  HIT %:    37.9487  MISS %:    62.0513   MPKI: 0.00242
LLC PREFETCH  REQUESTED:          0  ISSUED:          0  USEFUL:       4707  USELESS:      37377
LLC USEFUL LOAD PREFETCHES:       4707 PREFETCH ISSUED TO LOWER LEVEL:      32443  ACCURACY: 14.5085
LLC TIMELY PREFETCHES:       4707 LATE PREFETCHES: 6 DROPPED PREFETCHES: 0
LLC PREFETCHES SAME FILL-ORIGIN LEVEL: 576 DIFFERENT FILL-ORIGIN LEVEL: 0
LLC AVERAGE MISS LATENCY: 162.678 cycles
LLC RQ	ACCESS:     146344	FORWARD:          0	MERGED:          0	TO_CACHE:     146343
LLC WQ	ACCESS:      69741	FORWARD:          1	MERGED:          0	TO_CACHE:      69741
LLC PQ	ACCESS:      50939	FORWARD:          0	MERGED:          1	TO_CACHE:      50938

LLC Dense regions hint to LLC: 0

RAW hits: 1073256
Loads Generated: 13879936
Loads sent to L1D: 12806679
Stores Generated: 5437650
Stores sent to L1D: 5437654
Major fault: 0 Minor fault: 4494
Allocated PAGES: 4494
I-Shadow cache 408 bytes
Touched + WorthPF tables 6144 bytes 
MMA filter 174 bytes 
FNL filter 272 bytes 
TOTAL PREFETCHER STORAGE SIZE: 25174 bytes
CPU 0 L1I next line prefetcher final stats
------------------
Depth Distribution
------------------
depth 0: 64462
depth 1: 2882885
depth 2: 375267
depth 3: 78451
depth 4: 27311
depth 5: 5513
depth 6: 726
depth 7: 642
depth 8: 207
depth 9: 97
depth 10: 11
depth 11: 0
depth 12: 0
depth 13: 0
depth 14: 0
depth 15: 0
depth 16: 0
depth 17: 0
depth 18: 0
depth 19: 0
depth 20: 0
depth 21: 0
depth 22: 0
depth 23: 0
depth 24: 0
depth 25: 0
depth 26: 0
depth 27: 0
depth 28: 0
depth 29: 0
Total: 3435572
------------------
ST read accesses: 1520949
ST write accesses: 80809
PT read accesses: 20310003
PT write accesses: 2153712
FILTER read accesses: 6039774
FILTER write accesses: 682556
GHR read accesses: 2073733
GHR write accesses: 200996
PERC read accesses: 122023044
PERC write accesses: 1401740
GHR counter read accesses: 3203516
GHR counter write accesses: 4164289
GHR ip read accesses: 5430087
GHR ip write accesses: 6407032
ST tag read accesses: 656287252
ST tag write accesses: 62587133

DRAM Statistics
 CHANNEL 0
 RQ ROW_BUFFER_HIT:      29068  ROW_BUFFER_MISS:     109412
 DBUS_CONGESTED:         62
 WQ ROW_BUFFER_HIT:       9463  ROW_BUFFER_MISS:      45783  FULL:          0

 AVG_CONGESTED_CYCLE: 4
 All warmup complete: 2
Channel 0 Bank busy for read cycles: 0
Channel 0 Bank busy for write cycles: 0
Channel 0
Rank 0
0banks busy for read cycles: 54567328
0banks busy for write cycles: 20587
1banks busy for read cycles: 6553760
1banks busy for write cycles: 2861219
2banks busy for read cycles: 2142307
2banks busy for write cycles: 981999
3banks busy for read cycles: 1025561
3banks busy for write cycles: 470044
4banks busy for read cycles: 367840
4banks busy for write cycles: 252548
5banks busy for read cycles: 187728
5banks busy for write cycles: 156365
6banks busy for read cycles: 84136
6banks busy for write cycles: 103875
7banks busy for read cycles: 51623
7banks busy for write cycles: 91112
8banks busy for read cycles: 86736
8banks busy for write cycles: 330423

CPU 0 Branch Prediction Accuracy: 98.8607% MPKI: 1.8623 Average ROB Occupancy at Mispredict: 73.4834
Branch types
NOT_BRANCH: 41826774 83.6535%
BRANCH_DIRECT_JUMP: 735331 1.47066%
BRANCH_INDIRECT: 269194 0.538388%
BRANCH_CONDITIONAL: 5957947 11.9159%
BRANCH_DIRECT_CALL: 368758 0.737516%
BRANCH_INDIRECT_CALL: 226975 0.45395%
BRANCH_RETURN: 614696 1.22939%
BRANCH_OTHER: 0 0%

DRAM PAGES: 1048576
Allocated PAGES: 4494
