
*** ChampSim Multicore Out-of-Order Simulator ***

Warmup Instructions: 50000000
Simulation Instructions: 50000000
Number of CPUs: 1
LLC sets: 2048
LLC ways: 16
Off-chip DRAM Size: 4096 MB Channels: 1 Width: 64-bit Data Rate: 6400 MT/s
CPU 0 runs ../IPC-traces//client_003.champsimtrace.xz
.xz
NUM_OF_IPS_IN_CRITICAL_IP_TRAINING: 64
NUM_OF_CRITICAL_IP_TRAINING_TABLE_WAYS: 2
NUM_OF_CRITICAL_IP_TRAINING_TABLE_SETS: 32
WOBBLY_CRITICAL_IP_CACHE_SETS: 32
WOBBLY_CRITICAL_IP_CACHE_WAYS: 4
BTB has LRU replacement policy
ITLB has LRU replacement policy
DTLB has LRU replacement policy
STLB has LRU replacement policy
CPU 0 L1I next line prefetcher
L1I has LRU replacement policy
L1D has LRU replacement policy
Bingo PHT WAYS: 16 and PHT_SIZE: 16384
Initialize SRRIP state for L2C
Initialize DRRIP state for LLC
Heartbeat CPU 0 instructions: 10000000 cycles: 2805593 heartbeat IPC: 3.56431 cumulative IPC: 3.56431 (Simulation time: 0 hr 2 min 44 sec) 
Heartbeat CPU 0 instructions: 20000000 cycles: 5609302 heartbeat IPC: 3.5667 cumulative IPC: 3.56551 (Simulation time: 0 hr 5 min 15 sec) 
Heartbeat CPU 0 instructions: 30000003 cycles: 8418823 heartbeat IPC: 3.55933 cumulative IPC: 3.56344 (Simulation time: 0 hr 7 min 49 sec) 
Heartbeat CPU 0 instructions: 40000001 cycles: 11236746 heartbeat IPC: 3.54871 cumulative IPC: 3.55975 (Simulation time: 0 hr 10 min 1 sec) 
Heartbeat CPU 0 instructions: 50000002 cycles: 14057524 heartbeat IPC: 3.54512 cumulative IPC: 3.55681 (Simulation time: 0 hr 12 min 2 sec) 

Warmup complete CPU 0 instructions: 50000002 cycles: 14057524 (Simulation time: 0 hr 12 min 2 sec) 

% increase in all ip prefetch 307.842
% increase in all ip prefetch 1.58411
Heartbeat CPU 0 instructions: 60000002 cycles: 27048323 heartbeat IPC: 0.769776 cumulative IPC: 0.769776 (Simulation time: 0 hr 14 min 26 sec) 
Heartbeat CPU 0 instructions: 70000001 cycles: 39649804 heartbeat IPC: 0.793557 cumulative IPC: 0.781486 (Simulation time: 0 hr 16 min 46 sec) 
Heartbeat CPU 0 instructions: 80000001 cycles: 53637377 heartbeat IPC: 0.71492 cumulative IPC: 0.757961 (Simulation time: 0 hr 19 min 10 sec) 
Heartbeat CPU 0 instructions: 90000000 cycles: 71336491 heartbeat IPC: 0.565 cumulative IPC: 0.698337 (Simulation time: 0 hr 21 min 32 sec) 
Heartbeat CPU 0 instructions: 100000000 cycles: 92487200 heartbeat IPC: 0.472797 cumulative IPC: 0.637514 (Simulation time: 0 hr 24 min 45 sec) 
Finished CPU 0 instructions: 50000002 cycles: 78429678 cumulative IPC: 0.637514 (Simulation time: 0 hr 24 min 45 sec) 

ChampSim completed all CPUs

Region of Interest Statistics

CPU 0 cumulative IPC: 0.637514 instructions: 50000002 cycles: 78429678

CPU 0 Average Load ROB stall cycles: 1.86023e+07
CPU 0 Fraction of times ROB stalled by Loads: 36.3863
CPU 0 Percentage of Load stall cycles in Total stall cycles: 2.47407e+08
Issued all: 42965338
Issued LT all: 37451124
rob_not_full_when_issued_lt_all: 17961236
Issued LT one: 31314265
rob_not_full_when_issued_lt_one: 13659111
critical_ip_candidate_identification_operations: 6337970
critical_ip_candidate_identification_operation_per_cycle: 0.0808109
 Total stall cycles: 65484357
 Total load stall cycles: 162012947272346
Unique Load IPs: 39814
CPU 0 NUM of IPS identified critical: 46
CPU 0 Num of Load IPs stalling ROB: 26803
Threshold modification factor: -1
Max PIST entries: 64
Min PIST entries: 0
Avg PIST entries: 27.25
Trouble in retire width: 0.90425
MaC = Marked as critical.
lt_50_percent_before_Mac: 29
gt_90_percent_before_Mac: 3
gt_75_percent_before_Mac: 6
gt_50_percent_before_Mac: 7
stall_proportion_bin_same_before_after: 0
stall_proportion_bin_lower_before_after: 0
stall_proportion_bin_upper_before_after: 0
average_stall_proportion_before: 0.057911
average_stall_proportion_after: 0.0567123
Critical IP stalls, total frequency: 1205394
Non-critical IP stalls, total frequency: 1963591
Total Freq all stalling IPs: 3168985
Critical_IP_Detector_Accuracy_70: 0.543478
Critical_IP_Detector_Accuracy_80: 0.826087
Critical_IP_Detector_Accuracy_90: 1
Critical_IP_Detector_Coverage_70: 0.0943396
Critical_IP_Detector_Coverage_80: 0.0569715
Critical_IP_Detector_Coverage_90: 0.0241343
stat_90_percent_critical_ip_stalls_freq: 2852106
stat_90_percent_non_critical_ip_stalls_freq: 316879
AVERAGE_ROB_Occupancy_90_Percent_Critical_IP_Stalls: 137.183
AVERAGE_ROB_Occupancy_90_Percent_Non_Critical_IP_Stalls: 37.7658
Critical_IP_ROB_Stalls_Bucket_0: 319002
Non-critical_IP_ROB_Stalls_Bucket_0: 1032957
Critical_IP_ROB_Stalls_Bucket_1: 81853
Non-critical_IP_ROB_Stalls_Bucket_1: 584553
Critical_IP_ROB_Stalls_Bucket_2: 31938
Non-critical_IP_ROB_Stalls_Bucket_2: 241295
Critical_IP_ROB_Stalls_Bucket_3: 26177
Non-critical_IP_ROB_Stalls_Bucket_3: 69714
Critical_IP_ROB_Stalls_Bucket_4: 16321
Non-critical_IP_ROB_Stalls_Bucket_4: 21357
Critical_IP_ROB_Stalls_Bucket_5: 13812
Non-critical_IP_ROB_Stalls_Bucket_5: 7654
Critical_IP_ROB_Stalls_Bucket_6: 716291
Non-critical_IP_ROB_Stalls_Bucket_6: 6061
0 => IPs accounting for >50 percent of stalls, 1 => 55, 2 => 60, 3 => 65 and so on till 90.
percent50: 50.0306 num IPs:  43
percent55: 55.07 num IPs: 68
percent60: 60.0381 num IPs: 104
percent65: 65.0137 num IPs: 166
percent70: 70.0221 num IPs: 265
percent75: 75.0185 num IPs: 418
percent80: 80.008 num IPs: 667
percent85: 85.005 num IPs: 1103
percent90: 90.0007 num IPs: 1906
Critical_ROB_Stalls_Percent_0_Bucket_0: 443239
Non-critical_ROB_Stalls_Percent_0_Bucket_0: 908720
Critical_ROB_Stalls_Percent_0_Bucket_1: 232226
Non-critical_ROB_Stalls_Percent_0_Bucket_1: 434180
Critical_ROB_Stalls_Percent_0_Bucket_2: 121554
Non-critical_ROB_Stalls_Percent_0_Bucket_2: 151679
Critical_ROB_Stalls_Percent_0_Bucket_3: 48245
Non-critical_ROB_Stalls_Percent_0_Bucket_3: 47646
Critical_ROB_Stalls_Percent_0_Bucket_4: 20074
Non-critical_ROB_Stalls_Percent_0_Bucket_4: 17604
Critical_ROB_Stalls_Percent_0_Bucket_5: 12410
Non-critical_ROB_Stalls_Percent_0_Bucket_5: 9056
Critical_ROB_Stalls_Percent_0_Bucket_6: 707715
Non-critical_ROB_Stalls_Percent_0_Bucket_6: 14637
Critical_ROB_Stalls_Percent_1_Bucket_0: 521254
Non-critical_ROB_Stalls_Percent_1_Bucket_0: 830705
Critical_ROB_Stalls_Percent_1_Bucket_1: 287362
Non-critical_ROB_Stalls_Percent_1_Bucket_1: 379044
Critical_ROB_Stalls_Percent_1_Bucket_2: 139472
Non-critical_ROB_Stalls_Percent_1_Bucket_2: 133761
Critical_ROB_Stalls_Percent_1_Bucket_3: 53396
Non-critical_ROB_Stalls_Percent_1_Bucket_3: 42495
Critical_ROB_Stalls_Percent_1_Bucket_4: 22077
Non-critical_ROB_Stalls_Percent_1_Bucket_4: 15601
Critical_ROB_Stalls_Percent_1_Bucket_5: 13161
Non-critical_ROB_Stalls_Percent_1_Bucket_5: 8305
Critical_ROB_Stalls_Percent_1_Bucket_6: 708437
Non-critical_ROB_Stalls_Percent_1_Bucket_6: 13915
Critical_ROB_Stalls_Percent_2_Bucket_0: 588661
Non-critical_ROB_Stalls_Percent_2_Bucket_0: 763298
Critical_ROB_Stalls_Percent_2_Bucket_1: 336727
Non-critical_ROB_Stalls_Percent_2_Bucket_1: 329679
Critical_ROB_Stalls_Percent_2_Bucket_2: 161232
Non-critical_ROB_Stalls_Percent_2_Bucket_2: 112001
Critical_ROB_Stalls_Percent_2_Bucket_3: 60280
Non-critical_ROB_Stalls_Percent_2_Bucket_3: 35611
Critical_ROB_Stalls_Percent_2_Bucket_4: 25393
Non-critical_ROB_Stalls_Percent_2_Bucket_4: 12285
Critical_ROB_Stalls_Percent_2_Bucket_5: 15487
Non-critical_ROB_Stalls_Percent_2_Bucket_5: 5979
Critical_ROB_Stalls_Percent_2_Bucket_6: 714817
Non-critical_ROB_Stalls_Percent_2_Bucket_6: 7535
Critical_ROB_Stalls_Percent_3_Bucket_0: 659868
Non-critical_ROB_Stalls_Percent_3_Bucket_0: 692091
Critical_ROB_Stalls_Percent_3_Bucket_1: 388064
Non-critical_ROB_Stalls_Percent_3_Bucket_1: 278342
Critical_ROB_Stalls_Percent_3_Bucket_2: 183295
Non-critical_ROB_Stalls_Percent_3_Bucket_2: 89938
Critical_ROB_Stalls_Percent_3_Bucket_3: 68396
Non-critical_ROB_Stalls_Percent_3_Bucket_3: 27495
Critical_ROB_Stalls_Percent_3_Bucket_4: 27667
Non-critical_ROB_Stalls_Percent_3_Bucket_4: 10011
Critical_ROB_Stalls_Percent_3_Bucket_5: 16973
Non-critical_ROB_Stalls_Percent_3_Bucket_5: 4493
Critical_ROB_Stalls_Percent_3_Bucket_6: 716010
Non-critical_ROB_Stalls_Percent_3_Bucket_6: 6342
Critical_ROB_Stalls_Percent_4_Bucket_0: 737828
Non-critical_ROB_Stalls_Percent_4_Bucket_0: 614131
Critical_ROB_Stalls_Percent_4_Bucket_1: 443164
Non-critical_ROB_Stalls_Percent_4_Bucket_1: 223242
Critical_ROB_Stalls_Percent_4_Bucket_2: 203311
Non-critical_ROB_Stalls_Percent_4_Bucket_2: 69922
Critical_ROB_Stalls_Percent_4_Bucket_3: 72642
Non-critical_ROB_Stalls_Percent_4_Bucket_3: 23249
Critical_ROB_Stalls_Percent_4_Bucket_4: 28524
Non-critical_ROB_Stalls_Percent_4_Bucket_4: 9154
Critical_ROB_Stalls_Percent_4_Bucket_5: 17251
Non-critical_ROB_Stalls_Percent_4_Bucket_5: 4215
Critical_ROB_Stalls_Percent_4_Bucket_6: 716270
Non-critical_ROB_Stalls_Percent_4_Bucket_6: 6082
Critical_ROB_Stalls_Percent_5_Bucket_0: 818271
Non-critical_ROB_Stalls_Percent_5_Bucket_0: 533688
Critical_ROB_Stalls_Percent_5_Bucket_1: 490408
Non-critical_ROB_Stalls_Percent_5_Bucket_1: 175998
Critical_ROB_Stalls_Percent_5_Bucket_2: 219735
Non-critical_ROB_Stalls_Percent_5_Bucket_2: 53498
Critical_ROB_Stalls_Percent_5_Bucket_3: 79487
Non-critical_ROB_Stalls_Percent_5_Bucket_3: 16404
Critical_ROB_Stalls_Percent_5_Bucket_4: 32184
Non-critical_ROB_Stalls_Percent_5_Bucket_4: 5494
Critical_ROB_Stalls_Percent_5_Bucket_5: 18053
Non-critical_ROB_Stalls_Percent_5_Bucket_5: 3413
Critical_ROB_Stalls_Percent_5_Bucket_6: 719186
Non-critical_ROB_Stalls_Percent_5_Bucket_6: 3166
Critical_ROB_Stalls_Percent_6_Bucket_0: 916351
Non-critical_ROB_Stalls_Percent_6_Bucket_0: 435608
Critical_ROB_Stalls_Percent_6_Bucket_1: 532168
Non-critical_ROB_Stalls_Percent_6_Bucket_1: 134238
Critical_ROB_Stalls_Percent_6_Bucket_2: 231390
Non-critical_ROB_Stalls_Percent_6_Bucket_2: 41843
Critical_ROB_Stalls_Percent_6_Bucket_3: 82540
Non-critical_ROB_Stalls_Percent_6_Bucket_3: 13351
Critical_ROB_Stalls_Percent_6_Bucket_4: 33717
Non-critical_ROB_Stalls_Percent_6_Bucket_4: 3961
Critical_ROB_Stalls_Percent_6_Bucket_5: 19094
Non-critical_ROB_Stalls_Percent_6_Bucket_5: 2372
Critical_ROB_Stalls_Percent_6_Bucket_6: 720180
Non-critical_ROB_Stalls_Percent_6_Bucket_6: 2172
Critical_ROB_Stalls_Percent_7_Bucket_0: 1008264
Non-critical_ROB_Stalls_Percent_7_Bucket_0: 343695
Critical_ROB_Stalls_Percent_7_Bucket_1: 574427
Non-critical_ROB_Stalls_Percent_7_Bucket_1: 91979
Critical_ROB_Stalls_Percent_7_Bucket_2: 245561
Non-critical_ROB_Stalls_Percent_7_Bucket_2: 27672
Critical_ROB_Stalls_Percent_7_Bucket_3: 88389
Non-critical_ROB_Stalls_Percent_7_Bucket_3: 7502
Critical_ROB_Stalls_Percent_7_Bucket_4: 35639
Non-critical_ROB_Stalls_Percent_7_Bucket_4: 2039
Critical_ROB_Stalls_Percent_7_Bucket_5: 20497
Non-critical_ROB_Stalls_Percent_7_Bucket_5: 969
Critical_ROB_Stalls_Percent_7_Bucket_6: 721016
Non-critical_ROB_Stalls_Percent_7_Bucket_6: 1336
Critical_ROB_Stalls_Percent_8_Bucket_0: 1109345
Non-critical_ROB_Stalls_Percent_8_Bucket_0: 242614
Critical_ROB_Stalls_Percent_8_Bucket_1: 614070
Non-critical_ROB_Stalls_Percent_8_Bucket_1: 52336
Critical_ROB_Stalls_Percent_8_Bucket_2: 258500
Non-critical_ROB_Stalls_Percent_8_Bucket_2: 14733
Critical_ROB_Stalls_Percent_8_Bucket_3: 91449
Non-critical_ROB_Stalls_Percent_8_Bucket_3: 4442
Critical_ROB_Stalls_Percent_8_Bucket_4: 36355
Non-critical_ROB_Stalls_Percent_8_Bucket_4: 1323
Critical_ROB_Stalls_Percent_8_Bucket_5: 20868
Non-critical_ROB_Stalls_Percent_8_Bucket_5: 598
Critical_ROB_Stalls_Percent_8_Bucket_6: 721519
Non-critical_ROB_Stalls_Percent_8_Bucket_6: 833
Average ROB occupancy Load Stall Begin: 119.548
Average ROB occupancy Load Stall End: 127.242
Min ROB occupancy Load Stall Begin: 1
Max ROB occupancy Load Stall Begin: 352
Min ROB occupancy Load Stall End: 1
Max ROB occupancy Load Stall End: 352
Average ROB occupancy Critical Load Stall Begin: 242.023
Average ROB occupancy Critical Load Stall End: 247.305
Min ROB occupancy Critical Load Stall Begin: 2
Max ROB occupancy Critical Load Stall Begin: 352
Min ROB occupancy Critical Load Stall End: 2
Max ROB occupancy Critical Load Stall End: 352
 ROB Load Stall Begin Bucket Count 0: 1573103
 ROB Load Stall End Bucket Count 0: 1351959
 ROB Critical Load Stall Begin Bucket Count 0: 314168
 ROB Critical Load Stall End Bucket Count 0: 279867
 ROB Load Stall Begin Bucket Count 1: 533188
 ROB Load Stall End Bucket Count 1: 666406
 ROB Critical Load Stall Begin Bucket Count 1: 32772
 ROB Critical Load Stall End Bucket Count 1: 57711
 ROB Load Stall Begin Bucket Count 2: 221951
 ROB Load Stall End Bucket Count 2: 273233
 ROB Critical Load Stall Begin Bucket Count 2: 23628
 ROB Critical Load Stall End Bucket Count 2: 23740
 ROB Load Stall Begin Bucket Count 3: 74634
 ROB Load Stall End Bucket Count 3: 95891
 ROB Critical Load Stall Begin Bucket Count 3: 18436
 ROB Critical Load Stall End Bucket Count 3: 21631
 ROB Load Stall Begin Bucket Count 4: 30280
 ROB Load Stall End Bucket Count 4: 37678
 ROB Critical Load Stall Begin Bucket Count 4: 12851
 ROB Critical Load Stall End Bucket Count 4: 13959
 ROB Load Stall Begin Bucket Count 5: 19412
 ROB Load Stall End Bucket Count 5: 21466
 ROB Critical Load Stall Begin Bucket Count 5: 11300
 ROB Critical Load Stall End Bucket Count 5: 12034
 ROB Load Stall Begin Bucket Count 6: 716417
 ROB Load Stall End Bucket Count 6: 722352
 ROB Critical Load Stall Begin Bucket Count 6: 708745
 ROB Critical Load Stall End Bucket Count 6: 712958
PIST Tag Read Accesses: 2322632
PIST Read Accesses: 1161316
PIST Tag Write Accesses: 2322632
PIST Write Accesses: 1161316
Criticality detector called times: 2047085
Max global_stall_cycles_count: 3869347
Threshold Modified: 1 times, factor: -1
Sturdy critical IP cache stats: 
 Unused entries: 0
CIC Tag Read Accesses: 0
CIC Read Accesses: 0
CIC Tag Write Accesses: 0
CIC Write Accesses: 0
Wobbly critical IP cache stats: 
 Unused entries: 82
CIC Tag Read Accesses: 81713420
CIC Read Accesses: 0
CIC Tag Write Accesses: 10707
CIC Write Accesses: 0
ITLB TOTAL     ACCESS:    9300113  HIT:    9222805  MISS:      77308  HIT %:    99.1687  MISS %:   0.831259   MPKI: 1.54616
ITLB LOAD TRANSLATION ACCESS:    8637309  HIT:    8600142  MISS:      37167  HIT %:    99.5697  MISS %:   0.430308   MPKI: 0.74334
ITLB TRANSLATION FROM L1D PREFETCHER ACCESS:     662804  HIT:     622663  MISS:      40141  HIT %:    93.9438  MISS %:    6.05624   MPKI: 0.80282
ITLBprefetch_cycle_count: 0 prefetches_per_prefetch_cycle: -nan
ITLB PREFETCH  REQUESTED:          0  ISSUED:          0  USEFUL:      31468  USELESS:       8675
ITLB USEFUL LOAD PREFETCHES:      31468 PREFETCH ISSUED TO LOWER LEVEL:          0  ACCURACY: inf
ITLB TIMELY PREFETCHES:      31468 LATE PREFETCHES: 214 DROPPED PREFETCHES: 376
ITLB PREFETCHES SAME FILL-ORIGIN LEVEL: 0 DIFFERENT FILL-ORIGIN LEVEL: 0
ITLB AVERAGE MISS LATENCY: 114285 cycles
ITLB RQ	ACCESS:   11682064	FORWARD:          0	MERGED:    2367874	TO_CACHE:    9314190

DTLB TOTAL     ACCESS:    9854129  HIT:    9753579  MISS:     100550  HIT %:    98.9796  MISS %:    1.02038   MPKI: 2.011
DTLB LOAD TRANSLATION ACCESS:    9854129  HIT:    9753579  MISS:     100550  HIT %:    98.9796  MISS %:    1.02038   MPKI: 2.011
DTLBprefetch_cycle_count: 0 prefetches_per_prefetch_cycle: -nan
DTLB PREFETCH  REQUESTED:          0  ISSUED:          0  USEFUL:          0  USELESS:          0
DTLB USEFUL LOAD PREFETCHES:          0 PREFETCH ISSUED TO LOWER LEVEL:          0  ACCURACY: -nan
DTLB TIMELY PREFETCHES:          0 LATE PREFETCHES: 0 DROPPED PREFETCHES: 0
DTLB PREFETCHES SAME FILL-ORIGIN LEVEL: 0 DIFFERENT FILL-ORIGIN LEVEL: 0
DTLB AVERAGE MISS LATENCY: 14.0614 cycles
DTLB RQ	ACCESS:   12732789	FORWARD:          0	MERGED:    2860886	TO_CACHE:    9871903

STLB TOTAL     ACCESS:     177858  HIT:     173251  MISS:       4607  HIT %:    97.4097  MISS %:    2.59027   MPKI: 0.09214
STLB LOAD TRANSLATION ACCESS:     137503  HIT:     133081  MISS:       4422  HIT %:    96.7841  MISS %:    3.21593   MPKI: 0.08844
STLB TRANSLATION FROM L1D PREFETCHER ACCESS:      40355  HIT:      40170  MISS:        185  HIT %:    99.5416  MISS %:   0.458431   MPKI: 0.0037
STLBprefetch_cycle_count: 0 prefetches_per_prefetch_cycle: -nan
STLB PREFETCH  REQUESTED:          0  ISSUED:          0  USEFUL:        118  USELESS:         36
STLB USEFUL LOAD PREFETCHES:        118 PREFETCH ISSUED TO LOWER LEVEL:          0  ACCURACY: inf
STLB TIMELY PREFETCHES:        118 LATE PREFETCHES: 0 DROPPED PREFETCHES: 376
STLB PREFETCHES SAME FILL-ORIGIN LEVEL: 0 DIFFERENT FILL-ORIGIN LEVEL: 0
STLB AVERAGE MISS LATENCY: 132.442 cycles
STLB RQ	ACCESS:     178234	FORWARD:          0	MERGED:          0	TO_CACHE:     178234

STLB Hit, L1D data hit: 0
STLB Hit, L2C data hit: 0
STLB Hit, LLC data hit: 0
STLB Hit, LLC data miss: 0
STLB STLB hints to L2: 0
L1D TOTAL     ACCESS:   12174557  HIT:   11767238  MISS:     407319  HIT %:    96.6543  MISS %:    3.34566   MPKI: 8.14638
L1D LOAD      ACCESS:    6164861  HIT:    5997358  MISS:     167503  HIT %:    97.2829  MISS %:    2.71706   MPKI: 3.35006
L1D RFO       ACCESS:    6009696  HIT:    5769880  MISS:     239816  HIT %:    96.0095  MISS %:    3.99048   MPKI: 4.79632
L1Dprefetch_cycle_count: 0 prefetches_per_prefetch_cycle: -nan
L1D PREFETCH  REQUESTED:          0  ISSUED:          0  USEFUL:          0  USELESS:          0
L1D USEFUL LOAD PREFETCHES:          0 PREFETCH ISSUED TO LOWER LEVEL:          0  ACCURACY: -nan
L1D TIMELY PREFETCHES:          0 LATE PREFETCHES: 0 DROPPED PREFETCHES: 0
L1D PREFETCHES SAME FILL-ORIGIN LEVEL: 0 DIFFERENT FILL-ORIGIN LEVEL: 0
L1D AVERAGE MISS LATENCY: 115.66 cycles
L1D RQ	ACCESS:    9774864	FORWARD:          0	MERGED:    3431968	TO_CACHE:    6215972
L1D WQ	ACCESS:    6907394	FORWARD:     126924	MERGED:     390577	TO_CACHE:    6516817

L1D UNIQUE REGIONS ACCESSED: 0
L1D REGIONS CONFLICTS: 0
L1D Cross Page Prefetch Requests: 0
L1D Same Page Prefetch Requests: 0
L1D ROI Sum of L1D PQ occupancy: 0
L1D PREFETCHES PUSHED FROM L2C: 0
L1I TOTAL     ACCESS:   11593515  HIT:   10858333  MISS:     735182  HIT %:    93.6587  MISS %:    6.34132   MPKI: 14.7036
L1I LOAD      ACCESS:    9756140  HIT:    9576869  MISS:     179271  HIT %:    98.1625  MISS %:    1.83752   MPKI: 3.58542
L1I PREFETCH  ACCESS:    1837375  HIT:    1281464  MISS:     555911  HIT %:    69.7443  MISS %:    30.2557   MPKI: 11.1182
L1Iprefetch_cycle_count: 0 prefetches_per_prefetch_cycle: inf
L1I PREFETCH  REQUESTED:    2006083  ISSUED:    2003865  USEFUL:     353705  USELESS:     202251
L1I USEFUL LOAD PREFETCHES:     353705 PREFETCH ISSUED TO LOWER LEVEL:     573999  ACCURACY: 61.6212
L1I TIMELY PREFETCHES:     353705 LATE PREFETCHES: 18059 DROPPED PREFETCHES: 652
L1I PREFETCHES SAME FILL-ORIGIN LEVEL: 573999 DIFFERENT FILL-ORIGIN LEVEL: 0
L1I AVERAGE MISS LATENCY: 985248 cycles
L1I RQ	ACCESS:   14259691	FORWARD:          0	MERGED:    4479415	TO_CACHE:    9780276
L1I PQ	ACCESS:    2003865	FORWARD:          0	MERGED:     102077	TO_CACHE:    1901788

BTB TOTAL     ACCESS:    7502677  HIT:    7071437  MISS:     431240  HIT %:    94.2522  MISS %:    5.74782   MPKI: 8.6248
BTB BRANCH_DIRECT_JUMP	ACCESS:     370859  HIT:     358934  MISS:      11925
BTB BRANCH_INDIRECT	ACCESS:      83252  HIT:      39140  MISS:      44112
BTB BRANCH_CONDITIONAL	ACCESS:    5399005  HIT:    5361920  MISS:      37085
BTB BRANCH_DIRECT_CALL	ACCESS:     722308  HIT:     695961  MISS:      26347
BTB BRANCH_INDIRECT_CALL	ACCESS:     101901  HIT:      81558  MISS:      20343
BTB BRANCH_RETURN	ACCESS:     825352  HIT:     533924  MISS:     291428
BTB BRANCH_OTHER ACCESS:          0  HIT:          0  MISS:          0

L2C TOTAL     ACCESS:    1447435  HIT:    1055925  MISS:     391510  HIT %:    72.9515  MISS %:    27.0485   MPKI: 7.8302
L2C LOAD      ACCESS:     328711  HIT:     234463  MISS:      94248  HIT %:     71.328  MISS %:     28.672   MPKI: 1.88496
L2C DATA LOAD MPKI: 1.4921
L2C INSTRUCTION LOAD MPKI: 0.39286
L2C RFO       ACCESS:     239814  HIT:      29058  MISS:     210756  HIT %:    12.1169  MISS %:    87.8831   MPKI: 4.21512
L2C PREFETCH  ACCESS:     612388  HIT:     536491  MISS:      75897  HIT %:    87.6064  MISS %:    12.3936   MPKI: 1.51794
L2C DATA PREFETCH MPKI: 0.6911
L2C INSTRUCTION PREFETCH MPKI: 0.82684
L2C WRITEBACK ACCESS:     261421  HIT:     252374  MISS:       9047  HIT %:    96.5393  MISS %:     3.4607   MPKI: 0.18094
L2C LOAD TRANSLATION ACCESS:       4531  HIT:       3088  MISS:       1443  HIT %:    68.1527  MISS %:    31.8473   MPKI: 0.02886
L2C TRANSLATION FROM L1D PREFETCHER ACCESS:        570  HIT:        451  MISS:        119  HIT %:    79.1228  MISS %:    20.8772   MPKI: 0.00238
L2Cprefetch_cycle_count: 3762 prefetches_per_prefetch_cycle: 10.5183
L2C PREFETCH  REQUESTED:      39570  ISSUED:      39570  USEFUL:      37235  USELESS:      40405
L2C USEFUL LOAD PREFETCHES:      37235 PREFETCH ISSUED TO LOWER LEVEL:      76837  ACCURACY: 48.4597
L2C TIMELY PREFETCHES:      37235 LATE PREFETCHES: 940 DROPPED PREFETCHES: 0
L2C PREFETCHES SAME FILL-ORIGIN LEVEL: 35495 DIFFERENT FILL-ORIGIN LEVEL: 0
L2C AVERAGE MISS LATENCY: 132.369 cycles
L2C RQ	ACCESS:     573632	FORWARD:          0	MERGED:          0	TO_CACHE:     573626
L2C WQ	ACCESS:     261421	FORWARD:          6	MERGED:          0	TO_CACHE:     261421
L2C PQ	ACCESS:     613540	FORWARD:          0	MERGED:          0	TO_CACHE:     613540

L2C Instructions Evicting Data 36525
L2C Translations Evicting Data 1150
L2C Data Evicting Data 281586
L2C Instructions Evicting Instructions 24053
L2C Translations Evicting Instructions 404
L2C Data Evicting Instructions 37331
L2C Instructions Evicting Translations 407
L2C Translations Evicting Translations 8
L2C Data Evicting Translations 999
L2C Dense regions hint from L2: 0
PSCL5 TOTAL     ACCESS:       4983  HIT:       4983  MISS:          0  HIT %:        100  MISS %:          0   MPKI: 0
PSCL5 LOAD TRANSLATION ACCESS:       4422  HIT:       4422  MISS:          0  HIT %:        100  MISS %:          0   MPKI: 0
PSCL5 TRANSLATION FROM L1D PREFETCHER ACCESS:        561  HIT:        561  MISS:          0  HIT %:        100  MISS %:          0   MPKI: 0
PSCL5prefetch_cycle_count: 0 prefetches_per_prefetch_cycle: -nan
PSCL5 PREFETCH  REQUESTED:          0  ISSUED:          0  USEFUL:          0  USELESS:          0
PSCL5 USEFUL LOAD PREFETCHES:          0 PREFETCH ISSUED TO LOWER LEVEL:          0  ACCURACY: -nan
PSCL5 TIMELY PREFETCHES:          0 LATE PREFETCHES: 0 DROPPED PREFETCHES: 0
PSCL5 PREFETCHES SAME FILL-ORIGIN LEVEL: 0 DIFFERENT FILL-ORIGIN LEVEL: 0

PSCL4 TOTAL     ACCESS:       4983  HIT:       4983  MISS:          0  HIT %:        100  MISS %:          0   MPKI: 0
PSCL4 LOAD TRANSLATION ACCESS:       4422  HIT:       4422  MISS:          0  HIT %:        100  MISS %:          0   MPKI: 0
PSCL4 TRANSLATION FROM L1D PREFETCHER ACCESS:        561  HIT:        561  MISS:          0  HIT %:        100  MISS %:          0   MPKI: 0
PSCL4prefetch_cycle_count: 0 prefetches_per_prefetch_cycle: -nan
PSCL4 PREFETCH  REQUESTED:          0  ISSUED:          0  USEFUL:          0  USELESS:          0
PSCL4 USEFUL LOAD PREFETCHES:          0 PREFETCH ISSUED TO LOWER LEVEL:          0  ACCURACY: -nan
PSCL4 TIMELY PREFETCHES:          0 LATE PREFETCHES: 0 DROPPED PREFETCHES: 0
PSCL4 PREFETCHES SAME FILL-ORIGIN LEVEL: 0 DIFFERENT FILL-ORIGIN LEVEL: 0

PSCL3 TOTAL     ACCESS:       4949  HIT:       4946  MISS:          3  HIT %:    99.9394  MISS %:  0.0606183   MPKI: 6e-05
PSCL3 LOAD TRANSLATION ACCESS:       4390  HIT:       4387  MISS:          3  HIT %:    99.9317  MISS %:  0.0683371   MPKI: 6e-05
PSCL3 TRANSLATION FROM L1D PREFETCHER ACCESS:        559  HIT:        559  MISS:          0  HIT %:        100  MISS %:          0   MPKI: 0
PSCL3prefetch_cycle_count: 0 prefetches_per_prefetch_cycle: -nan
PSCL3 PREFETCH  REQUESTED:          0  ISSUED:          0  USEFUL:          0  USELESS:          0
PSCL3 USEFUL LOAD PREFETCHES:          0 PREFETCH ISSUED TO LOWER LEVEL:          0  ACCURACY: -nan
PSCL3 TIMELY PREFETCHES:          0 LATE PREFETCHES: 0 DROPPED PREFETCHES: 0
PSCL3 PREFETCHES SAME FILL-ORIGIN LEVEL: 0 DIFFERENT FILL-ORIGIN LEVEL: 0

PSCL2 TOTAL     ACCESS:       4983  HIT:       4855  MISS:        128  HIT %:    97.4313  MISS %:    2.56873   MPKI: 0.00256
PSCL2 LOAD TRANSLATION ACCESS:       4430  HIT:       4302  MISS:        128  HIT %:    97.1106  MISS %:    2.88939   MPKI: 0.00256
PSCL2 TRANSLATION FROM L1D PREFETCHER ACCESS:        553  HIT:        553  MISS:          0  HIT %:        100  MISS %:          0   MPKI: 0
PSCL2prefetch_cycle_count: 0 prefetches_per_prefetch_cycle: -nan
PSCL2 PREFETCH  REQUESTED:          0  ISSUED:          0  USEFUL:          0  USELESS:          0
PSCL2 USEFUL LOAD PREFETCHES:          0 PREFETCH ISSUED TO LOWER LEVEL:          0  ACCURACY: -nan
PSCL2 TIMELY PREFETCHES:          0 LATE PREFETCHES: 0 DROPPED PREFETCHES: 0
PSCL2 PREFETCHES SAME FILL-ORIGIN LEVEL: 0 DIFFERENT FILL-ORIGIN LEVEL: 0

LLC TOTAL     ACCESS:     600950  HIT:     335518  MISS:     265432  HIT %:    55.8313  MISS %:    44.1687   MPKI: 5.30864
LLC LOAD      ACCESS:      93307  HIT:      44944  MISS:      48363  HIT %:    48.1679  MISS %:    51.8321   MPKI: 0.96726
LLC RFO       ACCESS:     210754  HIT:      35880  MISS:     174874  HIT %:    17.0246  MISS %:    82.9754   MPKI: 3.49748
LLC PREFETCH  ACCESS:      76837  HIT:      39466  MISS:      37371  HIT %:    51.3633  MISS %:    48.6367   MPKI: 0.74742
LLC WRITEBACK ACCESS:     218490  HIT:     214711  MISS:       3779  HIT %:    98.2704  MISS %:     1.7296   MPKI: 0.07558
LLC LOAD TRANSLATION ACCESS:       1443  HIT:        462  MISS:        981  HIT %:    32.0166  MISS %:    67.9834   MPKI: 0.01962
LLC TRANSLATION FROM L1D PREFETCHER ACCESS:        119  HIT:         55  MISS:         64  HIT %:    46.2185  MISS %:    53.7815   MPKI: 0.00128
LLCprefetch_cycle_count: 0 prefetches_per_prefetch_cycle: -nan
LLC PREFETCH  REQUESTED:          0  ISSUED:          0  USEFUL:        720  USELESS:      36188
LLC USEFUL LOAD PREFETCHES:        720 PREFETCH ISSUED TO LOWER LEVEL:      37371  ACCURACY: 1.92663
LLC TIMELY PREFETCHES:        720 LATE PREFETCHES: 0 DROPPED PREFETCHES: 0
LLC PREFETCHES SAME FILL-ORIGIN LEVEL: 0 DIFFERENT FILL-ORIGIN LEVEL: 0
LLC AVERAGE MISS LATENCY: 151.129 cycles
LLC RQ	ACCESS:     305626	FORWARD:          0	MERGED:          0	TO_CACHE:     305623
LLC WQ	ACCESS:     218490	FORWARD:          3	MERGED:          0	TO_CACHE:     218490
LLC PQ	ACCESS:      76837	FORWARD:          0	MERGED:          0	TO_CACHE:      76837

LLC Dense regions hint to LLC: 0

RAW hits: 1281412
Loads Generated: 11056274
Loads sent to L1D: 9774864
Stores Generated: 6907390
Stores sent to L1D: 6907394
Major fault: 0 Minor fault: 5106
Allocated PAGES: 5106
I-Shadow cache 408 bytes
Touched + WorthPF tables 6144 bytes 
MMA filter 174 bytes 
FNL filter 272 bytes 
TOTAL PREFETCHER STORAGE SIZE: 25174 bytes
CPU 0 L1I next line prefetcher final stats
total_pref_operate_instances_l2: 587281
dynamic_config_counter_instances_l2_1: 555704
dynamic_config_counter_instances_l2_2: 14901
dynamic_config_counter_instances_l2_3: 16676
dynamic_config_counter_instances_l2_4: 0
dynamic_config_counter_instances_l2_5: 0
[Bingo] PHT Access: 5207
[Bingo] PHT Hit PC+Addr: 350
[Bingo] PHT Hit PC+Offs: 3446
[Bingo] PHT Miss: 1411
[Bingo] Prefetch PC+Addr: 0
[Bingo] Prefetch PC+Offs: 0
[Bingo] Useful PC+Addr: 0
[Bingo] Useful PC+Offs: 0
[Bingo] Useless PC+Addr: 0
[Bingo] Useless PC+Offs: 0
[Bingo] L1 Prefetch per Region: 0
[Bingo] L2 Prefetch per Region: 21.241
[Bingo] L3 Prefetch per Region: 0
[Bingo] No Prefetch per Region: 10.759
[Bingo] Number of Voters Mean: 12.1747
[Bingo] Number of Voters SD: 5.92771
PHT read accesses: 45907
PHT write accesses: 4071
AT read accesses: 81207
AT write accesses: 81595
FT read accesses: 13370
FT write accesses: 5207
PS read accesses: 7600
PS write accesses: 3796
PHT tag read accesses: 189066
PHT tag write accesses: 4421
AT tag read accesses: 7743752
AT tag write accesses: 85280
FT tag read accesses: 6583978
FT tag write accesses: 14346
PS tag read accesses: 1452610
PS tag write accesses: 11393

DRAM Statistics
 CHANNEL 0
 RQ ROW_BUFFER_HIT:     124450  ROW_BUFFER_MISS:     137203
 DBUS_CONGESTED:        156
 WQ ROW_BUFFER_HIT:      34996  ROW_BUFFER_MISS:     139837  FULL:          0

 AVG_CONGESTED_CYCLE: 3
 All warmup complete: 2
Channel 0 Bank busy for read cycles: 0
Channel 0 Bank busy for write cycles: 0
Channel 0
Rank 0
0banks busy for read cycles: 54414977
0banks busy for write cycles: 42778
1banks busy for read cycles: 10514551
1banks busy for write cycles: 5637569
2banks busy for read cycles: 945850
2banks busy for write cycles: 1046759
3banks busy for read cycles: 490462
3banks busy for write cycles: 432357
4banks busy for read cycles: 343419
4banks busy for write cycles: 331525
5banks busy for read cycles: 278396
5banks busy for write cycles: 306023
6banks busy for read cycles: 330944
6banks busy for write cycles: 334824
7banks busy for read cycles: 331855
7banks busy for write cycles: 453284
8banks busy for read cycles: 751087
8banks busy for write cycles: 1443019

CPU 0 Branch Prediction Accuracy: 98.6631% MPKI: 2.66884 Average ROB Occupancy at Mispredict: 41.885
Branch types
NOT_BRANCH: 40018632 80.0373%
BRANCH_DIRECT_JUMP: 370859 0.741718%
BRANCH_INDIRECT: 83252 0.166504%
BRANCH_CONDITIONAL: 7877415 15.7548%
BRANCH_DIRECT_CALL: 722308 1.44462%
BRANCH_INDIRECT_CALL: 101901 0.203802%
BRANCH_RETURN: 825352 1.6507%
BRANCH_OTHER: 0 0%

DRAM PAGES: 1048576
Allocated PAGES: 5106
