Initialize SIGNATURE TABLE
ST_SET: 1
ST_WAY: 256
ST_TAG_BIT: 16
ST_TAG_MASK: ffff

Initialize PATTERN TABLE
PT_SET: 512
PT_WAY: 4
SIG_DELTA_BIT: 7
C_SIG_BIT: 4
C_DELTA_BIT: 4

Initialize PREFETCH FILTER
FILTER_SET: 1024
MANA initialize 
tds: 2 tdm: 4
size MANA SINGLE: 25.5 KB
size MANA NULTIPLE: 9.875 KB
size HOBPT: 0.703125 KB
size SRQ: 0.0644531 KB
size SABs: 0.0402832 KB
size prefetch queue: 0.453125 KB
total: 36.636 KB

*** ChampSim Multicore Out-of-Order Simulator ***

Warmup Instructions: 50000000
Simulation Instructions: 50000000
Number of CPUs: 1
LLC sets: 2048
LLC ways: 16
Off-chip DRAM Size: 4096 MB Channels: 1 Width: 64-bit Data Rate: 6400 MT/s
CPU 0 runs ../IPC-traces//client_003.champsimtrace.xz
.xz
BTB has LRU replacement policy
ITLB has LRU replacement policy
DTLB has LRU replacement policy
STLB has LRU replacement policy
L1I has LRU replacement policy
L1D has LRU replacement policy
Initialize SRRIP state for L2C
Initialize DRRIP state for LLC
Heartbeat CPU 0 instructions: 10000000 cycles: 2923635 heartbeat IPC: 3.4204 cumulative IPC: 3.4204 (Simulation time: 0 hr 5 min 7 sec) 
Heartbeat CPU 0 instructions: 20000000 cycles: 5914112 heartbeat IPC: 3.34395 cumulative IPC: 3.38174 (Simulation time: 0 hr 8 min 34 sec) 
Heartbeat CPU 0 instructions: 30000003 cycles: 8815895 heartbeat IPC: 3.44616 cumulative IPC: 3.40294 (Simulation time: 0 hr 12 min 2 sec) 
Heartbeat CPU 0 instructions: 40000001 cycles: 11724983 heartbeat IPC: 3.4375 cumulative IPC: 3.41152 (Simulation time: 0 hr 15 min 25 sec) 
Heartbeat CPU 0 instructions: 50000002 cycles: 14633939 heartbeat IPC: 3.43766 cumulative IPC: 3.41672 (Simulation time: 0 hr 18 min 33 sec) 

Warmup complete CPU 0 instructions: 50000002 cycles: 14633939 (Simulation time: 0 hr 18 min 33 sec) 

Epoch all ip prefetch: 0, epoch id: 2
Epoch all ip prefetch: 1, epoch id: 3
Epoch all ip prefetch: 0, epoch id: 4
Epoch all ip prefetch: 0, epoch id: 5
Epoch all ip prefetch: 0, epoch id: 6
Epoch all ip prefetch: 0, epoch id: 7
Epoch all ip prefetch: 0, epoch id: 8
Epoch all ip prefetch: 0, epoch id: 9
Epoch all ip prefetch: 0, epoch id: 10
Epoch all ip prefetch: 0, epoch id: 11
Heartbeat CPU 0 instructions: 60000002 cycles: 27683111 heartbeat IPC: 0.766332 cumulative IPC: 0.766332 (Simulation time: 0 hr 22 min 8 sec) 
Epoch all ip prefetch: 0, epoch id: 12
Epoch all ip prefetch: 0, epoch id: 13
Epoch all ip prefetch: 0, epoch id: 14
Epoch all ip prefetch: 0, epoch id: 15
Epoch all ip prefetch: 0, epoch id: 16
Epoch all ip prefetch: 0, epoch id: 17
Epoch all ip prefetch: 0, epoch id: 18
Epoch all ip prefetch: 0, epoch id: 19
Epoch all ip prefetch: 0, epoch id: 20
Epoch all ip prefetch: 0, epoch id: 21
Heartbeat CPU 0 instructions: 70000001 cycles: 40222844 heartbeat IPC: 0.797465 cumulative IPC: 0.781589 (Simulation time: 0 hr 25 min 33 sec) 
Epoch all ip prefetch: 0, epoch id: 22
Epoch all ip prefetch: 0, epoch id: 23
Epoch all ip prefetch: 0, epoch id: 24
Epoch all ip prefetch: 0, epoch id: 25
Epoch all ip prefetch: 0, epoch id: 26
Epoch all ip prefetch: 0, epoch id: 27
Epoch all ip prefetch: 0, epoch id: 28
Epoch all ip prefetch: 0, epoch id: 29
Epoch all ip prefetch: 0, epoch id: 30
Epoch all ip prefetch: 0, epoch id: 31
Heartbeat CPU 0 instructions: 80000001 cycles: 54463509 heartbeat IPC: 0.702214 cumulative IPC: 0.753209 (Simulation time: 0 hr 28 min 55 sec) 
Epoch all ip prefetch: 0, epoch id: 32
Epoch all ip prefetch: 0, epoch id: 33
Epoch all ip prefetch: 0, epoch id: 34
Epoch all ip prefetch: 0, epoch id: 35
Epoch all ip prefetch: 0, epoch id: 36
Epoch all ip prefetch: 0, epoch id: 37
Epoch all ip prefetch: 0, epoch id: 38
Epoch all ip prefetch: 0, epoch id: 39
Epoch all ip prefetch: 0, epoch id: 40
Epoch all ip prefetch: 0, epoch id: 41
Heartbeat CPU 0 instructions: 90000000 cycles: 69668057 heartbeat IPC: 0.657698 cumulative IPC: 0.726822 (Simulation time: 0 hr 31 min 53 sec) 
Epoch all ip prefetch: 0, epoch id: 42
Epoch all ip prefetch: 0, epoch id: 43
Epoch all ip prefetch: 0, epoch id: 44
Epoch all ip prefetch: 0, epoch id: 45
Epoch all ip prefetch: 0, epoch id: 46
Epoch all ip prefetch: 0, epoch id: 47
Epoch all ip prefetch: 0, epoch id: 48
Epoch all ip prefetch: 0, epoch id: 49
Epoch all ip prefetch: 0, epoch id: 50
Epoch all ip prefetch: 0, epoch id: 51
Heartbeat CPU 0 instructions: 100000000 cycles: 89698054 heartbeat IPC: 0.499251 cumulative IPC: 0.666097 (Simulation time: 0 hr 35 min 51 sec) 
Finished CPU 0 instructions: 50000002 cycles: 75064117 cumulative IPC: 0.666097 (Simulation time: 0 hr 35 min 51 sec) 

ChampSim completed all CPUs

Region of Interest Statistics

CPU 0 cumulative IPC: 0.666097 instructions: 50000002 cycles: 75064117

CPU 0 Average Load ROB stall cycles: 2.54966
CPU 0 Fraction of times ROB stalled by Loads: 21.9517
CPU 0 Percentage of Load stall cycles in Total stall cycles: 38.7001
CPU 0 NUM of IPS identified critical: 0

Average ROB occupancy Load Stall Begin: 51.7596
Average ROB occupancy Load Stall End: 61.0712
Min ROB occupancy Load Stall Begin: 1
Max ROB occupancy Load Stall Begin: 351
Min ROB occupancy Load Stall End: 1
Max ROB occupancy Load Stall End: 352
Average ROB occupancy Critical Load Stall Begin: -nan
Average ROB occupancy Critical Load Stall End: -nan
Min ROB occupancy Critical Load Stall Begin: 400
Max ROB occupancy Critical Load Stall Begin: 0
Min ROB occupancy Critical Load Stall End: 400
Max ROB occupancy Critical Load Stall End: 0
 ROB Load Stall Begin Bucket Count 0: 1180605
 ROB Load Stall End Bucket Count 0: 1037180
 ROB Critical Load Stall Begin Bucket Count 0: 0
 ROB Critical Load Stall End Bucket Count 0: 0
 ROB Load Stall Begin Bucket Count 1: 376127
 ROB Load Stall End Bucket Count 1: 463594
 ROB Critical Load Stall Begin Bucket Count 1: 0
 ROB Critical Load Stall End Bucket Count 1: 0
 ROB Load Stall Begin Bucket Count 2: 152738
 ROB Load Stall End Bucket Count 2: 187165
 ROB Critical Load Stall Begin Bucket Count 2: 0
 ROB Critical Load Stall End Bucket Count 2: 0
 ROB Load Stall Begin Bucket Count 3: 44163
 ROB Load Stall End Bucket Count 3: 58442
 ROB Critical Load Stall Begin Bucket Count 3: 0
 ROB Critical Load Stall End Bucket Count 3: 0
 ROB Load Stall Begin Bucket Count 4: 13728
 ROB Load Stall End Bucket Count 4: 17808
 ROB Critical Load Stall Begin Bucket Count 4: 0
 ROB Critical Load Stall End Bucket Count 4: 0
 ROB Load Stall Begin Bucket Count 5: 7780
 ROB Load Stall End Bucket Count 5: 8563
 ROB Critical Load Stall Begin Bucket Count 5: 0
 ROB Critical Load Stall End Bucket Count 5: 0
 ROB Load Stall Begin Bucket Count 6: 20135
 ROB Load Stall End Bucket Count 6: 22524
 ROB Critical Load Stall Begin Bucket Count 6: 0
 ROB Critical Load Stall End Bucket Count 6: 0
Threshold Modified: 1 times, factor: -1
Sturdy critical IP cache stats: 
 Unused entries: 96
Wobbly critical IP cache stats: 
 Unused entries: 197
ITLB TOTAL     ACCESS:   12021860  HIT:   11869806  MISS:     152054  HIT %:    98.7352  MISS %:    1.26481   MPKI: 3.04108
ITLB LOAD TRANSLATION ACCESS:    8609404  HIT:    8569493  MISS:      39911  HIT %:    99.5364  MISS %:   0.463574   MPKI: 0.79822
ITLB TRANSLATION FROM L1D PREFETCHER ACCESS:    3412456  HIT:    3300313  MISS:     112143  HIT %:    96.7137  MISS %:    3.28628   MPKI: 2.24286
ITLB AVERAGE MISS LATENCY: 2.06523e+06 cycles
ITLB RQ	ACCESS:   19146837	FORWARD:          0	MERGED:    7052807	TO_CACHE:   12094030

DTLB TOTAL     ACCESS:    9888815  HIT:    9788269  MISS:     100546  HIT %:    98.9832  MISS %:    1.01676   MPKI: 2.01092
DTLB LOAD TRANSLATION ACCESS:    9888815  HIT:    9788269  MISS:     100546  HIT %:    98.9832  MISS %:    1.01676   MPKI: 2.01092
DTLB AVERAGE MISS LATENCY: 14.3004 cycles
DTLB RQ	ACCESS:   12771761	FORWARD:          0	MERGED:    2865209	TO_CACHE:    9906552

STLB TOTAL     ACCESS:     252600  HIT:     247890  MISS:       4710  HIT %:    98.1354  MISS %:    1.86461   MPKI: 0.0942
STLB LOAD TRANSLATION ACCESS:     132334  HIT:     127870  MISS:       4464  HIT %:    96.6267  MISS %:    3.37328   MPKI: 0.08928
STLB TRANSLATION FROM L1D PREFETCHER ACCESS:     120266  HIT:     120020  MISS:        246  HIT %:    99.7955  MISS %:   0.204547   MPKI: 0.00492
STLB AVERAGE MISS LATENCY: 141.02 cycles
STLB RQ	ACCESS:     289093	FORWARD:          0	MERGED:          0	TO_CACHE:     289093

STLB Hit, L1D data hit: 0
STLB Hit, L2C data hit: 0
STLB Hit, LLC data hit: 0
STLB Hit, LLC data miss: 0
STLB STLB hints to L2: 0
L1D TOTAL     ACCESS:   12152342  HIT:   11745022  MISS:     407320  HIT %:    96.6482  MISS %:    3.35178   MPKI: 8.1464
L1D LOAD      ACCESS:    6203545  HIT:    6036004  MISS:     167541  HIT %:    97.2993  MISS %:    2.70073   MPKI: 3.35082
L1D RFO       ACCESS:    5948797  HIT:    5709018  MISS:     239779  HIT %:    95.9693  MISS %:    4.03071   MPKI: 4.79558
L1D AVERAGE MISS LATENCY: 114.061 cycles
L1D RQ	ACCESS:    9763216	FORWARD:          0	MERGED:    3390395	TO_CACHE:    6243678
L1D WQ	ACCESS:    6907394	FORWARD:     129143	MERGED:     379311	TO_CACHE:    6528083

L1D UNIQUE REGIONS ACCESSED: 0
L1D REGIONS CONFLICTS: 0
L1D Cross Page Prefetch Requests: 0
L1D Same Page Prefetch Requests: 0
L1D ROI Sum of L1D PQ occupancy: 0
L1D PREFETCHES PUSHED FROM L2C: 0
L1I TOTAL     ACCESS:   18930255  HIT:   18288344  MISS:     641911  HIT %:    96.6091  MISS %:    3.39093   MPKI: 12.8382
L1I LOAD      ACCESS:    9726872  HIT:    9544626  MISS:     182246  HIT %:    98.1264  MISS %:    1.87363   MPKI: 3.64492
L1I PREFETCH  ACCESS:    9203383  HIT:    8743718  MISS:     459665  HIT %:    95.0055  MISS %:    4.99452   MPKI: 9.1933
L1I PREFETCH  REQUESTED:   10866804  ISSUED:   10286432  USEFUL:     301469  USELESS:     158266
L1I USEFUL LOAD PREFETCHES:     301469 PREFETCH ISSUED TO LOWER LEVEL:     491283  ACCURACY: 61.3636
L1I TIMELY PREFETCHES:     301469 LATE PREFETCHES: 31577 DROPPED PREFETCHES: 36645
L1I AVERAGE MISS LATENCY: 1.96789e+06 cycles
L1I RQ	ACCESS:   14257095	FORWARD:          0	MERGED:    4502619	TO_CACHE:    9754476
L1I PQ	ACCESS:   10286432	FORWARD:          0	MERGED:     894071	TO_CACHE:    9392361

BTB TOTAL     ACCESS:    7502683  HIT:    7071443  MISS:     431240  HIT %:    94.2522  MISS %:    5.74781   MPKI: 8.6248
BTB BRANCH_DIRECT_JUMP	ACCESS:     370859  HIT:     358934  MISS:      11925
BTB BRANCH_INDIRECT	ACCESS:      83252  HIT:      39140  MISS:      44112
BTB BRANCH_CONDITIONAL	ACCESS:    5399006  HIT:    5361921  MISS:      37085
BTB BRANCH_DIRECT_CALL	ACCESS:     722310  HIT:     695963  MISS:      26347
BTB BRANCH_INDIRECT_CALL	ACCESS:     101901  HIT:      81558  MISS:      20343
BTB BRANCH_RETURN	ACCESS:     825355  HIT:     533927  MISS:     291428
BTB BRANCH_OTHER ACCESS:          0  HIT:          0  MISS:          0

L2C TOTAL     ACCESS:    1601178  HIT:    1224206  MISS:     376972  HIT %:    76.4566  MISS %:    23.5434   MPKI: 7.53944
L2C LOAD      ACCESS:     318208  HIT:     229781  MISS:      88427  HIT %:    72.2109  MISS %:    27.7891   MPKI: 1.76854
L2C DATA LOAD MPKI: 1.20008
L2C INSTRUCTION LOAD MPKI: 0.56846
L2C RFO       ACCESS:     239776  HIT:      29051  MISS:     210725  HIT %:    12.1159  MISS %:    87.8841   MPKI: 4.2145
L2C PREFETCH  ACCESS:     740106  HIT:     673644  MISS:      66462  HIT %:    91.0199  MISS %:    8.98007   MPKI: 1.32924
L2C DATA PREFETCH MPKI: 0.91198
L2C INSTRUCTION PREFETCH MPKI: 0.41726
L2C WRITEBACK ACCESS:     261421  HIT:     251628  MISS:       9793  HIT %:    96.2539  MISS %:    3.74606   MPKI: 0.19586
L2C LOAD TRANSLATION ACCESS:       4574  HIT:       3156  MISS:       1418  HIT %:    68.9987  MISS %:    31.0013   MPKI: 0.02836
L2C TRANSLATION FROM L1D PREFETCHER ACCESS:      37093  HIT:      36946  MISS:        147  HIT %:    99.6037  MISS %:   0.396301   MPKI: 0.00294
L2C PREFETCH  REQUESTED:    1247043  ISSUED:    1246996  USEFUL:      51140  USELESS:      16269
L2C USEFUL LOAD PREFETCHES:      51140 PREFETCH ISSUED TO LOWER LEVEL:     809619  ACCURACY: 6.31655
L2C TIMELY PREFETCHES:      51140 LATE PREFETCHES: 2976 DROPPED PREFETCHES: 0
L2C AVERAGE MISS LATENCY: 121.444 cycles
L2C RQ	ACCESS:     599656	FORWARD:          0	MERGED:          0	TO_CACHE:     599651
L2C WQ	ACCESS:     261421	FORWARD:          6	MERGED:          0	TO_CACHE:     261421
L2C PQ	ACCESS:    1738238	FORWARD:          0	MERGED:     249719	TO_CACHE:    1488518

L2C Instructions Evicting Data32650
L2C Translations Evicting Data1230
L2C Data Evicting Data282159
L2C Instructions Evicting Instructions16296
L2C Translations Evicting Instructions325
L2C Data Evicting Instructions33116
L2C Instructions Evicting Translations340
L2C Translations Evicting Translations10
L2C Data Evicting Translations1053
L2C Dense regions hint from L2: 0
PSCL5 TOTAL     ACCESS:      41203  HIT:      41203  MISS:          0  HIT %:        100  MISS %:          0   MPKI: 0
PSCL5 LOAD TRANSLATION ACCESS:       4464  HIT:       4464  MISS:          0  HIT %:        100  MISS %:          0   MPKI: 0
PSCL5 TRANSLATION FROM L1D PREFETCHER ACCESS:      36739  HIT:      36739  MISS:          0  HIT %:        100  MISS %:          0   MPKI: 0

PSCL4 TOTAL     ACCESS:      41203  HIT:      41203  MISS:          0  HIT %:        100  MISS %:          0   MPKI: 0
PSCL4 LOAD TRANSLATION ACCESS:       4464  HIT:       4464  MISS:          0  HIT %:        100  MISS %:          0   MPKI: 0
PSCL4 TRANSLATION FROM L1D PREFETCHER ACCESS:      36739  HIT:      36739  MISS:          0  HIT %:        100  MISS %:          0   MPKI: 0

PSCL3 TOTAL     ACCESS:      40812  HIT:      40809  MISS:          3  HIT %:    99.9926  MISS %: 0.00735078   MPKI: 6e-05
PSCL3 LOAD TRANSLATION ACCESS:       4424  HIT:       4421  MISS:          3  HIT %:    99.9322  MISS %:  0.0678119   MPKI: 6e-05
PSCL3 TRANSLATION FROM L1D PREFETCHER ACCESS:      36388  HIT:      36388  MISS:          0  HIT %:        100  MISS %:          0   MPKI: 0

PSCL2 TOTAL     ACCESS:       4710  HIT:       4579  MISS:        131  HIT %:    97.2187  MISS %:    2.78132   MPKI: 0.00262
PSCL2 LOAD TRANSLATION ACCESS:       4475  HIT:       4344  MISS:        131  HIT %:    97.0726  MISS %:    2.92737   MPKI: 0.00262
PSCL2 TRANSLATION FROM L1D PREFETCHER ACCESS:        235  HIT:        235  MISS:          0  HIT %:        100  MISS %:          0   MPKI: 0

LLC TOTAL     ACCESS:    1262411  HIT:     978280  MISS:     284131  HIT %:     77.493  MISS %:     22.507   MPKI: 5.68262
LLC LOAD      ACCESS:      85457  HIT:      66831  MISS:      18626  HIT %:    78.2042  MISS %:    21.7958   MPKI: 0.37252
LLC RFO       ACCESS:     210718  HIT:      33376  MISS:     177342  HIT %:    15.8392  MISS %:    84.1608   MPKI: 3.54684
LLC PREFETCH  ACCESS:     745925  HIT:     668138  MISS:      77787  HIT %:    89.5717  MISS %:    10.4283   MPKI: 1.55574
LLC WRITEBACK ACCESS:     218746  HIT:     209501  MISS:       9245  HIT %:    95.7736  MISS %:    4.22636   MPKI: 0.1849
LLC LOAD TRANSLATION ACCESS:       1418  HIT:        402  MISS:       1016  HIT %:    28.3498  MISS %:    71.6502   MPKI: 0.02032
LLC TRANSLATION FROM L1D PREFETCHER ACCESS:        147  HIT:         32  MISS:        115  HIT %:    21.7687  MISS %:    78.2313   MPKI: 0.0023
LLC AVERAGE MISS LATENCY: 173.57 cycles
LLC RQ	ACCESS:     297741	FORWARD:          0	MERGED:          0	TO_CACHE:     297740
LLC WQ	ACCESS:     218746	FORWARD:          1	MERGED:          0	TO_CACHE:     218746
LLC PQ	ACCESS:     809619	FORWARD:          0	MERGED:       4689	TO_CACHE:     804930

LLC Dense regions hint to LLC: 0

RAW hits: 1293060
Loads Generated: 11056274
Loads sent to L1D: 9763216
Stores Generated: 6907390
Stores sent to L1D: 6907394
Major fault: 0 Minor fault: 5106
Allocated PAGES: 5106



Printing Logs
statHeadFound: 2506778
statHeadMissing: 2280044
statStreamBufferHit: 10354677
statPrefetchEntryFound: 9535526
statCompactorMatch: 12046057
statStreamTrackerLookup: 15141499
statRecord: 3095442
statGetPointer: 4786822
statEnqueuePrefetch: 23040090
statPrefetchQueueIsFull: 393
StreamBufferHitRate: 0.683861
Regions' size: 10151
next_region_correct: 2068189
next_region_wrong: 1017094
next_region_correct_prediction: 0.67034
statStreamBufferLookups: 151414990
statL1iLookups: 184320720
statCompactorLookups: 242263984
------------------
Depth Distribution
------------------
depth 0: 0
depth 1: 1279406
depth 2: 289180
depth 3: 84203
depth 4: 70308
depth 5: 66042
depth 6: 63186
depth 7: 60892
depth 8: 57529
depth 9: 49429
depth 10: 43546
depth 11: 33702
depth 12: 24204
depth 13: 12421
depth 14: 2158
depth 15: 2059
depth 16: 31
depth 17: 0
depth 18: 0
depth 19: 0
depth 20: 0
depth 21: 0
depth 22: 0
depth 23: 0
depth 24: 0
depth 25: 0
depth 26: 0
depth 27: 0
depth 28: 0
depth 29: 0
Total: 2138296
-----------------------------
-----------------------------
	Captured at Filter
-----------------------------
depth 0: 0
depth 1: 35702
depth 2: 13920
depth 3: 5296
depth 4: 747
depth 5: 287
depth 6: 237
depth 7: 228
depth 8: 219
depth 9: 181
depth 10: 176
depth 11: 148
depth 12: 99
depth 13: 50
depth 14: 19
depth 15: 12
depth 16: 0
depth 17: 0
depth 18: 0
depth 19: 0
depth 20: 0
depth 21: 0
depth 22: 0
depth 23: 0
depth 24: 0
depth 25: 0
depth 26: 0
depth 27: 0
depth 28: 0
depth 29: 0
-----------------------------
-----------------------------
		Lost at Page
-----------------------------
depth 0: 0
depth 1: 23445
depth 2: 7709
depth 3: 3941
depth 4: 4663
depth 5: 5659
depth 6: 6587
depth 7: 7553
depth 8: 8325
depth 9: 8168
depth 10: 8185
depth 11: 7153
depth 12: 5767
depth 13: 3279
depth 14: 605
depth 15: 644
depth 16: 2
depth 17: 0
depth 18: 0
depth 19: 0
depth 20: 0
depth 21: 0
depth 22: 0
depth 23: 0
depth 24: 0
depth 25: 0
depth 26: 0
depth 27: 0
depth 28: 0
depth 29: 0
-----------------------------
-----------------------------
	Lost due to PQ Size
-----------------------------
1978
-----------------------------
ST read accesses: 271122561
ST write accesses: 24441565
PT read accesses: 11665076
PT write accesses: 852524
FILTER read accesses: 2304543
FILTER write accesses: 486920
GHR read accesses: 738247
GHR write accesses: 83707
GHR counter read accesses: 9326020
GHR counter write accesses: 763644

DRAM Statistics
 CHANNEL 0
 RQ ROW_BUFFER_HIT:     116550  ROW_BUFFER_MISS:     158335
 DBUS_CONGESTED:        185
 WQ ROW_BUFFER_HIT:      37572  ROW_BUFFER_MISS:     145274  FULL:          0

 AVG_CONGESTED_CYCLE: 3

CPU 0 Branch Prediction Accuracy: 98.6631% MPKI: 2.66884 Average ROB Occupancy at Mispredict: 41.8239
Branch types
NOT_BRANCH: 40018691 80.0374%
BRANCH_DIRECT_JUMP: 370859 0.741718%
BRANCH_INDIRECT: 83252 0.166504%
BRANCH_CONDITIONAL: 7877419 15.7548%
BRANCH_DIRECT_CALL: 722310 1.44462%
BRANCH_INDIRECT_CALL: 101901 0.203802%
BRANCH_RETURN: 825355 1.65071%
BRANCH_OTHER: 0 0%

DRAM PAGES: 1048576
Allocated PAGES: 5106
