
*** ChampSim Multicore Out-of-Order Simulator ***

Warmup Instructions: 50000000
Simulation Instructions: 50000000
Number of CPUs: 1
LLC sets: 2048
LLC ways: 16
Off-chip DRAM Size: 4096 MB Channels: 1 Width: 64-bit Data Rate: 6400 MT/s
CPU 0 runs ../IPC-traces//client_008.champsimtrace.xz
.xz
NUM_OF_IPS_IN_CRITICAL_IP_TRAINING: 64
NUM_OF_CRITICAL_IP_TRAINING_TABLE_WAYS: 2
NUM_OF_CRITICAL_IP_TRAINING_TABLE_SETS: 32
WOBBLY_CRITICAL_IP_CACHE_SETS: 32
WOBBLY_CRITICAL_IP_CACHE_WAYS: 4
BTB has LRU replacement policy
ITLB has LRU replacement policy
DTLB has LRU replacement policy
STLB has LRU replacement policy
CPU 0 L1I next line prefetcher
L1I has LRU replacement policy
IP Table Entries: 64
L1D has LRU replacement policy
IP_Table L2 entries: 64
Initialize SRRIP state for L2C
Initialize DRRIP state for LLC
Heartbeat CPU 0 instructions: 10000001 cycles: 3016371 heartbeat IPC: 3.31524 cumulative IPC: 3.31524 (Simulation time: 0 hr 3 min 56 sec) 
Heartbeat CPU 0 instructions: 20000001 cycles: 6043608 heartbeat IPC: 3.30334 cumulative IPC: 3.30928 (Simulation time: 0 hr 7 min 19 sec) 
Heartbeat CPU 0 instructions: 30000001 cycles: 9054225 heartbeat IPC: 3.32158 cumulative IPC: 3.31337 (Simulation time: 0 hr 10 min 3 sec) 
Heartbeat CPU 0 instructions: 40000000 cycles: 12092827 heartbeat IPC: 3.29099 cumulative IPC: 3.30775 (Simulation time: 0 hr 12 min 50 sec) 
Heartbeat CPU 0 instructions: 50000003 cycles: 15134383 heartbeat IPC: 3.28779 cumulative IPC: 3.30374 (Simulation time: 0 hr 15 min 23 sec) 

Warmup complete CPU 0 instructions: 50000003 cycles: 15134383 (Simulation time: 0 hr 15 min 23 sec) 

% increase in all ip prefetch 399.894
% increase in all ip prefetch 0.842132
Heartbeat CPU 0 instructions: 60000003 cycles: 31106231 heartbeat IPC: 0.626102 cumulative IPC: 0.626102 (Simulation time: 0 hr 17 min 51 sec) 
Heartbeat CPU 0 instructions: 70000001 cycles: 46353640 heartbeat IPC: 0.655849 cumulative IPC: 0.64063 (Simulation time: 0 hr 20 min 18 sec) 
Heartbeat CPU 0 instructions: 80000000 cycles: 63231215 heartbeat IPC: 0.592502 cumulative IPC: 0.623742 (Simulation time: 0 hr 22 min 36 sec) 
Heartbeat CPU 0 instructions: 90000001 cycles: 80040075 heartbeat IPC: 0.594924 cumulative IPC: 0.616279 (Simulation time: 0 hr 24 min 32 sec) 
Heartbeat CPU 0 instructions: 100000001 cycles: 93933653 heartbeat IPC: 0.719757 cumulative IPC: 0.634524 (Simulation time: 0 hr 27 min 49 sec) 
Finished CPU 0 instructions: 50000002 cycles: 78799271 cumulative IPC: 0.634524 (Simulation time: 0 hr 27 min 49 sec) 

ChampSim completed all CPUs

Region of Interest Statistics

CPU 0 cumulative IPC: 0.634524 instructions: 50000002 cycles: 78799271

CPU 0 Average Load ROB stall cycles: 6.98476e+06
CPU 0 Fraction of times ROB stalled by Loads: 12.0611
CPU 0 Percentage of Load stall cycles in Total stall cycles: 8.88061e+07
 Total stall cycles: 47080838
 Total load stall cycles: 41810665441214
CPU 0 NUM of IPS identified critical: 69
CPU 0 Num of Load IPs stalling ROB: 9435
Threshold modification factor: -1
Max PIST entries: 64
Min PIST entries: 0
Avg PIST entries: 31.29
Trouble in retire width: 0.715488
MaC = Marked as critical.
lt_50_percent_before_Mac: 36
gt_90_percent_before_Mac: 10
gt_75_percent_before_Mac: 7
gt_50_percent_before_Mac: 15
stall_proportion_bin_same_before_after: 0
stall_proportion_bin_lower_before_after: 0
stall_proportion_bin_upper_before_after: 0
average_stall_proportion_before: 0.159092
average_stall_proportion_after: 0.16177
Critical IP stalls, total frequency: 93222
Non-critical IP stalls, total frequency: 573672
Critical_IP_ROB_Stalls_Bucket_0: 27300
Non-critical_IP_ROB_Stalls_Bucket_0: 484030
Critical_IP_ROB_Stalls_Bucket_1: 29046
Non-critical_IP_ROB_Stalls_Bucket_1: 93580
Critical_IP_ROB_Stalls_Bucket_2: 12273
Non-critical_IP_ROB_Stalls_Bucket_2: 31503
Critical_IP_ROB_Stalls_Bucket_3: 5221
Non-critical_IP_ROB_Stalls_Bucket_3: 8929
Critical_IP_ROB_Stalls_Bucket_4: 2852
Non-critical_IP_ROB_Stalls_Bucket_4: 3554
Critical_IP_ROB_Stalls_Bucket_5: 3147
Non-critical_IP_ROB_Stalls_Bucket_5: 2497
Critical_IP_ROB_Stalls_Bucket_6: 13383
Non-critical_IP_ROB_Stalls_Bucket_6: 4663
0 => IPs accounting for >50 percent of stalls, 1 => 55, 2 => 60, 3 => 65 and so on till 90.
percent50: 50.0948 num IPs:80
percent55: 55.0687 num IPs:114
percent60: 60.0173 num IPs:158
percent65: 65.0111 num IPs:215
percent70: 70.0017 num IPs:288
percent75: 75.0113 num IPs:394
percent80: 80.0144 num IPs:542
percent85: 85.0019 num IPs:755
percent90: 90.0085 num IPs:1080
Critical_ROB_Stalls_Percent_0_Bucket_0: 257018
Non-critical_ROB_Stalls_Percent_0_Bucket_0: 254312
Critical_ROB_Stalls_Percent_0_Bucket_1: 42566
Non-critical_ROB_Stalls_Percent_0_Bucket_1: 80060
Critical_ROB_Stalls_Percent_0_Bucket_2: 13360
Non-critical_ROB_Stalls_Percent_0_Bucket_2: 30416
Critical_ROB_Stalls_Percent_0_Bucket_3: 4949
Non-critical_ROB_Stalls_Percent_0_Bucket_3: 9201
Critical_ROB_Stalls_Percent_0_Bucket_4: 2713
Non-critical_ROB_Stalls_Percent_0_Bucket_4: 3693
Critical_ROB_Stalls_Percent_0_Bucket_5: 2725
Non-critical_ROB_Stalls_Percent_0_Bucket_5: 2919
Critical_ROB_Stalls_Percent_0_Bucket_6: 10748
Non-critical_ROB_Stalls_Percent_0_Bucket_6: 7298
Critical_ROB_Stalls_Percent_1_Bucket_0: 278454
Non-critical_ROB_Stalls_Percent_1_Bucket_0: 232876
Critical_ROB_Stalls_Percent_1_Bucket_1: 50372
Non-critical_ROB_Stalls_Percent_1_Bucket_1: 72254
Critical_ROB_Stalls_Percent_1_Bucket_2: 16096
Non-critical_ROB_Stalls_Percent_1_Bucket_2: 27680
Critical_ROB_Stalls_Percent_1_Bucket_3: 5665
Non-critical_ROB_Stalls_Percent_1_Bucket_3: 8485
Critical_ROB_Stalls_Percent_1_Bucket_4: 2900
Non-critical_ROB_Stalls_Percent_1_Bucket_4: 3506
Critical_ROB_Stalls_Percent_1_Bucket_5: 2845
Non-critical_ROB_Stalls_Percent_1_Bucket_5: 2799
Critical_ROB_Stalls_Percent_1_Bucket_6: 10918
Non-critical_ROB_Stalls_Percent_1_Bucket_6: 7128
Critical_ROB_Stalls_Percent_2_Bucket_0: 299221
Non-critical_ROB_Stalls_Percent_2_Bucket_0: 212109
Critical_ROB_Stalls_Percent_2_Bucket_1: 56469
Non-critical_ROB_Stalls_Percent_2_Bucket_1: 66157
Critical_ROB_Stalls_Percent_2_Bucket_2: 20028
Non-critical_ROB_Stalls_Percent_2_Bucket_2: 23748
Critical_ROB_Stalls_Percent_2_Bucket_3: 6337
Non-critical_ROB_Stalls_Percent_2_Bucket_3: 7813
Critical_ROB_Stalls_Percent_2_Bucket_4: 3099
Non-critical_ROB_Stalls_Percent_2_Bucket_4: 3307
Critical_ROB_Stalls_Percent_2_Bucket_5: 3241
Non-critical_ROB_Stalls_Percent_2_Bucket_5: 2403
Critical_ROB_Stalls_Percent_2_Bucket_6: 11857
Non-critical_ROB_Stalls_Percent_2_Bucket_6: 6189
Critical_ROB_Stalls_Percent_3_Bucket_0: 318087
Non-critical_ROB_Stalls_Percent_3_Bucket_0: 193243
Critical_ROB_Stalls_Percent_3_Bucket_1: 64437
Non-critical_ROB_Stalls_Percent_3_Bucket_1: 58189
Critical_ROB_Stalls_Percent_3_Bucket_2: 23322
Non-critical_ROB_Stalls_Percent_3_Bucket_2: 20454
Critical_ROB_Stalls_Percent_3_Bucket_3: 7554
Non-critical_ROB_Stalls_Percent_3_Bucket_3: 6596
Critical_ROB_Stalls_Percent_3_Bucket_4: 3575
Non-critical_ROB_Stalls_Percent_3_Bucket_4: 2831
Critical_ROB_Stalls_Percent_3_Bucket_5: 3578
Non-critical_ROB_Stalls_Percent_3_Bucket_5: 2066
Critical_ROB_Stalls_Percent_3_Bucket_6: 13002
Non-critical_ROB_Stalls_Percent_3_Bucket_6: 5044
Critical_ROB_Stalls_Percent_4_Bucket_0: 338746
Non-critical_ROB_Stalls_Percent_4_Bucket_0: 172584
Critical_ROB_Stalls_Percent_4_Bucket_1: 70847
Non-critical_ROB_Stalls_Percent_4_Bucket_1: 51779
Critical_ROB_Stalls_Percent_4_Bucket_2: 26470
Non-critical_ROB_Stalls_Percent_4_Bucket_2: 17306
Critical_ROB_Stalls_Percent_4_Bucket_3: 8458
Non-critical_ROB_Stalls_Percent_4_Bucket_3: 5692
Critical_ROB_Stalls_Percent_4_Bucket_4: 4046
Non-critical_ROB_Stalls_Percent_4_Bucket_4: 2360
Critical_ROB_Stalls_Percent_4_Bucket_5: 3883
Non-critical_ROB_Stalls_Percent_4_Bucket_5: 1761
Critical_ROB_Stalls_Percent_4_Bucket_6: 14387
Non-critical_ROB_Stalls_Percent_4_Bucket_6: 3659
Critical_ROB_Stalls_Percent_5_Bucket_0: 359443
Non-critical_ROB_Stalls_Percent_5_Bucket_0: 151887
Critical_ROB_Stalls_Percent_5_Bucket_1: 77629
Non-critical_ROB_Stalls_Percent_5_Bucket_1: 44997
Critical_ROB_Stalls_Percent_5_Bucket_2: 29617
Non-critical_ROB_Stalls_Percent_5_Bucket_2: 14159
Critical_ROB_Stalls_Percent_5_Bucket_3: 9593
Non-critical_ROB_Stalls_Percent_5_Bucket_3: 4557
Critical_ROB_Stalls_Percent_5_Bucket_4: 4592
Non-critical_ROB_Stalls_Percent_5_Bucket_4: 1814
Critical_ROB_Stalls_Percent_5_Bucket_5: 4325
Non-critical_ROB_Stalls_Percent_5_Bucket_5: 1319
Critical_ROB_Stalls_Percent_5_Bucket_6: 15047
Non-critical_ROB_Stalls_Percent_5_Bucket_6: 2999
Critical_ROB_Stalls_Percent_6_Bucket_0: 380698
Non-critical_ROB_Stalls_Percent_6_Bucket_0: 130632
Critical_ROB_Stalls_Percent_6_Bucket_1: 83940
Non-critical_ROB_Stalls_Percent_6_Bucket_1: 38686
Critical_ROB_Stalls_Percent_6_Bucket_2: 33239
Non-critical_ROB_Stalls_Percent_6_Bucket_2: 10537
Critical_ROB_Stalls_Percent_6_Bucket_3: 10563
Non-critical_ROB_Stalls_Percent_6_Bucket_3: 3587
Critical_ROB_Stalls_Percent_6_Bucket_4: 4951
Non-critical_ROB_Stalls_Percent_6_Bucket_4: 1455
Critical_ROB_Stalls_Percent_6_Bucket_5: 4532
Non-critical_ROB_Stalls_Percent_6_Bucket_5: 1112
Critical_ROB_Stalls_Percent_6_Bucket_6: 15688
Non-critical_ROB_Stalls_Percent_6_Bucket_6: 2358
Critical_ROB_Stalls_Percent_7_Bucket_0: 401145
Non-critical_ROB_Stalls_Percent_7_Bucket_0: 110185
Critical_ROB_Stalls_Percent_7_Bucket_1: 91667
Non-critical_ROB_Stalls_Percent_7_Bucket_1: 30959
Critical_ROB_Stalls_Percent_7_Bucket_2: 35908
Non-critical_ROB_Stalls_Percent_7_Bucket_2: 7868
Critical_ROB_Stalls_Percent_7_Bucket_3: 11498
Non-critical_ROB_Stalls_Percent_7_Bucket_3: 2652
Critical_ROB_Stalls_Percent_7_Bucket_4: 5300
Non-critical_ROB_Stalls_Percent_7_Bucket_4: 1106
Critical_ROB_Stalls_Percent_7_Bucket_5: 4898
Non-critical_ROB_Stalls_Percent_7_Bucket_5: 746
Critical_ROB_Stalls_Percent_7_Bucket_6: 16456
Non-critical_ROB_Stalls_Percent_7_Bucket_6: 1590
Critical_ROB_Stalls_Percent_8_Bucket_0: 423718
Non-critical_ROB_Stalls_Percent_8_Bucket_0: 87612
Critical_ROB_Stalls_Percent_8_Bucket_1: 99491
Non-critical_ROB_Stalls_Percent_8_Bucket_1: 23135
Critical_ROB_Stalls_Percent_8_Bucket_2: 37515
Non-critical_ROB_Stalls_Percent_8_Bucket_2: 6261
Critical_ROB_Stalls_Percent_8_Bucket_3: 11970
Non-critical_ROB_Stalls_Percent_8_Bucket_3: 2180
Critical_ROB_Stalls_Percent_8_Bucket_4: 5577
Non-critical_ROB_Stalls_Percent_8_Bucket_4: 829
Critical_ROB_Stalls_Percent_8_Bucket_5: 5087
Non-critical_ROB_Stalls_Percent_8_Bucket_5: 557
Critical_ROB_Stalls_Percent_8_Bucket_6: 16903
Non-critical_ROB_Stalls_Percent_8_Bucket_6: 1143
Average ROB occupancy Load Stall Begin: 44.5843
Average ROB occupancy Load Stall End: 49.2921
Min ROB occupancy Load Stall Begin: 1
Max ROB occupancy Load Stall Begin: 351
Min ROB occupancy Load Stall End: 1
Max ROB occupancy Load Stall End: 352
Average ROB occupancy Critical Load Stall Begin: 126.168
Average ROB occupancy Critical Load Stall End: 132.516
Min ROB occupancy Critical Load Stall Begin: 2
Max ROB occupancy Critical Load Stall Begin: 351
Min ROB occupancy Critical Load Stall End: 2
Max ROB occupancy Critical Load Stall End: 352
 ROB Load Stall Begin Bucket Count 0: 534490
 ROB Load Stall End Bucket Count 0: 511330
 ROB Critical Load Stall Begin Bucket Count 0: 20903
 ROB Critical Load Stall End Bucket Count 0: 19019
 ROB Load Stall Begin Bucket Count 1: 110690
 ROB Load Stall End Bucket Count 1: 122626
 ROB Critical Load Stall Begin Bucket Count 1: 16285
 ROB Critical Load Stall End Bucket Count 1: 16751
 ROB Load Stall Begin Bucket Count 2: 37522
 ROB Load Stall End Bucket Count 2: 43776
 ROB Critical Load Stall Begin Bucket Count 2: 7226
 ROB Critical Load Stall End Bucket Count 2: 7805
 ROB Load Stall Begin Bucket Count 3: 11282
 ROB Load Stall End Bucket Count 3: 14150
 ROB Critical Load Stall Begin Bucket Count 3: 2825
 ROB Critical Load Stall End Bucket Count 3: 3277
 ROB Load Stall Begin Bucket Count 4: 5567
 ROB Load Stall End Bucket Count 4: 6406
 ROB Critical Load Stall Begin Bucket Count 4: 2020
 ROB Critical Load Stall End Bucket Count 4: 2049
 ROB Load Stall Begin Bucket Count 5: 5382
 ROB Load Stall End Bucket Count 5: 5644
 ROB Critical Load Stall Begin Bucket Count 5: 2450
 ROB Critical Load Stall End Bucket Count 5: 2439
 ROB Load Stall Begin Bucket Count 6: 17045
 ROB Load Stall End Bucket Count 6: 18046
 ROB Critical Load Stall Begin Bucket Count 6: 10852
 ROB Critical Load Stall End Bucket Count 6: 11221
PIST Tag Read Accesses: 214296
PIST Read Accesses: 107148
PIST Tag Write Accesses: 214296
PIST Write Accesses: 107148
Criticality detector called times: 312761
Max global_stall_cycles_count: 353259
Threshold Modified: 1 times, factor: -1
ITLB TOTAL     ACCESS:    9430743  HIT:    9211920  MISS:     218823  HIT %:    97.6797  MISS %:    2.32032   MPKI: 4.37646
ITLB LOAD TRANSLATION ACCESS:    8708311  HIT:    8664036  MISS:      44275  HIT %:    99.4916  MISS %:   0.508422   MPKI: 0.8855
ITLB TRANSLATION FROM L1D PREFETCHER ACCESS:     722432  HIT:     547884  MISS:     174548  HIT %:    75.8388  MISS %:    24.1612   MPKI: 3.49096
ITLB PREFETCH  REQUESTED:          0  ISSUED:          0  USEFUL:     135740  USELESS:      38810
ITLB USEFUL LOAD PREFETCHES:     135740 PREFETCH ISSUED TO LOWER LEVEL:          0  ACCURACY: inf
ITLB TIMELY PREFETCHES:     135740 LATE PREFETCHES: 1178 DROPPED PREFETCHES: 1111
ITLB PREFETCHES SAME FILL-ORIGIN LEVEL: 0 DIFFERENT FILL-ORIGIN LEVEL: 0
ITLB AVERAGE MISS LATENCY: 189460 cycles
ITLB RQ	ACCESS:   11676116	FORWARD:          0	MERGED:    2223286	TO_CACHE:    9452830

DTLB TOTAL     ACCESS:   11122410  HIT:   10597617  MISS:     524793  HIT %:    95.2817  MISS %:    4.71834   MPKI: 10.4959
DTLB LOAD TRANSLATION ACCESS:   11122410  HIT:   10597617  MISS:     524793  HIT %:    95.2817  MISS %:    4.71834   MPKI: 10.4959
DTLB PREFETCH  REQUESTED:          0  ISSUED:          0  USEFUL:          0  USELESS:          0
DTLB USEFUL LOAD PREFETCHES:          0 PREFETCH ISSUED TO LOWER LEVEL:          0  ACCURACY: -nan
DTLB TIMELY PREFETCHES:          0 LATE PREFETCHES: 0 DROPPED PREFETCHES: 0
DTLB PREFETCHES SAME FILL-ORIGIN LEVEL: 0 DIFFERENT FILL-ORIGIN LEVEL: 0
DTLB AVERAGE MISS LATENCY: 9.92903 cycles
DTLB RQ	ACCESS:   14255990	FORWARD:          0	MERGED:    3106104	TO_CACHE:   11149886

STLB TOTAL     ACCESS:    1491129  HIT:    1484422  MISS:       6707  HIT %:    99.5502  MISS %:   0.449793   MPKI: 0.13414
STLB LOAD TRANSLATION ACCESS:     567890  HIT:     561586  MISS:       6304  HIT %:    98.8899  MISS %:    1.11007   MPKI: 0.12608
STLB TRANSLATION FROM L1D PREFETCHER ACCESS:     923239  HIT:     922836  MISS:        403  HIT %:    99.9563  MISS %:  0.0436507   MPKI: 0.00806
STLB PREFETCH  REQUESTED:          0  ISSUED:          0  USEFUL:        253  USELESS:        135
STLB USEFUL LOAD PREFETCHES:        253 PREFETCH ISSUED TO LOWER LEVEL:          0  ACCURACY: inf
STLB TIMELY PREFETCHES:        253 LATE PREFETCHES: 0 DROPPED PREFETCHES: 1111
STLB PREFETCHES SAME FILL-ORIGIN LEVEL: 0 DIFFERENT FILL-ORIGIN LEVEL: 0
STLB AVERAGE MISS LATENCY: 87.2918 cycles
STLB RQ	ACCESS:    1744343	FORWARD:          0	MERGED:     252102	TO_CACHE:    1492241

STLB Hit, L1D data hit: 0
STLB Hit, L2C data hit: 0
STLB Hit, LLC data hit: 0
STLB Hit, LLC data miss: 0
STLB STLB hints to L2: 0
L1D TOTAL     ACCESS:   14714438  HIT:   13512757  MISS:    1201681  HIT %:    91.8333  MISS %:    8.16668   MPKI: 24.0336
L1D LOAD      ACCESS:    8891612  HIT:    8116258  MISS:     775354  HIT %:    91.2799  MISS %:    8.72006   MPKI: 15.5071
L1D RFO       ACCESS:    4899117  HIT:    4781484  MISS:     117633  HIT %:    97.5989  MISS %:    2.40111   MPKI: 2.35266
L1D PREFETCH  ACCESS:     923709  HIT:     615015  MISS:     308694  HIT %:     66.581  MISS %:     33.419   MPKI: 6.17388
L1D PREFETCH  REQUESTED:    1999508  ISSUED:    1999483  USEFUL:      70758  USELESS:     237710
L1D USEFUL LOAD PREFETCHES:      70758 PREFETCH ISSUED TO LOWER LEVEL:     324026  ACCURACY: 21.8371
L1D TIMELY PREFETCHES:      70758 LATE PREFETCHES: 14778 DROPPED PREFETCHES: 0
L1D PREFETCHES SAME FILL-ORIGIN LEVEL: 324026 DIFFERENT FILL-ORIGIN LEVEL: 0
L1D AVERAGE MISS LATENCY: 752136 cycles
L1D RQ	ACCESS:   13252229	FORWARD:          0	MERGED:    4152081	TO_CACHE:    8959710
L1D WQ	ACCESS:    5473943	FORWARD:     140689	MERGED:     177663	TO_CACHE:    5296280
L1D PQ	ACCESS:     999867	FORWARD:          0	MERGED:          0	TO_CACHE:     999616

L1D UNIQUE REGIONS ACCESSED: 0
L1D REGIONS CONFLICTS: 0
L1D Cross Page Prefetch Requests: 0
L1D Same Page Prefetch Requests: 1517203
L1D ROI Sum of L1D PQ occupancy: 12802652
L1D PREFETCHES PUSHED FROM L2C: 0
L1I TOTAL     ACCESS:   11629370  HIT:   10575247  MISS:    1054123  HIT %:    90.9357  MISS %:    9.06432   MPKI: 21.0825
L1I LOAD      ACCESS:    9925165  HIT:    9826299  MISS:      98866  HIT %:    99.0039  MISS %:   0.996114   MPKI: 1.97732
L1I PREFETCH  ACCESS:    1704205  HIT:     748948  MISS:     955257  HIT %:    43.9471  MISS %:    56.0529   MPKI: 19.1051
L1I PREFETCH  REQUESTED:    1787646  ISSUED:    1784501  USEFUL:     695795  USELESS:     259566
L1I USEFUL LOAD PREFETCHES:     695795 PREFETCH ISSUED TO LOWER LEVEL:     965532  ACCURACY: 72.0634
L1I TIMELY PREFETCHES:     695795 LATE PREFETCHES: 10275 DROPPED PREFETCHES: 2232
L1I PREFETCHES SAME FILL-ORIGIN LEVEL: 965532 DIFFERENT FILL-ORIGIN LEVEL: 0
L1I AVERAGE MISS LATENCY: 338965 cycles
L1I RQ	ACCESS:   14730727	FORWARD:          0	MERGED:    4793727	TO_CACHE:    9937000
L1I PQ	ACCESS:    1784501	FORWARD:          0	MERGED:      45385	TO_CACHE:    1739116

BTB TOTAL     ACCESS:    8519581  HIT:    7693788  MISS:     825793  HIT %:    90.3071  MISS %:    9.69288   MPKI: 16.5159
BTB BRANCH_DIRECT_JUMP	ACCESS:     510116  HIT:     502542  MISS:       7574
BTB BRANCH_INDIRECT	ACCESS:     225730  HIT:     169070  MISS:      56660
BTB BRANCH_CONDITIONAL	ACCESS:    5216028  HIT:    5189632  MISS:      26396
BTB BRANCH_DIRECT_CALL	ACCESS:     600746  HIT:     593897  MISS:       6849
BTB BRANCH_INDIRECT_CALL	ACCESS:     682990  HIT:     527153  MISS:     155837
BTB BRANCH_RETURN	ACCESS:    1283971  HIT:     711494  MISS:     572477
BTB BRANCH_OTHER ACCESS:          0  HIT:          0  MISS:          0

L2C TOTAL     ACCESS:    3315723  HIT:    2829450  MISS:     486273  HIT %:    85.3343  MISS %:    14.6657   MPKI: 9.72546
L2C LOAD      ACCESS:     849165  HIT:     675158  MISS:     174007  HIT %:    79.5085  MISS %:    20.4915   MPKI: 3.48014
L2C DATA LOAD MPKI: 3.20072
L2C INSTRUCTION LOAD MPKI: 0.27942
L2C RFO       ACCESS:     117070  HIT:      19171  MISS:      97899  HIT %:    16.3757  MISS %:    83.6243   MPKI: 1.95798
L2C PREFETCH  ACCESS:    2167099  HIT:    1958715  MISS:     208384  HIT %:    90.3842  MISS %:     9.6158   MPKI: 4.16768
L2C DATA PREFETCH MPKI: 3.4548
L2C INSTRUCTION PREFETCH MPKI: 0.71288
L2C WRITEBACK ACCESS:     174235  HIT:     171021  MISS:       3214  HIT %:    98.1554  MISS %:    1.84464   MPKI: 0.06428
L2C LOAD TRANSLATION ACCESS:       6598  HIT:       4141  MISS:       2457  HIT %:    62.7614  MISS %:    37.2386   MPKI: 0.04914
L2C TRANSLATION FROM L1D PREFETCHER ACCESS:       1556  HIT:       1244  MISS:        312  HIT %:    79.9486  MISS %:    20.0514   MPKI: 0.00624
L2C PREFETCH  REQUESTED:    1391580  ISSUED:    1391580  USEFUL:      31567  USELESS:     179021
L2C USEFUL LOAD PREFETCHES:      31567 PREFETCH ISSUED TO LOWER LEVEL:     211312  ACCURACY: 14.9386
L2C TIMELY PREFETCHES:      31567 LATE PREFETCHES: 2928 DROPPED PREFETCHES: 0
L2C PREFETCHES SAME FILL-ORIGIN LEVEL: 63770 DIFFERENT FILL-ORIGIN LEVEL: 0
L2C AVERAGE MISS LATENCY: 81.5267 cycles
L2C RQ	ACCESS:     974400	FORWARD:          0	MERGED:          0	TO_CACHE:     974389
L2C WQ	ACCESS:     174235	FORWARD:         13	MERGED:          0	TO_CACHE:     174235
L2C PQ	ACCESS:    2681138	FORWARD:          0	MERGED:     504696	TO_CACHE:    2176440

L2C Instructions Evicting Data 36917
L2C Translations Evicting Data 2077
L2C Data Evicting Data 389282
L2C Instructions Evicting Instructions 12094
L2C Translations Evicting Instructions 641
L2C Data Evicting Instructions 39269
L2C Instructions Evicting Translations 604
L2C Translations Evicting Translations 51
L2C Data Evicting Translations 2124
L2C Dense regions hint from L2: 0
PSCL5 TOTAL     ACCESS:       7818  HIT:       7818  MISS:          0  HIT %:        100  MISS %:          0   MPKI: 0
PSCL5 LOAD TRANSLATION ACCESS:       6304  HIT:       6304  MISS:          0  HIT %:        100  MISS %:          0   MPKI: 0
PSCL5 TRANSLATION FROM L1D PREFETCHER ACCESS:       1514  HIT:       1514  MISS:          0  HIT %:        100  MISS %:          0   MPKI: 0
PSCL5 PREFETCH  REQUESTED:          0  ISSUED:          0  USEFUL:          0  USELESS:          0
PSCL5 USEFUL LOAD PREFETCHES:          0 PREFETCH ISSUED TO LOWER LEVEL:          0  ACCURACY: -nan
PSCL5 TIMELY PREFETCHES:          0 LATE PREFETCHES: 0 DROPPED PREFETCHES: 0
PSCL5 PREFETCHES SAME FILL-ORIGIN LEVEL: 0 DIFFERENT FILL-ORIGIN LEVEL: 0

PSCL4 TOTAL     ACCESS:       7818  HIT:       7818  MISS:          0  HIT %:        100  MISS %:          0   MPKI: 0
PSCL4 LOAD TRANSLATION ACCESS:       6304  HIT:       6304  MISS:          0  HIT %:        100  MISS %:          0   MPKI: 0
PSCL4 TRANSLATION FROM L1D PREFETCHER ACCESS:       1514  HIT:       1514  MISS:          0  HIT %:        100  MISS %:          0   MPKI: 0
PSCL4 PREFETCH  REQUESTED:          0  ISSUED:          0  USEFUL:          0  USELESS:          0
PSCL4 USEFUL LOAD PREFETCHES:          0 PREFETCH ISSUED TO LOWER LEVEL:          0  ACCURACY: -nan
PSCL4 TIMELY PREFETCHES:          0 LATE PREFETCHES: 0 DROPPED PREFETCHES: 0
PSCL4 PREFETCHES SAME FILL-ORIGIN LEVEL: 0 DIFFERENT FILL-ORIGIN LEVEL: 0

PSCL3 TOTAL     ACCESS:       7736  HIT:       7728  MISS:          8  HIT %:    99.8966  MISS %:   0.103413   MPKI: 0.00016
PSCL3 LOAD TRANSLATION ACCESS:       6225  HIT:       6217  MISS:          8  HIT %:    99.8715  MISS %:   0.128514   MPKI: 0.00016
PSCL3 TRANSLATION FROM L1D PREFETCHER ACCESS:       1511  HIT:       1511  MISS:          0  HIT %:        100  MISS %:          0   MPKI: 0
PSCL3 PREFETCH  REQUESTED:          0  ISSUED:          0  USEFUL:          0  USELESS:          0
PSCL3 USEFUL LOAD PREFETCHES:          0 PREFETCH ISSUED TO LOWER LEVEL:          0  ACCURACY: -nan
PSCL3 TIMELY PREFETCHES:          0 LATE PREFETCHES: 0 DROPPED PREFETCHES: 0
PSCL3 PREFETCHES SAME FILL-ORIGIN LEVEL: 0 DIFFERENT FILL-ORIGIN LEVEL: 0

PSCL2 TOTAL     ACCESS:       7789  HIT:       7484  MISS:        305  HIT %:    96.0842  MISS %:    3.91578   MPKI: 0.0061
PSCL2 LOAD TRANSLATION ACCESS:       6316  HIT:       6011  MISS:        305  HIT %:     95.171  MISS %:    4.82901   MPKI: 0.0061
PSCL2 TRANSLATION FROM L1D PREFETCHER ACCESS:       1473  HIT:       1473  MISS:          0  HIT %:        100  MISS %:          0   MPKI: 0
PSCL2 PREFETCH  REQUESTED:          0  ISSUED:          0  USEFUL:          0  USELESS:          0
PSCL2 USEFUL LOAD PREFETCHES:          0 PREFETCH ISSUED TO LOWER LEVEL:          0  ACCURACY: -nan
PSCL2 TIMELY PREFETCHES:          0 LATE PREFETCHES: 0 DROPPED PREFETCHES: 0
PSCL2 PREFETCHES SAME FILL-ORIGIN LEVEL: 0 DIFFERENT FILL-ORIGIN LEVEL: 0

LLC TOTAL     ACCESS:     612046  HIT:     435859  MISS:     176187  HIT %:    71.2134  MISS %:    28.7866   MPKI: 3.52374
LLC LOAD      ACCESS:     171171  HIT:     135285  MISS:      35886  HIT %:     79.035  MISS %:     20.965   MPKI: 0.71772
LLC RFO       ACCESS:      97807  HIT:       6516  MISS:      91291  HIT %:     6.6621  MISS %:    93.3379   MPKI: 1.82582
LLC PREFETCH  ACCESS:     211312  HIT:     167553  MISS:      43759  HIT %:    79.2918  MISS %:    20.7082   MPKI: 0.87518
LLC WRITEBACK ACCESS:     128987  HIT:     124611  MISS:       4376  HIT %:    96.6074  MISS %:    3.39259   MPKI: 0.08752
LLC LOAD TRANSLATION ACCESS:       2457  HIT:       1682  MISS:        775  HIT %:    68.4575  MISS %:    31.5425   MPKI: 0.0155
LLC TRANSLATION FROM L1D PREFETCHER ACCESS:        312  HIT:        212  MISS:        100  HIT %:    67.9487  MISS %:    32.0513   MPKI: 0.002
LLC PREFETCH  REQUESTED:          0  ISSUED:          0  USEFUL:       5311  USELESS:      44990
LLC USEFUL LOAD PREFETCHES:       5311 PREFETCH ISSUED TO LOWER LEVEL:      43759  ACCURACY: 12.1369
LLC TIMELY PREFETCHES:       5311 LATE PREFETCHES: 0 DROPPED PREFETCHES: 0
LLC PREFETCHES SAME FILL-ORIGIN LEVEL: 0 DIFFERENT FILL-ORIGIN LEVEL: 0
LLC AVERAGE MISS LATENCY: 142.849 cycles
LLC RQ	ACCESS:     271747	FORWARD:          0	MERGED:          0	TO_CACHE:     271747
LLC WQ	ACCESS:     128987	FORWARD:          0	MERGED:          0	TO_CACHE:     128987
LLC PQ	ACCESS:     211312	FORWARD:          0	MERGED:          0	TO_CACHE:     211312

LLC Dense regions hint to LLC: 0

RAW hits: 1382590
Loads Generated: 14634820
Loads sent to L1D: 13252229
Stores Generated: 5473941
Stores sent to L1D: 5473943
Major fault: 0 Minor fault: 5379
Allocated PAGES: 5379
I-Shadow cache 408 bytes
Touched + WorthPF tables 6144 bytes 
MMA filter 174 bytes 
FNL filter 272 bytes 
TOTAL PREFETCHER STORAGE SIZE: 25174 bytes
CPU 0 L1I next line prefetcher final stats

stream: 
stream:times selected: 2055299
stream:pref_filled: 350808
stream:pref_useful: 69465
stream:pref_late: 9641
stream:misses: 65263
stream:misses_by_poll: 0

CS: 
CS:times selected: 154853
CS:pref_filled: 11344
CS:pref_useful: 7076
CS:pref_late: 1735
CS:misses: 1594
CS:misses_by_poll: 2

CPLX: 
CPLX:times selected: 2027028
CPLX:pref_filled: 147365
CPLX:pref_useful: 17045
CPLX:pref_late: 1572
CPLX:misses: 236465
CPLX:misses_by_poll: 89

NL_L1: 
NL:times selected: 12329
NL:pref_filled: 3613
NL:pref_useful: 1371
NL:pref_late: 58
NL:misses: 2509
NL:misses_by_poll: 0

total selections: 4249509
total_filled: 308694
total_useful: 70758
total_late: 16723
total_polluted: 91
total_misses_after_warmup: 843454
conflicts: 2598596
Degree Incremented Times: 0
Degree Decremented Times: 220670

L1 IP Table Write Accesses: 5724372
L1 IP Table Read Accesses: 3125776
L1 RST Write Accesses: 1352234
L1 RST Read Accesses: 2704468
L1 CSPT Write Accesses: 1352234
L1 CSPT Read Accesses: 2692478
L1 RR Filter Tag Write Accesses: 999892
L1 RR Filter Tag Read Accesses: 53774704
L1 IP Table Tag Write Accesses: 8959712
L1 IP Table Tag Read Accesses: 8959712
L1 RST Tag Write Accesses: 0
L1 RST Tag Read Accesses: 11652324
L1 RR Filter Write Accesses: 0
L1 RR Filter Read Accesses: 1880205
test: 1002928
L2 IP Table Read Accesses: 2649637
L2 IP Table Write Accesses: 3665924
L2 IP Table Tag Read Accesses: 2031477
L2 IP Table Tag Write Accesses: 2031477

DRAM Statistics
 CHANNEL 0
 RQ ROW_BUFFER_HIT:      51981  ROW_BUFFER_MISS:     119826
 DBUS_CONGESTED:        128
 WQ ROW_BUFFER_HIT:      15964  ROW_BUFFER_MISS:      73443  FULL:          0

 AVG_CONGESTED_CYCLE: 4
 All warmup complete: 2
Channel 0 Bank busy for read cycles: 0
Channel 0 Bank busy for write cycles: 0
Channel 0
Rank 0
0banks busy for read cycles: 57955836
0banks busy for write cycles: 31537
1banks busy for read cycles: 8977309
1banks busy for write cycles: 4170896
2banks busy for read cycles: 2719070
2banks busy for write cycles: 1422954
3banks busy for read cycles: 802765
3banks busy for write cycles: 659103
4banks busy for read cycles: 294353
4banks busy for write cycles: 362836
5banks busy for read cycles: 161752
5banks busy for write cycles: 228350
6banks busy for read cycles: 97581
6banks busy for write cycles: 154241
7banks busy for read cycles: 83053
7banks busy for write cycles: 181722
8banks busy for read cycles: 76763
8banks busy for write cycles: 419151

CPU 0 Branch Prediction Accuracy: 98.6482% MPKI: 3.15508 Average ROB Occupancy at Mispredict: 53.8841
Branch types
NOT_BRANCH: 38329454 76.6589%
BRANCH_DIRECT_JUMP: 510116 1.02023%
BRANCH_INDIRECT: 225730 0.45146%
BRANCH_CONDITIONAL: 8366707 16.7334%
BRANCH_DIRECT_CALL: 600746 1.20149%
BRANCH_INDIRECT_CALL: 682990 1.36598%
BRANCH_RETURN: 1283971 2.56794%
BRANCH_OTHER: 0 0%

DRAM PAGES: 1048576
Allocated PAGES: 5379
