Initialize SIGNATURE TABLE
ST_SET: 1
ST_WAY: 256
ST_TAG_BIT: 16
ST_TAG_MASK: ffff

Initialize PATTERN TABLE
PT_SET: 512
PT_WAY: 4
SIG_DELTA_BIT: 7
C_SIG_BIT: 4
C_DELTA_BIT: 4

Initialize PREFETCH FILTER
FILTER_SET: 1024

*** ChampSim Multicore Out-of-Order Simulator ***

Warmup Instructions: 50000000
Simulation Instructions: 50000000
Number of CPUs: 1
LLC sets: 2048
LLC ways: 16
Off-chip DRAM Size: 4096 MB Channels: 1 Width: 64-bit Data Rate: 6400 MT/s
CPU 0 runs ../IPC-traces//client_005.champsimtrace.xz
.xz
BTB has LRU replacement policy
ITLB has LRU replacement policy
DTLB has LRU replacement policy
STLB has LRU replacement policy
CPU 0 L1I next line prefetcher
L1I has LRU replacement policy
L1D has LRU replacement policy
Initialize SRRIP state for L2C
Initialize DRRIP state for LLC
Heartbeat CPU 0 instructions: 10000001 cycles: 2800013 heartbeat IPC: 3.57141 cumulative IPC: 3.57141 (Simulation time: 0 hr 4 min 56 sec) 
Heartbeat CPU 0 instructions: 20000002 cycles: 5595655 heartbeat IPC: 3.577 cumulative IPC: 3.5742 (Simulation time: 0 hr 8 min 36 sec) 
Heartbeat CPU 0 instructions: 30000001 cycles: 8444052 heartbeat IPC: 3.51075 cumulative IPC: 3.5528 (Simulation time: 0 hr 12 min 30 sec) 
Heartbeat CPU 0 instructions: 40000000 cycles: 11290245 heartbeat IPC: 3.51346 cumulative IPC: 3.54288 (Simulation time: 0 hr 16 min 25 sec) 
Heartbeat CPU 0 instructions: 50000001 cycles: 14063176 heartbeat IPC: 3.60629 cumulative IPC: 3.55538 (Simulation time: 0 hr 19 min 17 sec) 

Warmup complete CPU 0 instructions: 50000001 cycles: 14063176 (Simulation time: 0 hr 19 min 17 sec) 

Heartbeat CPU 0 instructions: 60000001 cycles: 29940980 heartbeat IPC: 0.62981 cumulative IPC: 0.62981 (Simulation time: 0 hr 22 min 26 sec) 
Heartbeat CPU 0 instructions: 70000002 cycles: 44627605 heartbeat IPC: 0.680892 cumulative IPC: 0.654355 (Simulation time: 0 hr 25 min 51 sec) 
Heartbeat CPU 0 instructions: 80000003 cycles: 57748511 heartbeat IPC: 0.762143 cumulative IPC: 0.686729 (Simulation time: 0 hr 29 min 28 sec) 
Heartbeat CPU 0 instructions: 90000002 cycles: 73819041 heartbeat IPC: 0.622257 cumulative IPC: 0.66939 (Simulation time: 0 hr 33 min 5 sec) 
Heartbeat CPU 0 instructions: 100000002 cycles: 89279974 heartbeat IPC: 0.646792 cumulative IPC: 0.664745 (Simulation time: 0 hr 35 min 55 sec) 
Finished CPU 0 instructions: 50000001 cycles: 75216798 cumulative IPC: 0.664745 (Simulation time: 0 hr 35 min 55 sec) 

ChampSim completed all CPUs

Region of Interest Statistics

CPU 0 cumulative IPC: 0.664745 instructions: 50000001 cycles: 75216798

CPU 0 Average Load ROB stall cycles: 1.74005e+07
CPU 0 Fraction of times ROB stalled by Loads: 34.3591
CPU 0 Percentage of Load stall cycles in Total stall cycles: 2.37931e+08
Issued all: 27576985
Issued LT all: 21876877
rob_not_full_when_issued_lt_all: 20359487
Issued LT one: 16620461
rob_not_full_when_issued_lt_one: 15228252
 Total stall cycles: 61760038
 Total load stall cycles: 146946023605536
Unique Load IPs: 41101
CPU 0 NUM of IPS identified critical: 6
CPU 0 Num of Load IPs stalling ROB: 0
Threshold modification factor: 0
Trouble in retire width: -nan
MaC = Marked as critical.
lt_50_percent_before_Mac: 0
gt_90_percent_before_Mac: 2
gt_75_percent_before_Mac: 3
gt_50_percent_before_Mac: 0
stall_proportion_bin_same_before_after: 0
stall_proportion_bin_lower_before_after: 0
stall_proportion_bin_upper_before_after: 0
average_stall_proportion_before: 0.0517655
average_stall_proportion_after: 0.0668668
Critical_IP_Detector_Accuracy_70: 0
Critical_IP_Detector_Accuracy_80: 0
Critical_IP_Detector_Accuracy_90: 0
Critical_IP_Detector_Coverage_70: 0
Critical_IP_Detector_Coverage_80: 0
Critical_IP_Detector_Coverage_90: 0
stat_90_percent_critical_ip_stalls_freq: 46444
stat_90_percent_non_critical_ip_stalls_freq: 18446744073709505172
AVERAGE_ROB_Occupancy_90_Percent_Critical_IP_Stalls: 78.7714
AVERAGE_ROB_Occupancy_90_Percent_Non_Critical_IP_Stalls: 1.08035e-11
Critical_IP_ROB_Stalls_Bucket_0: 887
Non-critical_IP_ROB_Stalls_Bucket_0: 1423203
Critical_IP_ROB_Stalls_Bucket_1: 2133
Non-critical_IP_ROB_Stalls_Bucket_1: 821953
Critical_IP_ROB_Stalls_Bucket_2: 816
Non-critical_IP_ROB_Stalls_Bucket_2: 384962
Critical_IP_ROB_Stalls_Bucket_3: 97
Non-critical_IP_ROB_Stalls_Bucket_3: 138898
Critical_IP_ROB_Stalls_Bucket_4: 66
Non-critical_IP_ROB_Stalls_Bucket_4: 51531
Critical_IP_ROB_Stalls_Bucket_5: 14
Non-critical_IP_ROB_Stalls_Bucket_5: 30034
Critical_IP_ROB_Stalls_Bucket_6: 14
Non-critical_IP_ROB_Stalls_Bucket_6: 46999
0 => IPs accounting for >50 percent of stalls, 1 => 55, 2 => 60, 3 => 65 and so on till 90.
percent50: inf num IPs:  1
percent55: inf num IPs: 1
percent60: inf num IPs: 1
percent65: inf num IPs: 1
percent70: inf num IPs: 1
percent75: inf num IPs: 1
percent80: inf num IPs: 1
percent85: inf num IPs: 1
percent90: inf num IPs: 1
Critical_ROB_Stalls_Percent_0_Bucket_0: 17438
Non-critical_ROB_Stalls_Percent_0_Bucket_0: 1406652
Critical_ROB_Stalls_Percent_0_Bucket_1: 16532
Non-critical_ROB_Stalls_Percent_0_Bucket_1: 807554
Critical_ROB_Stalls_Percent_0_Bucket_2: 7218
Non-critical_ROB_Stalls_Percent_0_Bucket_2: 378560
Critical_ROB_Stalls_Percent_0_Bucket_3: 3449
Non-critical_ROB_Stalls_Percent_0_Bucket_3: 135546
Critical_ROB_Stalls_Percent_0_Bucket_4: 1233
Non-critical_ROB_Stalls_Percent_0_Bucket_4: 50364
Critical_ROB_Stalls_Percent_0_Bucket_5: 275
Non-critical_ROB_Stalls_Percent_0_Bucket_5: 29773
Critical_ROB_Stalls_Percent_0_Bucket_6: 299
Non-critical_ROB_Stalls_Percent_0_Bucket_6: 46714
Critical_ROB_Stalls_Percent_1_Bucket_0: 17438
Non-critical_ROB_Stalls_Percent_1_Bucket_0: 1406652
Critical_ROB_Stalls_Percent_1_Bucket_1: 16532
Non-critical_ROB_Stalls_Percent_1_Bucket_1: 807554
Critical_ROB_Stalls_Percent_1_Bucket_2: 7218
Non-critical_ROB_Stalls_Percent_1_Bucket_2: 378560
Critical_ROB_Stalls_Percent_1_Bucket_3: 3449
Non-critical_ROB_Stalls_Percent_1_Bucket_3: 135546
Critical_ROB_Stalls_Percent_1_Bucket_4: 1233
Non-critical_ROB_Stalls_Percent_1_Bucket_4: 50364
Critical_ROB_Stalls_Percent_1_Bucket_5: 275
Non-critical_ROB_Stalls_Percent_1_Bucket_5: 29773
Critical_ROB_Stalls_Percent_1_Bucket_6: 299
Non-critical_ROB_Stalls_Percent_1_Bucket_6: 46714
Critical_ROB_Stalls_Percent_2_Bucket_0: 17438
Non-critical_ROB_Stalls_Percent_2_Bucket_0: 1406652
Critical_ROB_Stalls_Percent_2_Bucket_1: 16532
Non-critical_ROB_Stalls_Percent_2_Bucket_1: 807554
Critical_ROB_Stalls_Percent_2_Bucket_2: 7218
Non-critical_ROB_Stalls_Percent_2_Bucket_2: 378560
Critical_ROB_Stalls_Percent_2_Bucket_3: 3449
Non-critical_ROB_Stalls_Percent_2_Bucket_3: 135546
Critical_ROB_Stalls_Percent_2_Bucket_4: 1233
Non-critical_ROB_Stalls_Percent_2_Bucket_4: 50364
Critical_ROB_Stalls_Percent_2_Bucket_5: 275
Non-critical_ROB_Stalls_Percent_2_Bucket_5: 29773
Critical_ROB_Stalls_Percent_2_Bucket_6: 299
Non-critical_ROB_Stalls_Percent_2_Bucket_6: 46714
Critical_ROB_Stalls_Percent_3_Bucket_0: 17438
Non-critical_ROB_Stalls_Percent_3_Bucket_0: 1406652
Critical_ROB_Stalls_Percent_3_Bucket_1: 16532
Non-critical_ROB_Stalls_Percent_3_Bucket_1: 807554
Critical_ROB_Stalls_Percent_3_Bucket_2: 7218
Non-critical_ROB_Stalls_Percent_3_Bucket_2: 378560
Critical_ROB_Stalls_Percent_3_Bucket_3: 3449
Non-critical_ROB_Stalls_Percent_3_Bucket_3: 135546
Critical_ROB_Stalls_Percent_3_Bucket_4: 1233
Non-critical_ROB_Stalls_Percent_3_Bucket_4: 50364
Critical_ROB_Stalls_Percent_3_Bucket_5: 275
Non-critical_ROB_Stalls_Percent_3_Bucket_5: 29773
Critical_ROB_Stalls_Percent_3_Bucket_6: 299
Non-critical_ROB_Stalls_Percent_3_Bucket_6: 46714
Critical_ROB_Stalls_Percent_4_Bucket_0: 17438
Non-critical_ROB_Stalls_Percent_4_Bucket_0: 1406652
Critical_ROB_Stalls_Percent_4_Bucket_1: 16532
Non-critical_ROB_Stalls_Percent_4_Bucket_1: 807554
Critical_ROB_Stalls_Percent_4_Bucket_2: 7218
Non-critical_ROB_Stalls_Percent_4_Bucket_2: 378560
Critical_ROB_Stalls_Percent_4_Bucket_3: 3449
Non-critical_ROB_Stalls_Percent_4_Bucket_3: 135546
Critical_ROB_Stalls_Percent_4_Bucket_4: 1233
Non-critical_ROB_Stalls_Percent_4_Bucket_4: 50364
Critical_ROB_Stalls_Percent_4_Bucket_5: 275
Non-critical_ROB_Stalls_Percent_4_Bucket_5: 29773
Critical_ROB_Stalls_Percent_4_Bucket_6: 299
Non-critical_ROB_Stalls_Percent_4_Bucket_6: 46714
Critical_ROB_Stalls_Percent_5_Bucket_0: 17438
Non-critical_ROB_Stalls_Percent_5_Bucket_0: 1406652
Critical_ROB_Stalls_Percent_5_Bucket_1: 16532
Non-critical_ROB_Stalls_Percent_5_Bucket_1: 807554
Critical_ROB_Stalls_Percent_5_Bucket_2: 7218
Non-critical_ROB_Stalls_Percent_5_Bucket_2: 378560
Critical_ROB_Stalls_Percent_5_Bucket_3: 3449
Non-critical_ROB_Stalls_Percent_5_Bucket_3: 135546
Critical_ROB_Stalls_Percent_5_Bucket_4: 1233
Non-critical_ROB_Stalls_Percent_5_Bucket_4: 50364
Critical_ROB_Stalls_Percent_5_Bucket_5: 275
Non-critical_ROB_Stalls_Percent_5_Bucket_5: 29773
Critical_ROB_Stalls_Percent_5_Bucket_6: 299
Non-critical_ROB_Stalls_Percent_5_Bucket_6: 46714
Critical_ROB_Stalls_Percent_6_Bucket_0: 17438
Non-critical_ROB_Stalls_Percent_6_Bucket_0: 1406652
Critical_ROB_Stalls_Percent_6_Bucket_1: 16532
Non-critical_ROB_Stalls_Percent_6_Bucket_1: 807554
Critical_ROB_Stalls_Percent_6_Bucket_2: 7218
Non-critical_ROB_Stalls_Percent_6_Bucket_2: 378560
Critical_ROB_Stalls_Percent_6_Bucket_3: 3449
Non-critical_ROB_Stalls_Percent_6_Bucket_3: 135546
Critical_ROB_Stalls_Percent_6_Bucket_4: 1233
Non-critical_ROB_Stalls_Percent_6_Bucket_4: 50364
Critical_ROB_Stalls_Percent_6_Bucket_5: 275
Non-critical_ROB_Stalls_Percent_6_Bucket_5: 29773
Critical_ROB_Stalls_Percent_6_Bucket_6: 299
Non-critical_ROB_Stalls_Percent_6_Bucket_6: 46714
Critical_ROB_Stalls_Percent_7_Bucket_0: 17438
Non-critical_ROB_Stalls_Percent_7_Bucket_0: 1406652
Critical_ROB_Stalls_Percent_7_Bucket_1: 16532
Non-critical_ROB_Stalls_Percent_7_Bucket_1: 807554
Critical_ROB_Stalls_Percent_7_Bucket_2: 7218
Non-critical_ROB_Stalls_Percent_7_Bucket_2: 378560
Critical_ROB_Stalls_Percent_7_Bucket_3: 3449
Non-critical_ROB_Stalls_Percent_7_Bucket_3: 135546
Critical_ROB_Stalls_Percent_7_Bucket_4: 1233
Non-critical_ROB_Stalls_Percent_7_Bucket_4: 50364
Critical_ROB_Stalls_Percent_7_Bucket_5: 275
Non-critical_ROB_Stalls_Percent_7_Bucket_5: 29773
Critical_ROB_Stalls_Percent_7_Bucket_6: 299
Non-critical_ROB_Stalls_Percent_7_Bucket_6: 46714
Critical_ROB_Stalls_Percent_8_Bucket_0: 17438
Non-critical_ROB_Stalls_Percent_8_Bucket_0: 1406652
Critical_ROB_Stalls_Percent_8_Bucket_1: 16532
Non-critical_ROB_Stalls_Percent_8_Bucket_1: 807554
Critical_ROB_Stalls_Percent_8_Bucket_2: 7218
Non-critical_ROB_Stalls_Percent_8_Bucket_2: 378560
Critical_ROB_Stalls_Percent_8_Bucket_3: 3449
Non-critical_ROB_Stalls_Percent_8_Bucket_3: 135546
Critical_ROB_Stalls_Percent_8_Bucket_4: 1233
Non-critical_ROB_Stalls_Percent_8_Bucket_4: 50364
Critical_ROB_Stalls_Percent_8_Bucket_5: 275
Non-critical_ROB_Stalls_Percent_8_Bucket_5: 29773
Critical_ROB_Stalls_Percent_8_Bucket_6: 299
Non-critical_ROB_Stalls_Percent_8_Bucket_6: 46714
Average ROB occupancy Load Stall Begin: 60.2771
Average ROB occupancy Load Stall End: 69.9433
Min ROB occupancy Load Stall Begin: 1
Max ROB occupancy Load Stall Begin: 352
Min ROB occupancy Load Stall End: 1
Max ROB occupancy Load Stall End: 352
Average ROB occupancy Critical Load Stall Begin: 75.5731
Average ROB occupancy Critical Load Stall End: 81.367
Min ROB occupancy Critical Load Stall Begin: 4
Max ROB occupancy Critical Load Stall Begin: 351
Min ROB occupancy Critical Load Stall End: 4
Max ROB occupancy Critical Load Stall End: 352
 ROB Load Stall Begin Bucket Count 0: 1677523
 ROB Load Stall End Bucket Count 0: 1424090
 ROB Critical Load Stall Begin Bucket Count 0: 178
 ROB Critical Load Stall End Bucket Count 0: 127
 ROB Load Stall Begin Bucket Count 1: 696838
 ROB Load Stall End Bucket Count 1: 824086
 ROB Critical Load Stall Begin Bucket Count 1: 353
 ROB Critical Load Stall End Bucket Count 1: 364
 ROB Load Stall Begin Bucket Count 2: 313929
 ROB Load Stall End Bucket Count 2: 385778
 ROB Critical Load Stall Begin Bucket Count 2: 127
 ROB Critical Load Stall End Bucket Count 2: 162
 ROB Load Stall Begin Bucket Count 3: 105414
 ROB Load Stall End Bucket Count 3: 138995
 ROB Critical Load Stall Begin Bucket Count 3: 8
 ROB Critical Load Stall End Bucket Count 3: 12
 ROB Load Stall Begin Bucket Count 4: 40323
 ROB Load Stall End Bucket Count 4: 51597
 ROB Critical Load Stall Begin Bucket Count 4: 12
 ROB Critical Load Stall End Bucket Count 4: 15
 ROB Load Stall Begin Bucket Count 5: 27112
 ROB Load Stall End Bucket Count 5: 30048
 ROB Critical Load Stall Begin Bucket Count 5: 3
 ROB Critical Load Stall End Bucket Count 5: 2
 ROB Load Stall Begin Bucket Count 6: 40468
 ROB Load Stall End Bucket Count 6: 47013
 ROB Critical Load Stall Begin Bucket Count 6: 3
 ROB Critical Load Stall End Bucket Count 6: 4
PIST Tag Read Accesses: 0
PIST Read Accesses: 0
PIST Tag Write Accesses: 0
PIST Write Accesses: 0
Criticality detector called times: 0
Max global_stall_cycles_count: 0
Threshold Modified: 0 times, factor: 0
Sturdy critical IP cache stats: 
 Unused entries: 0
CIC Tag Read Accesses: 0
CIC Read Accesses: 0
CIC Tag Write Accesses: 0
CIC Write Accesses: 0
Wobbly critical IP cache stats: 
 Unused entries: 0
CIC Tag Read Accesses: 147650954
CIC Read Accesses: 0
CIC Tag Write Accesses: 117393
CIC Write Accesses: 0
ITLB TOTAL     ACCESS:    9254296  HIT:    9135869  MISS:     118427  HIT %:    98.7203  MISS %:     1.2797   MPKI: 2.36854
ITLB LOAD TRANSLATION ACCESS:    8279245  HIT:    8221308  MISS:      57937  HIT %:    99.3002  MISS %:   0.699786   MPKI: 1.15874
ITLB TRANSLATION FROM L1D PREFETCHER ACCESS:     975051  HIT:     914561  MISS:      60490  HIT %:    93.7962  MISS %:    6.20378   MPKI: 1.2098
ITLB PREFETCH  REQUESTED:          0  ISSUED:          0  USEFUL:      48748  USELESS:      11744
ITLB USEFUL LOAD PREFETCHES:      48748 PREFETCH ISSUED TO LOWER LEVEL:          0  ACCURACY: inf
ITLB TIMELY PREFETCHES:      48748 LATE PREFETCHES: 283 DROPPED PREFETCHES: 327
ITLB PREFETCHES SAME FILL-ORIGIN LEVEL: 0 DIFFERENT FILL-ORIGIN LEVEL: 0
ITLB AVERAGE MISS LATENCY: 120581 cycles
ITLB RQ	ACCESS:   12556214	FORWARD:          0	MERGED:    3282647	TO_CACHE:    9273567

DTLB TOTAL     ACCESS:   10403631  HIT:   10202304  MISS:     201327  HIT %:    98.0648  MISS %:    1.93516   MPKI: 4.02654
DTLB LOAD TRANSLATION ACCESS:   10403631  HIT:   10202304  MISS:     201327  HIT %:    98.0648  MISS %:    1.93516   MPKI: 4.02654
DTLB PREFETCH  REQUESTED:          0  ISSUED:          0  USEFUL:          0  USELESS:          0
DTLB USEFUL LOAD PREFETCHES:          0 PREFETCH ISSUED TO LOWER LEVEL:          0  ACCURACY: -nan
DTLB TIMELY PREFETCHES:          0 LATE PREFETCHES: 0 DROPPED PREFETCHES: 0
DTLB PREFETCHES SAME FILL-ORIGIN LEVEL: 0 DIFFERENT FILL-ORIGIN LEVEL: 0
DTLB AVERAGE MISS LATENCY: 12.9117 cycles
DTLB RQ	ACCESS:   14344719	FORWARD:          0	MERGED:    3910297	TO_CACHE:   10434422

STLB TOTAL     ACCESS:     319754  HIT:     307853  MISS:      11901  HIT %:    96.2781  MISS %:    3.72192   MPKI: 0.23802
STLB LOAD TRANSLATION ACCESS:     258983  HIT:     247876  MISS:      11107  HIT %:    95.7113  MISS %:     4.2887   MPKI: 0.22214
STLB TRANSLATION FROM L1D PREFETCHER ACCESS:      60771  HIT:      59977  MISS:        794  HIT %:    98.6935  MISS %:    1.30654   MPKI: 0.01588
STLB PREFETCH  REQUESTED:          0  ISSUED:          0  USEFUL:        559  USELESS:        233
STLB USEFUL LOAD PREFETCHES:        559 PREFETCH ISSUED TO LOWER LEVEL:          0  ACCURACY: inf
STLB TIMELY PREFETCHES:        559 LATE PREFETCHES: 0 DROPPED PREFETCHES: 329
STLB PREFETCHES SAME FILL-ORIGIN LEVEL: 0 DIFFERENT FILL-ORIGIN LEVEL: 0
STLB AVERAGE MISS LATENCY: 80.2004 cycles
STLB RQ	ACCESS:     320083	FORWARD:          0	MERGED:          0	TO_CACHE:     320083

STLB Hit, L1D data hit: 0
STLB Hit, L2C data hit: 0
STLB Hit, LLC data hit: 0
STLB Hit, LLC data miss: 0
STLB STLB hints to L2: 0
L1D TOTAL     ACCESS:   13843847  HIT:   13456587  MISS:     387260  HIT %:    97.2027  MISS %:    2.79734   MPKI: 7.7452
L1D LOAD      ACCESS:    7050375  HIT:    6859655  MISS:     190720  HIT %:    97.2949  MISS %:     2.7051   MPKI: 3.8144
L1D RFO       ACCESS:    6793472  HIT:    6596932  MISS:     196540  HIT %:    97.1069  MISS %:    2.89307   MPKI: 3.9308
L1D PREFETCH  REQUESTED:          0  ISSUED:          0  USEFUL:          0  USELESS:          0
L1D USEFUL LOAD PREFETCHES:          0 PREFETCH ISSUED TO LOWER LEVEL:          0  ACCURACY: -nan
L1D TIMELY PREFETCHES:          0 LATE PREFETCHES: 0 DROPPED PREFETCHES: 0
L1D PREFETCHES SAME FILL-ORIGIN LEVEL: 0 DIFFERENT FILL-ORIGIN LEVEL: 0
L1D AVERAGE MISS LATENCY: 116.735 cycles
L1D RQ	ACCESS:   10966403	FORWARD:          0	MERGED:    3728721	TO_CACHE:    7084994
L1D WQ	ACCESS:    7412318	FORWARD:     152688	MERGED:     152593	TO_CACHE:    7259725

L1D UNIQUE REGIONS ACCESSED: 0
L1D REGIONS CONFLICTS: 0
L1D Cross Page Prefetch Requests: 0
L1D Same Page Prefetch Requests: 0
L1D ROI Sum of L1D PQ occupancy: 0
L1D PREFETCHES PUSHED FROM L2C: 0
L1I TOTAL     ACCESS:   12421514  HIT:   11354272  MISS:    1067242  HIT %:    91.4081  MISS %:    8.59188   MPKI: 21.3448
L1I LOAD      ACCESS:    9751680  HIT:    9482204  MISS:     269476  HIT %:    97.2366  MISS %:    2.76338   MPKI: 5.38952
L1I PREFETCH  ACCESS:    2669834  HIT:    1872068  MISS:     797766  HIT %:    70.1193  MISS %:    29.8807   MPKI: 15.9553
L1I PREFETCH  REQUESTED:    2917145  ISSUED:    2914382  USEFUL:     511183  USELESS:     286537
L1I USEFUL LOAD PREFETCHES:     511183 PREFETCH ISSUED TO LOWER LEVEL:     827011  ACCURACY: 61.8109
L1I TIMELY PREFETCHES:     511183 LATE PREFETCHES: 29245 DROPPED PREFETCHES: 694
L1I PREFETCHES SAME FILL-ORIGIN LEVEL: 827011 DIFFERENT FILL-ORIGIN LEVEL: 0
L1I AVERAGE MISS LATENCY: 1.32145e+06 cycles
L1I RQ	ACCESS:   14564686	FORWARD:          0	MERGED:    4776342	TO_CACHE:    9788344
L1I PQ	ACCESS:    2914382	FORWARD:          0	MERGED:     146512	TO_CACHE:    2767870

BTB TOTAL     ACCESS:    6897112  HIT:    6294074  MISS:     603038  HIT %:    91.2567  MISS %:    8.74334   MPKI: 12.0608
BTB BRANCH_DIRECT_JUMP	ACCESS:     484667  HIT:     467652  MISS:      17015
BTB BRANCH_INDIRECT	ACCESS:      85086  HIT:      43882  MISS:      41204
BTB BRANCH_CONDITIONAL	ACCESS:    3984632  HIT:    3933521  MISS:      51111
BTB BRANCH_DIRECT_CALL	ACCESS:    1028917  HIT:     994054  MISS:      34863
BTB BRANCH_INDIRECT_CALL	ACCESS:     141825  HIT:     105579  MISS:      36246
BTB BRANCH_RETURN	ACCESS:    1171985  HIT:     749386  MISS:     422599
BTB BRANCH_OTHER ACCESS:          0  HIT:          0  MISS:          0

L2C TOTAL     ACCESS:    1935952  HIT:    1574610  MISS:     361342  HIT %:    81.3352  MISS %:    18.6648   MPKI: 7.22684
L2C LOAD      ACCESS:     430948  HIT:     304437  MISS:     126511  HIT %:    70.6436  MISS %:    29.3564   MPKI: 2.53022
L2C DATA LOAD MPKI: 2.05558
L2C INSTRUCTION LOAD MPKI: 0.47464
L2C RFO       ACCESS:     196538  HIT:      32385  MISS:     164153  HIT %:    16.4777  MISS %:    83.5223   MPKI: 3.28306
L2C PREFETCH  ACCESS:    1054654  HIT:    1000754  MISS:      53900  HIT %:    94.8893  MISS %:    5.11068   MPKI: 1.078
L2C DATA PREFETCH MPKI: 0.00486
L2C INSTRUCTION PREFETCH MPKI: 1.07314
L2C WRITEBACK ACCESS:     240653  HIT:     227946  MISS:      12707  HIT %:    94.7198  MISS %:    5.28022   MPKI: 0.25414
L2C LOAD TRANSLATION ACCESS:      11933  HIT:       8204  MISS:       3729  HIT %:    68.7505  MISS %:    31.2495   MPKI: 0.07458
L2C TRANSLATION FROM L1D PREFETCHER ACCESS:       1226  HIT:        884  MISS:        342  HIT %:    72.1044  MISS %:    27.8956   MPKI: 0.00684
L2C PREFETCH  REQUESTED:     742130  ISSUED:     742130  USEFUL:       6595  USELESS:      45979
L2C USEFUL LOAD PREFETCHES:       6595 PREFETCH ISSUED TO LOWER LEVEL:     162133  ACCURACY: 4.06765
L2C TIMELY PREFETCHES:       6595 LATE PREFETCHES: 0 DROPPED PREFETCHES: 0
L2C PREFETCHES SAME FILL-ORIGIN LEVEL: 245 DIFFERENT FILL-ORIGIN LEVEL: 108233
L2C AVERAGE MISS LATENCY: 127.618 cycles
L2C RQ	ACCESS:     640650	FORWARD:          0	MERGED:          0	TO_CACHE:     640645
L2C WQ	ACCESS:     240653	FORWARD:          5	MERGED:          0	TO_CACHE:     240653
L2C PQ	ACCESS:    1569141	FORWARD:          0	MERGED:     405837	TO_CACHE:    1163304

L2C Instructions Evicting Data 46655
L2C Translations Evicting Data 2719
L2C Data Evicting Data 223088
L2C Instructions Evicting Instructions 29556
L2C Translations Evicting Instructions 1264
L2C Data Evicting Instructions 41459
L2C Instructions Evicting Translations 1178
L2C Translations Evicting Translations 88
L2C Data Evicting Translations 2628
L2C Dense regions hint from L2: 0
PSCL5 TOTAL     ACCESS:      12230  HIT:      12230  MISS:          0  HIT %:        100  MISS %:          0   MPKI: 0
PSCL5 LOAD TRANSLATION ACCESS:      11107  HIT:      11107  MISS:          0  HIT %:        100  MISS %:          0   MPKI: 0
PSCL5 TRANSLATION FROM L1D PREFETCHER ACCESS:       1123  HIT:       1123  MISS:          0  HIT %:        100  MISS %:          0   MPKI: 0
PSCL5 PREFETCH  REQUESTED:          0  ISSUED:          0  USEFUL:          0  USELESS:          0
PSCL5 USEFUL LOAD PREFETCHES:          0 PREFETCH ISSUED TO LOWER LEVEL:          0  ACCURACY: -nan
PSCL5 TIMELY PREFETCHES:          0 LATE PREFETCHES: 0 DROPPED PREFETCHES: 0
PSCL5 PREFETCHES SAME FILL-ORIGIN LEVEL: 0 DIFFERENT FILL-ORIGIN LEVEL: 0

PSCL4 TOTAL     ACCESS:      12230  HIT:      12230  MISS:          0  HIT %:        100  MISS %:          0   MPKI: 0
PSCL4 LOAD TRANSLATION ACCESS:      11107  HIT:      11107  MISS:          0  HIT %:        100  MISS %:          0   MPKI: 0
PSCL4 TRANSLATION FROM L1D PREFETCHER ACCESS:       1123  HIT:       1123  MISS:          0  HIT %:        100  MISS %:          0   MPKI: 0
PSCL4 PREFETCH  REQUESTED:          0  ISSUED:          0  USEFUL:          0  USELESS:          0
PSCL4 USEFUL LOAD PREFETCHES:          0 PREFETCH ISSUED TO LOWER LEVEL:          0  ACCURACY: -nan
PSCL4 TIMELY PREFETCHES:          0 LATE PREFETCHES: 0 DROPPED PREFETCHES: 0
PSCL4 PREFETCHES SAME FILL-ORIGIN LEVEL: 0 DIFFERENT FILL-ORIGIN LEVEL: 0

PSCL3 TOTAL     ACCESS:      12208  HIT:      12198  MISS:         10  HIT %:    99.9181  MISS %:  0.0819135   MPKI: 0.0002
PSCL3 LOAD TRANSLATION ACCESS:      11091  HIT:      11081  MISS:         10  HIT %:    99.9098  MISS %:  0.0901632   MPKI: 0.0002
PSCL3 TRANSLATION FROM L1D PREFETCHER ACCESS:       1117  HIT:       1117  MISS:          0  HIT %:        100  MISS %:          0   MPKI: 0
PSCL3 PREFETCH  REQUESTED:          0  ISSUED:          0  USEFUL:          0  USELESS:          0
PSCL3 USEFUL LOAD PREFETCHES:          0 PREFETCH ISSUED TO LOWER LEVEL:          0  ACCURACY: -nan
PSCL3 TIMELY PREFETCHES:          0 LATE PREFETCHES: 0 DROPPED PREFETCHES: 0
PSCL3 PREFETCHES SAME FILL-ORIGIN LEVEL: 0 DIFFERENT FILL-ORIGIN LEVEL: 0

PSCL2 TOTAL     ACCESS:      12185  HIT:      11310  MISS:        875  HIT %:     92.819  MISS %:    7.18096   MPKI: 0.0175
PSCL2 LOAD TRANSLATION ACCESS:      11163  HIT:      10288  MISS:        875  HIT %:    92.1616  MISS %:    7.83839   MPKI: 0.0175
PSCL2 TRANSLATION FROM L1D PREFETCHER ACCESS:       1022  HIT:       1022  MISS:          0  HIT %:        100  MISS %:          0   MPKI: 0
PSCL2 PREFETCH  REQUESTED:          0  ISSUED:          0  USEFUL:          0  USELESS:          0
PSCL2 USEFUL LOAD PREFETCHES:          0 PREFETCH ISSUED TO LOWER LEVEL:          0  ACCURACY: -nan
PSCL2 TIMELY PREFETCHES:          0 LATE PREFETCHES: 0 DROPPED PREFETCHES: 0
PSCL2 PREFETCHES SAME FILL-ORIGIN LEVEL: 0 DIFFERENT FILL-ORIGIN LEVEL: 0

LLC TOTAL     ACCESS:     650579  HIT:     392857  MISS:     257722  HIT %:    60.3857  MISS %:    39.6143   MPKI: 5.15444
LLC LOAD      ACCESS:     126511  HIT:      54702  MISS:      71809  HIT %:    43.2389  MISS %:    56.7611   MPKI: 1.43618
LLC RFO       ACCESS:     164153  HIT:       8063  MISS:     156090  HIT %:    4.91188  MISS %:    95.0881   MPKI: 3.1218
LLC PREFETCH  ACCESS:     161147  HIT:     138179  MISS:      22968  HIT %:    85.7472  MISS %:    14.2528   MPKI: 0.45936
LLC WRITEBACK ACCESS:     194697  HIT:     189932  MISS:       4765  HIT %:    97.5526  MISS %:    2.44739   MPKI: 0.0953
LLC LOAD TRANSLATION ACCESS:       3729  HIT:       1795  MISS:       1934  HIT %:    48.1362  MISS %:    51.8638   MPKI: 0.03868
LLC TRANSLATION FROM L1D PREFETCHER ACCESS:        342  HIT:        186  MISS:        156  HIT %:     54.386  MISS %:     45.614   MPKI: 0.00312
LLC PREFETCH  REQUESTED:          0  ISSUED:          0  USEFUL:       2923  USELESS:      17647
LLC USEFUL LOAD PREFETCHES:       2923 PREFETCH ISSUED TO LOWER LEVEL:      23026  ACCURACY: 12.6943
LLC TIMELY PREFETCHES:       2923 LATE PREFETCHES: 58 DROPPED PREFETCHES: 0
LLC PREFETCHES SAME FILL-ORIGIN LEVEL: 7695 DIFFERENT FILL-ORIGIN LEVEL: 0
LLC AVERAGE MISS LATENCY: 143.171 cycles
LLC RQ	ACCESS:     294735	FORWARD:          0	MERGED:          0	TO_CACHE:     294735
LLC WQ	ACCESS:     194697	FORWARD:          0	MERGED:          0	TO_CACHE:     194697
LLC PQ	ACCESS:     162133	FORWARD:          0	MERGED:        422	TO_CACHE:     161711

LLC Dense regions hint to LLC: 0

RAW hits: 1825796
Loads Generated: 12792198
Loads sent to L1D: 10966403
Stores Generated: 7412307
Stores sent to L1D: 7412318
Major fault: 0 Minor fault: 6178
Allocated PAGES: 6178
I-Shadow cache 408 bytes
Touched + WorthPF tables 6144 bytes 
MMA filter 174 bytes 
FNL filter 272 bytes 
TOTAL PREFETCHER STORAGE SIZE: 25174 bytes
CPU 0 L1I next line prefetcher final stats
 All Calls: 2028750
 Critical Calls: 1421073
------------------
Depth Distribution
------------------
depth 0: 0
depth 1: 1323227
depth 2: 399452
depth 3: 12732
depth 4: 1442
depth 5: 713
depth 6: 329
depth 7: 112
depth 8: 29
depth 9: 0
depth 10: 0
depth 11: 0
depth 12: 0
depth 13: 0
depth 14: 0
depth 15: 0
depth 16: 0
depth 17: 0
depth 18: 0
depth 19: 0
depth 20: 0
depth 21: 0
depth 22: 0
depth 23: 0
depth 24: 0
depth 25: 0
depth 26: 0
depth 27: 0
depth 28: 0
depth 29: 0
Total: 1738036
-----------------------------
-----------------------------
	Captured at Filter
-----------------------------
depth 0: 0
depth 1: 39404
depth 2: 16040
depth 3: 2090
depth 4: 133
depth 5: 24
depth 6: 3
depth 7: 1
depth 8: 0
depth 9: 0
depth 10: 0
depth 11: 0
depth 12: 0
depth 13: 0
depth 14: 0
depth 15: 0
depth 16: 0
depth 17: 0
depth 18: 0
depth 19: 0
depth 20: 0
depth 21: 0
depth 22: 0
depth 23: 0
depth 24: 0
depth 25: 0
depth 26: 0
depth 27: 0
depth 28: 0
depth 29: 0
-----------------------------
-----------------------------
		Lost at Page
-----------------------------
depth 0: 0
depth 1: 25252
depth 2: 11058
depth 3: 366
depth 4: 91
depth 5: 65
depth 6: 32
depth 7: 13
depth 8: 2
depth 9: 0
depth 10: 0
depth 11: 0
depth 12: 0
depth 13: 0
depth 14: 0
depth 15: 0
depth 16: 0
depth 17: 0
depth 18: 0
depth 19: 0
depth 20: 0
depth 21: 0
depth 22: 0
depth 23: 0
depth 24: 0
depth 25: 0
depth 26: 0
depth 27: 0
depth 28: 0
depth 29: 0
-----------------------------
-----------------------------
	Lost due to PQ Size
-----------------------------
567
-----------------------------
ST read accesses: 582664
ST write accesses: 7066
PT read accesses: 8265246
PT write accesses: 824728
FILTER read accesses: 1720251
FILTER write accesses: 373267
GHR read accesses: 149981
GHR write accesses: 15725
GHR counter read accesses: 6628524
GHR counter write accesses: 599382
ST tag read accesses: 232211435
ST tag write accesses: 10716679

DRAM Statistics
 CHANNEL 0
 RQ ROW_BUFFER_HIT:      85319  ROW_BUFFER_MISS:     167637
 DBUS_CONGESTED:        234
 WQ ROW_BUFFER_HIT:      34521  ROW_BUFFER_MISS:     145159  FULL:          0

 AVG_CONGESTED_CYCLE: 3
 All warmup complete: 2
Channel 0 Bank busy for read cycles: 0
Channel 0 Bank busy for write cycles: 0
Channel 0
Rank 0
0banks busy for read cycles: 45245908
0banks busy for write cycles: 47675
1banks busy for read cycles: 11991932
1banks busy for write cycles: 5664528
2banks busy for read cycles: 3447912
2banks busy for write cycles: 2824543
3banks busy for read cycles: 702716
3banks busy for write cycles: 1255610
4banks busy for read cycles: 309618
4banks busy for write cycles: 555429
5banks busy for read cycles: 238421
5banks busy for write cycles: 384126
6banks busy for read cycles: 244064
6banks busy for write cycles: 321765
7banks busy for read cycles: 220688
7banks busy for write cycles: 368624
8banks busy for read cycles: 379568
8banks busy for write cycles: 1013672

CPU 0 Branch Prediction Accuracy: 97.8666% MPKI: 3.9013 Average ROB Occupancy at Mispredict: 49.4342
Branch types
NOT_BRANCH: 40856330 81.7127%
BRANCH_DIRECT_JUMP: 484667 0.969334%
BRANCH_INDIRECT: 85086 0.170172%
BRANCH_CONDITIONAL: 6230887 12.4618%
BRANCH_DIRECT_CALL: 1028917 2.05783%
BRANCH_INDIRECT_CALL: 141825 0.28365%
BRANCH_RETURN: 1171985 2.34397%
BRANCH_OTHER: 0 0%

DRAM PAGES: 1048576
Allocated PAGES: 6178
