
*** ChampSim Multicore Out-of-Order Simulator ***

Warmup Instructions: 50000000
Simulation Instructions: 50000000
Number of CPUs: 1
LLC sets: 2048
LLC ways: 16
Off-chip DRAM Size: 4096 MB Channels: 1 Width: 64-bit Data Rate: 6400 MT/s
CPU 0 runs ../IPC-traces//client_003.champsimtrace.xz
.xz
BTB has LRU replacement policy
ITLB has LRU replacement policy
DTLB has LRU replacement policy
STLB has LRU replacement policy
CPU 0 L1I next line prefetcher
L1I has LRU replacement policy
L1D has LRU replacement policy
Bingo PHT WAYS: 16 and PHT_SIZE: 16384
Initialize SRRIP state for L2C
Initialize DRRIP state for LLC
Heartbeat CPU 0 instructions: 10000000 cycles: 2805266 heartbeat IPC: 3.56472 cumulative IPC: 3.56472 (Simulation time: 0 hr 3 min 21 sec) 
Heartbeat CPU 0 instructions: 20000000 cycles: 5608763 heartbeat IPC: 3.56697 cumulative IPC: 3.56585 (Simulation time: 0 hr 6 min 21 sec) 
Heartbeat CPU 0 instructions: 30000003 cycles: 8417631 heartbeat IPC: 3.56015 cumulative IPC: 3.56395 (Simulation time: 0 hr 9 min 25 sec) 
Heartbeat CPU 0 instructions: 40000001 cycles: 11235026 heartbeat IPC: 3.54938 cumulative IPC: 3.56029 (Simulation time: 0 hr 12 min 57 sec) 
Heartbeat CPU 0 instructions: 50000002 cycles: 14055085 heartbeat IPC: 3.54603 cumulative IPC: 3.55743 (Simulation time: 0 hr 16 min 2 sec) 

Warmup complete CPU 0 instructions: 50000002 cycles: 14055085 (Simulation time: 0 hr 16 min 2 sec) 

Heartbeat CPU 0 instructions: 60000002 cycles: 27025755 heartbeat IPC: 0.77097 cumulative IPC: 0.77097 (Simulation time: 0 hr 19 min 19 sec) 
Heartbeat CPU 0 instructions: 70000001 cycles: 39620954 heartbeat IPC: 0.793953 cumulative IPC: 0.782293 (Simulation time: 0 hr 22 min 34 sec) 
Heartbeat CPU 0 instructions: 80000001 cycles: 53632848 heartbeat IPC: 0.713679 cumulative IPC: 0.758001 (Simulation time: 0 hr 25 min 46 sec) 
Heartbeat CPU 0 instructions: 90000000 cycles: 74047210 heartbeat IPC: 0.489851 cumulative IPC: 0.666754 (Simulation time: 0 hr 29 min 14 sec) 
Heartbeat CPU 0 instructions: 100000000 cycles: 96348788 heartbeat IPC: 0.448399 cumulative IPC: 0.60758 (Simulation time: 0 hr 33 min 10 sec) 
Finished CPU 0 instructions: 50000002 cycles: 82293705 cumulative IPC: 0.60758 (Simulation time: 0 hr 33 min 10 sec) 

ChampSim completed all CPUs

Region of Interest Statistics

CPU 0 cumulative IPC: 0.60758 instructions: 50000002 cycles: 82293705

CPU 0 Average Load ROB stall cycles: 1.89751e+07
CPU 0 Fraction of times ROB stalled by Loads: 36.5133
CPU 0 Percentage of Load stall cycles in Total stall cycles: 2.35022e+08
Issued all: 46910364
Issued LT all: 41424465
rob_not_full_when_issued_lt_all: 17878472
Issued LT one: 35226416
rob_not_full_when_issued_lt_one: 13574880
 Total stall cycles: 69310394
 Total load stall cycles: 162894632244756
Unique Load IPs: 39814
CPU 0 NUM of IPS identified critical: 5
CPU 0 Num of Load IPs stalling ROB: 0
Threshold modification factor: 0
Trouble in retire width: -nan
MaC = Marked as critical.
lt_50_percent_before_Mac: 1
gt_90_percent_before_Mac: 0
gt_75_percent_before_Mac: 1
gt_50_percent_before_Mac: 2
stall_proportion_bin_same_before_after: 0
stall_proportion_bin_lower_before_after: 0
stall_proportion_bin_upper_before_after: 0
average_stall_proportion_before: 0.0302959
average_stall_proportion_after: 0.0257563
Critical_IP_Detector_Accuracy_70: 0
Critical_IP_Detector_Accuracy_80: 0
Critical_IP_Detector_Accuracy_90: 0
Critical_IP_Detector_Coverage_70: 0
Critical_IP_Detector_Coverage_80: 0
Critical_IP_Detector_Coverage_90: 0
stat_90_percent_critical_ip_stalls_freq: 548859
stat_90_percent_non_critical_ip_stalls_freq: 18446744073709002757
AVERAGE_ROB_Occupancy_90_Percent_Critical_IP_Stalls: 349.271
AVERAGE_ROB_Occupancy_90_Percent_Non_Critical_IP_Stalls: 1.15706e-11
Critical_IP_ROB_Stalls_Bucket_0: 392
Non-critical_IP_ROB_Stalls_Bucket_0: 1311965
Critical_IP_ROB_Stalls_Bucket_1: 279
Non-critical_IP_ROB_Stalls_Bucket_1: 662709
Critical_IP_ROB_Stalls_Bucket_2: 10
Non-critical_IP_ROB_Stalls_Bucket_2: 273438
Critical_IP_ROB_Stalls_Bucket_3: 8
Non-critical_IP_ROB_Stalls_Bucket_3: 94367
Critical_IP_ROB_Stalls_Bucket_4: 7
Non-critical_IP_ROB_Stalls_Bucket_4: 37258
Critical_IP_ROB_Stalls_Bucket_5: 1
Non-critical_IP_ROB_Stalls_Bucket_5: 21874
Critical_IP_ROB_Stalls_Bucket_6: 15
Non-critical_IP_ROB_Stalls_Bucket_6: 732219
0 => IPs accounting for >50 percent of stalls, 1 => 55, 2 => 60, 3 => 65 and so on till 90.
percent50: inf num IPs:  1
percent55: inf num IPs: 1
percent60: inf num IPs: 1
percent65: inf num IPs: 1
percent70: inf num IPs: 1
percent75: inf num IPs: 1
percent80: inf num IPs: 1
percent85: inf num IPs: 1
percent90: inf num IPs: 1
Critical_ROB_Stalls_Percent_0_Bucket_0: 25
Non-critical_ROB_Stalls_Percent_0_Bucket_0: 1312332
Critical_ROB_Stalls_Percent_0_Bucket_1: 27
Non-critical_ROB_Stalls_Percent_0_Bucket_1: 662961
Critical_ROB_Stalls_Percent_0_Bucket_2: 708
Non-critical_ROB_Stalls_Percent_0_Bucket_2: 272740
Critical_ROB_Stalls_Percent_0_Bucket_3: 3242
Non-critical_ROB_Stalls_Percent_0_Bucket_3: 91133
Critical_ROB_Stalls_Percent_0_Bucket_4: 3257
Non-critical_ROB_Stalls_Percent_0_Bucket_4: 34008
Critical_ROB_Stalls_Percent_0_Bucket_5: 3275
Non-critical_ROB_Stalls_Percent_0_Bucket_5: 18600
Critical_ROB_Stalls_Percent_0_Bucket_6: 538325
Non-critical_ROB_Stalls_Percent_0_Bucket_6: 193909
Critical_ROB_Stalls_Percent_1_Bucket_0: 25
Non-critical_ROB_Stalls_Percent_1_Bucket_0: 1312332
Critical_ROB_Stalls_Percent_1_Bucket_1: 27
Non-critical_ROB_Stalls_Percent_1_Bucket_1: 662961
Critical_ROB_Stalls_Percent_1_Bucket_2: 708
Non-critical_ROB_Stalls_Percent_1_Bucket_2: 272740
Critical_ROB_Stalls_Percent_1_Bucket_3: 3242
Non-critical_ROB_Stalls_Percent_1_Bucket_3: 91133
Critical_ROB_Stalls_Percent_1_Bucket_4: 3257
Non-critical_ROB_Stalls_Percent_1_Bucket_4: 34008
Critical_ROB_Stalls_Percent_1_Bucket_5: 3275
Non-critical_ROB_Stalls_Percent_1_Bucket_5: 18600
Critical_ROB_Stalls_Percent_1_Bucket_6: 538325
Non-critical_ROB_Stalls_Percent_1_Bucket_6: 193909
Critical_ROB_Stalls_Percent_2_Bucket_0: 25
Non-critical_ROB_Stalls_Percent_2_Bucket_0: 1312332
Critical_ROB_Stalls_Percent_2_Bucket_1: 27
Non-critical_ROB_Stalls_Percent_2_Bucket_1: 662961
Critical_ROB_Stalls_Percent_2_Bucket_2: 708
Non-critical_ROB_Stalls_Percent_2_Bucket_2: 272740
Critical_ROB_Stalls_Percent_2_Bucket_3: 3242
Non-critical_ROB_Stalls_Percent_2_Bucket_3: 91133
Critical_ROB_Stalls_Percent_2_Bucket_4: 3257
Non-critical_ROB_Stalls_Percent_2_Bucket_4: 34008
Critical_ROB_Stalls_Percent_2_Bucket_5: 3275
Non-critical_ROB_Stalls_Percent_2_Bucket_5: 18600
Critical_ROB_Stalls_Percent_2_Bucket_6: 538325
Non-critical_ROB_Stalls_Percent_2_Bucket_6: 193909
Critical_ROB_Stalls_Percent_3_Bucket_0: 25
Non-critical_ROB_Stalls_Percent_3_Bucket_0: 1312332
Critical_ROB_Stalls_Percent_3_Bucket_1: 27
Non-critical_ROB_Stalls_Percent_3_Bucket_1: 662961
Critical_ROB_Stalls_Percent_3_Bucket_2: 708
Non-critical_ROB_Stalls_Percent_3_Bucket_2: 272740
Critical_ROB_Stalls_Percent_3_Bucket_3: 3242
Non-critical_ROB_Stalls_Percent_3_Bucket_3: 91133
Critical_ROB_Stalls_Percent_3_Bucket_4: 3257
Non-critical_ROB_Stalls_Percent_3_Bucket_4: 34008
Critical_ROB_Stalls_Percent_3_Bucket_5: 3275
Non-critical_ROB_Stalls_Percent_3_Bucket_5: 18600
Critical_ROB_Stalls_Percent_3_Bucket_6: 538325
Non-critical_ROB_Stalls_Percent_3_Bucket_6: 193909
Critical_ROB_Stalls_Percent_4_Bucket_0: 25
Non-critical_ROB_Stalls_Percent_4_Bucket_0: 1312332
Critical_ROB_Stalls_Percent_4_Bucket_1: 27
Non-critical_ROB_Stalls_Percent_4_Bucket_1: 662961
Critical_ROB_Stalls_Percent_4_Bucket_2: 708
Non-critical_ROB_Stalls_Percent_4_Bucket_2: 272740
Critical_ROB_Stalls_Percent_4_Bucket_3: 3242
Non-critical_ROB_Stalls_Percent_4_Bucket_3: 91133
Critical_ROB_Stalls_Percent_4_Bucket_4: 3257
Non-critical_ROB_Stalls_Percent_4_Bucket_4: 34008
Critical_ROB_Stalls_Percent_4_Bucket_5: 3275
Non-critical_ROB_Stalls_Percent_4_Bucket_5: 18600
Critical_ROB_Stalls_Percent_4_Bucket_6: 538325
Non-critical_ROB_Stalls_Percent_4_Bucket_6: 193909
Critical_ROB_Stalls_Percent_5_Bucket_0: 25
Non-critical_ROB_Stalls_Percent_5_Bucket_0: 1312332
Critical_ROB_Stalls_Percent_5_Bucket_1: 27
Non-critical_ROB_Stalls_Percent_5_Bucket_1: 662961
Critical_ROB_Stalls_Percent_5_Bucket_2: 708
Non-critical_ROB_Stalls_Percent_5_Bucket_2: 272740
Critical_ROB_Stalls_Percent_5_Bucket_3: 3242
Non-critical_ROB_Stalls_Percent_5_Bucket_3: 91133
Critical_ROB_Stalls_Percent_5_Bucket_4: 3257
Non-critical_ROB_Stalls_Percent_5_Bucket_4: 34008
Critical_ROB_Stalls_Percent_5_Bucket_5: 3275
Non-critical_ROB_Stalls_Percent_5_Bucket_5: 18600
Critical_ROB_Stalls_Percent_5_Bucket_6: 538325
Non-critical_ROB_Stalls_Percent_5_Bucket_6: 193909
Critical_ROB_Stalls_Percent_6_Bucket_0: 25
Non-critical_ROB_Stalls_Percent_6_Bucket_0: 1312332
Critical_ROB_Stalls_Percent_6_Bucket_1: 27
Non-critical_ROB_Stalls_Percent_6_Bucket_1: 662961
Critical_ROB_Stalls_Percent_6_Bucket_2: 708
Non-critical_ROB_Stalls_Percent_6_Bucket_2: 272740
Critical_ROB_Stalls_Percent_6_Bucket_3: 3242
Non-critical_ROB_Stalls_Percent_6_Bucket_3: 91133
Critical_ROB_Stalls_Percent_6_Bucket_4: 3257
Non-critical_ROB_Stalls_Percent_6_Bucket_4: 34008
Critical_ROB_Stalls_Percent_6_Bucket_5: 3275
Non-critical_ROB_Stalls_Percent_6_Bucket_5: 18600
Critical_ROB_Stalls_Percent_6_Bucket_6: 538325
Non-critical_ROB_Stalls_Percent_6_Bucket_6: 193909
Critical_ROB_Stalls_Percent_7_Bucket_0: 25
Non-critical_ROB_Stalls_Percent_7_Bucket_0: 1312332
Critical_ROB_Stalls_Percent_7_Bucket_1: 27
Non-critical_ROB_Stalls_Percent_7_Bucket_1: 662961
Critical_ROB_Stalls_Percent_7_Bucket_2: 708
Non-critical_ROB_Stalls_Percent_7_Bucket_2: 272740
Critical_ROB_Stalls_Percent_7_Bucket_3: 3242
Non-critical_ROB_Stalls_Percent_7_Bucket_3: 91133
Critical_ROB_Stalls_Percent_7_Bucket_4: 3257
Non-critical_ROB_Stalls_Percent_7_Bucket_4: 34008
Critical_ROB_Stalls_Percent_7_Bucket_5: 3275
Non-critical_ROB_Stalls_Percent_7_Bucket_5: 18600
Critical_ROB_Stalls_Percent_7_Bucket_6: 538325
Non-critical_ROB_Stalls_Percent_7_Bucket_6: 193909
Critical_ROB_Stalls_Percent_8_Bucket_0: 25
Non-critical_ROB_Stalls_Percent_8_Bucket_0: 1312332
Critical_ROB_Stalls_Percent_8_Bucket_1: 27
Non-critical_ROB_Stalls_Percent_8_Bucket_1: 662961
Critical_ROB_Stalls_Percent_8_Bucket_2: 708
Non-critical_ROB_Stalls_Percent_8_Bucket_2: 272740
Critical_ROB_Stalls_Percent_8_Bucket_3: 3242
Non-critical_ROB_Stalls_Percent_8_Bucket_3: 91133
Critical_ROB_Stalls_Percent_8_Bucket_4: 3257
Non-critical_ROB_Stalls_Percent_8_Bucket_4: 34008
Critical_ROB_Stalls_Percent_8_Bucket_5: 3275
Non-critical_ROB_Stalls_Percent_8_Bucket_5: 18600
Critical_ROB_Stalls_Percent_8_Bucket_6: 538325
Non-critical_ROB_Stalls_Percent_8_Bucket_6: 193909
Average ROB occupancy Load Stall Begin: 121.442
Average ROB occupancy Load Stall End: 129.251
Min ROB occupancy Load Stall Begin: 1
Max ROB occupancy Load Stall Begin: 352
Min ROB occupancy Load Stall End: 1
Max ROB occupancy Load Stall End: 352
Average ROB occupancy Critical Load Stall Begin: 71.3467
Average ROB occupancy Critical Load Stall End: 77.3767
Min ROB occupancy Critical Load Stall Begin: 4
Max ROB occupancy Critical Load Stall Begin: 352
Min ROB occupancy Critical Load Stall End: 4
Max ROB occupancy Critical Load Stall End: 352
 ROB Load Stall Begin Bucket Count 0: 1531042
 ROB Load Stall End Bucket Count 0: 1312357
 ROB Critical Load Stall Begin Bucket Count 0: 113
 ROB Critical Load Stall End Bucket Count 0: 110
 ROB Load Stall Begin Bucket Count 1: 533464
 ROB Load Stall End Bucket Count 1: 662988
 ROB Critical Load Stall Begin Bucket Count 1: 160
 ROB Critical Load Stall End Bucket Count 1: 162
 ROB Load Stall Begin Bucket Count 2: 219934
 ROB Load Stall End Bucket Count 2: 273448
 ROB Critical Load Stall Begin Bucket Count 2: 6
 ROB Critical Load Stall End Bucket Count 2: 6
 ROB Load Stall Begin Bucket Count 3: 73713
 ROB Load Stall End Bucket Count 3: 94375
 ROB Critical Load Stall Begin Bucket Count 3: 5
 ROB Critical Load Stall End Bucket Count 3: 6
 ROB Load Stall Begin Bucket Count 4: 33151
 ROB Load Stall End Bucket Count 4: 37265
 ROB Critical Load Stall Begin Bucket Count 4: 6
 ROB Critical Load Stall End Bucket Count 4: 5
 ROB Load Stall Begin Bucket Count 5: 20717
 ROB Load Stall End Bucket Count 5: 21875
 ROB Critical Load Stall Begin Bucket Count 5: 1
 ROB Critical Load Stall End Bucket Count 5: 1
 ROB Load Stall Begin Bucket Count 6: 722521
 ROB Load Stall End Bucket Count 6: 732234
 ROB Critical Load Stall Begin Bucket Count 6: 9
 ROB Critical Load Stall End Bucket Count 6: 10
PIST Tag Read Accesses: 0
PIST Read Accesses: 0
PIST Tag Write Accesses: 0
PIST Write Accesses: 0
Criticality detector called times: 0
Max global_stall_cycles_count: 0
Threshold Modified: 0 times, factor: 0
Sturdy critical IP cache stats: 
 Unused entries: 0
CIC Tag Read Accesses: 0
CIC Read Accesses: 0
CIC Tag Write Accesses: 0
CIC Write Accesses: 0
Wobbly critical IP cache stats: 
 Unused entries: 0
CIC Tag Read Accesses: 133658462
CIC Read Accesses: 0
CIC Tag Write Accesses: 42056
CIC Write Accesses: 0
ITLB TOTAL     ACCESS:    9310296  HIT:    9232344  MISS:      77952  HIT %:    99.1627  MISS %:   0.837267   MPKI: 1.55904
ITLB LOAD TRANSLATION ACCESS:    8646738  HIT:    8609198  MISS:      37540  HIT %:    99.5658  MISS %:   0.434152   MPKI: 0.7508
ITLB TRANSLATION FROM L1D PREFETCHER ACCESS:     663558  HIT:     623146  MISS:      40412  HIT %:    93.9098  MISS %:     6.0902   MPKI: 0.80824
ITLB PREFETCH  REQUESTED:          0  ISSUED:          0  USEFUL:      31504  USELESS:       8908
ITLB USEFUL LOAD PREFETCHES:      31504 PREFETCH ISSUED TO LOWER LEVEL:          0  ACCURACY: inf
ITLB TIMELY PREFETCHES:      31504 LATE PREFETCHES: 216 DROPPED PREFETCHES: 305
ITLB PREFETCHES SAME FILL-ORIGIN LEVEL: 0 DIFFERENT FILL-ORIGIN LEVEL: 0
ITLB AVERAGE MISS LATENCY: 114673 cycles
ITLB RQ	ACCESS:   11689488	FORWARD:          0	MERGED:    2365453	TO_CACHE:    9324035

DTLB TOTAL     ACCESS:    9821824  HIT:    9721257  MISS:     100567  HIT %:    98.9761  MISS %:    1.02391   MPKI: 2.01134
DTLB LOAD TRANSLATION ACCESS:    9821824  HIT:    9721257  MISS:     100567  HIT %:    98.9761  MISS %:    1.02391   MPKI: 2.01134
DTLB PREFETCH  REQUESTED:          0  ISSUED:          0  USEFUL:          0  USELESS:          0
DTLB USEFUL LOAD PREFETCHES:          0 PREFETCH ISSUED TO LOWER LEVEL:          0  ACCURACY: -nan
DTLB TIMELY PREFETCHES:          0 LATE PREFETCHES: 0 DROPPED PREFETCHES: 0
DTLB PREFETCHES SAME FILL-ORIGIN LEVEL: 0 DIFFERENT FILL-ORIGIN LEVEL: 0
DTLB AVERAGE MISS LATENCY: 14.0713 cycles
DTLB RQ	ACCESS:   12699115	FORWARD:          0	MERGED:    2860740	TO_CACHE:    9838375

STLB TOTAL     ACCESS:     178519  HIT:     173896  MISS:       4623  HIT %:    97.4104  MISS %:    2.58964   MPKI: 0.09246
STLB LOAD TRANSLATION ACCESS:     137891  HIT:     133471  MISS:       4420  HIT %:    96.7946  MISS %:    3.20543   MPKI: 0.0884
STLB TRANSLATION FROM L1D PREFETCHER ACCESS:      40628  HIT:      40425  MISS:        203  HIT %:    99.5003  MISS %:   0.499655   MPKI: 0.00406
STLB PREFETCH  REQUESTED:          0  ISSUED:          0  USEFUL:        126  USELESS:         55
STLB USEFUL LOAD PREFETCHES:        126 PREFETCH ISSUED TO LOWER LEVEL:          0  ACCURACY: inf
STLB TIMELY PREFETCHES:        126 LATE PREFETCHES: 0 DROPPED PREFETCHES: 305
STLB PREFETCHES SAME FILL-ORIGIN LEVEL: 0 DIFFERENT FILL-ORIGIN LEVEL: 0
STLB AVERAGE MISS LATENCY: 132.586 cycles
STLB RQ	ACCESS:     178824	FORWARD:          0	MERGED:          0	TO_CACHE:     178824

STLB Hit, L1D data hit: 0
STLB Hit, L2C data hit: 0
STLB Hit, LLC data hit: 0
STLB Hit, LLC data miss: 0
STLB STLB hints to L2: 0
L1D TOTAL     ACCESS:   12188710  HIT:   11781385  MISS:     407325  HIT %:    96.6582  MISS %:    3.34182   MPKI: 8.1465
L1D LOAD      ACCESS:    6131351  HIT:    5963848  MISS:     167503  HIT %:    97.2681  MISS %:    2.73191   MPKI: 3.35006
L1D RFO       ACCESS:    6057359  HIT:    5817537  MISS:     239822  HIT %:    96.0408  MISS %:    3.95918   MPKI: 4.79644
L1D PREFETCH  REQUESTED:          0  ISSUED:          0  USEFUL:          0  USELESS:          0
L1D USEFUL LOAD PREFETCHES:          0 PREFETCH ISSUED TO LOWER LEVEL:          0  ACCURACY: -nan
L1D TIMELY PREFETCHES:          0 LATE PREFETCHES: 0 DROPPED PREFETCHES: 0
L1D PREFETCHES SAME FILL-ORIGIN LEVEL: 0 DIFFERENT FILL-ORIGIN LEVEL: 0
L1D AVERAGE MISS LATENCY: 131.335 cycles
L1D RQ	ACCESS:    9774528	FORWARD:          0	MERGED:    3453177	TO_CACHE:    6193849
L1D WQ	ACCESS:    6907394	FORWARD:     127502	MERGED:     402128	TO_CACHE:    6505266

L1D UNIQUE REGIONS ACCESSED: 0
L1D REGIONS CONFLICTS: 0
L1D Cross Page Prefetch Requests: 0
L1D Same Page Prefetch Requests: 0
L1D ROI Sum of L1D PQ occupancy: 0
L1D PREFETCHES PUSHED FROM L2C: 0
L1I TOTAL     ACCESS:   11600498  HIT:   10866050  MISS:     734448  HIT %:    93.6688  MISS %:    6.33118   MPKI: 14.689
L1I LOAD      ACCESS:    9763294  HIT:    9583694  MISS:     179600  HIT %:    98.1605  MISS %:    1.83954   MPKI: 3.592
L1I PREFETCH  ACCESS:    1837204  HIT:    1282356  MISS:     554848  HIT %:    69.7993  MISS %:    30.2007   MPKI: 11.097
L1I PREFETCH  REQUESTED:    2006050  ISSUED:    2003796  USEFUL:     352980  USELESS:     201901
L1I USEFUL LOAD PREFETCHES:     352980 PREFETCH ISSUED TO LOWER LEVEL:     572855  ACCURACY: 61.6177
L1I TIMELY PREFETCHES:     352980 LATE PREFETCHES: 18007 DROPPED PREFETCHES: 648
L1I PREFETCHES SAME FILL-ORIGIN LEVEL: 572855 DIFFERENT FILL-ORIGIN LEVEL: 0
L1I AVERAGE MISS LATENCY: 976638 cycles
L1I RQ	ACCESS:   14264264	FORWARD:          0	MERGED:    4476942	TO_CACHE:    9787322
L1I PQ	ACCESS:    2003796	FORWARD:          0	MERGED:     101630	TO_CACHE:    1902166

BTB TOTAL     ACCESS:    7502677  HIT:    7071437  MISS:     431240  HIT %:    94.2522  MISS %:    5.74782   MPKI: 8.6248
BTB BRANCH_DIRECT_JUMP	ACCESS:     370859  HIT:     358934  MISS:      11925
BTB BRANCH_INDIRECT	ACCESS:      83252  HIT:      39140  MISS:      44112
BTB BRANCH_CONDITIONAL	ACCESS:    5399005  HIT:    5361920  MISS:      37085
BTB BRANCH_DIRECT_CALL	ACCESS:     722308  HIT:     695961  MISS:      26347
BTB BRANCH_INDIRECT_CALL	ACCESS:     101901  HIT:      81558  MISS:      20343
BTB BRANCH_RETURN	ACCESS:     825352  HIT:     533924  MISS:     291428
BTB BRANCH_OTHER ACCESS:          0  HIT:          0  MISS:          0

L2C TOTAL     ACCESS:    1408254  HIT:    1020361  MISS:     387893  HIT %:    72.4558  MISS %:    27.5442   MPKI: 7.75786
L2C LOAD      ACCESS:     329094  HIT:     202863  MISS:     126231  HIT %:    61.6429  MISS %:    38.3571   MPKI: 2.52462
L2C DATA LOAD MPKI: 2.12884
L2C INSTRUCTION LOAD MPKI: 0.39578
L2C RFO       ACCESS:     239817  HIT:      29005  MISS:     210812  HIT %:    12.0946  MISS %:    87.9054   MPKI: 4.21624
L2C PREFETCH  ACCESS:     572866  HIT:     531550  MISS:      41316  HIT %:    92.7878  MISS %:    7.21216   MPKI: 0.82632
L2C DATA PREFETCH MPKI: 0.0002
L2C INSTRUCTION PREFETCH MPKI: 0.82612
L2C WRITEBACK ACCESS:     261429  HIT:     253467  MISS:       7962  HIT %:    96.9544  MISS %:    3.04557   MPKI: 0.15924
L2C LOAD TRANSLATION ACCESS:       4531  HIT:       3089  MISS:       1442  HIT %:    68.1748  MISS %:    31.8252   MPKI: 0.02884
L2C TRANSLATION FROM L1D PREFETCHER ACCESS:        517  HIT:        387  MISS:        130  HIT %:    74.8549  MISS %:    25.1451   MPKI: 0.0026
L2C PREFETCH  REQUESTED:         11  ISSUED:         11  USEFUL:       5195  USELESS:      38069
L2C USEFUL LOAD PREFETCHES:       5195 PREFETCH ISSUED TO LOWER LEVEL:      41316  ACCURACY: 12.5738
L2C TIMELY PREFETCHES:       5195 LATE PREFETCHES: 0 DROPPED PREFETCHES: 0
L2C PREFETCHES SAME FILL-ORIGIN LEVEL: 10 DIFFERENT FILL-ORIGIN LEVEL: 0
L2C AVERAGE MISS LATENCY: 133.904 cycles
L2C RQ	ACCESS:     573966	FORWARD:          0	MERGED:          0	TO_CACHE:     573959
L2C WQ	ACCESS:     261429	FORWARD:          7	MERGED:          0	TO_CACHE:     261429
L2C PQ	ACCESS:     572866	FORWARD:          0	MERGED:          0	TO_CACHE:     572866

L2C Instructions Evicting Data 36478
L2C Translations Evicting Data 1161
L2C Data Evicting Data 279195
L2C Instructions Evicting Instructions 24188
L2C Translations Evicting Instructions 399
L2C Data Evicting Instructions 37082
L2C Instructions Evicting Translations 429
L2C Translations Evicting Translations 12
L2C Data Evicting Translations 987
L2C Dense regions hint from L2: 0
PSCL5 TOTAL     ACCESS:       4928  HIT:       4928  MISS:          0  HIT %:        100  MISS %:          0   MPKI: 0
PSCL5 LOAD TRANSLATION ACCESS:       4420  HIT:       4420  MISS:          0  HIT %:        100  MISS %:          0   MPKI: 0
PSCL5 TRANSLATION FROM L1D PREFETCHER ACCESS:        508  HIT:        508  MISS:          0  HIT %:        100  MISS %:          0   MPKI: 0
PSCL5 PREFETCH  REQUESTED:          0  ISSUED:          0  USEFUL:          0  USELESS:          0
PSCL5 USEFUL LOAD PREFETCHES:          0 PREFETCH ISSUED TO LOWER LEVEL:          0  ACCURACY: -nan
PSCL5 TIMELY PREFETCHES:          0 LATE PREFETCHES: 0 DROPPED PREFETCHES: 0
PSCL5 PREFETCHES SAME FILL-ORIGIN LEVEL: 0 DIFFERENT FILL-ORIGIN LEVEL: 0

PSCL4 TOTAL     ACCESS:       4928  HIT:       4928  MISS:          0  HIT %:        100  MISS %:          0   MPKI: 0
PSCL4 LOAD TRANSLATION ACCESS:       4420  HIT:       4420  MISS:          0  HIT %:        100  MISS %:          0   MPKI: 0
PSCL4 TRANSLATION FROM L1D PREFETCHER ACCESS:        508  HIT:        508  MISS:          0  HIT %:        100  MISS %:          0   MPKI: 0
PSCL4 PREFETCH  REQUESTED:          0  ISSUED:          0  USEFUL:          0  USELESS:          0
PSCL4 USEFUL LOAD PREFETCHES:          0 PREFETCH ISSUED TO LOWER LEVEL:          0  ACCURACY: -nan
PSCL4 TIMELY PREFETCHES:          0 LATE PREFETCHES: 0 DROPPED PREFETCHES: 0
PSCL4 PREFETCHES SAME FILL-ORIGIN LEVEL: 0 DIFFERENT FILL-ORIGIN LEVEL: 0

PSCL3 TOTAL     ACCESS:       4894  HIT:       4891  MISS:          3  HIT %:    99.9387  MISS %:  0.0612996   MPKI: 6e-05
PSCL3 LOAD TRANSLATION ACCESS:       4389  HIT:       4386  MISS:          3  HIT %:    99.9316  MISS %:  0.0683527   MPKI: 6e-05
PSCL3 TRANSLATION FROM L1D PREFETCHER ACCESS:        505  HIT:        505  MISS:          0  HIT %:        100  MISS %:          0   MPKI: 0
PSCL3 PREFETCH  REQUESTED:          0  ISSUED:          0  USEFUL:          0  USELESS:          0
PSCL3 USEFUL LOAD PREFETCHES:          0 PREFETCH ISSUED TO LOWER LEVEL:          0  ACCURACY: -nan
PSCL3 TIMELY PREFETCHES:          0 LATE PREFETCHES: 0 DROPPED PREFETCHES: 0
PSCL3 PREFETCHES SAME FILL-ORIGIN LEVEL: 0 DIFFERENT FILL-ORIGIN LEVEL: 0

PSCL2 TOTAL     ACCESS:       4928  HIT:       4798  MISS:        130  HIT %:     97.362  MISS %:    2.63799   MPKI: 0.0026
PSCL2 LOAD TRANSLATION ACCESS:       4428  HIT:       4298  MISS:        130  HIT %:    97.0641  MISS %:    2.93586   MPKI: 0.0026
PSCL2 TRANSLATION FROM L1D PREFETCHER ACCESS:        500  HIT:        500  MISS:          0  HIT %:        100  MISS %:          0   MPKI: 0
PSCL2 PREFETCH  REQUESTED:          0  ISSUED:          0  USEFUL:          0  USELESS:          0
PSCL2 USEFUL LOAD PREFETCHES:          0 PREFETCH ISSUED TO LOWER LEVEL:          0  ACCURACY: -nan
PSCL2 TIMELY PREFETCHES:          0 LATE PREFETCHES: 0 DROPPED PREFETCHES: 0
PSCL2 PREFETCHES SAME FILL-ORIGIN LEVEL: 0 DIFFERENT FILL-ORIGIN LEVEL: 0

LLC TOTAL     ACCESS:     597768  HIT:     332354  MISS:     265414  HIT %:    55.5992  MISS %:    44.4008   MPKI: 5.30828
LLC LOAD      ACCESS:     126230  HIT:      50102  MISS:      76128  HIT %:     39.691  MISS %:     60.309   MPKI: 1.52256
LLC RFO       ACCESS:     210812  HIT:      35815  MISS:     174997  HIT %:    16.9891  MISS %:    83.0109   MPKI: 3.49994
LLC PREFETCH  ACCESS:      41316  HIT:      32306  MISS:       9010  HIT %:    78.1925  MISS %:    21.8075   MPKI: 0.1802
LLC WRITEBACK ACCESS:     217838  HIT:     213614  MISS:       4224  HIT %:    98.0609  MISS %:    1.93906   MPKI: 0.08448
LLC LOAD TRANSLATION ACCESS:       1442  HIT:        448  MISS:        994  HIT %:     31.068  MISS %:     68.932   MPKI: 0.01988
LLC TRANSLATION FROM L1D PREFETCHER ACCESS:        130  HIT:         69  MISS:         61  HIT %:    53.0769  MISS %:    46.9231   MPKI: 0.00122
LLC PREFETCH  REQUESTED:          0  ISSUED:          0  USEFUL:        699  USELESS:      10817
LLC USEFUL LOAD PREFETCHES:        699 PREFETCH ISSUED TO LOWER LEVEL:       9010  ACCURACY: 7.75805
LLC TIMELY PREFETCHES:        699 LATE PREFETCHES: 0 DROPPED PREFETCHES: 0
LLC PREFETCHES SAME FILL-ORIGIN LEVEL: 0 DIFFERENT FILL-ORIGIN LEVEL: 0
LLC AVERAGE MISS LATENCY: 152.523 cycles
LLC RQ	ACCESS:     338615	FORWARD:          0	MERGED:          0	TO_CACHE:     338614
LLC WQ	ACCESS:     217838	FORWARD:          1	MERGED:          0	TO_CACHE:     217838
LLC PQ	ACCESS:      41316	FORWARD:          0	MERGED:          0	TO_CACHE:      41316

LLC Dense regions hint to LLC: 0

RAW hits: 1281748
Loads Generated: 11056274
Loads sent to L1D: 9774528
Stores Generated: 6907390
Stores sent to L1D: 6907394
Major fault: 0 Minor fault: 5106
Allocated PAGES: 5106
I-Shadow cache 408 bytes
Touched + WorthPF tables 6144 bytes 
MMA filter 174 bytes 
FNL filter 272 bytes 
TOTAL PREFETCHER STORAGE SIZE: 25174 bytes
CPU 0 L1I next line prefetcher final stats
[Bingo] PHT Access: 13
[Bingo] PHT Hit PC+Addr: 11
[Bingo] PHT Hit PC+Offs: 0
[Bingo] PHT Miss: 2
[Bingo] Prefetch PC+Addr: 0
[Bingo] Prefetch PC+Offs: 0
[Bingo] Useful PC+Addr: 0
[Bingo] Useful PC+Offs: 0
[Bingo] Useless PC+Addr: 0
[Bingo] Useless PC+Offs: 0
[Bingo] L1 Prefetch per Region: 0
[Bingo] L2 Prefetch per Region: 2
[Bingo] L3 Prefetch per Region: 0
[Bingo] No Prefetch per Region: 30
[Bingo] Number of Voters Mean: -nan
[Bingo] Number of Voters SD: -nan
PHT read accesses: 112
PHT write accesses: 80
AT read accesses: 82
AT write accesses: 4
FT read accesses: 135
FT write accesses: 13
PS read accesses: 22
PS write accesses: 11
PHT tag read accesses: 1562
PHT tag write accesses: 91
AT tag read accesses: 6207074
AT tag write accesses: 84
FT tag read accesses: 6207261
FT tag write accesses: 115
PS tag read accesses: 1099
PS tag write accesses: 33

DRAM Statistics
 CHANNEL 0
 RQ ROW_BUFFER_HIT:     110259  ROW_BUFFER_MISS:     150931
 DBUS_CONGESTED:        156
 WQ ROW_BUFFER_HIT:      35991  ROW_BUFFER_MISS:     138409  FULL:          0

 AVG_CONGESTED_CYCLE: 3
 All warmup complete: 2
Channel 0 Bank busy for read cycles: 0
Channel 0 Bank busy for write cycles: 0
Channel 0
Rank 0
0banks busy for read cycles: 54341933
0banks busy for write cycles: 57381
1banks busy for read cycles: 12403807
1banks busy for write cycles: 7628609
2banks busy for read cycles: 1006927
2banks busy for write cycles: 1400039
3banks busy for read cycles: 758142
3banks busy for write cycles: 323140
4banks busy for read cycles: 409775
4banks busy for write cycles: 231857
5banks busy for read cycles: 317554
5banks busy for write cycles: 208586
6banks busy for read cycles: 352359
6banks busy for write cycles: 218241
7banks busy for read cycles: 305173
7banks busy for write cycles: 316005
8banks busy for read cycles: 521365
8banks busy for write cycles: 1492813

CPU 0 Branch Prediction Accuracy: 98.6631% MPKI: 2.66884 Average ROB Occupancy at Mispredict: 41.9879
Branch types
NOT_BRANCH: 40018632 80.0373%
BRANCH_DIRECT_JUMP: 370859 0.741718%
BRANCH_INDIRECT: 83252 0.166504%
BRANCH_CONDITIONAL: 7877415 15.7548%
BRANCH_DIRECT_CALL: 722308 1.44462%
BRANCH_INDIRECT_CALL: 101901 0.203802%
BRANCH_RETURN: 825352 1.6507%
BRANCH_OTHER: 0 0%

DRAM PAGES: 1048576
Allocated PAGES: 5106
