
*** ChampSim Multicore Out-of-Order Simulator ***

Warmup Instructions: 50000000
Simulation Instructions: 50000000
Number of CPUs: 1
LLC sets: 2048
LLC ways: 16
Off-chip DRAM Size: 4096 MB Channels: 1 Width: 64-bit Data Rate: 6400 MT/s
CPU 0 runs ../IPC-traces//client_005.champsimtrace.xz
.xz
NUM_OF_IPS_IN_CRITICAL_IP_TRAINING: 64
NUM_OF_CRITICAL_IP_TRAINING_TABLE_WAYS: 2
NUM_OF_CRITICAL_IP_TRAINING_TABLE_SETS: 32
WOBBLY_CRITICAL_IP_CACHE_SETS: 32
WOBBLY_CRITICAL_IP_CACHE_WAYS: 4
BTB has LRU replacement policy
ITLB has LRU replacement policy
DTLB has LRU replacement policy
STLB has LRU replacement policy
CPU 0 L1I next line prefetcher
L1I has LRU replacement policy
IP Table Entries: 64
L1D has LRU replacement policy
Initialize SRRIP state for L2C
Initialize DRRIP state for LLC
Heartbeat CPU 0 instructions: 10000001 cycles: 2798838 heartbeat IPC: 3.57291 cumulative IPC: 3.57291 (Simulation time: 0 hr 4 min 34 sec) 
Heartbeat CPU 0 instructions: 20000002 cycles: 5591081 heartbeat IPC: 3.58135 cumulative IPC: 3.57713 (Simulation time: 0 hr 9 min 2 sec) 
Heartbeat CPU 0 instructions: 30000001 cycles: 8439500 heartbeat IPC: 3.51072 cumulative IPC: 3.55471 (Simulation time: 0 hr 13 min 1 sec) 
Heartbeat CPU 0 instructions: 40000000 cycles: 11285719 heartbeat IPC: 3.51343 cumulative IPC: 3.5443 (Simulation time: 0 hr 16 min 42 sec) 
Heartbeat CPU 0 instructions: 50000001 cycles: 14055285 heartbeat IPC: 3.61067 cumulative IPC: 3.55738 (Simulation time: 0 hr 20 min 7 sec) 

Warmup complete CPU 0 instructions: 50000001 cycles: 14055285 (Simulation time: 0 hr 20 min 7 sec) 

% increase in all ip prefetch 400.036
% increase in all ip prefetch 10.1973
% increase in all ip prefetch 11.4407
% increase in all ip prefetch 4.74266
% increase in all ip prefetch -5.63161
Heartbeat CPU 0 instructions: 60000001 cycles: 29822848 heartbeat IPC: 0.634213 cumulative IPC: 0.634213 (Simulation time: 0 hr 23 min 39 sec) 
Heartbeat CPU 0 instructions: 70000002 cycles: 44238638 heartbeat IPC: 0.693684 cumulative IPC: 0.662617 (Simulation time: 0 hr 27 min 0 sec) 
Heartbeat CPU 0 instructions: 80000003 cycles: 57357846 heartbeat IPC: 0.762241 cumulative IPC: 0.6928 (Simulation time: 0 hr 30 min 25 sec) 
Heartbeat CPU 0 instructions: 90000002 cycles: 73064687 heartbeat IPC: 0.636665 cumulative IPC: 0.677858 (Simulation time: 0 hr 34 min 8 sec) 
Heartbeat CPU 0 instructions: 100000002 cycles: 88339727 heartbeat IPC: 0.654663 cumulative IPC: 0.673088 (Simulation time: 0 hr 37 min 14 sec) 
Finished CPU 0 instructions: 50000001 cycles: 74284442 cumulative IPC: 0.673088 (Simulation time: 0 hr 37 min 14 sec) 

ChampSim completed all CPUs

Region of Interest Statistics

CPU 0 cumulative IPC: 0.673088 instructions: 50000001 cycles: 74284442

CPU 0 Average Load ROB stall cycles: 1.72539e+07
CPU 0 Fraction of times ROB stalled by Loads: 34.3403
CPU 0 Percentage of Load stall cycles in Total stall cycles: 2.41408e+08
Issued all: 27147216
Issued LT all: 21442011
rob_not_full_when_issued_lt_all: 20373945
Issued LT one: 16195362
rob_not_full_when_issued_lt_one: 15240850
 Total stall cycles: 60635038
 Total load stall cycles: 146377705022510
CPU 0 NUM of IPS identified critical: 0
CPU 0 Num of Load IPs stalling ROB: 27775
Threshold modification factor: -4
Max PIST entries: 64
Min PIST entries: 0
Avg PIST entries: 31.95
Trouble in retire width: 0.869266
MaC = Marked as critical.
lt_50_percent_before_Mac: 0
gt_90_percent_before_Mac: 0
gt_75_percent_before_Mac: 0
gt_50_percent_before_Mac: 0
stall_proportion_bin_same_before_after: 0
stall_proportion_bin_lower_before_after: 0
stall_proportion_bin_upper_before_after: 0
average_stall_proportion_before: -nan
average_stall_proportion_after: -nan
Critical IP stalls, total frequency: 0
Non-critical IP stalls, total frequency: 2913343
Total Freq all stalling IPs: 2913343
stat_90_percent_critical_ip_stalls_freq: 2622058
stat_90_percent_non_critical_ip_stalls_freq: 291285
Critical_IP_ROB_Stalls_Bucket_0: 0
Non-critical_IP_ROB_Stalls_Bucket_0: 1441666
Critical_IP_ROB_Stalls_Bucket_1: 0
Non-critical_IP_ROB_Stalls_Bucket_1: 830487
Critical_IP_ROB_Stalls_Bucket_2: 0
Non-critical_IP_ROB_Stalls_Bucket_2: 382275
Critical_IP_ROB_Stalls_Bucket_3: 0
Non-critical_IP_ROB_Stalls_Bucket_3: 137012
Critical_IP_ROB_Stalls_Bucket_4: 0
Non-critical_IP_ROB_Stalls_Bucket_4: 50917
Critical_IP_ROB_Stalls_Bucket_5: 0
Non-critical_IP_ROB_Stalls_Bucket_5: 29274
Critical_IP_ROB_Stalls_Bucket_6: 0
Non-critical_IP_ROB_Stalls_Bucket_6: 41712
0 => IPs accounting for >50 percent of stalls, 1 => 55, 2 => 60, 3 => 65 and so on till 90.
percent50: 50.0052 num IPs:  199
percent55: 55.0462 num IPs: 280
percent60: 60.031 num IPs: 390
percent65: 65.0261 num IPs: 529
percent70: 70.0191 num IPs: 722
percent75: 75.0018 num IPs: 991
percent80: 80.0068 num IPs: 1361
percent85: 85.0007 num IPs: 1920
percent90: 90.0012 num IPs: 2912
Critical_ROB_Stalls_Percent_0_Bucket_0: 534429
Non-critical_ROB_Stalls_Percent_0_Bucket_0: 907237
Critical_ROB_Stalls_Percent_0_Bucket_1: 487052
Non-critical_ROB_Stalls_Percent_0_Bucket_1: 343435
Critical_ROB_Stalls_Percent_0_Bucket_2: 263583
Non-critical_ROB_Stalls_Percent_0_Bucket_2: 118692
Critical_ROB_Stalls_Percent_0_Bucket_3: 94063
Non-critical_ROB_Stalls_Percent_0_Bucket_3: 42949
Critical_ROB_Stalls_Percent_0_Bucket_4: 30544
Non-critical_ROB_Stalls_Percent_0_Bucket_4: 20373
Critical_ROB_Stalls_Percent_0_Bucket_5: 20220
Non-critical_ROB_Stalls_Percent_0_Bucket_5: 9054
Critical_ROB_Stalls_Percent_0_Bucket_6: 26934
Non-critical_ROB_Stalls_Percent_0_Bucket_6: 14778
Critical_ROB_Stalls_Percent_1_Bucket_0: 609959
Non-critical_ROB_Stalls_Percent_1_Bucket_0: 831707
Critical_ROB_Stalls_Percent_1_Bucket_1: 530926
Non-critical_ROB_Stalls_Percent_1_Bucket_1: 299561
Critical_ROB_Stalls_Percent_1_Bucket_2: 277671
Non-critical_ROB_Stalls_Percent_1_Bucket_2: 104604
Critical_ROB_Stalls_Percent_1_Bucket_3: 99378
Non-critical_ROB_Stalls_Percent_1_Bucket_3: 37634
Critical_ROB_Stalls_Percent_1_Bucket_4: 32795
Non-critical_ROB_Stalls_Percent_1_Bucket_4: 18122
Critical_ROB_Stalls_Percent_1_Bucket_5: 21325
Non-critical_ROB_Stalls_Percent_1_Bucket_5: 7949
Critical_ROB_Stalls_Percent_1_Bucket_6: 31633
Non-critical_ROB_Stalls_Percent_1_Bucket_6: 10079
Critical_ROB_Stalls_Percent_2_Bucket_0: 683327
Non-critical_ROB_Stalls_Percent_2_Bucket_0: 758339
Critical_ROB_Stalls_Percent_2_Bucket_1: 573352
Non-critical_ROB_Stalls_Percent_2_Bucket_1: 257135
Critical_ROB_Stalls_Percent_2_Bucket_2: 292241
Non-critical_ROB_Stalls_Percent_2_Bucket_2: 90034
Critical_ROB_Stalls_Percent_2_Bucket_3: 104978
Non-critical_ROB_Stalls_Percent_2_Bucket_3: 32034
Critical_ROB_Stalls_Percent_2_Bucket_4: 38025
Non-critical_ROB_Stalls_Percent_2_Bucket_4: 12892
Critical_ROB_Stalls_Percent_2_Bucket_5: 22879
Non-critical_ROB_Stalls_Percent_2_Bucket_5: 6395
Critical_ROB_Stalls_Percent_2_Bucket_6: 34110
Non-critical_ROB_Stalls_Percent_2_Bucket_6: 7602
Critical_ROB_Stalls_Percent_3_Bucket_0: 749931
Non-critical_ROB_Stalls_Percent_3_Bucket_0: 691735
Critical_ROB_Stalls_Percent_3_Bucket_1: 622170
Non-critical_ROB_Stalls_Percent_3_Bucket_1: 208317
Critical_ROB_Stalls_Percent_3_Bucket_2: 311443
Non-critical_ROB_Stalls_Percent_3_Bucket_2: 70832
Critical_ROB_Stalls_Percent_3_Bucket_3: 111347
Non-critical_ROB_Stalls_Percent_3_Bucket_3: 25665
Critical_ROB_Stalls_Percent_3_Bucket_4: 40770
Non-critical_ROB_Stalls_Percent_3_Bucket_4: 10147
Critical_ROB_Stalls_Percent_3_Bucket_5: 23916
Non-critical_ROB_Stalls_Percent_3_Bucket_5: 5358
Critical_ROB_Stalls_Percent_3_Bucket_6: 34855
Non-critical_ROB_Stalls_Percent_3_Bucket_6: 6857
Critical_ROB_Stalls_Percent_4_Bucket_0: 845715
Non-critical_ROB_Stalls_Percent_4_Bucket_0: 595951
Critical_ROB_Stalls_Percent_4_Bucket_1: 651805
Non-critical_ROB_Stalls_Percent_4_Bucket_1: 178682
Critical_ROB_Stalls_Percent_4_Bucket_2: 323877
Non-critical_ROB_Stalls_Percent_4_Bucket_2: 58398
Critical_ROB_Stalls_Percent_4_Bucket_3: 115262
Non-critical_ROB_Stalls_Percent_4_Bucket_3: 21750
Critical_ROB_Stalls_Percent_4_Bucket_4: 42604
Non-critical_ROB_Stalls_Percent_4_Bucket_4: 8313
Critical_ROB_Stalls_Percent_4_Bucket_5: 24856
Non-critical_ROB_Stalls_Percent_4_Bucket_5: 4418
Critical_ROB_Stalls_Percent_4_Bucket_6: 35777
Non-critical_ROB_Stalls_Percent_4_Bucket_6: 5935
Critical_ROB_Stalls_Percent_5_Bucket_0: 930486
Non-critical_ROB_Stalls_Percent_5_Bucket_0: 511180
Critical_ROB_Stalls_Percent_5_Bucket_1: 690100
Non-critical_ROB_Stalls_Percent_5_Bucket_1: 140387
Critical_ROB_Stalls_Percent_5_Bucket_2: 337113
Non-critical_ROB_Stalls_Percent_5_Bucket_2: 45162
Critical_ROB_Stalls_Percent_5_Bucket_3: 119970
Non-critical_ROB_Stalls_Percent_5_Bucket_3: 17042
Critical_ROB_Stalls_Percent_5_Bucket_4: 44533
Non-critical_ROB_Stalls_Percent_5_Bucket_4: 6384
Critical_ROB_Stalls_Percent_5_Bucket_5: 26035
Non-critical_ROB_Stalls_Percent_5_Bucket_5: 3239
Critical_ROB_Stalls_Percent_5_Bucket_6: 36825
Non-critical_ROB_Stalls_Percent_5_Bucket_6: 4887
Critical_ROB_Stalls_Percent_6_Bucket_0: 1022260
Non-critical_ROB_Stalls_Percent_6_Bucket_0: 419406
Critical_ROB_Stalls_Percent_6_Bucket_1: 728168
Non-critical_ROB_Stalls_Percent_6_Bucket_1: 102319
Critical_ROB_Stalls_Percent_6_Bucket_2: 346486
Non-critical_ROB_Stalls_Percent_6_Bucket_2: 35789
Critical_ROB_Stalls_Percent_6_Bucket_3: 123432
Non-critical_ROB_Stalls_Percent_6_Bucket_3: 13580
Critical_ROB_Stalls_Percent_6_Bucket_4: 45948
Non-critical_ROB_Stalls_Percent_6_Bucket_4: 4969
Critical_ROB_Stalls_Percent_6_Bucket_5: 26807
Non-critical_ROB_Stalls_Percent_6_Bucket_5: 2467
Critical_ROB_Stalls_Percent_6_Bucket_6: 37762
Non-critical_ROB_Stalls_Percent_6_Bucket_6: 3950
Critical_ROB_Stalls_Percent_7_Bucket_0: 1117618
Non-critical_ROB_Stalls_Percent_7_Bucket_0: 324048
Critical_ROB_Stalls_Percent_7_Bucket_1: 758727
Non-critical_ROB_Stalls_Percent_7_Bucket_1: 71760
Critical_ROB_Stalls_Percent_7_Bucket_2: 357635
Non-critical_ROB_Stalls_Percent_7_Bucket_2: 24640
Critical_ROB_Stalls_Percent_7_Bucket_3: 127099
Non-critical_ROB_Stalls_Percent_7_Bucket_3: 9913
Critical_ROB_Stalls_Percent_7_Bucket_4: 47460
Non-critical_ROB_Stalls_Percent_7_Bucket_4: 3457
Critical_ROB_Stalls_Percent_7_Bucket_5: 27754
Non-critical_ROB_Stalls_Percent_7_Bucket_5: 1520
Critical_ROB_Stalls_Percent_7_Bucket_6: 40058
Non-critical_ROB_Stalls_Percent_7_Bucket_6: 1654
Critical_ROB_Stalls_Percent_8_Bucket_0: 1214867
Non-critical_ROB_Stalls_Percent_8_Bucket_0: 226799
Critical_ROB_Stalls_Percent_8_Bucket_1: 788583
Non-critical_ROB_Stalls_Percent_8_Bucket_1: 41904
Critical_ROB_Stalls_Percent_8_Bucket_2: 368801
Non-critical_ROB_Stalls_Percent_8_Bucket_2: 13474
Critical_ROB_Stalls_Percent_8_Bucket_3: 131861
Non-critical_ROB_Stalls_Percent_8_Bucket_3: 5151
Critical_ROB_Stalls_Percent_8_Bucket_4: 48948
Non-critical_ROB_Stalls_Percent_8_Bucket_4: 1969
Critical_ROB_Stalls_Percent_8_Bucket_5: 28446
Non-critical_ROB_Stalls_Percent_8_Bucket_5: 828
Critical_ROB_Stalls_Percent_8_Bucket_6: 40552
Non-critical_ROB_Stalls_Percent_8_Bucket_6: 1160
Average ROB occupancy Load Stall Begin: 59.3324
Average ROB occupancy Load Stall End: 68.9141
Min ROB occupancy Load Stall Begin: 1
Max ROB occupancy Load Stall Begin: 352
Min ROB occupancy Load Stall End: 1
Max ROB occupancy Load Stall End: 352
Average ROB occupancy Critical Load Stall Begin: -nan
Average ROB occupancy Critical Load Stall End: -nan
Min ROB occupancy Critical Load Stall Begin: 400
Max ROB occupancy Critical Load Stall Begin: 0
Min ROB occupancy Critical Load Stall End: 400
Max ROB occupancy Critical Load Stall End: 0
 ROB Load Stall Begin Bucket Count 0: 1696225
 ROB Load Stall End Bucket Count 0: 1441666
 ROB Critical Load Stall Begin Bucket Count 0: 0
 ROB Critical Load Stall End Bucket Count 0: 0
 ROB Load Stall Begin Bucket Count 1: 700805
 ROB Load Stall End Bucket Count 1: 830487
 ROB Critical Load Stall Begin Bucket Count 1: 0
 ROB Critical Load Stall End Bucket Count 1: 0
 ROB Load Stall Begin Bucket Count 2: 310512
 ROB Load Stall End Bucket Count 2: 382275
 ROB Critical Load Stall Begin Bucket Count 2: 0
 ROB Critical Load Stall End Bucket Count 2: 0
 ROB Load Stall Begin Bucket Count 3: 104210
 ROB Load Stall End Bucket Count 3: 137012
 ROB Critical Load Stall Begin Bucket Count 3: 0
 ROB Critical Load Stall End Bucket Count 3: 0
 ROB Load Stall Begin Bucket Count 4: 39741
 ROB Load Stall End Bucket Count 4: 50917
 ROB Critical Load Stall Begin Bucket Count 4: 0
 ROB Critical Load Stall End Bucket Count 4: 0
 ROB Load Stall Begin Bucket Count 5: 26015
 ROB Load Stall End Bucket Count 5: 29274
 ROB Critical Load Stall Begin Bucket Count 5: 0
 ROB Critical Load Stall End Bucket Count 5: 0
 ROB Load Stall Begin Bucket Count 6: 35835
 ROB Load Stall End Bucket Count 6: 41712
 ROB Critical Load Stall Begin Bucket Count 6: 0
 ROB Critical Load Stall End Bucket Count 6: 0
PIST Tag Read Accesses: 4626738
PIST Read Accesses: 2313369
PIST Tag Write Accesses: 4626738
PIST Write Accesses: 2313369
Criticality detector called times: 2655395
Max global_stall_cycles_count: 4407292
Threshold Modified: 4 times, factor: -4
Sturdy critical IP cache stats: 
 Unused entries: 0
CIC Tag Read Accesses: 0
CIC Read Accesses: 0
CIC Tag Write Accesses: 0
CIC Write Accesses: 0
Wobbly critical IP cache stats: 
 Unused entries: 15
CIC Tag Read Accesses: 80038188
CIC Read Accesses: 0
CIC Tag Write Accesses: 54570
CIC Write Accesses: 0
ITLB TOTAL     ACCESS:    9250263  HIT:    9131034  MISS:     119229  HIT %:    98.7111  MISS %:    1.28893   MPKI: 2.38458
ITLB LOAD TRANSLATION ACCESS:    8276059  HIT:    8217475  MISS:      58584  HIT %:    99.2921  MISS %:   0.707873   MPKI: 1.17168
ITLB TRANSLATION FROM L1D PREFETCHER ACCESS:     974204  HIT:     913559  MISS:      60645  HIT %:    93.7749  MISS %:    6.22508   MPKI: 1.2129
ITLB PREFETCH  REQUESTED:          0  ISSUED:          0  USEFUL:      48472  USELESS:      12177
ITLB USEFUL LOAD PREFETCHES:      48472 PREFETCH ISSUED TO LOWER LEVEL:          0  ACCURACY: inf
ITLB TIMELY PREFETCHES:      48472 LATE PREFETCHES: 338 DROPPED PREFETCHES: 346
ITLB PREFETCHES SAME FILL-ORIGIN LEVEL: 0 DIFFERENT FILL-ORIGIN LEVEL: 0
ITLB AVERAGE MISS LATENCY: 134638 cycles
ITLB RQ	ACCESS:   12551453	FORWARD:          0	MERGED:    3281195	TO_CACHE:    9270258

DTLB TOTAL     ACCESS:   10413776  HIT:   10212420  MISS:     201356  HIT %:    98.0664  MISS %:    1.93355   MPKI: 4.02712
DTLB LOAD TRANSLATION ACCESS:   10413776  HIT:   10212420  MISS:     201356  HIT %:    98.0664  MISS %:    1.93355   MPKI: 4.02712
DTLB PREFETCH  REQUESTED:          0  ISSUED:          0  USEFUL:          0  USELESS:          0
DTLB USEFUL LOAD PREFETCHES:          0 PREFETCH ISSUED TO LOWER LEVEL:          0  ACCURACY: -nan
DTLB TIMELY PREFETCHES:          0 LATE PREFETCHES: 0 DROPPED PREFETCHES: 0
DTLB PREFETCHES SAME FILL-ORIGIN LEVEL: 0 DIFFERENT FILL-ORIGIN LEVEL: 0
DTLB AVERAGE MISS LATENCY: 12.8846 cycles
DTLB RQ	ACCESS:   14352612	FORWARD:          0	MERGED:    3908017	TO_CACHE:   10444595

STLB TOTAL     ACCESS:     396981  HIT:     385080  MISS:      11901  HIT %:    97.0021  MISS %:    2.99788   MPKI: 0.23802
STLB LOAD TRANSLATION ACCESS:     259604  HIT:     248526  MISS:      11078  HIT %:    95.7327  MISS %:    4.26727   MPKI: 0.22156
STLB TRANSLATION FROM L1D PREFETCHER ACCESS:     137377  HIT:     136554  MISS:        823  HIT %:    99.4009  MISS %:   0.599081   MPKI: 0.01646
STLB PREFETCH  REQUESTED:          0  ISSUED:          0  USEFUL:        578  USELESS:        244
STLB USEFUL LOAD PREFETCHES:        578 PREFETCH ISSUED TO LOWER LEVEL:          0  ACCURACY: inf
STLB TIMELY PREFETCHES:        578 LATE PREFETCHES: 0 DROPPED PREFETCHES: 348
STLB PREFETCHES SAME FILL-ORIGIN LEVEL: 0 DIFFERENT FILL-ORIGIN LEVEL: 0
STLB AVERAGE MISS LATENCY: 79.2991 cycles
STLB RQ	ACCESS:     413906	FORWARD:          0	MERGED:      16577	TO_CACHE:     397329

STLB Hit, L1D data hit: 0
STLB Hit, L2C data hit: 0
STLB Hit, LLC data hit: 0
STLB Hit, LLC data miss: 0
STLB STLB hints to L2: 0
L1D TOTAL     ACCESS:   13945697  HIT:   13537898  MISS:     407799  HIT %:    97.0758  MISS %:    2.92419   MPKI: 8.15598
L1D LOAD      ACCESS:    7061114  HIT:    6883850  MISS:     177264  HIT %:    97.4896  MISS %:    2.51043   MPKI: 3.54528
L1D RFO       ACCESS:    6795402  HIT:    6600347  MISS:     195055  HIT %:    97.1296  MISS %:     2.8704   MPKI: 3.9011
L1D PREFETCH  ACCESS:      89181  HIT:      53701  MISS:      35480  HIT %:    60.2157  MISS %:    39.7843   MPKI: 0.7096
L1D PREFETCH  REQUESTED:     185985  ISSUED:     185985  USEFUL:      17699  USELESS:      17848
L1D USEFUL LOAD PREFETCHES:      17699 PREFETCH ISSUED TO LOWER LEVEL:      37171  ACCURACY: 47.6151
L1D TIMELY PREFETCHES:      17699 LATE PREFETCHES: 1588 DROPPED PREFETCHES: 0
L1D PREFETCHES SAME FILL-ORIGIN LEVEL: 37171 DIFFERENT FILL-ORIGIN LEVEL: 0
L1D AVERAGE MISS LATENCY: 213537 cycles
L1D RQ	ACCESS:   10972418	FORWARD:          0	MERGED:    3727610	TO_CACHE:    7092167
L1D WQ	ACCESS:    7412318	FORWARD:     152680	MERGED:     151873	TO_CACHE:    7260445
L1D PQ	ACCESS:      93012	FORWARD:          0	MERGED:          0	TO_CACHE:      92973

L1D UNIQUE REGIONS ACCESSED: 0
L1D REGIONS CONFLICTS: 0
L1D Cross Page Prefetch Requests: 0
L1D Same Page Prefetch Requests: 314466
L1D ROI Sum of L1D PQ occupancy: 1235976
L1D PREFETCHES PUSHED FROM L2C: 0
L1I TOTAL     ACCESS:   12416757  HIT:   11345170  MISS:    1071587  HIT %:    91.3698  MISS %:    8.63017   MPKI: 21.4317
L1I LOAD      ACCESS:    9749026  HIT:    9478757  MISS:     270269  HIT %:    97.2277  MISS %:    2.77227   MPKI: 5.40538
L1I PREFETCH  ACCESS:    2667731  HIT:    1866413  MISS:     801318  HIT %:    69.9626  MISS %:    30.0374   MPKI: 16.0264
L1I PREFETCH  REQUESTED:    2916838  ISSUED:    2914188  USEFUL:     511247  USELESS:     290028
L1I USEFUL LOAD PREFETCHES:     511247 PREFETCH ISSUED TO LOWER LEVEL:     830505  ACCURACY: 61.5586
L1I TIMELY PREFETCHES:     511247 LATE PREFETCHES: 29187 DROPPED PREFETCHES: 735
L1I PREFETCHES SAME FILL-ORIGIN LEVEL: 830505 DIFFERENT FILL-ORIGIN LEVEL: 0
L1I AVERAGE MISS LATENCY: 1.29994e+06 cycles
L1I RQ	ACCESS:   14561358	FORWARD:          0	MERGED:    4775925	TO_CACHE:    9785433
L1I PQ	ACCESS:    2914188	FORWARD:          0	MERGED:     148168	TO_CACHE:    2766020

BTB TOTAL     ACCESS:    6897112  HIT:    6294074  MISS:     603038  HIT %:    91.2567  MISS %:    8.74334   MPKI: 12.0608
BTB BRANCH_DIRECT_JUMP	ACCESS:     484667  HIT:     467652  MISS:      17015
BTB BRANCH_INDIRECT	ACCESS:      85086  HIT:      43882  MISS:      41204
BTB BRANCH_CONDITIONAL	ACCESS:    3984632  HIT:    3933521  MISS:      51111
BTB BRANCH_DIRECT_CALL	ACCESS:    1028917  HIT:     994054  MISS:      34863
BTB BRANCH_INDIRECT_CALL	ACCESS:     141825  HIT:     105579  MISS:      36246
BTB BRANCH_RETURN	ACCESS:    1171985  HIT:     749386  MISS:     422599
BTB BRANCH_OTHER ACCESS:          0  HIT:          0  MISS:          0

L2C TOTAL     ACCESS:    1768462  HIT:    1385829  MISS:     382633  HIT %:    78.3635  MISS %:    21.6365   MPKI: 7.65266
L2C LOAD      ACCESS:     416752  HIT:     299729  MISS:     117023  HIT %:    71.9202  MISS %:    28.0798   MPKI: 2.34046
L2C DATA LOAD MPKI: 1.83168
L2C INSTRUCTION LOAD MPKI: 0.50878
L2C RFO       ACCESS:     194950  HIT:      32738  MISS:     162212  HIT %:     16.793  MISS %:     83.207   MPKI: 3.24424
L2C PREFETCH  ACCESS:     901949  HIT:     814538  MISS:      87411  HIT %:    90.3087  MISS %:    9.69135   MPKI: 1.74822
L2C DATA PREFETCH MPKI: 0.61636
L2C INSTRUCTION PREFETCH MPKI: 1.13186
L2C WRITEBACK ACCESS:     241623  HIT:     229736  MISS:      11887  HIT %:    95.0804  MISS %:    4.91965   MPKI: 0.23774
L2C LOAD TRANSLATION ACCESS:      11908  HIT:       8165  MISS:       3743  HIT %:    68.5673  MISS %:    31.4327   MPKI: 0.07486
L2C TRANSLATION FROM L1D PREFETCHER ACCESS:       1280  HIT:        923  MISS:        357  HIT %:    72.1094  MISS %:    27.8906   MPKI: 0.00714
L2C PREFETCH  REQUESTED:      41705  ISSUED:      41705  USEFUL:      10651  USELESS:      76474
L2C USEFUL LOAD PREFETCHES:      10651 PREFETCH ISSUED TO LOWER LEVEL:      87635  ACCURACY: 12.1538
L2C TIMELY PREFETCHES:      10651 LATE PREFETCHES: 224 DROPPED PREFETCHES: 0
L2C PREFETCHES SAME FILL-ORIGIN LEVEL: 11350 DIFFERENT FILL-ORIGIN LEVEL: 0
L2C AVERAGE MISS LATENCY: 127.997 cycles
L2C RQ	ACCESS:     624898	FORWARD:          0	MERGED:          0	TO_CACHE:     624890
L2C WQ	ACCESS:     241623	FORWARD:          9	MERGED:          0	TO_CACHE:     241623
L2C PQ	ACCESS:     909381	FORWARD:          0	MERGED:       5319	TO_CACHE:     904061

L2C Instructions Evicting Data 50011
L2C Translations Evicting Data 2805
L2C Data Evicting Data 236888
L2C Instructions Evicting Instructions 30825
L2C Translations Evicting Instructions 1237
L2C Data Evicting Instructions 45060
L2C Instructions Evicting Translations 1196
L2C Translations Evicting Translations 58
L2C Data Evicting Translations 2666
L2C Dense regions hint from L2: 0
PSCL5 TOTAL     ACCESS:      12249  HIT:      12249  MISS:          0  HIT %:        100  MISS %:          0   MPKI: 0
PSCL5 LOAD TRANSLATION ACCESS:      11078  HIT:      11078  MISS:          0  HIT %:        100  MISS %:          0   MPKI: 0
PSCL5 TRANSLATION FROM L1D PREFETCHER ACCESS:       1171  HIT:       1171  MISS:          0  HIT %:        100  MISS %:          0   MPKI: 0
PSCL5 PREFETCH  REQUESTED:          0  ISSUED:          0  USEFUL:          0  USELESS:          0
PSCL5 USEFUL LOAD PREFETCHES:          0 PREFETCH ISSUED TO LOWER LEVEL:          0  ACCURACY: -nan
PSCL5 TIMELY PREFETCHES:          0 LATE PREFETCHES: 0 DROPPED PREFETCHES: 0
PSCL5 PREFETCHES SAME FILL-ORIGIN LEVEL: 0 DIFFERENT FILL-ORIGIN LEVEL: 0

PSCL4 TOTAL     ACCESS:      12249  HIT:      12249  MISS:          0  HIT %:        100  MISS %:          0   MPKI: 0
PSCL4 LOAD TRANSLATION ACCESS:      11078  HIT:      11078  MISS:          0  HIT %:        100  MISS %:          0   MPKI: 0
PSCL4 TRANSLATION FROM L1D PREFETCHER ACCESS:       1171  HIT:       1171  MISS:          0  HIT %:        100  MISS %:          0   MPKI: 0
PSCL4 PREFETCH  REQUESTED:          0  ISSUED:          0  USEFUL:          0  USELESS:          0
PSCL4 USEFUL LOAD PREFETCHES:          0 PREFETCH ISSUED TO LOWER LEVEL:          0  ACCURACY: -nan
PSCL4 TIMELY PREFETCHES:          0 LATE PREFETCHES: 0 DROPPED PREFETCHES: 0
PSCL4 PREFETCHES SAME FILL-ORIGIN LEVEL: 0 DIFFERENT FILL-ORIGIN LEVEL: 0

PSCL3 TOTAL     ACCESS:      12229  HIT:      12219  MISS:         10  HIT %:    99.9182  MISS %:  0.0817728   MPKI: 0.0002
PSCL3 LOAD TRANSLATION ACCESS:      11063  HIT:      11053  MISS:         10  HIT %:    99.9096  MISS %:  0.0903914   MPKI: 0.0002
PSCL3 TRANSLATION FROM L1D PREFETCHER ACCESS:       1166  HIT:       1166  MISS:          0  HIT %:        100  MISS %:          0   MPKI: 0
PSCL3 PREFETCH  REQUESTED:          0  ISSUED:          0  USEFUL:          0  USELESS:          0
PSCL3 USEFUL LOAD PREFETCHES:          0 PREFETCH ISSUED TO LOWER LEVEL:          0  ACCURACY: -nan
PSCL3 TIMELY PREFETCHES:          0 LATE PREFETCHES: 0 DROPPED PREFETCHES: 0
PSCL3 PREFETCHES SAME FILL-ORIGIN LEVEL: 0 DIFFERENT FILL-ORIGIN LEVEL: 0

PSCL2 TOTAL     ACCESS:      12200  HIT:      11319  MISS:        881  HIT %:    92.7787  MISS %:    7.22131   MPKI: 0.01762
PSCL2 LOAD TRANSLATION ACCESS:      11135  HIT:      10254  MISS:        881  HIT %:     92.088  MISS %:    7.91199   MPKI: 0.01762
PSCL2 TRANSLATION FROM L1D PREFETCHER ACCESS:       1065  HIT:       1065  MISS:          0  HIT %:        100  MISS %:          0   MPKI: 0
PSCL2 PREFETCH  REQUESTED:          0  ISSUED:          0  USEFUL:          0  USELESS:          0
PSCL2 USEFUL LOAD PREFETCHES:          0 PREFETCH ISSUED TO LOWER LEVEL:          0  ACCURACY: -nan
PSCL2 TIMELY PREFETCHES:          0 LATE PREFETCHES: 0 DROPPED PREFETCHES: 0
PSCL2 PREFETCHES SAME FILL-ORIGIN LEVEL: 0 DIFFERENT FILL-ORIGIN LEVEL: 0

LLC TOTAL     ACCESS:     565249  HIT:     303307  MISS:     261942  HIT %:     53.659  MISS %:     46.341   MPKI: 5.23884
LLC LOAD      ACCESS:     116823  HIT:      52054  MISS:      64769  HIT %:     44.558  MISS %:     55.442   MPKI: 1.29538
LLC RFO       ACCESS:     162188  HIT:       8186  MISS:     154002  HIT %:    5.04723  MISS %:    94.9528   MPKI: 3.08004
LLC PREFETCH  ACCESS:      87635  HIT:      50911  MISS:      36724  HIT %:    58.0944  MISS %:    41.9056   MPKI: 0.73448
LLC WRITEBACK ACCESS:     194503  HIT:     190117  MISS:       4386  HIT %:     97.745  MISS %:    2.25498   MPKI: 0.08772
LLC LOAD TRANSLATION ACCESS:       3743  HIT:       1839  MISS:       1904  HIT %:    49.1317  MISS %:    50.8683   MPKI: 0.03808
LLC TRANSLATION FROM L1D PREFETCHER ACCESS:        357  HIT:        200  MISS:        157  HIT %:    56.0224  MISS %:    43.9776   MPKI: 0.00314
LLC PREFETCH  REQUESTED:          0  ISSUED:          0  USEFUL:       4839  USELESS:      32858
LLC USEFUL LOAD PREFETCHES:       4839 PREFETCH ISSUED TO LOWER LEVEL:      36724  ACCURACY: 13.1767
LLC TIMELY PREFETCHES:       4839 LATE PREFETCHES: 0 DROPPED PREFETCHES: 0
LLC PREFETCHES SAME FILL-ORIGIN LEVEL: 0 DIFFERENT FILL-ORIGIN LEVEL: 0
LLC AVERAGE MISS LATENCY: 144.435 cycles
LLC RQ	ACCESS:     283111	FORWARD:          0	MERGED:          0	TO_CACHE:     283111
LLC WQ	ACCESS:     194503	FORWARD:          0	MERGED:          0	TO_CACHE:     194503
LLC PQ	ACCESS:      87635	FORWARD:          0	MERGED:          0	TO_CACHE:      87635

LLC Dense regions hint to LLC: 0

RAW hits: 1819781
Loads Generated: 12792198
Loads sent to L1D: 10972418
Stores Generated: 7412307
Stores sent to L1D: 7412318
Major fault: 0 Minor fault: 6178
Allocated PAGES: 6178
I-Shadow cache 408 bytes
Touched + WorthPF tables 6144 bytes 
MMA filter 174 bytes 
FNL filter 272 bytes 
TOTAL PREFETCHER STORAGE SIZE: 25174 bytes
CPU 0 L1I next line prefetcher final stats

stream: 
stream:times selected: 506326
stream:pref_filled: 49156
stream:pref_useful: 15899
stream:pref_late: 1031
stream:misses: 5070
stream:misses_by_poll: 0

CS: 
CS:times selected: 83763
CS:pref_filled: 36505
CS:pref_useful: 29547
CS:pref_late: 987
CS:misses: 2624
CS:misses_by_poll: 106

CPLX: 
CPLX:times selected: 420359
CPLX:pref_filled: 17790
CPLX:pref_useful: 3120
CPLX:pref_late: 93
CPLX:misses: 26187
CPLX:misses_by_poll: 5

NL_L1: 
NL:times selected: 3794
NL:pref_filled: 694
NL:pref_useful: 195
NL:pref_late: 9
NL:misses: 251
NL:misses_by_poll: 0

total selections: 1014242
total_filled: 35480
total_useful: 17699
total_late: 2441
total_polluted: 111
total_misses_after_warmup: 46599
conflicts: 316936
Degree Incremented Times: 36544
Degree Decremented Times: 102372

L1 IP Table Write Accesses: 734815
L1 IP Table Read Accesses: 417879
L1 RST Write Accesses: 176439
L1 RST Read Accesses: 352878
L1 CSPT Write Accesses: 176439
L1 CSPT Read Accesses: 324797
L1 RR Filter Tag Write Accesses: 93012
L1 RR Filter Tag Read Accesses: 7724125
L1 IP Table Tag Write Accesses: 1107113
L1 IP Table Tag Read Accesses: 1107113
L1 RST Tag Write Accesses: 0
L1 RST Tag Read Accesses: 1769184
L1 RR Filter Write Accesses: 0
L1 RR Filter Read Accesses: 300884
test: 133045
L2 IP Table Read Accesses: 104489
L2 IP Table Write Accesses: 93775
L2 IP Table Tag Read Accesses: 61540
L2 IP Table Tag Write Accesses: 61540

DRAM Statistics
 CHANNEL 0
 RQ ROW_BUFFER_HIT:      87417  ROW_BUFFER_MISS:     170137
 DBUS_CONGESTED:        250
 WQ ROW_BUFFER_HIT:      34766  ROW_BUFFER_MISS:     144892  FULL:          0

 AVG_CONGESTED_CYCLE: 3
 All warmup complete: 2
Channel 0 Bank busy for read cycles: 0
Channel 0 Bank busy for write cycles: 0
Channel 0
Rank 0
0banks busy for read cycles: 45349237
0banks busy for write cycles: 45448
1banks busy for read cycles: 11042483
1banks busy for write cycles: 5254056
2banks busy for read cycles: 3546514
2banks busy for write cycles: 2629575
3banks busy for read cycles: 910364
3banks busy for write cycles: 1194477
4banks busy for read cycles: 401554
4banks busy for write cycles: 576602
5banks busy for read cycles: 254295
5banks busy for write cycles: 413886
6banks busy for read cycles: 308132
6banks busy for write cycles: 363312
7banks busy for read cycles: 199256
7banks busy for write cycles: 418947
8banks busy for read cycles: 372763
8banks busy for write cycles: 1003542

CPU 0 Branch Prediction Accuracy: 97.8666% MPKI: 3.9013 Average ROB Occupancy at Mispredict: 48.5486
Branch types
NOT_BRANCH: 40856330 81.7127%
BRANCH_DIRECT_JUMP: 484667 0.969334%
BRANCH_INDIRECT: 85086 0.170172%
BRANCH_CONDITIONAL: 6230887 12.4618%
BRANCH_DIRECT_CALL: 1028917 2.05783%
BRANCH_INDIRECT_CALL: 141825 0.28365%
BRANCH_RETURN: 1171985 2.34397%
BRANCH_OTHER: 0 0%

DRAM PAGES: 1048576
Allocated PAGES: 6178
