
*** ChampSim Multicore Out-of-Order Simulator ***

Warmup Instructions: 50000000
Simulation Instructions: 50000000
Number of CPUs: 1
LLC sets: 2048
LLC ways: 16
Off-chip DRAM Size: 4096 MB Channels: 1 Width: 64-bit Data Rate: 6400 MT/s
CPU 0 runs ../IPC-traces//client_007.champsimtrace.xz
.xz
NUM_OF_IPS_IN_CRITICAL_IP_TRAINING: 64
NUM_OF_CRITICAL_IP_TRAINING_TABLE_WAYS: 2
NUM_OF_CRITICAL_IP_TRAINING_TABLE_SETS: 32
WOBBLY_CRITICAL_IP_CACHE_SETS: 32
WOBBLY_CRITICAL_IP_CACHE_WAYS: 4
BTB has LRU replacement policy
ITLB has LRU replacement policy
DTLB has LRU replacement policy
STLB has LRU replacement policy
CPU 0 L1I next line prefetcher
L1I has LRU replacement policy
IP Table Entries: 256
L1D has LRU replacement policy
Initialize SRRIP state for L2C
Initialize DRRIP state for LLC
Heartbeat CPU 0 instructions: 10000003 cycles: 3033050 heartbeat IPC: 3.29701 cumulative IPC: 3.29701 (Simulation time: 0 hr 2 min 31 sec) 
Heartbeat CPU 0 instructions: 20000003 cycles: 5972920 heartbeat IPC: 3.40151 cumulative IPC: 3.34845 (Simulation time: 0 hr 4 min 52 sec) 
Heartbeat CPU 0 instructions: 30000003 cycles: 9153077 heartbeat IPC: 3.1445 cumulative IPC: 3.27759 (Simulation time: 0 hr 7 min 42 sec) 
Heartbeat CPU 0 instructions: 40000003 cycles: 12446768 heartbeat IPC: 3.03611 cumulative IPC: 3.21369 (Simulation time: 0 hr 10 min 41 sec) 
Heartbeat CPU 0 instructions: 50000001 cycles: 15352939 heartbeat IPC: 3.44095 cumulative IPC: 3.25671 (Simulation time: 0 hr 13 min 11 sec) 

Warmup complete CPU 0 instructions: 50000001 cycles: 15352939 (Simulation time: 0 hr 13 min 11 sec) 

% increase in all ip prefetch 263.661
% increase in all ip prefetch 0.696981
Heartbeat CPU 0 instructions: 60000003 cycles: 28424391 heartbeat IPC: 0.765026 cumulative IPC: 0.765026 (Simulation time: 0 hr 15 min 40 sec) 
Heartbeat CPU 0 instructions: 70000003 cycles: 45069572 heartbeat IPC: 0.600774 cumulative IPC: 0.673024 (Simulation time: 0 hr 18 min 29 sec) 
Heartbeat CPU 0 instructions: 80000003 cycles: 55392589 heartbeat IPC: 0.968709 cumulative IPC: 0.749257 (Simulation time: 0 hr 20 min 53 sec) 
Heartbeat CPU 0 instructions: 90000001 cycles: 69490678 heartbeat IPC: 0.709316 cumulative IPC: 0.738856 (Simulation time: 0 hr 23 min 22 sec) 
Heartbeat CPU 0 instructions: 100000000 cycles: 85474546 heartbeat IPC: 0.625631 cumulative IPC: 0.713047 (Simulation time: 0 hr 27 min 25 sec) 
Finished CPU 0 instructions: 50000001 cycles: 70121608 cumulative IPC: 0.713047 (Simulation time: 0 hr 27 min 25 sec) 

ChampSim completed all CPUs

Region of Interest Statistics

CPU 0 cumulative IPC: 0.713047 instructions: 50000001 cycles: 70121608

CPU 0 Average Load ROB stall cycles: 1.86108e+07
CPU 0 Fraction of times ROB stalled by Loads: 38.9684
CPU 0 Percentage of Load stall cycles in Total stall cycles: 2.40933e+08
Issued all: 30371588
Issued LT all: 24948400
rob_not_full_when_issued_lt_all: 18641697
Issued LT one: 19236573
rob_not_full_when_issued_lt_one: 14280929
critical_ip_candidate_identification_operations: 5812964
critical_ip_candidate_identification_operation_per_cycle: 0.0828983
 Total stall cycles: 57613474
 Total load stall cycles: 138810130564924
Unique Load IPs: 16511
CPU 0 NUM of IPS identified critical: 147
CPU 0 Num of Load IPs stalling ROB: 12245
Threshold modification factor: -1
Max PIST entries: 64
Min PIST entries: 0
Avg PIST entries: 30.27
Trouble in retire width: 0.905555
MaC = Marked as critical.
lt_50_percent_before_Mac: 103
gt_90_percent_before_Mac: 8
gt_75_percent_before_Mac: 16
gt_50_percent_before_Mac: 20
stall_proportion_bin_same_before_after: 0
stall_proportion_bin_lower_before_after: 0
stall_proportion_bin_upper_before_after: 0
average_stall_proportion_before: 0.0601964
average_stall_proportion_after: 0.0656755
Critical IP stalls, total frequency: 1169881
Non-critical IP stalls, total frequency: 1736601
Total Freq all stalling IPs: 2906482
Critical_IP_Detector_Accuracy_70: 0.687075
Critical_IP_Detector_Accuracy_80: 0.782313
Critical_IP_Detector_Accuracy_90: 0.938776
Critical_IP_Detector_Coverage_70: 0.260982
Critical_IP_Detector_Coverage_80: 0.159944
Critical_IP_Detector_Coverage_90: 0.101322
stat_90_percent_critical_ip_stalls_freq: 2615984
stat_90_percent_non_critical_ip_stalls_freq: 290498
AVERAGE_ROB_Occupancy_90_Percent_Critical_IP_Stalls: 112.984
AVERAGE_ROB_Occupancy_90_Percent_Non_Critical_IP_Stalls: 63.778
Critical_IP_ROB_Stalls_Bucket_0: 144112
Non-critical_IP_ROB_Stalls_Bucket_0: 942822
Critical_IP_ROB_Stalls_Bucket_1: 235480
Non-critical_IP_ROB_Stalls_Bucket_1: 553301
Critical_IP_ROB_Stalls_Bucket_2: 236890
Non-critical_IP_ROB_Stalls_Bucket_2: 139705
Critical_IP_ROB_Stalls_Bucket_3: 148013
Non-critical_IP_ROB_Stalls_Bucket_3: 44238
Critical_IP_ROB_Stalls_Bucket_4: 59893
Non-critical_IP_ROB_Stalls_Bucket_4: 20688
Critical_IP_ROB_Stalls_Bucket_5: 36868
Non-critical_IP_ROB_Stalls_Bucket_5: 11251
Critical_IP_ROB_Stalls_Bucket_6: 308625
Non-critical_IP_ROB_Stalls_Bucket_6: 24596
0 => IPs accounting for >50 percent of stalls, 1 => 55, 2 => 60, 3 => 65 and so on till 90.
percent50: 50.0395 num IPs:  117
percent55: 55.0205 num IPs: 159
percent60: 60.041 num IPs: 215
percent65: 65.0338 num IPs: 287
percent70: 70.0259 num IPs: 387
percent75: 75.0124 num IPs: 525
percent80: 80.0042 num IPs: 719
percent85: 85.007 num IPs: 970
percent90: 90.0053 num IPs: 1362
Critical_ROB_Stalls_Percent_0_Bucket_0: 353518
Non-critical_ROB_Stalls_Percent_0_Bucket_0: 733416
Critical_ROB_Stalls_Percent_0_Bucket_1: 326058
Non-critical_ROB_Stalls_Percent_0_Bucket_1: 462723
Critical_ROB_Stalls_Percent_0_Bucket_2: 245249
Non-critical_ROB_Stalls_Percent_0_Bucket_2: 131346
Critical_ROB_Stalls_Percent_0_Bucket_3: 145021
Non-critical_ROB_Stalls_Percent_0_Bucket_3: 47230
Critical_ROB_Stalls_Percent_0_Bucket_4: 56351
Non-critical_ROB_Stalls_Percent_0_Bucket_4: 24230
Critical_ROB_Stalls_Percent_0_Bucket_5: 34306
Non-critical_ROB_Stalls_Percent_0_Bucket_5: 13813
Critical_ROB_Stalls_Percent_0_Bucket_6: 293886
Non-critical_ROB_Stalls_Percent_0_Bucket_6: 39335
Critical_ROB_Stalls_Percent_1_Bucket_0: 420159
Non-critical_ROB_Stalls_Percent_1_Bucket_0: 666775
Critical_ROB_Stalls_Percent_1_Bucket_1: 380352
Non-critical_ROB_Stalls_Percent_1_Bucket_1: 408429
Critical_ROB_Stalls_Percent_1_Bucket_2: 257549
Non-critical_ROB_Stalls_Percent_1_Bucket_2: 119046
Critical_ROB_Stalls_Percent_1_Bucket_3: 149843
Non-critical_ROB_Stalls_Percent_1_Bucket_3: 42408
Critical_ROB_Stalls_Percent_1_Bucket_4: 58274
Non-critical_ROB_Stalls_Percent_1_Bucket_4: 22307
Critical_ROB_Stalls_Percent_1_Bucket_5: 35841
Non-critical_ROB_Stalls_Percent_1_Bucket_5: 12278
Critical_ROB_Stalls_Percent_1_Bucket_6: 297144
Non-critical_ROB_Stalls_Percent_1_Bucket_6: 36077
Critical_ROB_Stalls_Percent_2_Bucket_0: 489213
Non-critical_ROB_Stalls_Percent_2_Bucket_0: 597721
Critical_ROB_Stalls_Percent_2_Bucket_1: 432056
Non-critical_ROB_Stalls_Percent_2_Bucket_1: 356725
Critical_ROB_Stalls_Percent_2_Bucket_2: 269972
Non-critical_ROB_Stalls_Percent_2_Bucket_2: 106623
Critical_ROB_Stalls_Percent_2_Bucket_3: 155358
Non-critical_ROB_Stalls_Percent_2_Bucket_3: 36893
Critical_ROB_Stalls_Percent_2_Bucket_4: 60470
Non-critical_ROB_Stalls_Percent_2_Bucket_4: 20111
Critical_ROB_Stalls_Percent_2_Bucket_5: 36763
Non-critical_ROB_Stalls_Percent_2_Bucket_5: 11356
Critical_ROB_Stalls_Percent_2_Bucket_6: 301250
Non-critical_ROB_Stalls_Percent_2_Bucket_6: 31971
Critical_ROB_Stalls_Percent_3_Bucket_0: 552622
Non-critical_ROB_Stalls_Percent_3_Bucket_0: 534312
Critical_ROB_Stalls_Percent_3_Bucket_1: 485553
Non-critical_ROB_Stalls_Percent_3_Bucket_1: 303228
Critical_ROB_Stalls_Percent_3_Bucket_2: 286989
Non-critical_ROB_Stalls_Percent_3_Bucket_2: 89606
Critical_ROB_Stalls_Percent_3_Bucket_3: 159553
Non-critical_ROB_Stalls_Percent_3_Bucket_3: 32698
Critical_ROB_Stalls_Percent_3_Bucket_4: 63150
Non-critical_ROB_Stalls_Percent_3_Bucket_4: 17431
Critical_ROB_Stalls_Percent_3_Bucket_5: 38002
Non-critical_ROB_Stalls_Percent_3_Bucket_5: 10117
Critical_ROB_Stalls_Percent_3_Bucket_6: 304328
Non-critical_ROB_Stalls_Percent_3_Bucket_6: 28893
Critical_ROB_Stalls_Percent_4_Bucket_0: 615598
Non-critical_ROB_Stalls_Percent_4_Bucket_0: 471336
Critical_ROB_Stalls_Percent_4_Bucket_1: 532376
Non-critical_ROB_Stalls_Percent_4_Bucket_1: 256405
Critical_ROB_Stalls_Percent_4_Bucket_2: 301497
Non-critical_ROB_Stalls_Percent_4_Bucket_2: 75098
Critical_ROB_Stalls_Percent_4_Bucket_3: 165560
Non-critical_ROB_Stalls_Percent_4_Bucket_3: 26691
Critical_ROB_Stalls_Percent_4_Bucket_4: 67517
Non-critical_ROB_Stalls_Percent_4_Bucket_4: 13064
Critical_ROB_Stalls_Percent_4_Bucket_5: 40785
Non-critical_ROB_Stalls_Percent_4_Bucket_5: 7334
Critical_ROB_Stalls_Percent_4_Bucket_6: 311959
Non-critical_ROB_Stalls_Percent_4_Bucket_6: 21262
Critical_ROB_Stalls_Percent_5_Bucket_0: 691021
Non-critical_ROB_Stalls_Percent_5_Bucket_0: 395913
Critical_ROB_Stalls_Percent_5_Bucket_1: 578431
Non-critical_ROB_Stalls_Percent_5_Bucket_1: 210350
Critical_ROB_Stalls_Percent_5_Bucket_2: 313578
Non-critical_ROB_Stalls_Percent_5_Bucket_2: 63017
Critical_ROB_Stalls_Percent_5_Bucket_3: 169381
Non-critical_ROB_Stalls_Percent_5_Bucket_3: 22870
Critical_ROB_Stalls_Percent_5_Bucket_4: 70752
Non-critical_ROB_Stalls_Percent_5_Bucket_4: 9829
Critical_ROB_Stalls_Percent_5_Bucket_5: 42504
Non-critical_ROB_Stalls_Percent_5_Bucket_5: 5615
Critical_ROB_Stalls_Percent_5_Bucket_6: 314555
Non-critical_ROB_Stalls_Percent_5_Bucket_6: 18666
Critical_ROB_Stalls_Percent_6_Bucket_0: 761733
Non-critical_ROB_Stalls_Percent_6_Bucket_0: 325201
Critical_ROB_Stalls_Percent_6_Bucket_1: 628762
Non-critical_ROB_Stalls_Percent_6_Bucket_1: 160019
Critical_ROB_Stalls_Percent_6_Bucket_2: 326267
Non-critical_ROB_Stalls_Percent_6_Bucket_2: 50328
Critical_ROB_Stalls_Percent_6_Bucket_3: 173931
Non-critical_ROB_Stalls_Percent_6_Bucket_3: 18320
Critical_ROB_Stalls_Percent_6_Bucket_4: 72667
Non-critical_ROB_Stalls_Percent_6_Bucket_4: 7914
Critical_ROB_Stalls_Percent_6_Bucket_5: 43567
Non-critical_ROB_Stalls_Percent_6_Bucket_5: 4552
Critical_ROB_Stalls_Percent_6_Bucket_6: 318380
Non-critical_ROB_Stalls_Percent_6_Bucket_6: 14841
Critical_ROB_Stalls_Percent_7_Bucket_0: 846531
Non-critical_ROB_Stalls_Percent_7_Bucket_0: 240403
Critical_ROB_Stalls_Percent_7_Bucket_1: 667796
Non-critical_ROB_Stalls_Percent_7_Bucket_1: 120985
Critical_ROB_Stalls_Percent_7_Bucket_2: 336148
Non-critical_ROB_Stalls_Percent_7_Bucket_2: 40447
Critical_ROB_Stalls_Percent_7_Bucket_3: 178012
Non-critical_ROB_Stalls_Percent_7_Bucket_3: 14239
Critical_ROB_Stalls_Percent_7_Bucket_4: 74693
Non-critical_ROB_Stalls_Percent_7_Bucket_4: 5888
Critical_ROB_Stalls_Percent_7_Bucket_5: 44672
Non-critical_ROB_Stalls_Percent_7_Bucket_5: 3447
Critical_ROB_Stalls_Percent_7_Bucket_6: 322858
Non-critical_ROB_Stalls_Percent_7_Bucket_6: 10363
Critical_ROB_Stalls_Percent_8_Bucket_0: 923426
Non-critical_ROB_Stalls_Percent_8_Bucket_0: 163508
Critical_ROB_Stalls_Percent_8_Bucket_1: 709153
Non-critical_ROB_Stalls_Percent_8_Bucket_1: 79628
Critical_ROB_Stalls_Percent_8_Bucket_2: 351131
Non-critical_ROB_Stalls_Percent_8_Bucket_2: 25464
Critical_ROB_Stalls_Percent_8_Bucket_3: 183411
Non-critical_ROB_Stalls_Percent_8_Bucket_3: 8840
Critical_ROB_Stalls_Percent_8_Bucket_4: 77088
Non-critical_ROB_Stalls_Percent_8_Bucket_4: 3493
Critical_ROB_Stalls_Percent_8_Bucket_5: 45837
Non-critical_ROB_Stalls_Percent_8_Bucket_5: 2282
Critical_ROB_Stalls_Percent_8_Bucket_6: 325938
Non-critical_ROB_Stalls_Percent_8_Bucket_6: 7283
Average ROB occupancy Load Stall Begin: 99.0165
Average ROB occupancy Load Stall End: 108.066
Min ROB occupancy Load Stall Begin: 1
Max ROB occupancy Load Stall Begin: 352
Min ROB occupancy Load Stall End: 1
Max ROB occupancy Load Stall End: 352
Average ROB occupancy Critical Load Stall Begin: 180.826
Average ROB occupancy Critical Load Stall End: 189.173
Min ROB occupancy Critical Load Stall Begin: 1
Max ROB occupancy Critical Load Stall Begin: 352
Min ROB occupancy Critical Load Stall End: 1
Max ROB occupancy Critical Load Stall End: 352
 ROB Load Stall Begin Bucket Count 0: 1343480
 ROB Load Stall End Bucket Count 0: 1086934
 ROB Critical Load Stall Begin Bucket Count 0: 156309
 ROB Critical Load Stall End Bucket Count 0: 100992
 ROB Load Stall Begin Bucket Count 1: 639010
 ROB Load Stall End Bucket Count 1: 788781
 ROB Critical Load Stall Begin Bucket Count 1: 174629
 ROB Critical Load Stall End Bucket Count 1: 184680
 ROB Load Stall Begin Bucket Count 2: 327546
 ROB Load Stall End Bucket Count 2: 376595
 ROB Critical Load Stall Begin Bucket Count 2: 193552
 ROB Critical Load Stall End Bucket Count 2: 205344
 ROB Load Stall Begin Bucket Count 3: 160088
 ROB Load Stall End Bucket Count 3: 192251
 ROB Critical Load Stall Begin Bucket Count 3: 115123
 ROB Critical Load Stall End Bucket Count 3: 133829
 ROB Load Stall Begin Bucket Count 4: 69297
 ROB Load Stall End Bucket Count 4: 80581
 ROB Critical Load Stall Begin Bucket Count 4: 46584
 ROB Critical Load Stall End Bucket Count 4: 52484
 ROB Load Stall Begin Bucket Count 5: 42424
 ROB Load Stall End Bucket Count 5: 48119
 ROB Critical Load Stall Begin Bucket Count 5: 28806
 ROB Critical Load Stall End Bucket Count 5: 32745
 ROB Load Stall Begin Bucket Count 6: 324637
 ROB Load Stall End Bucket Count 6: 333221
 ROB Critical Load Stall Begin Bucket Count 6: 297389
 ROB Critical Load Stall End Bucket Count 6: 302318
PIST Tag Read Accesses: 2212330
PIST Read Accesses: 1106165
PIST Tag Write Accesses: 2212330
PIST Write Accesses: 1106165
Criticality detector called times: 1897039
Max global_stall_cycles_count: 4549396
Threshold Modified: 1 times, factor: -1
Sturdy critical IP cache stats: 
 Unused entries: 0
CIC Tag Read Accesses: 0
CIC Read Accesses: 0
CIC Tag Write Accesses: 0
CIC Write Accesses: 0
Wobbly critical IP cache stats: 
 Unused entries: 15
CIC Tag Read Accesses: 89454119
CIC Read Accesses: 0
CIC Tag Write Accesses: 318211
CIC Write Accesses: 0
ITLB TOTAL     ACCESS:    8764039  HIT:    8584533  MISS:     179506  HIT %:    97.9518  MISS %:    2.04821   MPKI: 3.59012
ITLB LOAD TRANSLATION ACCESS:    8147833  HIT:    8135147  MISS:      12686  HIT %:    99.8443  MISS %:   0.155698   MPKI: 0.25372
ITLB TRANSLATION FROM L1D PREFETCHER ACCESS:     616206  HIT:     449386  MISS:     166820  HIT %:    72.9279  MISS %:    27.0721   MPKI: 3.3364
ITLBprefetch_cycle_count: 0 prefetches_per_prefetch_cycle: -nan
ITLB PREFETCH  REQUESTED:          0  ISSUED:          0  USEFUL:     140791  USELESS:      26028
ITLB USEFUL LOAD PREFETCHES:     140791 PREFETCH ISSUED TO LOWER LEVEL:          0  ACCURACY: inf
ITLB TIMELY PREFETCHES:     140791 LATE PREFETCHES: 43 DROPPED PREFETCHES: 16
ITLB PREFETCHES SAME FILL-ORIGIN LEVEL: 0 DIFFERENT FILL-ORIGIN LEVEL: 0
ITLB AVERAGE MISS LATENCY: 8114.95 cycles
ITLB RQ	ACCESS:   11214430	FORWARD:          0	MERGED:    2436811	TO_CACHE:    8777619

DTLB TOTAL     ACCESS:   11632388  HIT:   11315465  MISS:     316923  HIT %:    97.2755  MISS %:    2.72449   MPKI: 6.33846
DTLB LOAD TRANSLATION ACCESS:   11632388  HIT:   11315465  MISS:     316923  HIT %:    97.2755  MISS %:    2.72449   MPKI: 6.33846
DTLBprefetch_cycle_count: 0 prefetches_per_prefetch_cycle: -nan
DTLB PREFETCH  REQUESTED:          0  ISSUED:          0  USEFUL:          0  USELESS:          0
DTLB USEFUL LOAD PREFETCHES:          0 PREFETCH ISSUED TO LOWER LEVEL:          0  ACCURACY: -nan
DTLB TIMELY PREFETCHES:          0 LATE PREFETCHES: 0 DROPPED PREFETCHES: 0
DTLB PREFETCHES SAME FILL-ORIGIN LEVEL: 0 DIFFERENT FILL-ORIGIN LEVEL: 0
DTLB AVERAGE MISS LATENCY: 10.3828 cycles
DTLB RQ	ACCESS:   13890166	FORWARD:          0	MERGED:    2241185	TO_CACHE:   11648981

STLB TOTAL     ACCESS:     912999  HIT:     908789  MISS:       4210  HIT %:    99.5389  MISS %:   0.461118   MPKI: 0.0842
STLB LOAD TRANSLATION ACCESS:     329566  HIT:     325664  MISS:       3902  HIT %:     98.816  MISS %:    1.18398   MPKI: 0.07804
STLB TRANSLATION FROM L1D PREFETCHER ACCESS:     583433  HIT:     583125  MISS:        308  HIT %:    99.9472  MISS %:   0.052791   MPKI: 0.00616
STLBprefetch_cycle_count: 0 prefetches_per_prefetch_cycle: -nan
STLB PREFETCH  REQUESTED:          0  ISSUED:          0  USEFUL:        232  USELESS:         64
STLB USEFUL LOAD PREFETCHES:        232 PREFETCH ISSUED TO LOWER LEVEL:          0  ACCURACY: inf
STLB TIMELY PREFETCHES:        232 LATE PREFETCHES: 0 DROPPED PREFETCHES: 16
STLB PREFETCHES SAME FILL-ORIGIN LEVEL: 0 DIFFERENT FILL-ORIGIN LEVEL: 0
STLB AVERAGE MISS LATENCY: 128.365 cycles
STLB RQ	ACCESS:     972144	FORWARD:          0	MERGED:      59129	TO_CACHE:     913015

STLB Hit, L1D data hit: 0
STLB Hit, L2C data hit: 0
STLB Hit, LLC data hit: 0
STLB Hit, LLC data miss: 0
STLB STLB hints to L2: 0
L1D TOTAL     ACCESS:   14177932  HIT:   13496417  MISS:     681515  HIT %:    95.1931  MISS %:    4.80687   MPKI: 13.6303
L1D LOAD      ACCESS:    8804120  HIT:    8356831  MISS:     447289  HIT %:    94.9195  MISS %:    5.08045   MPKI: 8.94578
L1D RFO       ACCESS:    4927023  HIT:    4850168  MISS:      76855  HIT %:    98.4401  MISS %:    1.55987   MPKI: 1.5371
L1D PREFETCH  ACCESS:     446789  HIT:     289418  MISS:     157371  HIT %:    64.7773  MISS %:    35.2227   MPKI: 3.14742
L1Dprefetch_cycle_count: 421215 prefetches_per_prefetch_cycle: 2.25907
L1D PREFETCH  REQUESTED:     951655  ISSUED:     951555  USEFUL:      78948  USELESS:      78424
L1D USEFUL LOAD PREFETCHES:      78948 PREFETCH ISSUED TO LOWER LEVEL:     175199  ACCURACY: 45.0619
L1D TIMELY PREFETCHES:      78948 LATE PREFETCHES: 17145 DROPPED PREFETCHES: 0
L1D PREFETCHES SAME FILL-ORIGIN LEVEL: 175199 DIFFERENT FILL-ORIGIN LEVEL: 0
L1D AVERAGE MISS LATENCY: 1.10155e+06 cycles
L1D RQ	ACCESS:   12810447	FORWARD:          0	MERGED:    3872746	TO_CACHE:    8852424
L1D WQ	ACCESS:    5437654	FORWARD:      85434	MERGED:     399912	TO_CACHE:    5037742
L1D PQ	ACCESS:     475856	FORWARD:          0	MERGED:          0	TO_CACHE:     475699

L1D UNIQUE REGIONS ACCESSED: 0
L1D REGIONS CONFLICTS: 0
L1D Cross Page Prefetch Requests: 0
L1D Same Page Prefetch Requests: 1850122
L1D ROI Sum of L1D PQ occupancy: 6218407
L1D PREFETCHES PUSHED FROM L2C: 0
L1I TOTAL     ACCESS:   11186150  HIT:   10019209  MISS:    1166941  HIT %:     89.568  MISS %:     10.432   MPKI: 23.3388
L1I LOAD      ACCESS:    9640544  HIT:    9598513  MISS:      42031  HIT %:     99.564  MISS %:   0.435982   MPKI: 0.84062
L1I PREFETCH  ACCESS:    1545606  HIT:     420696  MISS:    1124910  HIT %:    27.2188  MISS %:    72.7812   MPKI: 22.4982
L1Iprefetch_cycle_count: 0 prefetches_per_prefetch_cycle: inf
L1I PREFETCH  REQUESTED:    1597669  ISSUED:    1596845  USEFUL:     848005  USELESS:     276949
L1I USEFUL LOAD PREFETCHES:     848005 PREFETCH ISSUED TO LOWER LEVEL:    1131313  ACCURACY: 74.9576
L1I TIMELY PREFETCHES:     848005 LATE PREFETCHES: 6403 DROPPED PREFETCHES: 21
L1I PREFETCHES SAME FILL-ORIGIN LEVEL: 1131313 DIFFERENT FILL-ORIGIN LEVEL: 0
L1I AVERAGE MISS LATENCY: 236978 cycles
L1I RQ	ACCESS:   14353502	FORWARD:          0	MERGED:    4706715	TO_CACHE:    9646787
L1I PQ	ACCESS:    1596845	FORWARD:          0	MERGED:      29202	TO_CACHE:    1567643

BTB TOTAL     ACCESS:    6145704  HIT:    5759281  MISS:     386423  HIT %:    93.7123  MISS %:    6.28769   MPKI: 7.72846
BTB BRANCH_DIRECT_JUMP	ACCESS:     735331  HIT:     732025  MISS:       3306
BTB BRANCH_INDIRECT	ACCESS:     269194  HIT:     145703  MISS:     123491
BTB BRANCH_CONDITIONAL	ACCESS:    3930750  HIT:    3920624  MISS:      10126
BTB BRANCH_DIRECT_CALL	ACCESS:     368758  HIT:     363374  MISS:       5384
BTB BRANCH_INDIRECT_CALL	ACCESS:     226975  HIT:     162973  MISS:      64002
BTB BRANCH_RETURN	ACCESS:     614696  HIT:     434582  MISS:     180114
BTB BRANCH_OTHER ACCESS:          0  HIT:          0  MISS:          0

L2C TOTAL     ACCESS:    2097365  HIT:    1900773  MISS:     196592  HIT %:    90.6267  MISS %:    9.37329   MPKI: 3.93184
L2C LOAD      ACCESS:     465662  HIT:     373466  MISS:      92196  HIT %:    80.2011  MISS %:    19.7989   MPKI: 1.84392
L2C DATA LOAD MPKI: 1.7583
L2C INSTRUCTION LOAD MPKI: 0.08562
L2C RFO       ACCESS:      76160  HIT:      32729  MISS:      43431  HIT %:     42.974  MISS %:     57.026   MPKI: 0.86862
L2C PREFETCH  ACCESS:    1306511  HIT:    1249215  MISS:      57296  HIT %:    95.6146  MISS %:    4.38542   MPKI: 1.14592
L2C DATA PREFETCH MPKI: 0.9719
L2C INSTRUCTION PREFETCH MPKI: 0.17402
L2C WRITEBACK ACCESS:     244613  HIT:     242738  MISS:       1875  HIT %:    99.2335  MISS %:   0.766517   MPKI: 0.0375
L2C LOAD TRANSLATION ACCESS:       4077  HIT:       2482  MISS:       1595  HIT %:    60.8781  MISS %:    39.1219   MPKI: 0.0319
L2C TRANSLATION FROM L1D PREFETCHER ACCESS:        342  HIT:        143  MISS:        199  HIT %:    41.8129  MISS %:    58.1871   MPKI: 0.00398
L2Cprefetch_cycle_count: 0 prefetches_per_prefetch_cycle: -nan
L2C PREFETCH  REQUESTED:          0  ISSUED:          0  USEFUL:       5044  USELESS:      54213
L2C USEFUL LOAD PREFETCHES:       5044 PREFETCH ISSUED TO LOWER LEVEL:      57296  ACCURACY: 8.80341
L2C TIMELY PREFETCHES:       5044 LATE PREFETCHES: 0 DROPPED PREFETCHES: 0
L2C PREFETCHES SAME FILL-ORIGIN LEVEL: 0 DIFFERENT FILL-ORIGIN LEVEL: 0
L2C AVERAGE MISS LATENCY: 147.848 cycles
L2C RQ	ACCESS:     546363	FORWARD:          0	MERGED:          0	TO_CACHE:     546241
L2C WQ	ACCESS:     244613	FORWARD:        123	MERGED:          0	TO_CACHE:     244613
L2C PQ	ACCESS:    1306512	FORWARD:          0	MERGED:          0	TO_CACHE:    1306511

L2C Instructions Evicting Data 9762
L2C Translations Evicting Data 1433
L2C Data Evicting Data 166033
L2C Instructions Evicting Instructions 2927
L2C Translations Evicting Instructions 324
L2C Data Evicting Instructions 12313
L2C Instructions Evicting Translations 293
L2C Translations Evicting Translations 37
L2C Data Evicting Translations 1595
L2C Dense regions hint from L2: 0
PSCL5 TOTAL     ACCESS:       4226  HIT:       4226  MISS:          0  HIT %:        100  MISS %:          0   MPKI: 0
PSCL5 LOAD TRANSLATION ACCESS:       3902  HIT:       3902  MISS:          0  HIT %:        100  MISS %:          0   MPKI: 0
PSCL5 TRANSLATION FROM L1D PREFETCHER ACCESS:        324  HIT:        324  MISS:          0  HIT %:        100  MISS %:          0   MPKI: 0
PSCL5prefetch_cycle_count: 0 prefetches_per_prefetch_cycle: -nan
PSCL5 PREFETCH  REQUESTED:          0  ISSUED:          0  USEFUL:          0  USELESS:          0
PSCL5 USEFUL LOAD PREFETCHES:          0 PREFETCH ISSUED TO LOWER LEVEL:          0  ACCURACY: -nan
PSCL5 TIMELY PREFETCHES:          0 LATE PREFETCHES: 0 DROPPED PREFETCHES: 0
PSCL5 PREFETCHES SAME FILL-ORIGIN LEVEL: 0 DIFFERENT FILL-ORIGIN LEVEL: 0

PSCL4 TOTAL     ACCESS:       3933  HIT:       3926  MISS:          7  HIT %:     99.822  MISS %:   0.177981   MPKI: 0.00014
PSCL4 LOAD TRANSLATION ACCESS:       3636  HIT:       3629  MISS:          7  HIT %:    99.8075  MISS %:   0.192519   MPKI: 0.00014
PSCL4 TRANSLATION FROM L1D PREFETCHER ACCESS:        297  HIT:        297  MISS:          0  HIT %:        100  MISS %:          0   MPKI: 0
PSCL4prefetch_cycle_count: 0 prefetches_per_prefetch_cycle: -nan
PSCL4 PREFETCH  REQUESTED:          0  ISSUED:          0  USEFUL:          0  USELESS:          0
PSCL4 USEFUL LOAD PREFETCHES:          0 PREFETCH ISSUED TO LOWER LEVEL:          0  ACCURACY: -nan
PSCL4 TIMELY PREFETCHES:          0 LATE PREFETCHES: 0 DROPPED PREFETCHES: 0
PSCL4 PREFETCHES SAME FILL-ORIGIN LEVEL: 0 DIFFERENT FILL-ORIGIN LEVEL: 0

PSCL3 TOTAL     ACCESS:       4167  HIT:       4150  MISS:         17  HIT %:     99.592  MISS %:   0.407967   MPKI: 0.00034
PSCL3 LOAD TRANSLATION ACCESS:       3851  HIT:       3834  MISS:         17  HIT %:    99.5586  MISS %:   0.441444   MPKI: 0.00034
PSCL3 TRANSLATION FROM L1D PREFETCHER ACCESS:        316  HIT:        316  MISS:          0  HIT %:        100  MISS %:          0   MPKI: 0
PSCL3prefetch_cycle_count: 0 prefetches_per_prefetch_cycle: -nan
PSCL3 PREFETCH  REQUESTED:          0  ISSUED:          0  USEFUL:          0  USELESS:          0
PSCL3 USEFUL LOAD PREFETCHES:          0 PREFETCH ISSUED TO LOWER LEVEL:          0  ACCURACY: -nan
PSCL3 TIMELY PREFETCHES:          0 LATE PREFETCHES: 0 DROPPED PREFETCHES: 0
PSCL3 PREFETCHES SAME FILL-ORIGIN LEVEL: 0 DIFFERENT FILL-ORIGIN LEVEL: 0

PSCL2 TOTAL     ACCESS:       4226  HIT:       4052  MISS:        174  HIT %:    95.8826  MISS %:    4.11737   MPKI: 0.00348
PSCL2 LOAD TRANSLATION ACCESS:       3918  HIT:       3744  MISS:        174  HIT %:     95.559  MISS %:    4.44104   MPKI: 0.00348
PSCL2 TRANSLATION FROM L1D PREFETCHER ACCESS:        308  HIT:        308  MISS:          0  HIT %:        100  MISS %:          0   MPKI: 0
PSCL2prefetch_cycle_count: 0 prefetches_per_prefetch_cycle: -nan
PSCL2 PREFETCH  REQUESTED:          0  ISSUED:          0  USEFUL:          0  USELESS:          0
PSCL2 USEFUL LOAD PREFETCHES:          0 PREFETCH ISSUED TO LOWER LEVEL:          0  ACCURACY: -nan
PSCL2 TIMELY PREFETCHES:          0 LATE PREFETCHES: 0 DROPPED PREFETCHES: 0
PSCL2 PREFETCHES SAME FILL-ORIGIN LEVEL: 0 DIFFERENT FILL-ORIGIN LEVEL: 0

LLC TOTAL     ACCESS:     264161  HIT:     122388  MISS:     141773  HIT %:    46.3308  MISS %:    53.6692   MPKI: 2.83546
LLC LOAD      ACCESS:      92196  HIT:      30282  MISS:      61914  HIT %:    32.8452  MISS %:    67.1548   MPKI: 1.23828
LLC RFO       ACCESS:      43430  HIT:       4930  MISS:      38500  HIT %:    11.3516  MISS %:    88.6484   MPKI: 0.77
LLC PREFETCH  ACCESS:      57296  HIT:      20158  MISS:      37138  HIT %:    35.1822  MISS %:    64.8178   MPKI: 0.74276
LLC WRITEBACK ACCESS:      69445  HIT:      66364  MISS:       3081  HIT %:    95.5634  MISS %:     4.4366   MPKI: 0.06162
LLC LOAD TRANSLATION ACCESS:       1595  HIT:        568  MISS:       1027  HIT %:    35.6113  MISS %:    64.3887   MPKI: 0.02054
LLC TRANSLATION FROM L1D PREFETCHER ACCESS:        199  HIT:         86  MISS:        113  HIT %:    43.2161  MISS %:    56.7839   MPKI: 0.00226
LLCprefetch_cycle_count: 0 prefetches_per_prefetch_cycle: -nan
LLC PREFETCH  REQUESTED:          0  ISSUED:          0  USEFUL:       3884  USELESS:      37690
LLC USEFUL LOAD PREFETCHES:       3884 PREFETCH ISSUED TO LOWER LEVEL:      37138  ACCURACY: 10.4583
LLC TIMELY PREFETCHES:       3884 LATE PREFETCHES: 0 DROPPED PREFETCHES: 0
LLC PREFETCHES SAME FILL-ORIGIN LEVEL: 0 DIFFERENT FILL-ORIGIN LEVEL: 0
LLC AVERAGE MISS LATENCY: 163.159 cycles
LLC RQ	ACCESS:     137421	FORWARD:          0	MERGED:          0	TO_CACHE:     137420
LLC WQ	ACCESS:      69445	FORWARD:          1	MERGED:          0	TO_CACHE:      69445
LLC PQ	ACCESS:      57296	FORWARD:          0	MERGED:          0	TO_CACHE:      57296

LLC Dense regions hint to LLC: 0

RAW hits: 1069488
Loads Generated: 13879936
Loads sent to L1D: 12810447
Stores Generated: 5437650
Stores sent to L1D: 5437654
Major fault: 0 Minor fault: 4494
Allocated PAGES: 4494
I-Shadow cache 408 bytes
Touched + WorthPF tables 6144 bytes 
MMA filter 174 bytes 
FNL filter 272 bytes 
TOTAL PREFETCHER STORAGE SIZE: 25174 bytes
CPU 0 L1I next line prefetcher final stats

total_pref_operate_instances_l1: 8852424
dynamic_config_counter_instances_1: 8030213
dynamic_config_counter_instances_2: 12724
dynamic_config_counter_instances_3: 15236
dynamic_config_counter_instances_4: 8891
dynamic_config_counter_instances_5: 785360
stream: 
stream:times selected: 2537367
stream:pref_filled: 308140
stream:pref_useful: 63212
stream:pref_late: 8246
stream:misses: 45137
stream:misses_by_poll: 0

CS: 
CS:times selected: 366625
CS:pref_filled: 154597
CS:pref_useful: 131633
CS:pref_late: 13266
CS:misses: 38716
CS:misses_by_poll: 36

CPLX: 
CPLX:times selected: 2159148
CPLX:pref_filled: 100631
CPLX:pref_useful: 17498
CPLX:pref_late: 1444
CPLX:misses: 190087
CPLX:misses_by_poll: 7

NL_L1: 
NL:times selected: 361608
NL:pref_filled: 82923
NL:pref_useful: 25642
NL:pref_late: 3533
NL:misses: 91286
NL:misses_by_poll: 99

total selections: 5424748
total_filled: 157371
total_useful: 78948
total_late: 28207
total_polluted: 142
total_misses_after_warmup: 495593
conflicts: 1706009
Degree Incremented Times: 37334
Degree Decremented Times: 126439

L1 IP Table Write Accesses: 6414736
L1 IP Table Read Accesses: 4708727
L1 RST Write Accesses: 961056
L1 RST Read Accesses: 1922112
L1 CSPT Write Accesses: 961056
L1 CSPT Read Accesses: 1098793
L1 RR Filter Tag Write Accesses: 475956
L1 RR Filter Tag Read Accesses: 26557342
L1 IP Table Tag Write Accesses: 8852424
L1 IP Table Tag Read Accesses: 8852424
L1 RST Tag Write Accesses: 0
L1 RST Tag Read Accesses: 9093479
L1 RR Filter Write Accesses: 0
L1 RR Filter Read Accesses: 911850
test: 837949

DRAM Statistics
 CHANNEL 0
 RQ ROW_BUFFER_HIT:      28491  ROW_BUFFER_MISS:     110199
 DBUS_CONGESTED:         83
 WQ ROW_BUFFER_HIT:      11167  ROW_BUFFER_MISS:      46954  FULL:          0

 AVG_CONGESTED_CYCLE: 4
 All warmup complete: 2
Channel 0 Bank busy for read cycles: 0
Channel 0 Bank busy for write cycles: 0
Channel 0
Rank 0
0banks busy for read cycles: 53689668
0banks busy for write cycles: 20954
1banks busy for read cycles: 6720756
1banks busy for write cycles: 2958074
2banks busy for read cycles: 2522886
2banks busy for write cycles: 1043710
3banks busy for read cycles: 965971
3banks busy for write cycles: 532107
4banks busy for read cycles: 298353
4banks busy for write cycles: 302715
5banks busy for read cycles: 133399
5banks busy for write cycles: 188474
6banks busy for read cycles: 71150
6banks busy for write cycles: 121353
7banks busy for read cycles: 47029
7banks busy for write cycles: 97947
8banks busy for read cycles: 88130
8banks busy for write cycles: 318933

CPU 0 Branch Prediction Accuracy: 98.8607% MPKI: 1.8623 Average ROB Occupancy at Mispredict: 72.71
Branch types
NOT_BRANCH: 41826774 83.6535%
BRANCH_DIRECT_JUMP: 735331 1.47066%
BRANCH_INDIRECT: 269194 0.538388%
BRANCH_CONDITIONAL: 5957947 11.9159%
BRANCH_DIRECT_CALL: 368758 0.737516%
BRANCH_INDIRECT_CALL: 226975 0.45395%
BRANCH_RETURN: 614696 1.22939%
BRANCH_OTHER: 0 0%

DRAM PAGES: 1048576
Allocated PAGES: 4494
