
*** ChampSim Multicore Out-of-Order Simulator ***

Warmup Instructions: 50000000
Simulation Instructions: 50000000
Number of CPUs: 1
LLC sets: 2048
LLC ways: 16
Off-chip DRAM Size: 4096 MB Channels: 1 Width: 64-bit Data Rate: 6400 MT/s
CPU 0 runs ../IPC-traces//client_005.champsimtrace.xz
.xz
NUM_OF_IPS_IN_CRITICAL_IP_TRAINING: 64
NUM_OF_CRITICAL_IP_TRAINING_TABLE_WAYS: 2
NUM_OF_CRITICAL_IP_TRAINING_TABLE_SETS: 32
WOBBLY_CRITICAL_IP_CACHE_SETS: 32
WOBBLY_CRITICAL_IP_CACHE_WAYS: 4
BTB has LRU replacement policy
ITLB has LRU replacement policy
DTLB has LRU replacement policy
STLB has LRU replacement policy
CPU 0 L1I next line prefetcher
L1I has LRU replacement policy
IP Table Entries: 64
L1D has LRU replacement policy
Initialize SRRIP state for L2C
Initialize DRRIP state for LLC
Heartbeat CPU 0 instructions: 10000001 cycles: 2800429 heartbeat IPC: 3.57088 cumulative IPC: 3.57088 (Simulation time: 0 hr 3 min 0 sec) 
Heartbeat CPU 0 instructions: 20000002 cycles: 5596270 heartbeat IPC: 3.57674 cumulative IPC: 3.57381 (Simulation time: 0 hr 5 min 35 sec) 
Heartbeat CPU 0 instructions: 30000001 cycles: 8444977 heartbeat IPC: 3.51036 cumulative IPC: 3.55241 (Simulation time: 0 hr 8 min 12 sec) 
Heartbeat CPU 0 instructions: 40000000 cycles: 11291601 heartbeat IPC: 3.51293 cumulative IPC: 3.54246 (Simulation time: 0 hr 10 min 30 sec) 
Heartbeat CPU 0 instructions: 50000001 cycles: 14064778 heartbeat IPC: 3.60597 cumulative IPC: 3.55498 (Simulation time: 0 hr 12 min 31 sec) 

Warmup complete CPU 0 instructions: 50000001 cycles: 14064778 (Simulation time: 0 hr 12 min 31 sec) 

% increase in all ip prefetch 398.342
% increase in all ip prefetch 10.7568
% increase in all ip prefetch 10.643
% increase in all ip prefetch 5.49166
% increase in all ip prefetch -5.67174
Heartbeat CPU 0 instructions: 60000001 cycles: 29802284 heartbeat IPC: 0.635425 cumulative IPC: 0.635425 (Simulation time: 0 hr 15 min 6 sec) 
Heartbeat CPU 0 instructions: 70000002 cycles: 44283130 heartbeat IPC: 0.690567 cumulative IPC: 0.661849 (Simulation time: 0 hr 17 min 41 sec) 
Heartbeat CPU 0 instructions: 80000003 cycles: 57390033 heartbeat IPC: 0.762957 cumulative IPC: 0.692437 (Simulation time: 0 hr 20 min 17 sec) 
Heartbeat CPU 0 instructions: 90000002 cycles: 73017264 heartbeat IPC: 0.639909 cumulative IPC: 0.678513 (Simulation time: 0 hr 23 min 0 sec) 
Heartbeat CPU 0 instructions: 100000002 cycles: 88226683 heartbeat IPC: 0.657487 cumulative IPC: 0.674201 (Simulation time: 0 hr 25 min 18 sec) 
Finished CPU 0 instructions: 50000001 cycles: 74161905 cumulative IPC: 0.674201 (Simulation time: 0 hr 25 min 18 sec) 

ChampSim completed all CPUs

Region of Interest Statistics

CPU 0 cumulative IPC: 0.674201 instructions: 50000001 cycles: 74161905

CPU 0 Average Load ROB stall cycles: 1.72563e+07
CPU 0 Fraction of times ROB stalled by Loads: 34.3449
CPU 0 Percentage of Load stall cycles in Total stall cycles: 2.41248e+08
Issued all: 27215066
Issued LT all: 21510201
rob_not_full_when_issued_lt_all: 20377396
Issued LT one: 16263081
rob_not_full_when_issued_lt_one: 15244220
critical_ip_candidate_identification_operations: 5823316
critical_ip_candidate_identification_operation_per_cycle: 0.0785217
 Total stall cycles: 60640499
 Total load stall cycles: 146293837033681
Unique Load IPs: 41101
CPU 0 NUM of IPS identified critical: 159
CPU 0 Num of Load IPs stalling ROB: 27662
Threshold modification factor: -4
Max PIST entries: 64
Min PIST entries: 0
Avg PIST entries: 31.94
Trouble in retire width: 0.870349
MaC = Marked as critical.
lt_50_percent_before_Mac: 108
gt_90_percent_before_Mac: 7
gt_75_percent_before_Mac: 11
gt_50_percent_before_Mac: 33
stall_proportion_bin_same_before_after: 0
stall_proportion_bin_lower_before_after: 0
stall_proportion_bin_upper_before_after: 0
average_stall_proportion_before: 0.059952
average_stall_proportion_after: 0.0605416
Critical IP stalls, total frequency: 366589
Non-critical IP stalls, total frequency: 2545069
Total Freq all stalling IPs: 2911658
Critical_IP_Detector_Accuracy_70: 0.54717
Critical_IP_Detector_Accuracy_80: 0.716981
Critical_IP_Detector_Accuracy_90: 0.937107
Critical_IP_Detector_Coverage_70: 0.120833
Critical_IP_Detector_Coverage_80: 0.083947
Critical_IP_Detector_Coverage_90: 0.0512732
stat_90_percent_critical_ip_stalls_freq: 2620578
stat_90_percent_non_critical_ip_stalls_freq: 291080
AVERAGE_ROB_Occupancy_90_Percent_Critical_IP_Stalls: 72.5252
AVERAGE_ROB_Occupancy_90_Percent_Non_Critical_IP_Stalls: 37.5342
Critical_IP_ROB_Stalls_Bucket_0: 119207
Non-critical_IP_ROB_Stalls_Bucket_0: 1318951
Critical_IP_ROB_Stalls_Bucket_1: 104880
Non-critical_IP_ROB_Stalls_Bucket_1: 725896
Critical_IP_ROB_Stalls_Bucket_2: 52431
Non-critical_IP_ROB_Stalls_Bucket_2: 330903
Critical_IP_ROB_Stalls_Bucket_3: 31081
Non-critical_IP_ROB_Stalls_Bucket_3: 106089
Critical_IP_ROB_Stalls_Bucket_4: 14740
Non-critical_IP_ROB_Stalls_Bucket_4: 36279
Critical_IP_ROB_Stalls_Bucket_5: 12590
Non-critical_IP_ROB_Stalls_Bucket_5: 16747
Critical_IP_ROB_Stalls_Bucket_6: 31660
Non-critical_IP_ROB_Stalls_Bucket_6: 10204
0 => IPs accounting for >50 percent of stalls, 1 => 55, 2 => 60, 3 => 65 and so on till 90.
percent50: 50.0368 num IPs:  199
percent55: 55.0237 num IPs: 279
percent60: 60.0186 num IPs: 389
percent65: 65.0199 num IPs: 528
percent70: 70.0027 num IPs: 720
percent75: 75.0021 num IPs: 989
percent80: 80.0038 num IPs: 1358
percent85: 85.0065 num IPs: 1917
percent90: 90.003 num IPs: 2906
Critical_ROB_Stalls_Percent_0_Bucket_0: 534065
Non-critical_ROB_Stalls_Percent_0_Bucket_0: 904093
Critical_ROB_Stalls_Percent_0_Bucket_1: 487026
Non-critical_ROB_Stalls_Percent_0_Bucket_1: 343750
Critical_ROB_Stalls_Percent_0_Bucket_2: 264094
Non-critical_ROB_Stalls_Percent_0_Bucket_2: 119240
Critical_ROB_Stalls_Percent_0_Bucket_3: 94123
Non-critical_ROB_Stalls_Percent_0_Bucket_3: 43047
Critical_ROB_Stalls_Percent_0_Bucket_4: 30571
Non-critical_ROB_Stalls_Percent_0_Bucket_4: 20448
Critical_ROB_Stalls_Percent_0_Bucket_5: 20274
Non-critical_ROB_Stalls_Percent_0_Bucket_5: 9063
Critical_ROB_Stalls_Percent_0_Bucket_6: 26749
Non-critical_ROB_Stalls_Percent_0_Bucket_6: 15115
Critical_ROB_Stalls_Percent_1_Bucket_0: 609464
Non-critical_ROB_Stalls_Percent_1_Bucket_0: 828694
Critical_ROB_Stalls_Percent_1_Bucket_1: 530092
Non-critical_ROB_Stalls_Percent_1_Bucket_1: 300684
Critical_ROB_Stalls_Percent_1_Bucket_2: 277491
Non-critical_ROB_Stalls_Percent_1_Bucket_2: 105843
Critical_ROB_Stalls_Percent_1_Bucket_3: 99448
Non-critical_ROB_Stalls_Percent_1_Bucket_3: 37722
Critical_ROB_Stalls_Percent_1_Bucket_4: 32820
Non-critical_ROB_Stalls_Percent_1_Bucket_4: 18199
Critical_ROB_Stalls_Percent_1_Bucket_5: 21386
Non-critical_ROB_Stalls_Percent_1_Bucket_5: 7951
Critical_ROB_Stalls_Percent_1_Bucket_6: 31401
Non-critical_ROB_Stalls_Percent_1_Bucket_6: 10463
Critical_ROB_Stalls_Percent_2_Bucket_0: 682365
Non-critical_ROB_Stalls_Percent_2_Bucket_0: 755793
Critical_ROB_Stalls_Percent_2_Bucket_1: 572870
Non-critical_ROB_Stalls_Percent_2_Bucket_1: 257906
Critical_ROB_Stalls_Percent_2_Bucket_2: 292288
Non-critical_ROB_Stalls_Percent_2_Bucket_2: 91046
Critical_ROB_Stalls_Percent_2_Bucket_3: 105125
Non-critical_ROB_Stalls_Percent_2_Bucket_3: 32045
Critical_ROB_Stalls_Percent_2_Bucket_4: 38060
Non-critical_ROB_Stalls_Percent_2_Bucket_4: 12959
Critical_ROB_Stalls_Percent_2_Bucket_5: 22934
Non-critical_ROB_Stalls_Percent_2_Bucket_5: 6403
Critical_ROB_Stalls_Percent_2_Bucket_6: 33896
Non-critical_ROB_Stalls_Percent_2_Bucket_6: 7968
Critical_ROB_Stalls_Percent_3_Bucket_0: 748380
Non-critical_ROB_Stalls_Percent_3_Bucket_0: 689778
Critical_ROB_Stalls_Percent_3_Bucket_1: 621726
Non-critical_ROB_Stalls_Percent_3_Bucket_1: 209050
Critical_ROB_Stalls_Percent_3_Bucket_2: 311903
Non-critical_ROB_Stalls_Percent_3_Bucket_2: 71431
Critical_ROB_Stalls_Percent_3_Bucket_3: 111542
Non-critical_ROB_Stalls_Percent_3_Bucket_3: 25628
Critical_ROB_Stalls_Percent_3_Bucket_4: 40858
Non-critical_ROB_Stalls_Percent_3_Bucket_4: 10161
Critical_ROB_Stalls_Percent_3_Bucket_5: 24087
Non-critical_ROB_Stalls_Percent_3_Bucket_5: 5250
Critical_ROB_Stalls_Percent_3_Bucket_6: 34661
Non-critical_ROB_Stalls_Percent_3_Bucket_6: 7203
Critical_ROB_Stalls_Percent_4_Bucket_0: 843237
Non-critical_ROB_Stalls_Percent_4_Bucket_0: 594921
Critical_ROB_Stalls_Percent_4_Bucket_1: 651645
Non-critical_ROB_Stalls_Percent_4_Bucket_1: 179131
Critical_ROB_Stalls_Percent_4_Bucket_2: 324301
Non-critical_ROB_Stalls_Percent_4_Bucket_2: 59033
Critical_ROB_Stalls_Percent_4_Bucket_3: 115433
Non-critical_ROB_Stalls_Percent_4_Bucket_3: 21737
Critical_ROB_Stalls_Percent_4_Bucket_4: 42729
Non-critical_ROB_Stalls_Percent_4_Bucket_4: 8290
Critical_ROB_Stalls_Percent_4_Bucket_5: 24992
Non-critical_ROB_Stalls_Percent_4_Bucket_5: 4345
Critical_ROB_Stalls_Percent_4_Bucket_6: 35899
Non-critical_ROB_Stalls_Percent_4_Bucket_6: 5965
Critical_ROB_Stalls_Percent_5_Bucket_0: 928678
Non-critical_ROB_Stalls_Percent_5_Bucket_0: 509480
Critical_ROB_Stalls_Percent_5_Bucket_1: 689782
Non-critical_ROB_Stalls_Percent_5_Bucket_1: 140994
Critical_ROB_Stalls_Percent_5_Bucket_2: 337508
Non-critical_ROB_Stalls_Percent_5_Bucket_2: 45826
Critical_ROB_Stalls_Percent_5_Bucket_3: 120146
Non-critical_ROB_Stalls_Percent_5_Bucket_3: 17024
Critical_ROB_Stalls_Percent_5_Bucket_4: 44608
Non-critical_ROB_Stalls_Percent_5_Bucket_4: 6411
Critical_ROB_Stalls_Percent_5_Bucket_5: 26141
Non-critical_ROB_Stalls_Percent_5_Bucket_5: 3196
Critical_ROB_Stalls_Percent_5_Bucket_6: 36945
Non-critical_ROB_Stalls_Percent_5_Bucket_6: 4919
Critical_ROB_Stalls_Percent_6_Bucket_0: 1019145
Non-critical_ROB_Stalls_Percent_6_Bucket_0: 419013
Critical_ROB_Stalls_Percent_6_Bucket_1: 728738
Non-critical_ROB_Stalls_Percent_6_Bucket_1: 102038
Critical_ROB_Stalls_Percent_6_Bucket_2: 346984
Non-critical_ROB_Stalls_Percent_6_Bucket_2: 36350
Critical_ROB_Stalls_Percent_6_Bucket_3: 123770
Non-critical_ROB_Stalls_Percent_6_Bucket_3: 13400
Critical_ROB_Stalls_Percent_6_Bucket_4: 46023
Non-critical_ROB_Stalls_Percent_6_Bucket_4: 4996
Critical_ROB_Stalls_Percent_6_Bucket_5: 26896
Non-critical_ROB_Stalls_Percent_6_Bucket_5: 2441
Critical_ROB_Stalls_Percent_6_Bucket_6: 37874
Non-critical_ROB_Stalls_Percent_6_Bucket_6: 3990
Critical_ROB_Stalls_Percent_7_Bucket_0: 1114953
Non-critical_ROB_Stalls_Percent_7_Bucket_0: 323205
Critical_ROB_Stalls_Percent_7_Bucket_1: 758919
Non-critical_ROB_Stalls_Percent_7_Bucket_1: 71857
Critical_ROB_Stalls_Percent_7_Bucket_2: 358655
Non-critical_ROB_Stalls_Percent_7_Bucket_2: 24679
Critical_ROB_Stalls_Percent_7_Bucket_3: 127287
Non-critical_ROB_Stalls_Percent_7_Bucket_3: 9883
Critical_ROB_Stalls_Percent_7_Bucket_4: 47535
Non-critical_ROB_Stalls_Percent_7_Bucket_4: 3484
Critical_ROB_Stalls_Percent_7_Bucket_5: 27827
Non-critical_ROB_Stalls_Percent_7_Bucket_5: 1510
Critical_ROB_Stalls_Percent_7_Bucket_6: 39927
Non-critical_ROB_Stalls_Percent_7_Bucket_6: 1937
Critical_ROB_Stalls_Percent_8_Bucket_0: 1211685
Non-critical_ROB_Stalls_Percent_8_Bucket_0: 226473
Critical_ROB_Stalls_Percent_8_Bucket_1: 788739
Non-critical_ROB_Stalls_Percent_8_Bucket_1: 42037
Critical_ROB_Stalls_Percent_8_Bucket_2: 369896
Non-critical_ROB_Stalls_Percent_8_Bucket_2: 13438
Critical_ROB_Stalls_Percent_8_Bucket_3: 132118
Non-critical_ROB_Stalls_Percent_8_Bucket_3: 5052
Critical_ROB_Stalls_Percent_8_Bucket_4: 49024
Non-critical_ROB_Stalls_Percent_8_Bucket_4: 1995
Critical_ROB_Stalls_Percent_8_Bucket_5: 28507
Non-critical_ROB_Stalls_Percent_8_Bucket_5: 830
Critical_ROB_Stalls_Percent_8_Bucket_6: 40609
Non-critical_ROB_Stalls_Percent_8_Bucket_6: 1255
Average ROB occupancy Load Stall Begin: 59.4382
Average ROB occupancy Load Stall End: 69.0272
Min ROB occupancy Load Stall Begin: 1
Max ROB occupancy Load Stall Begin: 352
Min ROB occupancy Load Stall End: 1
Max ROB occupancy Load Stall End: 352
Average ROB occupancy Critical Load Stall Begin: 108.8
Average ROB occupancy Critical Load Stall End: 119.667
Min ROB occupancy Critical Load Stall Begin: 1
Max ROB occupancy Critical Load Stall Begin: 352
Min ROB occupancy Critical Load Stall End: 1
Max ROB occupancy Critical Load Stall End: 352
 ROB Load Stall Begin Bucket Count 0: 1692933
 ROB Load Stall End Bucket Count 0: 1438158
 ROB Critical Load Stall Begin Bucket Count 0: 105324
 ROB Critical Load Stall End Bucket Count 0: 77972
 ROB Load Stall Begin Bucket Count 1: 701038
 ROB Load Stall End Bucket Count 1: 830776
 ROB Critical Load Stall Begin Bucket Count 1: 58330
 ROB Critical Load Stall End Bucket Count 1: 74198
 ROB Load Stall Begin Bucket Count 2: 311431
 ROB Load Stall End Bucket Count 2: 383334
 ROB Critical Load Stall Begin Bucket Count 2: 38024
 ROB Critical Load Stall End Bucket Count 2: 41692
 ROB Load Stall Begin Bucket Count 3: 104260
 ROB Load Stall End Bucket Count 3: 137170
 ROB Critical Load Stall Begin Bucket Count 3: 21932
 ROB Critical Load Stall End Bucket Count 3: 26126
 ROB Load Stall Begin Bucket Count 4: 39998
 ROB Load Stall End Bucket Count 4: 51019
 ROB Critical Load Stall Begin Bucket Count 4: 10799
 ROB Critical Load Stall End Bucket Count 4: 11707
 ROB Load Stall Begin Bucket Count 5: 25884
 ROB Load Stall End Bucket Count 5: 29337
 ROB Critical Load Stall Begin Bucket Count 5: 11158
 ROB Critical Load Stall End Bucket Count 5: 10969
 ROB Load Stall Begin Bucket Count 6: 36114
 ROB Load Stall End Bucket Count 6: 41864
 ROB Critical Load Stall Begin Bucket Count 6: 25321
 ROB Critical Load Stall End Bucket Count 6: 28224
PIST Tag Read Accesses: 4626142
PIST Read Accesses: 2313071
PIST Tag Write Accesses: 4626142
PIST Write Accesses: 2313071
Criticality detector called times: 2653443
Max global_stall_cycles_count: 4402423
Threshold Modified: 4 times, factor: -4
Sturdy critical IP cache stats: 
 Unused entries: 0
CIC Tag Read Accesses: 0
CIC Read Accesses: 0
CIC Tag Write Accesses: 0
CIC Write Accesses: 0
Wobbly critical IP cache stats: 
 Unused entries: 14
CIC Tag Read Accesses: 80049699
CIC Read Accesses: 0
CIC Tag Write Accesses: 55636
CIC Write Accesses: 0
ITLB TOTAL     ACCESS:    9248161  HIT:    9129103  MISS:     119058  HIT %:    98.7126  MISS %:    1.28737   MPKI: 2.38116
ITLB LOAD TRANSLATION ACCESS:    8276492  HIT:    8218262  MISS:      58230  HIT %:    99.2964  MISS %:   0.703559   MPKI: 1.1646
ITLB TRANSLATION FROM L1D PREFETCHER ACCESS:     971669  HIT:     910841  MISS:      60828  HIT %:    93.7398  MISS %:    6.26016   MPKI: 1.21656
ITLBprefetch_cycle_count: 0 prefetches_per_prefetch_cycle: -nan
ITLB PREFETCH  REQUESTED:          0  ISSUED:          0  USEFUL:      48825  USELESS:      12007
ITLB USEFUL LOAD PREFETCHES:      48825 PREFETCH ISSUED TO LOWER LEVEL:          0  ACCURACY: inf
ITLB TIMELY PREFETCHES:      48825 LATE PREFETCHES: 344 DROPPED PREFETCHES: 337
ITLB PREFETCHES SAME FILL-ORIGIN LEVEL: 0 DIFFERENT FILL-ORIGIN LEVEL: 0
ITLB AVERAGE MISS LATENCY: 138245 cycles
ITLB RQ	ACCESS:   12548445	FORWARD:          0	MERGED:    3280559	TO_CACHE:    9267886

DTLB TOTAL     ACCESS:   10412996  HIT:   10211628  MISS:     201368  HIT %:    98.0662  MISS %:    1.93381   MPKI: 4.02736
DTLB LOAD TRANSLATION ACCESS:   10412996  HIT:   10211628  MISS:     201368  HIT %:    98.0662  MISS %:    1.93381   MPKI: 4.02736
DTLBprefetch_cycle_count: 0 prefetches_per_prefetch_cycle: -nan
DTLB PREFETCH  REQUESTED:          0  ISSUED:          0  USEFUL:          0  USELESS:          0
DTLB USEFUL LOAD PREFETCHES:          0 PREFETCH ISSUED TO LOWER LEVEL:          0  ACCURACY: -nan
DTLB TIMELY PREFETCHES:          0 LATE PREFETCHES: 0 DROPPED PREFETCHES: 0
DTLB PREFETCHES SAME FILL-ORIGIN LEVEL: 0 DIFFERENT FILL-ORIGIN LEVEL: 0
DTLB AVERAGE MISS LATENCY: 12.9232 cycles
DTLB RQ	ACCESS:   14352436	FORWARD:          0	MERGED:    3908661	TO_CACHE:   10443775

STLB TOTAL     ACCESS:     397475  HIT:     385570  MISS:      11905  HIT %:    97.0048  MISS %:    2.99516   MPKI: 0.2381
STLB LOAD TRANSLATION ACCESS:     259256  HIT:     248174  MISS:      11082  HIT %:    95.7255  MISS %:    4.27454   MPKI: 0.22164
STLB TRANSLATION FROM L1D PREFETCHER ACCESS:     138219  HIT:     137396  MISS:        823  HIT %:    99.4046  MISS %:   0.595432   MPKI: 0.01646
STLBprefetch_cycle_count: 0 prefetches_per_prefetch_cycle: -nan
STLB PREFETCH  REQUESTED:          0  ISSUED:          0  USEFUL:        585  USELESS:        241
STLB USEFUL LOAD PREFETCHES:        585 PREFETCH ISSUED TO LOWER LEVEL:          0  ACCURACY: inf
STLB TIMELY PREFETCHES:        585 LATE PREFETCHES: 0 DROPPED PREFETCHES: 339
STLB PREFETCHES SAME FILL-ORIGIN LEVEL: 0 DIFFERENT FILL-ORIGIN LEVEL: 0
STLB AVERAGE MISS LATENCY: 80.5966 cycles
STLB RQ	ACCESS:     448321	FORWARD:          0	MERGED:      50507	TO_CACHE:     397814

STLB Hit, L1D data hit: 0
STLB Hit, L2C data hit: 0
STLB Hit, LLC data hit: 0
STLB Hit, LLC data miss: 0
STLB STLB hints to L2: 0
L1D TOTAL     ACCESS:   13978558  HIT:   13563730  MISS:     414828  HIT %:    97.0324  MISS %:     2.9676   MPKI: 8.29656
L1D LOAD      ACCESS:    7060881  HIT:    6882436  MISS:     178445  HIT %:    97.4728  MISS %:    2.52723   MPKI: 3.5689
L1D RFO       ACCESS:    6794613  HIT:    6599919  MISS:     194694  HIT %:    97.1346  MISS %:    2.86542   MPKI: 3.89388
L1D PREFETCH  ACCESS:     123064  HIT:      81375  MISS:      41689  HIT %:    66.1241  MISS %:    33.8759   MPKI: 0.83378
L1Dprefetch_cycle_count: 78412 prefetches_per_prefetch_cycle: 3.25409
L1D PREFETCH  REQUESTED:     255172  ISSUED:     255160  USEFUL:      18120  USELESS:      23558
L1D USEFUL LOAD PREFETCHES:      18120 PREFETCH ISSUED TO LOWER LEVEL:      43909  ACCURACY: 41.2672
L1D TIMELY PREFETCHES:      18120 LATE PREFETCHES: 2074 DROPPED PREFETCHES: 0
L1D PREFETCHES SAME FILL-ORIGIN LEVEL: 43909 DIFFERENT FILL-ORIGIN LEVEL: 0
L1D AVERAGE MISS LATENCY: 250611 cycles
L1D RQ	ACCESS:   10971709	FORWARD:          0	MERGED:    3727445	TO_CACHE:    7091995
L1D WQ	ACCESS:    7412318	FORWARD:     152317	MERGED:     151877	TO_CACHE:    7260441
L1D PQ	ACCESS:     127604	FORWARD:          0	MERGED:          0	TO_CACHE:     127556

L1D UNIQUE REGIONS ACCESSED: 0
L1D REGIONS CONFLICTS: 0
L1D Cross Page Prefetch Requests: 0
L1D Same Page Prefetch Requests: 138002
L1D ROI Sum of L1D PQ occupancy: 1697880
L1D PREFETCHES PUSHED FROM L2C: 0
L1I TOTAL     ACCESS:   12412944  HIT:   11343998  MISS:    1068946  HIT %:    91.3885  MISS %:    8.61154   MPKI: 21.3789
L1I LOAD      ACCESS:    9748819  HIT:    9478870  MISS:     269949  HIT %:     97.231  MISS %:    2.76904   MPKI: 5.39898
L1I PREFETCH  ACCESS:    2664125  HIT:    1865128  MISS:     798997  HIT %:     70.009  MISS %:     29.991   MPKI: 15.9799
L1Iprefetch_cycle_count: 0 prefetches_per_prefetch_cycle: inf
L1I PREFETCH  REQUESTED:    2916978  ISSUED:    2914213  USEFUL:     510543  USELESS:     288408
L1I USEFUL LOAD PREFETCHES:     510543 PREFETCH ISSUED TO LOWER LEVEL:     828628  ACCURACY: 61.6131
L1I TIMELY PREFETCHES:     510543 LATE PREFETCHES: 29631 DROPPED PREFETCHES: 707
L1I PREFETCHES SAME FILL-ORIGIN LEVEL: 828628 DIFFERENT FILL-ORIGIN LEVEL: 0
L1I AVERAGE MISS LATENCY: 1.31568e+06 cycles
L1I RQ	ACCESS:   14561276	FORWARD:          0	MERGED:    4775412	TO_CACHE:    9785864
L1I PQ	ACCESS:    2914213	FORWARD:          0	MERGED:     151632	TO_CACHE:    2762581

BTB TOTAL     ACCESS:    6897112  HIT:    6294074  MISS:     603038  HIT %:    91.2567  MISS %:    8.74334   MPKI: 12.0608
BTB BRANCH_DIRECT_JUMP	ACCESS:     484667  HIT:     467652  MISS:      17015
BTB BRANCH_INDIRECT	ACCESS:      85086  HIT:      43882  MISS:      41204
BTB BRANCH_CONDITIONAL	ACCESS:    3984632  HIT:    3933521  MISS:      51111
BTB BRANCH_DIRECT_CALL	ACCESS:    1028917  HIT:     994054  MISS:      34863
BTB BRANCH_INDIRECT_CALL	ACCESS:     141825  HIT:     105579  MISS:      36246
BTB BRANCH_RETURN	ACCESS:    1171985  HIT:     749386  MISS:     422599
BTB BRANCH_OTHER ACCESS:          0  HIT:          0  MISS:          0

L2C TOTAL     ACCESS:    2078426  HIT:    1666457  MISS:     411969  HIT %:    80.1788  MISS %:    19.8212   MPKI: 8.23938
L2C LOAD      ACCESS:     416686  HIT:     298454  MISS:     118232  HIT %:    71.6256  MISS %:    28.3744   MPKI: 2.36464
L2C DATA LOAD MPKI: 1.86986
L2C INSTRUCTION LOAD MPKI: 0.49478
L2C RFO       ACCESS:     194543  HIT:      32027  MISS:     162516  HIT %:    16.4627  MISS %:    83.5373   MPKI: 3.25032
L2C PREFETCH  ACCESS:    1211830  HIT:    1098168  MISS:     113662  HIT %:    90.6206  MISS %:    9.37937   MPKI: 2.27324
L2C DATA PREFETCH MPKI: 1.12004
L2C INSTRUCTION PREFETCH MPKI: 1.1532
L2C WRITEBACK ACCESS:     242202  HIT:     228840  MISS:      13362  HIT %:    94.4831  MISS %:    5.51688   MPKI: 0.26724
L2C LOAD TRANSLATION ACCESS:      11911  HIT:       8086  MISS:       3825  HIT %:    67.8868  MISS %:    32.1132   MPKI: 0.0765
L2C TRANSLATION FROM L1D PREFETCHER ACCESS:       1254  HIT:        882  MISS:        372  HIT %:    70.3349  MISS %:    29.6651   MPKI: 0.00744
L2Cprefetch_cycle_count: 720813 prefetches_per_prefetch_cycle: 1.00034
L2C PREFETCH  REQUESTED:     721061  ISSUED:     721061  USEFUL:      13545  USELESS:      98558
L2C USEFUL LOAD PREFETCHES:      13545 PREFETCH ISSUED TO LOWER LEVEL:     114013  ACCURACY: 11.8802
L2C TIMELY PREFETCHES:      13545 LATE PREFETCHES: 351 DROPPED PREFETCHES: 0
L2C PREFETCHES SAME FILL-ORIGIN LEVEL: 30829 DIFFERENT FILL-ORIGIN LEVEL: 0
L2C AVERAGE MISS LATENCY: 122.795 cycles
L2C RQ	ACCESS:     624402	FORWARD:          0	MERGED:          0	TO_CACHE:     624394
L2C WQ	ACCESS:     242202	FORWARD:          8	MERGED:          0	TO_CACHE:     242202
L2C PQ	ACCESS:    1593598	FORWARD:          0	MERGED:     379344	TO_CACHE:    1214254

L2C Instructions Evicting Data 53387
L2C Translations Evicting Data 3009
L2C Data Evicting Data 260334
L2C Instructions Evicting Instructions 27979
L2C Translations Evicting Instructions 1107
L2C Data Evicting Instructions 48756
L2C Instructions Evicting Translations 1033
L2C Translations Evicting Translations 81
L2C Data Evicting Translations 2921
L2C Dense regions hint from L2: 0
PSCL5 TOTAL     ACCESS:      12244  HIT:      12244  MISS:          0  HIT %:        100  MISS %:          0   MPKI: 0
PSCL5 LOAD TRANSLATION ACCESS:      11082  HIT:      11082  MISS:          0  HIT %:        100  MISS %:          0   MPKI: 0
PSCL5 TRANSLATION FROM L1D PREFETCHER ACCESS:       1162  HIT:       1162  MISS:          0  HIT %:        100  MISS %:          0   MPKI: 0
PSCL5prefetch_cycle_count: 0 prefetches_per_prefetch_cycle: -nan
PSCL5 PREFETCH  REQUESTED:          0  ISSUED:          0  USEFUL:          0  USELESS:          0
PSCL5 USEFUL LOAD PREFETCHES:          0 PREFETCH ISSUED TO LOWER LEVEL:          0  ACCURACY: -nan
PSCL5 TIMELY PREFETCHES:          0 LATE PREFETCHES: 0 DROPPED PREFETCHES: 0
PSCL5 PREFETCHES SAME FILL-ORIGIN LEVEL: 0 DIFFERENT FILL-ORIGIN LEVEL: 0

PSCL4 TOTAL     ACCESS:      12244  HIT:      12244  MISS:          0  HIT %:        100  MISS %:          0   MPKI: 0
PSCL4 LOAD TRANSLATION ACCESS:      11082  HIT:      11082  MISS:          0  HIT %:        100  MISS %:          0   MPKI: 0
PSCL4 TRANSLATION FROM L1D PREFETCHER ACCESS:       1162  HIT:       1162  MISS:          0  HIT %:        100  MISS %:          0   MPKI: 0
PSCL4prefetch_cycle_count: 0 prefetches_per_prefetch_cycle: -nan
PSCL4 PREFETCH  REQUESTED:          0  ISSUED:          0  USEFUL:          0  USELESS:          0
PSCL4 USEFUL LOAD PREFETCHES:          0 PREFETCH ISSUED TO LOWER LEVEL:          0  ACCURACY: -nan
PSCL4 TIMELY PREFETCHES:          0 LATE PREFETCHES: 0 DROPPED PREFETCHES: 0
PSCL4 PREFETCHES SAME FILL-ORIGIN LEVEL: 0 DIFFERENT FILL-ORIGIN LEVEL: 0

PSCL3 TOTAL     ACCESS:      12218  HIT:      12208  MISS:         10  HIT %:    99.9182  MISS %:  0.0818465   MPKI: 0.0002
PSCL3 LOAD TRANSLATION ACCESS:      11062  HIT:      11052  MISS:         10  HIT %:    99.9096  MISS %:  0.0903996   MPKI: 0.0002
PSCL3 TRANSLATION FROM L1D PREFETCHER ACCESS:       1156  HIT:       1156  MISS:          0  HIT %:        100  MISS %:          0   MPKI: 0
PSCL3prefetch_cycle_count: 0 prefetches_per_prefetch_cycle: -nan
PSCL3 PREFETCH  REQUESTED:          0  ISSUED:          0  USEFUL:          0  USELESS:          0
PSCL3 USEFUL LOAD PREFETCHES:          0 PREFETCH ISSUED TO LOWER LEVEL:          0  ACCURACY: -nan
PSCL3 TIMELY PREFETCHES:          0 LATE PREFETCHES: 0 DROPPED PREFETCHES: 0
PSCL3 PREFETCHES SAME FILL-ORIGIN LEVEL: 0 DIFFERENT FILL-ORIGIN LEVEL: 0

PSCL2 TOTAL     ACCESS:      12213  HIT:      11332  MISS:        881  HIT %:    92.7864  MISS %:    7.21362   MPKI: 0.01762
PSCL2 LOAD TRANSLATION ACCESS:      11141  HIT:      10260  MISS:        881  HIT %:    92.0923  MISS %:    7.90773   MPKI: 0.01762
PSCL2 TRANSLATION FROM L1D PREFETCHER ACCESS:       1072  HIT:       1072  MISS:          0  HIT %:        100  MISS %:          0   MPKI: 0
PSCL2prefetch_cycle_count: 0 prefetches_per_prefetch_cycle: -nan
PSCL2 PREFETCH  REQUESTED:          0  ISSUED:          0  USEFUL:          0  USELESS:          0
PSCL2 USEFUL LOAD PREFETCHES:          0 PREFETCH ISSUED TO LOWER LEVEL:          0  ACCURACY: -nan
PSCL2 TIMELY PREFETCHES:          0 LATE PREFETCHES: 0 DROPPED PREFETCHES: 0
PSCL2 PREFETCHES SAME FILL-ORIGIN LEVEL: 0 DIFFERENT FILL-ORIGIN LEVEL: 0

LLC TOTAL     ACCESS:     594931  HIT:     327687  MISS:     267244  HIT %:    55.0798  MISS %:    44.9202   MPKI: 5.34488
LLC LOAD      ACCESS:     117902  HIT:      54957  MISS:      62945  HIT %:    46.6124  MISS %:    53.3876   MPKI: 1.2589
LLC RFO       ACCESS:     162494  HIT:       8824  MISS:     153670  HIT %:    5.43035  MISS %:    94.5696   MPKI: 3.0734
LLC PREFETCH  ACCESS:     114013  HIT:      69878  MISS:      44135  HIT %:    61.2895  MISS %:    38.7105   MPKI: 0.8827
LLC WRITEBACK ACCESS:     196325  HIT:     191930  MISS:       4395  HIT %:    97.7614  MISS %:    2.23863   MPKI: 0.0879
LLC LOAD TRANSLATION ACCESS:       3825  HIT:       1902  MISS:       1923  HIT %:    49.7255  MISS %:    50.2745   MPKI: 0.03846
LLC TRANSLATION FROM L1D PREFETCHER ACCESS:        372  HIT:        196  MISS:        176  HIT %:    52.6882  MISS %:    47.3118   MPKI: 0.00352
LLCprefetch_cycle_count: 0 prefetches_per_prefetch_cycle: -nan
LLC PREFETCH  REQUESTED:          0  ISSUED:          0  USEFUL:       5494  USELESS:      33300
LLC USEFUL LOAD PREFETCHES:       5494 PREFETCH ISSUED TO LOWER LEVEL:      44135  ACCURACY: 12.4482
LLC TIMELY PREFETCHES:       5494 LATE PREFETCHES: 0 DROPPED PREFETCHES: 0
LLC PREFETCHES SAME FILL-ORIGIN LEVEL: 0 DIFFERENT FILL-ORIGIN LEVEL: 0
LLC AVERAGE MISS LATENCY: 144.504 cycles
LLC RQ	ACCESS:     284594	FORWARD:          0	MERGED:          0	TO_CACHE:     284593
LLC WQ	ACCESS:     196325	FORWARD:          1	MERGED:          0	TO_CACHE:     196325
LLC PQ	ACCESS:     114013	FORWARD:          0	MERGED:          0	TO_CACHE:     114013

LLC Dense regions hint to LLC: 0

RAW hits: 1820490
Loads Generated: 12792198
Loads sent to L1D: 10971709
Stores Generated: 7412307
Stores sent to L1D: 7412318
Major fault: 0 Minor fault: 6178
Allocated PAGES: 6178
I-Shadow cache 408 bytes
Touched + WorthPF tables 6144 bytes 
MMA filter 174 bytes 
FNL filter 272 bytes 
TOTAL PREFETCHER STORAGE SIZE: 25174 bytes
CPU 0 L1I next line prefetcher final stats

total_pref_operate_instances_l1: 1107761
dynamic_config_counter_instances_1: 255960
dynamic_config_counter_instances_2: 10264
dynamic_config_counter_instances_3: 13701
dynamic_config_counter_instances_4: 6995
dynamic_config_counter_instances_5: 820841
stream: 
stream:times selected: 182937
stream:pref_filled: 24482
stream:pref_useful: 7247
stream:pref_late: 393
stream:misses: 1349
stream:misses_by_poll: 0

CS: 
CS:times selected: 28843
CS:pref_filled: 13359
CS:pref_useful: 10023
CS:pref_late: 1337
CS:misses: 2950
CS:misses_by_poll: 248

CPLX: 
CPLX:times selected: 153238
CPLX:pref_filled: 5408
CPLX:pref_useful: 1023
CPLX:pref_late: 54
CPLX:misses: 9941
CPLX:misses_by_poll: 9

NL_L1: 
NL:times selected: 18705
NL:pref_filled: 2859
NL:pref_useful: 1156
NL:pref_late: 72
NL:misses: 2389
NL:misses_by_poll: 7

total selections: 383723
total_filled: 41689
total_useful: 18120
total_late: 2130
total_polluted: 264
total_misses_after_warmup: 47958
conflicts: 317144
Degree Incremented Times: 21
Degree Decremented Times: 17169

L1 IP Table Write Accesses: 734557
L1 IP Table Read Accesses: 417413
L1 RST Write Accesses: 176036
L1 RST Read Accesses: 352072
L1 CSPT Write Accesses: 176036
L1 CSPT Read Accesses: 323425
L1 RR Filter Tag Write Accesses: 127616
L1 RR Filter Tag Read Accesses: 10092487
L1 IP Table Tag Write Accesses: 1107761
L1 IP Table Tag Read Accesses: 1107761
L1 RST Tag Write Accesses: 0
L1 RST Tag Read Accesses: 1773577
L1 RR Filter Write Accesses: 0
L1 RR Filter Read Accesses: 398907
test: 46205
total_pref_operate_instances_l2: 799115
dynamic_config_counter_instances_l2_1: 790271
dynamic_config_counter_instances_l2_2: 5131
dynamic_config_counter_instances_l2_3: 3713
dynamic_config_counter_instances_l2_4: 0
dynamic_config_counter_instances_l2_5: 0
L2 IP Table Read Accesses: 865688
L2 IP Table Write Accesses: 1567164
L2 IP Table Tag Read Accesses: 799115
L2 IP Table Tag Write Accesses: 799115

DRAM Statistics
 CHANNEL 0
 RQ ROW_BUFFER_HIT:      88105  ROW_BUFFER_MISS:     174743
 DBUS_CONGESTED:        264
 WQ ROW_BUFFER_HIT:      35390  ROW_BUFFER_MISS:     146659  FULL:          0

 AVG_CONGESTED_CYCLE: 3
 All warmup complete: 2
Channel 0 Bank busy for read cycles: 0
Channel 0 Bank busy for write cycles: 0
Channel 0
Rank 0
0banks busy for read cycles: 45114658
0banks busy for write cycles: 45570
1banks busy for read cycles: 11047388
1banks busy for write cycles: 5282812
2banks busy for read cycles: 3345379
2banks busy for write cycles: 2584594
3banks busy for read cycles: 1040787
3banks busy for write cycles: 1164887
4banks busy for read cycles: 510433
4banks busy for write cycles: 546361
5banks busy for read cycles: 270557
5banks busy for write cycles: 389207
6banks busy for read cycles: 259770
6banks busy for write cycles: 351091
7banks busy for read cycles: 254569
7banks busy for write cycles: 440196
8banks busy for read cycles: 385257
8banks busy for write cycles: 1128390

CPU 0 Branch Prediction Accuracy: 97.8666% MPKI: 3.9013 Average ROB Occupancy at Mispredict: 48.714
Branch types
NOT_BRANCH: 40856330 81.7127%
BRANCH_DIRECT_JUMP: 484667 0.969334%
BRANCH_INDIRECT: 85086 0.170172%
BRANCH_CONDITIONAL: 6230887 12.4618%
BRANCH_DIRECT_CALL: 1028917 2.05783%
BRANCH_INDIRECT_CALL: 141825 0.28365%
BRANCH_RETURN: 1171985 2.34397%
BRANCH_OTHER: 0 0%

DRAM PAGES: 1048576
Allocated PAGES: 6178
