
*** ChampSim Multicore Out-of-Order Simulator ***

Warmup Instructions: 50000000
Simulation Instructions: 50000000
Number of CPUs: 1
LLC sets: 2048
LLC ways: 16
Off-chip DRAM Size: 4096 MB Channels: 1 Width: 64-bit Data Rate: 6400 MT/s
CPU 0 runs ../IPC-traces//client_004.champsimtrace.xz
.xz
NUM_OF_IPS_IN_CRITICAL_IP_TRAINING: 64
NUM_OF_CRITICAL_IP_TRAINING_TABLE_WAYS: 2
NUM_OF_CRITICAL_IP_TRAINING_TABLE_SETS: 32
WOBBLY_CRITICAL_IP_CACHE_SETS: 32
WOBBLY_CRITICAL_IP_CACHE_WAYS: 4
BTB has LRU replacement policy
ITLB has LRU replacement policy
DTLB has LRU replacement policy
STLB has LRU replacement policy
CPU 0 L1I next line prefetcher
L1I has LRU replacement policy
IP Table Entries: 64
L1D has LRU replacement policy
Initialize SRRIP state for L2C
Initialize DRRIP state for LLC
Heartbeat CPU 0 instructions: 10000000 cycles: 3024836 heartbeat IPC: 3.30596 cumulative IPC: 3.30596 (Simulation time: 0 hr 1 min 50 sec) 
Heartbeat CPU 0 instructions: 20000001 cycles: 5874942 heartbeat IPC: 3.50864 cumulative IPC: 3.40429 (Simulation time: 0 hr 3 min 32 sec) 
Heartbeat CPU 0 instructions: 30000001 cycles: 8872518 heartbeat IPC: 3.33603 cumulative IPC: 3.38123 (Simulation time: 0 hr 5 min 20 sec) 
Heartbeat CPU 0 instructions: 40000001 cycles: 11865109 heartbeat IPC: 3.34159 cumulative IPC: 3.37123 (Simulation time: 0 hr 7 min 10 sec) 
Heartbeat CPU 0 instructions: 50000002 cycles: 14858678 heartbeat IPC: 3.34049 cumulative IPC: 3.36504 (Simulation time: 0 hr 9 min 4 sec) 

Warmup complete CPU 0 instructions: 50000002 cycles: 14858678 (Simulation time: 0 hr 9 min 4 sec) 

% increase in all ip prefetch 460.167
% increase in all ip prefetch -4.07372
Heartbeat CPU 0 instructions: 60000000 cycles: 31021082 heartbeat IPC: 0.61872 cumulative IPC: 0.61872 (Simulation time: 0 hr 11 min 27 sec) 
Heartbeat CPU 0 instructions: 70000001 cycles: 48036488 heartbeat IPC: 0.587703 cumulative IPC: 0.602813 (Simulation time: 0 hr 13 min 49 sec) 
Heartbeat CPU 0 instructions: 80000000 cycles: 65270476 heartbeat IPC: 0.580249 cumulative IPC: 0.595099 (Simulation time: 0 hr 16 min 9 sec) 
Heartbeat CPU 0 instructions: 90000000 cycles: 81806016 heartbeat IPC: 0.604758 cumulative IPC: 0.597485 (Simulation time: 0 hr 18 min 28 sec) 
Heartbeat CPU 0 instructions: 100000002 cycles: 97771785 heartbeat IPC: 0.62634 cumulative IPC: 0.603041 (Simulation time: 0 hr 20 min 42 sec) 
Finished CPU 0 instructions: 50000000 cycles: 82913107 cumulative IPC: 0.603041 (Simulation time: 0 hr 20 min 42 sec) 

ChampSim completed all CPUs

Region of Interest Statistics

CPU 0 cumulative IPC: 0.603041 instructions: 50000000 cycles: 82913107

CPU 0 Average Load ROB stall cycles: 2.36397e+07
CPU 0 Fraction of times ROB stalled by Loads: 41.7782
CPU 0 Percentage of Load stall cycles in Total stall cycles: 3.2209e+08
Issued all: 27699371
Issued LT all: 22003268
rob_not_full_when_issued_lt_all: 21172035
Issued LT one: 16680079
rob_not_full_when_issued_lt_one: 15997467
 Total stall cycles: 67534037
 Total load stall cycles: 217520126946681
Unique Load IPs: 72894
CPU 0 NUM of IPS identified critical: 263
CPU 0 Num of Load IPs stalling ROB: 54337
Threshold modification factor: -1
Max PIST entries: 64
Min PIST entries: 0
Avg PIST entries: 32
Trouble in retire width: 0.903107
MaC = Marked as critical.
lt_50_percent_before_Mac: 163
gt_90_percent_before_Mac: 17
gt_75_percent_before_Mac: 21
gt_50_percent_before_Mac: 61
stall_proportion_bin_same_before_after: 0
stall_proportion_bin_lower_before_after: 0
stall_proportion_bin_upper_before_after: 0
average_stall_proportion_before: 0.0627194
average_stall_proportion_after: 0.0632476
Critical IP stalls, total frequency: 608196
Non-critical IP stalls, total frequency: 3236026
Total Freq all stalling IPs: 3844222
Critical_IP_Detector_Accuracy_70: 0.893536
Critical_IP_Detector_Accuracy_80: 0.984791
Critical_IP_Detector_Accuracy_90: 1
Critical_IP_Detector_Coverage_70: 0.0899005
Critical_IP_Detector_Coverage_80: 0.0541841
Critical_IP_Detector_Coverage_90: 0.0263369
stat_90_percent_critical_ip_stalls_freq: 3459829
stat_90_percent_non_critical_ip_stalls_freq: 384393
AVERAGE_ROB_Occupancy_90_Percent_Critical_IP_Stalls: 55.9959
AVERAGE_ROB_Occupancy_90_Percent_Non_Critical_IP_Stalls: 27.2457
Critical_IP_ROB_Stalls_Bucket_0: 163899
Non-critical_IP_ROB_Stalls_Bucket_0: 2258792
Critical_IP_ROB_Stalls_Bucket_1: 218742
Non-critical_IP_ROB_Stalls_Bucket_1: 698127
Critical_IP_ROB_Stalls_Bucket_2: 112077
Non-critical_IP_ROB_Stalls_Bucket_2: 201767
Critical_IP_ROB_Stalls_Bucket_3: 44620
Non-critical_IP_ROB_Stalls_Bucket_3: 48516
Critical_IP_ROB_Stalls_Bucket_4: 17996
Non-critical_IP_ROB_Stalls_Bucket_4: 14013
Critical_IP_ROB_Stalls_Bucket_5: 10975
Non-critical_IP_ROB_Stalls_Bucket_5: 6155
Critical_IP_ROB_Stalls_Bucket_6: 39887
Non-critical_IP_ROB_Stalls_Bucket_6: 8656
0 => IPs accounting for >50 percent of stalls, 1 => 55, 2 => 60, 3 => 65 and so on till 90.
percent50: 50.0124 num IPs:  849
percent55: 55.0113 num IPs: 1129
percent60: 60.0027 num IPs: 1493
percent65: 65.0044 num IPs: 1967
percent70: 70.001 num IPs: 2614
percent75: 75.0032 num IPs: 3506
percent80: 80.0018 num IPs: 4780
percent85: 85.0009 num IPs: 6730
percent90: 90.0001 num IPs: 9986
Critical_ROB_Stalls_Percent_0_Bucket_0: 1052295
Non-critical_ROB_Stalls_Percent_0_Bucket_0: 1370396
Critical_ROB_Stalls_Percent_0_Bucket_1: 538311
Non-critical_ROB_Stalls_Percent_0_Bucket_1: 378558
Critical_ROB_Stalls_Percent_0_Bucket_2: 197715
Non-critical_ROB_Stalls_Percent_0_Bucket_2: 116129
Critical_ROB_Stalls_Percent_0_Bucket_3: 62700
Non-critical_ROB_Stalls_Percent_0_Bucket_3: 30436
Critical_ROB_Stalls_Percent_0_Bucket_4: 21967
Non-critical_ROB_Stalls_Percent_0_Bucket_4: 10042
Critical_ROB_Stalls_Percent_0_Bucket_5: 11880
Non-critical_ROB_Stalls_Percent_0_Bucket_5: 5250
Critical_ROB_Stalls_Percent_0_Bucket_6: 37720
Non-critical_ROB_Stalls_Percent_0_Bucket_6: 10823
Critical_ROB_Stalls_Percent_1_Bucket_0: 1169530
Non-critical_ROB_Stalls_Percent_1_Bucket_0: 1253161
Critical_ROB_Stalls_Percent_1_Bucket_1: 588953
Non-critical_ROB_Stalls_Percent_1_Bucket_1: 327916
Critical_ROB_Stalls_Percent_1_Bucket_2: 214511
Non-critical_ROB_Stalls_Percent_1_Bucket_2: 99333
Critical_ROB_Stalls_Percent_1_Bucket_3: 67339
Non-critical_ROB_Stalls_Percent_1_Bucket_3: 25797
Critical_ROB_Stalls_Percent_1_Bucket_4: 23250
Non-critical_ROB_Stalls_Percent_1_Bucket_4: 8759
Critical_ROB_Stalls_Percent_1_Bucket_5: 12508
Non-critical_ROB_Stalls_Percent_1_Bucket_5: 4622
Critical_ROB_Stalls_Percent_1_Bucket_6: 38666
Non-critical_ROB_Stalls_Percent_1_Bucket_6: 9877
Critical_ROB_Stalls_Percent_2_Bucket_0: 1281672
Non-critical_ROB_Stalls_Percent_2_Bucket_0: 1141019
Critical_ROB_Stalls_Percent_2_Bucket_1: 639667
Non-critical_ROB_Stalls_Percent_2_Bucket_1: 277202
Critical_ROB_Stalls_Percent_2_Bucket_2: 232987
Non-critical_ROB_Stalls_Percent_2_Bucket_2: 80857
Critical_ROB_Stalls_Percent_2_Bucket_3: 73057
Non-critical_ROB_Stalls_Percent_2_Bucket_3: 20079
Critical_ROB_Stalls_Percent_2_Bucket_4: 25315
Non-critical_ROB_Stalls_Percent_2_Bucket_4: 6694
Critical_ROB_Stalls_Percent_2_Bucket_5: 13652
Non-critical_ROB_Stalls_Percent_2_Bucket_5: 3478
Critical_ROB_Stalls_Percent_2_Bucket_6: 40289
Non-critical_ROB_Stalls_Percent_2_Bucket_6: 8254
Critical_ROB_Stalls_Percent_3_Bucket_0: 1413767
Non-critical_ROB_Stalls_Percent_3_Bucket_0: 1008924
Critical_ROB_Stalls_Percent_3_Bucket_1: 680351
Non-critical_ROB_Stalls_Percent_3_Bucket_1: 236518
Critical_ROB_Stalls_Percent_3_Bucket_2: 246339
Non-critical_ROB_Stalls_Percent_3_Bucket_2: 67505
Critical_ROB_Stalls_Percent_3_Bucket_3: 76320
Non-critical_ROB_Stalls_Percent_3_Bucket_3: 16816
Critical_ROB_Stalls_Percent_3_Bucket_4: 26520
Non-critical_ROB_Stalls_Percent_3_Bucket_4: 5489
Critical_ROB_Stalls_Percent_3_Bucket_5: 14303
Non-critical_ROB_Stalls_Percent_3_Bucket_5: 2827
Critical_ROB_Stalls_Percent_3_Bucket_6: 41314
Non-critical_ROB_Stalls_Percent_3_Bucket_6: 7229
Critical_ROB_Stalls_Percent_4_Bucket_0: 1542152
Non-critical_ROB_Stalls_Percent_4_Bucket_0: 880539
Critical_ROB_Stalls_Percent_4_Bucket_1: 726096
Non-critical_ROB_Stalls_Percent_4_Bucket_1: 190773
Critical_ROB_Stalls_Percent_4_Bucket_2: 258909
Non-critical_ROB_Stalls_Percent_4_Bucket_2: 54935
Critical_ROB_Stalls_Percent_4_Bucket_3: 79443
Non-critical_ROB_Stalls_Percent_4_Bucket_3: 13693
Critical_ROB_Stalls_Percent_4_Bucket_4: 27294
Non-critical_ROB_Stalls_Percent_4_Bucket_4: 4715
Critical_ROB_Stalls_Percent_4_Bucket_5: 14770
Non-critical_ROB_Stalls_Percent_4_Bucket_5: 2360
Critical_ROB_Stalls_Percent_4_Bucket_6: 42334
Non-critical_ROB_Stalls_Percent_4_Bucket_6: 6209
Critical_ROB_Stalls_Percent_5_Bucket_0: 1668156
Non-critical_ROB_Stalls_Percent_5_Bucket_0: 754535
Critical_ROB_Stalls_Percent_5_Bucket_1: 772682
Non-critical_ROB_Stalls_Percent_5_Bucket_1: 144187
Critical_ROB_Stalls_Percent_5_Bucket_2: 272531
Non-critical_ROB_Stalls_Percent_5_Bucket_2: 41313
Critical_ROB_Stalls_Percent_5_Bucket_3: 82688
Non-critical_ROB_Stalls_Percent_5_Bucket_3: 10448
Critical_ROB_Stalls_Percent_5_Bucket_4: 28382
Non-critical_ROB_Stalls_Percent_5_Bucket_4: 3627
Critical_ROB_Stalls_Percent_5_Bucket_5: 15313
Non-critical_ROB_Stalls_Percent_5_Bucket_5: 1817
Critical_ROB_Stalls_Percent_5_Bucket_6: 43545
Non-critical_ROB_Stalls_Percent_5_Bucket_6: 4998
Critical_ROB_Stalls_Percent_6_Bucket_0: 1800067
Non-critical_ROB_Stalls_Percent_6_Bucket_0: 622624
Critical_ROB_Stalls_Percent_6_Bucket_1: 811797
Non-critical_ROB_Stalls_Percent_6_Bucket_1: 105072
Critical_ROB_Stalls_Percent_6_Bucket_2: 285938
Non-critical_ROB_Stalls_Percent_6_Bucket_2: 27906
Critical_ROB_Stalls_Percent_6_Bucket_3: 86070
Non-critical_ROB_Stalls_Percent_6_Bucket_3: 7066
Critical_ROB_Stalls_Percent_6_Bucket_4: 29513
Non-critical_ROB_Stalls_Percent_6_Bucket_4: 2496
Critical_ROB_Stalls_Percent_6_Bucket_5: 15897
Non-critical_ROB_Stalls_Percent_6_Bucket_5: 1233
Critical_ROB_Stalls_Percent_6_Bucket_6: 46174
Non-critical_ROB_Stalls_Percent_6_Bucket_6: 2369
Critical_ROB_Stalls_Percent_7_Bucket_0: 1942710
Non-critical_ROB_Stalls_Percent_7_Bucket_0: 479981
Critical_ROB_Stalls_Percent_7_Bucket_1: 846866
Non-critical_ROB_Stalls_Percent_7_Bucket_1: 70003
Critical_ROB_Stalls_Percent_7_Bucket_2: 295585
Non-critical_ROB_Stalls_Percent_7_Bucket_2: 18259
Critical_ROB_Stalls_Percent_7_Bucket_3: 88485
Non-critical_ROB_Stalls_Percent_7_Bucket_3: 4651
Critical_ROB_Stalls_Percent_7_Bucket_4: 30332
Non-critical_ROB_Stalls_Percent_7_Bucket_4: 1677
Critical_ROB_Stalls_Percent_7_Bucket_5: 16402
Non-critical_ROB_Stalls_Percent_7_Bucket_5: 728
Critical_ROB_Stalls_Percent_7_Bucket_6: 47242
Non-critical_ROB_Stalls_Percent_7_Bucket_6: 1301
Critical_ROB_Stalls_Percent_8_Bucket_0: 2091932
Non-critical_ROB_Stalls_Percent_8_Bucket_0: 330759
Critical_ROB_Stalls_Percent_8_Bucket_1: 877793
Non-critical_ROB_Stalls_Percent_8_Bucket_1: 39076
Critical_ROB_Stalls_Percent_8_Bucket_2: 303939
Non-critical_ROB_Stalls_Percent_8_Bucket_2: 9905
Critical_ROB_Stalls_Percent_8_Bucket_3: 90534
Non-critical_ROB_Stalls_Percent_8_Bucket_3: 2602
Critical_ROB_Stalls_Percent_8_Bucket_4: 30991
Non-critical_ROB_Stalls_Percent_8_Bucket_4: 1018
Critical_ROB_Stalls_Percent_8_Bucket_5: 16777
Non-critical_ROB_Stalls_Percent_8_Bucket_5: 353
Critical_ROB_Stalls_Percent_8_Bucket_6: 47863
Non-critical_ROB_Stalls_Percent_8_Bucket_6: 680
Average ROB occupancy Load Stall Begin: 45.6456
Average ROB occupancy Load Stall End: 53.1211
Min ROB occupancy Load Stall Begin: 1
Max ROB occupancy Load Stall Begin: 352
Min ROB occupancy Load Stall End: 1
Max ROB occupancy Load Stall End: 352
Average ROB occupancy Critical Load Stall Begin: 104.419
Average ROB occupancy Critical Load Stall End: 112.95
Min ROB occupancy Critical Load Stall Begin: 1
Max ROB occupancy Critical Load Stall Begin: 352
Min ROB occupancy Critical Load Stall End: 1
Max ROB occupancy Critical Load Stall End: 352
 ROB Load Stall Begin Bucket Count 0: 2714939
 ROB Load Stall End Bucket Count 0: 2422691
 ROB Critical Load Stall Begin Bucket Count 0: 141806
 ROB Critical Load Stall End Bucket Count 0: 101599
 ROB Load Stall Begin Bucket Count 1: 717177
 ROB Load Stall End Bucket Count 1: 916869
 ROB Critical Load Stall Begin Bucket Count 1: 128553
 ROB Critical Load Stall End Bucket Count 1: 149765
 ROB Load Stall Begin Bucket Count 2: 249589
 ROB Load Stall End Bucket Count 2: 313844
 ROB Critical Load Stall Begin Bucket Count 2: 72295
 ROB Critical Load Stall End Bucket Count 2: 83011
 ROB Load Stall Begin Bucket Count 3: 73518
 ROB Load Stall End Bucket Count 3: 93136
 ROB Critical Load Stall Begin Bucket Count 3: 30903
 ROB Critical Load Stall End Bucket Count 3: 36105
 ROB Load Stall Begin Bucket Count 4: 27227
 ROB Load Stall End Bucket Count 4: 32009
 ROB Critical Load Stall Begin Bucket Count 4: 13472
 ROB Critical Load Stall End Bucket Count 4: 14922
 ROB Load Stall Begin Bucket Count 5: 15663
 ROB Load Stall End Bucket Count 5: 17130
 ROB Critical Load Stall Begin Bucket Count 5: 8911
 ROB Critical Load Stall End Bucket Count 5: 9343
 ROB Load Stall Begin Bucket Count 6: 46109
 ROB Load Stall End Bucket Count 6: 48543
 ROB Critical Load Stall Begin Bucket Count 6: 34355
 ROB Critical Load Stall End Bucket Count 6: 35550
PIST Tag Read Accesses: 2822614
PIST Read Accesses: 1411307
PIST Tag Write Accesses: 2822614
PIST Write Accesses: 1411307
Criticality detector called times: 3464034
Max global_stall_cycles_count: 4375882
Threshold Modified: 1 times, factor: -1
Sturdy critical IP cache stats: 
 Unused entries: 0
CIC Tag Read Accesses: 0
CIC Read Accesses: 0
CIC Tag Write Accesses: 0
CIC Write Accesses: 0
Wobbly critical IP cache stats: 
 Unused entries: 0
CIC Tag Read Accesses: 88468952
CIC Read Accesses: 0
CIC Tag Write Accesses: 16886
CIC Write Accesses: 0
ITLB TOTAL     ACCESS:    9143846  HIT:    9048362  MISS:      95484  HIT %:    98.9558  MISS %:    1.04424   MPKI: 1.90968
ITLB LOAD TRANSLATION ACCESS:    8556891  HIT:    8507128  MISS:      49763  HIT %:    99.4184  MISS %:   0.581555   MPKI: 0.99526
ITLB TRANSLATION FROM L1D PREFETCHER ACCESS:     586955  HIT:     541234  MISS:      45721  HIT %:    92.2105  MISS %:    7.78952   MPKI: 0.91442
ITLB PREFETCH  REQUESTED:          0  ISSUED:          0  USEFUL:      34726  USELESS:      10995
ITLB USEFUL LOAD PREFETCHES:      34726 PREFETCH ISSUED TO LOWER LEVEL:          0  ACCURACY: inf
ITLB TIMELY PREFETCHES:      34726 LATE PREFETCHES: 110 DROPPED PREFETCHES: 87
ITLB PREFETCHES SAME FILL-ORIGIN LEVEL: 0 DIFFERENT FILL-ORIGIN LEVEL: 0
ITLB AVERAGE MISS LATENCY: 61365.4 cycles
ITLB RQ	ACCESS:   11322319	FORWARD:          0	MERGED:    2164371	TO_CACHE:    9157948

DTLB TOTAL     ACCESS:   11881377  HIT:   11688371  MISS:     193006  HIT %:    98.3756  MISS %:    1.62444   MPKI: 3.86012
DTLB LOAD TRANSLATION ACCESS:   11881377  HIT:   11688371  MISS:     193006  HIT %:    98.3756  MISS %:    1.62444   MPKI: 3.86012
DTLB PREFETCH  REQUESTED:          0  ISSUED:          0  USEFUL:          0  USELESS:          0
DTLB USEFUL LOAD PREFETCHES:          0 PREFETCH ISSUED TO LOWER LEVEL:          0  ACCURACY: -nan
DTLB TIMELY PREFETCHES:          0 LATE PREFETCHES: 0 DROPPED PREFETCHES: 0
DTLB PREFETCHES SAME FILL-ORIGIN LEVEL: 0 DIFFERENT FILL-ORIGIN LEVEL: 0
DTLB AVERAGE MISS LATENCY: 10.3108 cycles
DTLB RQ	ACCESS:   14392783	FORWARD:          0	MERGED:    2501326	TO_CACHE:   11891457

STLB TOTAL     ACCESS:     437035  HIT:     432651  MISS:       4384  HIT %:    98.9969  MISS %:    1.00312   MPKI: 0.08768
STLB LOAD TRANSLATION ACCESS:     242659  HIT:     238869  MISS:       3790  HIT %:    98.4381  MISS %:    1.56186   MPKI: 0.0758
STLB TRANSLATION FROM L1D PREFETCHER ACCESS:     194376  HIT:     193782  MISS:        594  HIT %:    99.6944  MISS %:   0.305593   MPKI: 0.01188
STLB PREFETCH  REQUESTED:          0  ISSUED:          0  USEFUL:        490  USELESS:        124
STLB USEFUL LOAD PREFETCHES:        490 PREFETCH ISSUED TO LOWER LEVEL:          0  ACCURACY: inf
STLB TIMELY PREFETCHES:        490 LATE PREFETCHES: 0 DROPPED PREFETCHES: 87
STLB PREFETCHES SAME FILL-ORIGIN LEVEL: 0 DIFFERENT FILL-ORIGIN LEVEL: 0
STLB AVERAGE MISS LATENCY: 92.0985 cycles
STLB RQ	ACCESS:     472653	FORWARD:          0	MERGED:      35530	TO_CACHE:     437123

STLB Hit, L1D data hit: 0
STLB Hit, L2C data hit: 0
STLB Hit, LLC data hit: 0
STLB Hit, LLC data miss: 0
STLB STLB hints to L2: 0
L1D TOTAL     ACCESS:   14294920  HIT:   13713826  MISS:     581094  HIT %:     95.935  MISS %:    4.06504   MPKI: 11.6219
L1D LOAD      ACCESS:    9287297  HIT:    8885081  MISS:     402216  HIT %:    95.6692  MISS %:    4.33082   MPKI: 8.04432
L1D RFO       ACCESS:    4827481  HIT:    4696819  MISS:     130662  HIT %:    97.2934  MISS %:    2.70663   MPKI: 2.61324
L1D PREFETCH  ACCESS:     180142  HIT:     131926  MISS:      48216  HIT %:    73.2344  MISS %:    26.7656   MPKI: 0.96432
L1D PREFETCH  REQUESTED:     368187  ISSUED:     368187  USEFUL:      16773  USELESS:      31439
L1D USEFUL LOAD PREFETCHES:      16773 PREFETCH ISSUED TO LOWER LEVEL:      50000  ACCURACY: 33.546
L1D TIMELY PREFETCHES:      16773 LATE PREFETCHES: 1749 DROPPED PREFETCHES: 0
L1D PREFETCHES SAME FILL-ORIGIN LEVEL: 50000 DIFFERENT FILL-ORIGIN LEVEL: 0
L1D AVERAGE MISS LATENCY: 181136 cycles
L1D RQ	ACCESS:   13200203	FORWARD:          0	MERGED:    3782837	TO_CACHE:    9320361
L1D WQ	ACCESS:    5238055	FORWARD:      97042	MERGED:     165633	TO_CACHE:    5072422
L1D PQ	ACCESS:     184112	FORWARD:          0	MERGED:          0	TO_CACHE:     184075

L1D UNIQUE REGIONS ACCESSED: 0
L1D REGIONS CONFLICTS: 0
L1D Cross Page Prefetch Requests: 0
L1D Same Page Prefetch Requests: 188461
L1D ROI Sum of L1D PQ occupancy: 2383874
L1D PREFETCHES PUSHED FROM L2C: 0
L1I TOTAL     ACCESS:   11243340  HIT:   10350644  MISS:     892696  HIT %:    92.0602  MISS %:    7.93978   MPKI: 17.8539
L1I LOAD      ACCESS:    9789543  HIT:    9597747  MISS:     191796  HIT %:    98.0408  MISS %:    1.95919   MPKI: 3.83592
L1I PREFETCH  ACCESS:    1453797  HIT:     752897  MISS:     700900  HIT %:    51.7883  MISS %:    48.2117   MPKI: 14.018
L1I PREFETCH  REQUESTED:    1591142  ISSUED:    1589628  USEFUL:     427118  USELESS:     273774
L1I USEFUL LOAD PREFETCHES:     427118 PREFETCH ISSUED TO LOWER LEVEL:     716763  ACCURACY: 59.5899
L1I TIMELY PREFETCHES:     427118 LATE PREFETCHES: 15863 DROPPED PREFETCHES: 163
L1I PREFETCHES SAME FILL-ORIGIN LEVEL: 716763 DIFFERENT FILL-ORIGIN LEVEL: 0
L1I AVERAGE MISS LATENCY: 1.00929e+06 cycles
L1I RQ	ACCESS:   14422146	FORWARD:          0	MERGED:    4614808	TO_CACHE:    9807338
L1I PQ	ACCESS:    1589628	FORWARD:          0	MERGED:      74647	TO_CACHE:    1514981

BTB TOTAL     ACCESS:    7750112  HIT:    6953064  MISS:     797048  HIT %:    89.7157  MISS %:    10.2843   MPKI: 15.941
BTB BRANCH_DIRECT_JUMP	ACCESS:     644555  HIT:     617941  MISS:      26614
BTB BRANCH_INDIRECT	ACCESS:     201946  HIT:     110721  MISS:      91225
BTB BRANCH_CONDITIONAL	ACCESS:    4875062  HIT:    4805966  MISS:      69096
BTB BRANCH_DIRECT_CALL	ACCESS:     564821  HIT:     520817  MISS:      44004
BTB BRANCH_INDIRECT_CALL	ACCESS:     445012  HIT:     287828  MISS:     157184
BTB BRANCH_RETURN	ACCESS:    1018716  HIT:     609791  MISS:     408925
BTB BRANCH_OTHER ACCESS:          0  HIT:          0  MISS:          0

L2C TOTAL     ACCESS:    1672424  HIT:    1370214  MISS:     302210  HIT %:    81.9298  MISS %:    18.0702   MPKI: 6.0442
L2C LOAD      ACCESS:     576376  HIT:     481881  MISS:      94495  HIT %:    83.6053  MISS %:    16.3947   MPKI: 1.8899
L2C DATA LOAD MPKI: 1.08724
L2C INSTRUCTION LOAD MPKI: 0.80266
L2C RFO       ACCESS:     130621  HIT:      49563  MISS:      81058  HIT %:    37.9441  MISS %:    62.0559   MPKI: 1.62116
L2C PREFETCH  ACCESS:     766758  HIT:     651466  MISS:     115292  HIT %:    84.9637  MISS %:    15.0363   MPKI: 2.30584
L2C DATA PREFETCH MPKI: 0.1594
L2C INSTRUCTION PREFETCH MPKI: 2.14644
L2C WRITEBACK ACCESS:     193939  HIT:     185200  MISS:       8739  HIT %:    95.4939  MISS %:    4.50606   MPKI: 0.17478
L2C LOAD TRANSLATION ACCESS:       4025  HIT:       1828  MISS:       2197  HIT %:    45.4161  MISS %:    54.5839   MPKI: 0.04394
L2C TRANSLATION FROM L1D PREFETCHER ACCESS:        705  HIT:        276  MISS:        429  HIT %:    39.1489  MISS %:    60.8511   MPKI: 0.00858
L2C PREFETCH  REQUESTED:          0  ISSUED:          0  USEFUL:      10528  USELESS:     104248
L2C USEFUL LOAD PREFETCHES:      10528 PREFETCH ISSUED TO LOWER LEVEL:     115292  ACCURACY: 9.1316
L2C TIMELY PREFETCHES:      10528 LATE PREFETCHES: 0 DROPPED PREFETCHES: 0
L2C PREFETCHES SAME FILL-ORIGIN LEVEL: 0 DIFFERENT FILL-ORIGIN LEVEL: 0
L2C AVERAGE MISS LATENCY: 83.0983 cycles
L2C RQ	ACCESS:     711757	FORWARD:          0	MERGED:          0	TO_CACHE:     711727
L2C WQ	ACCESS:     193939	FORWARD:         35	MERGED:          0	TO_CACHE:     193939
L2C PQ	ACCESS:     766763	FORWARD:          0	MERGED:          0	TO_CACHE:     766758

L2C Instructions Evicting Data 72996
L2C Translations Evicting Data 1362
L2C Data Evicting Data 74033
L2C Instructions Evicting Instructions 73171
L2C Translations Evicting Instructions 1233
L2C Data Evicting Instructions 68146
L2C Instructions Evicting Translations 1288
L2C Translations Evicting Translations 31
L2C Data Evicting Translations 1211
L2C Dense regions hint from L2: 0
PSCL5 TOTAL     ACCESS:       4471  HIT:       4471  MISS:          0  HIT %:        100  MISS %:          0   MPKI: 0
PSCL5 LOAD TRANSLATION ACCESS:       3790  HIT:       3790  MISS:          0  HIT %:        100  MISS %:          0   MPKI: 0
PSCL5 TRANSLATION FROM L1D PREFETCHER ACCESS:        681  HIT:        681  MISS:          0  HIT %:        100  MISS %:          0   MPKI: 0
PSCL5 PREFETCH  REQUESTED:          0  ISSUED:          0  USEFUL:          0  USELESS:          0
PSCL5 USEFUL LOAD PREFETCHES:          0 PREFETCH ISSUED TO LOWER LEVEL:          0  ACCURACY: -nan
PSCL5 TIMELY PREFETCHES:          0 LATE PREFETCHES: 0 DROPPED PREFETCHES: 0
PSCL5 PREFETCHES SAME FILL-ORIGIN LEVEL: 0 DIFFERENT FILL-ORIGIN LEVEL: 0

PSCL4 TOTAL     ACCESS:       4468  HIT:       4467  MISS:          1  HIT %:    99.9776  MISS %:  0.0223814   MPKI: 2e-05
PSCL4 LOAD TRANSLATION ACCESS:       3787  HIT:       3786  MISS:          1  HIT %:    99.9736  MISS %:  0.0264061   MPKI: 2e-05
PSCL4 TRANSLATION FROM L1D PREFETCHER ACCESS:        681  HIT:        681  MISS:          0  HIT %:        100  MISS %:          0   MPKI: 0
PSCL4 PREFETCH  REQUESTED:          0  ISSUED:          0  USEFUL:          0  USELESS:          0
PSCL4 USEFUL LOAD PREFETCHES:          0 PREFETCH ISSUED TO LOWER LEVEL:          0  ACCURACY: -nan
PSCL4 TIMELY PREFETCHES:          0 LATE PREFETCHES: 0 DROPPED PREFETCHES: 0
PSCL4 PREFETCHES SAME FILL-ORIGIN LEVEL: 0 DIFFERENT FILL-ORIGIN LEVEL: 0

PSCL3 TOTAL     ACCESS:       4449  HIT:       4429  MISS:         20  HIT %:    99.5505  MISS %:   0.449539   MPKI: 0.0004
PSCL3 LOAD TRANSLATION ACCESS:       3771  HIT:       3751  MISS:         20  HIT %:    99.4696  MISS %:   0.530363   MPKI: 0.0004
PSCL3 TRANSLATION FROM L1D PREFETCHER ACCESS:        678  HIT:        678  MISS:          0  HIT %:        100  MISS %:          0   MPKI: 0
PSCL3 PREFETCH  REQUESTED:          0  ISSUED:          0  USEFUL:          0  USELESS:          0
PSCL3 USEFUL LOAD PREFETCHES:          0 PREFETCH ISSUED TO LOWER LEVEL:          0  ACCURACY: -nan
PSCL3 TIMELY PREFETCHES:          0 LATE PREFETCHES: 0 DROPPED PREFETCHES: 0
PSCL3 PREFETCHES SAME FILL-ORIGIN LEVEL: 0 DIFFERENT FILL-ORIGIN LEVEL: 0

PSCL2 TOTAL     ACCESS:       4467  HIT:       4232  MISS:        235  HIT %:    94.7392  MISS %:     5.2608   MPKI: 0.0047
PSCL2 LOAD TRANSLATION ACCESS:       3809  HIT:       3574  MISS:        235  HIT %:    93.8304  MISS %:     6.1696   MPKI: 0.0047
PSCL2 TRANSLATION FROM L1D PREFETCHER ACCESS:        658  HIT:        658  MISS:          0  HIT %:        100  MISS %:          0   MPKI: 0
PSCL2 PREFETCH  REQUESTED:          0  ISSUED:          0  USEFUL:          0  USELESS:          0
PSCL2 USEFUL LOAD PREFETCHES:          0 PREFETCH ISSUED TO LOWER LEVEL:          0  ACCURACY: -nan
PSCL2 TIMELY PREFETCHES:          0 LATE PREFETCHES: 0 DROPPED PREFETCHES: 0
PSCL2 PREFETCHES SAME FILL-ORIGIN LEVEL: 0 DIFFERENT FILL-ORIGIN LEVEL: 0

LLC TOTAL     ACCESS:     385821  HIT:     277972  MISS:     107849  HIT %:    72.0469  MISS %:    27.9531   MPKI: 2.15698
LLC LOAD      ACCESS:      94495  HIT:      66982  MISS:      27513  HIT %:    70.8842  MISS %:    29.1158   MPKI: 0.55026
LLC RFO       ACCESS:      81056  HIT:      37926  MISS:      43130  HIT %:    46.7899  MISS %:    53.2101   MPKI: 0.8626
LLC PREFETCH  ACCESS:     115292  HIT:      82369  MISS:      32923  HIT %:    71.4438  MISS %:    28.5562   MPKI: 0.65846
LLC WRITEBACK ACCESS:      92352  HIT:      89115  MISS:       3237  HIT %:    96.4949  MISS %:    3.50507   MPKI: 0.06474
LLC LOAD TRANSLATION ACCESS:       2197  HIT:       1264  MISS:        933  HIT %:     57.533  MISS %:     42.467   MPKI: 0.01866
LLC TRANSLATION FROM L1D PREFETCHER ACCESS:        429  HIT:        316  MISS:        113  HIT %:    73.6597  MISS %:    26.3403   MPKI: 0.00226
LLC PREFETCH  REQUESTED:          0  ISSUED:          0  USEFUL:       2699  USELESS:      28419
LLC USEFUL LOAD PREFETCHES:       2699 PREFETCH ISSUED TO LOWER LEVEL:      32923  ACCURACY: 8.19792
LLC TIMELY PREFETCHES:       2699 LATE PREFETCHES: 0 DROPPED PREFETCHES: 0
LLC PREFETCHES SAME FILL-ORIGIN LEVEL: 0 DIFFERENT FILL-ORIGIN LEVEL: 0
LLC AVERAGE MISS LATENCY: 151.101 cycles
LLC RQ	ACCESS:     178179	FORWARD:          0	MERGED:          0	TO_CACHE:     178177
LLC WQ	ACCESS:      92352	FORWARD:          2	MERGED:          0	TO_CACHE:      92352
LLC PQ	ACCESS:     115292	FORWARD:          0	MERGED:          0	TO_CACHE:     115292

LLC Dense regions hint to LLC: 0

RAW hits: 1009114
Loads Generated: 14209317
Loads sent to L1D: 13200203
Stores Generated: 5238050
Stores sent to L1D: 5238055
Major fault: 0 Minor fault: 4055
Allocated PAGES: 4055
I-Shadow cache 408 bytes
Touched + WorthPF tables 6144 bytes 
MMA filter 174 bytes 
FNL filter 272 bytes 
TOTAL PREFETCHER STORAGE SIZE: 25174 bytes
CPU 0 L1I next line prefetcher final stats

stream: 
stream:times selected: 275955
stream:pref_filled: 35769
stream:pref_useful: 11056
stream:pref_late: 725
stream:misses: 6243
stream:misses_by_poll: 0

CS: 
CS:times selected: 26596
CS:pref_filled: 5651
CS:pref_useful: 4481
CS:pref_late: 458
CS:misses: 561
CS:misses_by_poll: 24

CPLX: 
CPLX:times selected: 247474
CPLX:pref_filled: 8886
CPLX:pref_useful: 1653
CPLX:pref_late: 44
CPLX:misses: 24610
CPLX:misses_by_poll: 39

NL_L1: 
NL:times selected: 2205
NL:pref_filled: 475
NL:pref_useful: 154
NL:pref_late: 11
NL:misses: 342
NL:misses_by_poll: 0

total selections: 552230
total_filled: 48216
total_useful: 16773
total_late: 1763
total_polluted: 63
total_misses_after_warmup: 44186
conflicts: 123278
Degree Incremented Times: 203
Degree Decremented Times: 4273

L1 IP Table Write Accesses: 692138
L1 IP Table Read Accesses: 568860
L1 RST Write Accesses: 274456
L1 RST Read Accesses: 548912
L1 CSPT Write Accesses: 274456
L1 CSPT Read Accesses: 524425
L1 RR Filter Tag Write Accesses: 184112
L1 RR Filter Tag Read Accesses: 10736670
L1 IP Table Tag Write Accesses: 847683
L1 IP Table Tag Read Accesses: 847683
L1 RST Tag Write Accesses: 0
L1 RST Tag Read Accesses: 2427124
L1 RR Filter Write Accesses: 0
L1 RR Filter Read Accesses: 401919
test: 103946

DRAM Statistics
 CHANNEL 0
 RQ ROW_BUFFER_HIT:      25921  ROW_BUFFER_MISS:      78688
 DBUS_CONGESTED:        125
 WQ ROW_BUFFER_HIT:       7509  ROW_BUFFER_MISS:      36253  FULL:          0

 AVG_CONGESTED_CYCLE: 4
 All warmup complete: 2
Channel 0 Bank busy for read cycles: 0
Channel 0 Bank busy for write cycles: 0
Channel 0
Rank 0
0banks busy for read cycles: 71241076
0banks busy for write cycles: 17085
1banks busy for read cycles: 5077502
1banks busy for write cycles: 2250403
2banks busy for read cycles: 1333091
2banks busy for write cycles: 715591
3banks busy for read cycles: 499691
3banks busy for write cycles: 361548
4banks busy for read cycles: 279959
4banks busy for write cycles: 220723
5banks busy for read cycles: 187508
5banks busy for write cycles: 140596
6banks busy for read cycles: 167425
6banks busy for write cycles: 103081
7banks busy for read cycles: 72475
7banks busy for write cycles: 85369
8banks busy for read cycles: 38041
8banks busy for write cycles: 121944

CPU 0 Branch Prediction Accuracy: 94.1242% MPKI: 11.6089 Average ROB Occupancy at Mispredict: 34.5313
Branch types
NOT_BRANCH: 40121077 80.2422%
BRANCH_DIRECT_JUMP: 644555 1.28911%
BRANCH_INDIRECT: 201946 0.403892%
BRANCH_CONDITIONAL: 7003556 14.0071%
BRANCH_DIRECT_CALL: 564821 1.12964%
BRANCH_INDIRECT_CALL: 445012 0.890024%
BRANCH_RETURN: 1018716 2.03743%
BRANCH_OTHER: 0 0%

DRAM PAGES: 1048576
Allocated PAGES: 4055
