
*** ChampSim Multicore Out-of-Order Simulator ***

Warmup Instructions: 50000000
Simulation Instructions: 50000000
Number of CPUs: 1
LLC sets: 2048
LLC ways: 16
Off-chip DRAM Size: 4096 MB Channels: 1 Width: 64-bit Data Rate: 6400 MT/s
CPU 0 runs ../IPC-traces//client_007.champsimtrace.xz
.xz
BTB has LRU replacement policy
ITLB has LRU replacement policy
DTLB has LRU replacement policy
STLB has LRU replacement policy
CPU 0 L1I next line prefetcher
L1I has LRU replacement policy
L1D has LRU replacement policy
Bingo PHT WAYS: 16 and PHT_SIZE: 16384
Initialize SRRIP state for L2C
Initialize DRRIP state for LLC
Heartbeat CPU 0 instructions: 10000003 cycles: 3033821 heartbeat IPC: 3.29617 cumulative IPC: 3.29617 (Simulation time: 0 hr 3 min 10 sec) 
Heartbeat CPU 0 instructions: 20000003 cycles: 5975502 heartbeat IPC: 3.39942 cumulative IPC: 3.347 (Simulation time: 0 hr 5 min 31 sec) 
Heartbeat CPU 0 instructions: 30000000 cycles: 9156675 heartbeat IPC: 3.14349 cumulative IPC: 3.2763 (Simulation time: 0 hr 8 min 9 sec) 
Heartbeat CPU 0 instructions: 40000003 cycles: 12444471 heartbeat IPC: 3.04155 cumulative IPC: 3.21428 (Simulation time: 0 hr 10 min 34 sec) 
Heartbeat CPU 0 instructions: 50000001 cycles: 15345638 heartbeat IPC: 3.44689 cumulative IPC: 3.25826 (Simulation time: 0 hr 12 min 39 sec) 

Warmup complete CPU 0 instructions: 50000001 cycles: 15345638 (Simulation time: 0 hr 12 min 39 sec) 

Heartbeat CPU 0 instructions: 60000003 cycles: 28458401 heartbeat IPC: 0.762616 cumulative IPC: 0.762616 (Simulation time: 0 hr 15 min 15 sec) 
Heartbeat CPU 0 instructions: 70000003 cycles: 45214585 heartbeat IPC: 0.596795 cumulative IPC: 0.669592 (Simulation time: 0 hr 18 min 11 sec) 
Heartbeat CPU 0 instructions: 80000001 cycles: 55559857 heartbeat IPC: 0.966625 cumulative IPC: 0.746005 (Simulation time: 0 hr 20 min 41 sec) 
Heartbeat CPU 0 instructions: 90000001 cycles: 69772980 heartbeat IPC: 0.703575 cumulative IPC: 0.734925 (Simulation time: 0 hr 23 min 13 sec) 
Heartbeat CPU 0 instructions: 100000000 cycles: 85452898 heartbeat IPC: 0.637758 cumulative IPC: 0.713193 (Simulation time: 0 hr 25 min 54 sec) 
Finished CPU 0 instructions: 50000001 cycles: 70107261 cumulative IPC: 0.713193 (Simulation time: 0 hr 25 min 54 sec) 

ChampSim completed all CPUs

Region of Interest Statistics

CPU 0 cumulative IPC: 0.713193 instructions: 50000001 cycles: 70107261

CPU 0 Average Load ROB stall cycles: 1.86498e+07
CPU 0 Fraction of times ROB stalled by Loads: 39.0105
CPU 0 Percentage of Load stall cycles in Total stall cycles: 2.41187e+08
Issued all: 30503791
Issued LT all: 25081728
rob_not_full_when_issued_lt_all: 18637103
Issued LT one: 19365694
rob_not_full_when_issued_lt_one: 14277290
FVP critical_dynamic_instances_0: 4509713
FVP unique_critical_ips_0: 7326
 Total stall cycles: 57609617
 Total load stall cycles: 138946980283280
Unique Load IPs: 16511
CPU 0 NUM of IPS identified critical: 0
CPU 0 Num of Load IPs stalling ROB: 0
Threshold modification factor: 0
Trouble in retire width: -nan
MaC = Marked as critical.
lt_50_percent_before_Mac: 0
gt_90_percent_before_Mac: 0
gt_75_percent_before_Mac: 0
gt_50_percent_before_Mac: 0
stall_proportion_bin_same_before_after: 0
stall_proportion_bin_lower_before_after: 0
stall_proportion_bin_upper_before_after: 0
average_stall_proportion_before: -nan
average_stall_proportion_after: -nan
Critical IP stalls, total frequency: 0
Non-critical IP stalls, total frequency: 0
Total Freq all stalling IPs: 0
Critical_IP_Detector_Accuracy_70: 0.0001365
Critical_IP_Detector_Accuracy_80: 0.0001365
Critical_IP_Detector_Accuracy_90: 0.0001365
Critical_IP_Detector_Coverage_70: 1
Critical_IP_Detector_Coverage_80: 1
Critical_IP_Detector_Coverage_90: 1
stat_90_percent_critical_ip_stalls_freq: 146492
stat_90_percent_non_critical_ip_stalls_freq: 18446744073709405124
AVERAGE_ROB_Occupancy_90_Percent_Critical_IP_Stalls: 292.727
AVERAGE_ROB_Occupancy_90_Percent_Non_Critical_IP_Stalls: 1.47215e-11
Critical_IP_ROB_Stalls_Bucket_0: 0
Non-critical_IP_ROB_Stalls_Bucket_0: 1069583
Critical_IP_ROB_Stalls_Bucket_1: 0
Non-critical_IP_ROB_Stalls_Bucket_1: 804939
Critical_IP_ROB_Stalls_Bucket_2: 0
Non-critical_IP_ROB_Stalls_Bucket_2: 377552
Critical_IP_ROB_Stalls_Bucket_3: 0
Non-critical_IP_ROB_Stalls_Bucket_3: 192091
Critical_IP_ROB_Stalls_Bucket_4: 0
Non-critical_IP_ROB_Stalls_Bucket_4: 81838
Critical_IP_ROB_Stalls_Bucket_5: 0
Non-critical_IP_ROB_Stalls_Bucket_5: 48173
Critical_IP_ROB_Stalls_Bucket_6: 0
Non-critical_IP_ROB_Stalls_Bucket_6: 332229
0 => IPs accounting for >50 percent of stalls, 1 => 55, 2 => 60, 3 => 65 and so on till 90.
percent50: inf num IPs:  1
percent55: inf num IPs: 1
percent60: inf num IPs: 1
percent65: inf num IPs: 1
percent70: inf num IPs: 1
percent75: inf num IPs: 1
percent80: inf num IPs: 1
percent85: inf num IPs: 1
percent90: inf num IPs: 1
Critical_ROB_Stalls_Percent_0_Bucket_0: 1845
Non-critical_ROB_Stalls_Percent_0_Bucket_0: 1067738
Critical_ROB_Stalls_Percent_0_Bucket_1: 5677
Non-critical_ROB_Stalls_Percent_0_Bucket_1: 799262
Critical_ROB_Stalls_Percent_0_Bucket_2: 12028
Non-critical_ROB_Stalls_Percent_0_Bucket_2: 365524
Critical_ROB_Stalls_Percent_0_Bucket_3: 10854
Non-critical_ROB_Stalls_Percent_0_Bucket_3: 181237
Critical_ROB_Stalls_Percent_0_Bucket_4: 7823
Non-critical_ROB_Stalls_Percent_0_Bucket_4: 74015
Critical_ROB_Stalls_Percent_0_Bucket_5: 7638
Non-critical_ROB_Stalls_Percent_0_Bucket_5: 40535
Critical_ROB_Stalls_Percent_0_Bucket_6: 100627
Non-critical_ROB_Stalls_Percent_0_Bucket_6: 231602
Critical_ROB_Stalls_Percent_1_Bucket_0: 1845
Non-critical_ROB_Stalls_Percent_1_Bucket_0: 1067738
Critical_ROB_Stalls_Percent_1_Bucket_1: 5677
Non-critical_ROB_Stalls_Percent_1_Bucket_1: 799262
Critical_ROB_Stalls_Percent_1_Bucket_2: 12028
Non-critical_ROB_Stalls_Percent_1_Bucket_2: 365524
Critical_ROB_Stalls_Percent_1_Bucket_3: 10854
Non-critical_ROB_Stalls_Percent_1_Bucket_3: 181237
Critical_ROB_Stalls_Percent_1_Bucket_4: 7823
Non-critical_ROB_Stalls_Percent_1_Bucket_4: 74015
Critical_ROB_Stalls_Percent_1_Bucket_5: 7638
Non-critical_ROB_Stalls_Percent_1_Bucket_5: 40535
Critical_ROB_Stalls_Percent_1_Bucket_6: 100627
Non-critical_ROB_Stalls_Percent_1_Bucket_6: 231602
Critical_ROB_Stalls_Percent_2_Bucket_0: 1845
Non-critical_ROB_Stalls_Percent_2_Bucket_0: 1067738
Critical_ROB_Stalls_Percent_2_Bucket_1: 5677
Non-critical_ROB_Stalls_Percent_2_Bucket_1: 799262
Critical_ROB_Stalls_Percent_2_Bucket_2: 12028
Non-critical_ROB_Stalls_Percent_2_Bucket_2: 365524
Critical_ROB_Stalls_Percent_2_Bucket_3: 10854
Non-critical_ROB_Stalls_Percent_2_Bucket_3: 181237
Critical_ROB_Stalls_Percent_2_Bucket_4: 7823
Non-critical_ROB_Stalls_Percent_2_Bucket_4: 74015
Critical_ROB_Stalls_Percent_2_Bucket_5: 7638
Non-critical_ROB_Stalls_Percent_2_Bucket_5: 40535
Critical_ROB_Stalls_Percent_2_Bucket_6: 100627
Non-critical_ROB_Stalls_Percent_2_Bucket_6: 231602
Critical_ROB_Stalls_Percent_3_Bucket_0: 1845
Non-critical_ROB_Stalls_Percent_3_Bucket_0: 1067738
Critical_ROB_Stalls_Percent_3_Bucket_1: 5677
Non-critical_ROB_Stalls_Percent_3_Bucket_1: 799262
Critical_ROB_Stalls_Percent_3_Bucket_2: 12028
Non-critical_ROB_Stalls_Percent_3_Bucket_2: 365524
Critical_ROB_Stalls_Percent_3_Bucket_3: 10854
Non-critical_ROB_Stalls_Percent_3_Bucket_3: 181237
Critical_ROB_Stalls_Percent_3_Bucket_4: 7823
Non-critical_ROB_Stalls_Percent_3_Bucket_4: 74015
Critical_ROB_Stalls_Percent_3_Bucket_5: 7638
Non-critical_ROB_Stalls_Percent_3_Bucket_5: 40535
Critical_ROB_Stalls_Percent_3_Bucket_6: 100627
Non-critical_ROB_Stalls_Percent_3_Bucket_6: 231602
Critical_ROB_Stalls_Percent_4_Bucket_0: 1845
Non-critical_ROB_Stalls_Percent_4_Bucket_0: 1067738
Critical_ROB_Stalls_Percent_4_Bucket_1: 5677
Non-critical_ROB_Stalls_Percent_4_Bucket_1: 799262
Critical_ROB_Stalls_Percent_4_Bucket_2: 12028
Non-critical_ROB_Stalls_Percent_4_Bucket_2: 365524
Critical_ROB_Stalls_Percent_4_Bucket_3: 10854
Non-critical_ROB_Stalls_Percent_4_Bucket_3: 181237
Critical_ROB_Stalls_Percent_4_Bucket_4: 7823
Non-critical_ROB_Stalls_Percent_4_Bucket_4: 74015
Critical_ROB_Stalls_Percent_4_Bucket_5: 7638
Non-critical_ROB_Stalls_Percent_4_Bucket_5: 40535
Critical_ROB_Stalls_Percent_4_Bucket_6: 100627
Non-critical_ROB_Stalls_Percent_4_Bucket_6: 231602
Critical_ROB_Stalls_Percent_5_Bucket_0: 1845
Non-critical_ROB_Stalls_Percent_5_Bucket_0: 1067738
Critical_ROB_Stalls_Percent_5_Bucket_1: 5677
Non-critical_ROB_Stalls_Percent_5_Bucket_1: 799262
Critical_ROB_Stalls_Percent_5_Bucket_2: 12028
Non-critical_ROB_Stalls_Percent_5_Bucket_2: 365524
Critical_ROB_Stalls_Percent_5_Bucket_3: 10854
Non-critical_ROB_Stalls_Percent_5_Bucket_3: 181237
Critical_ROB_Stalls_Percent_5_Bucket_4: 7823
Non-critical_ROB_Stalls_Percent_5_Bucket_4: 74015
Critical_ROB_Stalls_Percent_5_Bucket_5: 7638
Non-critical_ROB_Stalls_Percent_5_Bucket_5: 40535
Critical_ROB_Stalls_Percent_5_Bucket_6: 100627
Non-critical_ROB_Stalls_Percent_5_Bucket_6: 231602
Critical_ROB_Stalls_Percent_6_Bucket_0: 1845
Non-critical_ROB_Stalls_Percent_6_Bucket_0: 1067738
Critical_ROB_Stalls_Percent_6_Bucket_1: 5677
Non-critical_ROB_Stalls_Percent_6_Bucket_1: 799262
Critical_ROB_Stalls_Percent_6_Bucket_2: 12028
Non-critical_ROB_Stalls_Percent_6_Bucket_2: 365524
Critical_ROB_Stalls_Percent_6_Bucket_3: 10854
Non-critical_ROB_Stalls_Percent_6_Bucket_3: 181237
Critical_ROB_Stalls_Percent_6_Bucket_4: 7823
Non-critical_ROB_Stalls_Percent_6_Bucket_4: 74015
Critical_ROB_Stalls_Percent_6_Bucket_5: 7638
Non-critical_ROB_Stalls_Percent_6_Bucket_5: 40535
Critical_ROB_Stalls_Percent_6_Bucket_6: 100627
Non-critical_ROB_Stalls_Percent_6_Bucket_6: 231602
Critical_ROB_Stalls_Percent_7_Bucket_0: 1845
Non-critical_ROB_Stalls_Percent_7_Bucket_0: 1067738
Critical_ROB_Stalls_Percent_7_Bucket_1: 5677
Non-critical_ROB_Stalls_Percent_7_Bucket_1: 799262
Critical_ROB_Stalls_Percent_7_Bucket_2: 12028
Non-critical_ROB_Stalls_Percent_7_Bucket_2: 365524
Critical_ROB_Stalls_Percent_7_Bucket_3: 10854
Non-critical_ROB_Stalls_Percent_7_Bucket_3: 181237
Critical_ROB_Stalls_Percent_7_Bucket_4: 7823
Non-critical_ROB_Stalls_Percent_7_Bucket_4: 74015
Critical_ROB_Stalls_Percent_7_Bucket_5: 7638
Non-critical_ROB_Stalls_Percent_7_Bucket_5: 40535
Critical_ROB_Stalls_Percent_7_Bucket_6: 100627
Non-critical_ROB_Stalls_Percent_7_Bucket_6: 231602
Critical_ROB_Stalls_Percent_8_Bucket_0: 1845
Non-critical_ROB_Stalls_Percent_8_Bucket_0: 1067738
Critical_ROB_Stalls_Percent_8_Bucket_1: 5677
Non-critical_ROB_Stalls_Percent_8_Bucket_1: 799262
Critical_ROB_Stalls_Percent_8_Bucket_2: 12028
Non-critical_ROB_Stalls_Percent_8_Bucket_2: 365524
Critical_ROB_Stalls_Percent_8_Bucket_3: 10854
Non-critical_ROB_Stalls_Percent_8_Bucket_3: 181237
Critical_ROB_Stalls_Percent_8_Bucket_4: 7823
Non-critical_ROB_Stalls_Percent_8_Bucket_4: 74015
Critical_ROB_Stalls_Percent_8_Bucket_5: 7638
Non-critical_ROB_Stalls_Percent_8_Bucket_5: 40535
Critical_ROB_Stalls_Percent_8_Bucket_6: 100627
Non-critical_ROB_Stalls_Percent_8_Bucket_6: 231602
Average ROB occupancy Load Stall Begin: 99.102
Average ROB occupancy Load Stall End: 108.191
Min ROB occupancy Load Stall Begin: 1
Max ROB occupancy Load Stall Begin: 352
Min ROB occupancy Load Stall End: 1
Max ROB occupancy Load Stall End: 352
Average ROB occupancy Critical Load Stall Begin: -nan
Average ROB occupancy Critical Load Stall End: -nan
Min ROB occupancy Critical Load Stall Begin: 400
Max ROB occupancy Critical Load Stall Begin: 0
Min ROB occupancy Critical Load Stall End: 400
Max ROB occupancy Critical Load Stall End: 0
 ROB Load Stall Begin Bucket Count 0: 1335749
 ROB Load Stall End Bucket Count 0: 1069583
 ROB Critical Load Stall Begin Bucket Count 0: 0
 ROB Critical Load Stall End Bucket Count 0: 0
 ROB Load Stall Begin Bucket Count 1: 647254
 ROB Load Stall End Bucket Count 1: 804939
 ROB Critical Load Stall Begin Bucket Count 1: 0
 ROB Critical Load Stall End Bucket Count 1: 0
 ROB Load Stall Begin Bucket Count 2: 327039
 ROB Load Stall End Bucket Count 2: 377552
 ROB Critical Load Stall Begin Bucket Count 2: 0
 ROB Critical Load Stall End Bucket Count 2: 0
 ROB Load Stall Begin Bucket Count 3: 160255
 ROB Load Stall End Bucket Count 3: 192091
 ROB Critical Load Stall Begin Bucket Count 3: 0
 ROB Critical Load Stall End Bucket Count 3: 0
 ROB Load Stall Begin Bucket Count 4: 70194
 ROB Load Stall End Bucket Count 4: 81838
 ROB Critical Load Stall Begin Bucket Count 4: 0
 ROB Critical Load Stall End Bucket Count 4: 0
 ROB Load Stall Begin Bucket Count 5: 42444
 ROB Load Stall End Bucket Count 5: 48173
 ROB Critical Load Stall Begin Bucket Count 5: 0
 ROB Critical Load Stall End Bucket Count 5: 0
 ROB Load Stall Begin Bucket Count 6: 323470
 ROB Load Stall End Bucket Count 6: 332229
 ROB Critical Load Stall Begin Bucket Count 6: 0
 ROB Critical Load Stall End Bucket Count 6: 0
PIST Tag Read Accesses: 0
PIST Read Accesses: 0
PIST Tag Write Accesses: 0
PIST Write Accesses: 0
Criticality detector called times: 0
Max global_stall_cycles_count: 0
Threshold Modified: 0 times, factor: 0
ITLB TOTAL     ACCESS:    8766346  HIT:    8587123  MISS:     179223  HIT %:    97.9556  MISS %:    2.04444   MPKI: 3.58446
ITLB LOAD TRANSLATION ACCESS:    8148193  HIT:    8135890  MISS:      12303  HIT %:     99.849  MISS %:   0.150991   MPKI: 0.24606
ITLB TRANSLATION FROM L1D PREFETCHER ACCESS:     618153  HIT:     451233  MISS:     166920  HIT %:     72.997  MISS %:     27.003   MPKI: 3.3384
ITLB PREFETCH  REQUESTED:          0  ISSUED:          0  USEFUL:     141079  USELESS:      25844
ITLB USEFUL LOAD PREFETCHES:     141079 PREFETCH ISSUED TO LOWER LEVEL:          0  ACCURACY: inf
ITLB TIMELY PREFETCHES:     141079 LATE PREFETCHES: 38 DROPPED PREFETCHES: 16
ITLB PREFETCHES SAME FILL-ORIGIN LEVEL: 0 DIFFERENT FILL-ORIGIN LEVEL: 0
ITLB AVERAGE MISS LATENCY: 6553.09 cycles
ITLB RQ	ACCESS:   11235189	FORWARD:          0	MERGED:    2456259	TO_CACHE:    8778930

DTLB TOTAL     ACCESS:   11619574  HIT:   11302688  MISS:     316886  HIT %:    97.2728  MISS %:    2.72717   MPKI: 6.33772
DTLB LOAD TRANSLATION ACCESS:   11619574  HIT:   11302688  MISS:     316886  HIT %:    97.2728  MISS %:    2.72717   MPKI: 6.33772
DTLB PREFETCH  REQUESTED:          0  ISSUED:          0  USEFUL:          0  USELESS:          0
DTLB USEFUL LOAD PREFETCHES:          0 PREFETCH ISSUED TO LOWER LEVEL:          0  ACCURACY: -nan
DTLB TIMELY PREFETCHES:          0 LATE PREFETCHES: 0 DROPPED PREFETCHES: 0
DTLB PREFETCHES SAME FILL-ORIGIN LEVEL: 0 DIFFERENT FILL-ORIGIN LEVEL: 0
DTLB AVERAGE MISS LATENCY: 10.3627 cycles
DTLB RQ	ACCESS:   13886737	FORWARD:          0	MERGED:    2250588	TO_CACHE:   11636149

STLB TOTAL     ACCESS:     496109  HIT:     491893  MISS:       4216  HIT %:    99.1502  MISS %:   0.849813   MPKI: 0.08432
STLB LOAD TRANSLATION ACCESS:     329151  HIT:     325251  MISS:       3900  HIT %:    98.8151  MISS %:    1.18487   MPKI: 0.078
STLB TRANSLATION FROM L1D PREFETCHER ACCESS:     166958  HIT:     166642  MISS:        316  HIT %:    99.8107  MISS %:   0.189269   MPKI: 0.00632
STLB PREFETCH  REQUESTED:          0  ISSUED:          0  USEFUL:        243  USELESS:         59
STLB USEFUL LOAD PREFETCHES:        243 PREFETCH ISSUED TO LOWER LEVEL:          0  ACCURACY: inf
STLB TIMELY PREFETCHES:        243 LATE PREFETCHES: 0 DROPPED PREFETCHES: 16
STLB PREFETCHES SAME FILL-ORIGIN LEVEL: 0 DIFFERENT FILL-ORIGIN LEVEL: 0
STLB AVERAGE MISS LATENCY: 125.396 cycles
STLB RQ	ACCESS:     496125	FORWARD:          0	MERGED:          0	TO_CACHE:     496125

STLB Hit, L1D data hit: 0
STLB Hit, L2C data hit: 0
STLB Hit, LLC data hit: 0
STLB Hit, LLC data miss: 0
STLB STLB hints to L2: 0
L1D TOTAL     ACCESS:   13716758  HIT:   13150640  MISS:     566118  HIT %:    95.8728  MISS %:     4.1272   MPKI: 11.3224
L1D LOAD      ACCESS:    8798622  HIT:    8308594  MISS:     490028  HIT %:    94.4306  MISS %:    5.56937   MPKI: 9.80056
L1D RFO       ACCESS:    4918136  HIT:    4842046  MISS:      76090  HIT %:    98.4529  MISS %:    1.54713   MPKI: 1.5218
L1D PREFETCH  REQUESTED:          0  ISSUED:          0  USEFUL:          0  USELESS:          0
L1D USEFUL LOAD PREFETCHES:          0 PREFETCH ISSUED TO LOWER LEVEL:          0  ACCURACY: -nan
L1D TIMELY PREFETCHES:          0 LATE PREFETCHES: 0 DROPPED PREFETCHES: 0
L1D PREFETCHES SAME FILL-ORIGIN LEVEL: 0 DIFFERENT FILL-ORIGIN LEVEL: 0
L1D AVERAGE MISS LATENCY: 51.3962 cycles
L1D RQ	ACCESS:   12810368	FORWARD:          0	MERGED:    3875867	TO_CACHE:    8848967
L1D WQ	ACCESS:    5437654	FORWARD:      85534	MERGED:     399884	TO_CACHE:    5037770

L1D UNIQUE REGIONS ACCESSED: 0
L1D REGIONS CONFLICTS: 0
L1D Cross Page Prefetch Requests: 0
L1D Same Page Prefetch Requests: 0
L1D ROI Sum of L1D PQ occupancy: 0
L1D PREFETCHES PUSHED FROM L2C: 0
L1I TOTAL     ACCESS:   11205535  HIT:   10034296  MISS:    1171239  HIT %:    89.5477  MISS %:    10.4523   MPKI: 23.4248
L1I LOAD      ACCESS:    9639557  HIT:    9594887  MISS:      44670  HIT %:    99.5366  MISS %:   0.463403   MPKI: 0.8934
L1I PREFETCH  ACCESS:    1565978  HIT:     439409  MISS:    1126569  HIT %:    28.0597  MISS %:    71.9403   MPKI: 22.5314
L1I PREFETCH  REQUESTED:    1614426  ISSUED:    1613948  USEFUL:     846426  USELESS:     280186
L1I USEFUL LOAD PREFETCHES:     846426 PREFETCH ISSUED TO LOWER LEVEL:    1133593  ACCURACY: 74.6675
L1I TIMELY PREFETCHES:     846426 LATE PREFETCHES: 6610 DROPPED PREFETCHES: 21
L1I PREFETCHES SAME FILL-ORIGIN LEVEL: 1133593 DIFFERENT FILL-ORIGIN LEVEL: 0
L1I AVERAGE MISS LATENCY: 249722 cycles
L1I RQ	ACCESS:   14354487	FORWARD:          0	MERGED:    4707822	TO_CACHE:    9646665
L1I PQ	ACCESS:    1613948	FORWARD:          0	MERGED:      25424	TO_CACHE:    1588524

BTB TOTAL     ACCESS:    6145704  HIT:    5759281  MISS:     386423  HIT %:    93.7123  MISS %:    6.28769   MPKI: 7.72846
BTB BRANCH_DIRECT_JUMP	ACCESS:     735331  HIT:     732025  MISS:       3306
BTB BRANCH_INDIRECT	ACCESS:     269194  HIT:     145703  MISS:     123491
BTB BRANCH_CONDITIONAL	ACCESS:    3930750  HIT:    3920624  MISS:      10126
BTB BRANCH_DIRECT_CALL	ACCESS:     368758  HIT:     363374  MISS:       5384
BTB BRANCH_INDIRECT_CALL	ACCESS:     226975  HIT:     162973  MISS:      64002
BTB BRANCH_RETURN	ACCESS:     614696  HIT:     434582  MISS:     180114
BTB BRANCH_OTHER ACCESS:          0  HIT:          0  MISS:          0

L2C TOTAL     ACCESS:    2049575  HIT:    1846083  MISS:     203492  HIT %:    90.0715  MISS %:     9.9285   MPKI: 4.06984
L2C LOAD      ACCESS:     527963  HIT:     435277  MISS:      92686  HIT %:    82.4446  MISS %:    17.5554   MPKI: 1.85372
L2C DATA LOAD MPKI: 1.76884
L2C INSTRUCTION LOAD MPKI: 0.08488
L2C RFO       ACCESS:      76082  HIT:      29806  MISS:      46276  HIT %:    39.1762  MISS %:    60.8238   MPKI: 0.92552
L2C PREFETCH  ACCESS:    1208954  HIT:    1148359  MISS:      60595  HIT %:    94.9878  MISS %:    5.01218   MPKI: 1.2119
L2C DATA PREFETCH MPKI: 1.0377
L2C INSTRUCTION PREFETCH MPKI: 0.1742
L2C WRITEBACK ACCESS:     232151  HIT:     230026  MISS:       2125  HIT %:    99.0846  MISS %:   0.915353   MPKI: 0.0425
L2C LOAD TRANSLATION ACCESS:       4070  HIT:       2471  MISS:       1599  HIT %:    60.7125  MISS %:    39.2875   MPKI: 0.03198
L2C TRANSLATION FROM L1D PREFETCHER ACCESS:        355  HIT:        144  MISS:        211  HIT %:    40.5634  MISS %:    59.4366   MPKI: 0.00422
L2C PREFETCH  REQUESTED:      76798  ISSUED:      76798  USEFUL:      30605  USELESS:      31881
L2C USEFUL LOAD PREFETCHES:      30605 PREFETCH ISSUED TO LOWER LEVEL:      60978  ACCURACY: 50.1902
L2C TIMELY PREFETCHES:      30605 LATE PREFETCHES: 383 DROPPED PREFETCHES: 0
L2C PREFETCHES SAME FILL-ORIGIN LEVEL: 52268 DIFFERENT FILL-ORIGIN LEVEL: 0
L2C AVERAGE MISS LATENCY: 150.205 cycles
L2C RQ	ACCESS:     608603	FORWARD:          0	MERGED:          0	TO_CACHE:     608470
L2C WQ	ACCESS:     232151	FORWARD:        133	MERGED:          0	TO_CACHE:     232151
L2C PQ	ACCESS:    1209977	FORWARD:          0	MERGED:          0	TO_CACHE:    1209977

L2C Instructions Evicting Data 9575
L2C Translations Evicting Data 1458
L2C Data Evicting Data 172628
L2C Instructions Evicting Instructions 3083
L2C Translations Evicting Instructions 321
L2C Data Evicting Instructions 12331
L2C Instructions Evicting Translations 296
L2C Translations Evicting Translations 31
L2C Data Evicting Translations 1644
L2C Dense regions hint from L2: 0
PSCL5 TOTAL     ACCESS:       4232  HIT:       4232  MISS:          0  HIT %:        100  MISS %:          0   MPKI: 0
PSCL5 LOAD TRANSLATION ACCESS:       3900  HIT:       3900  MISS:          0  HIT %:        100  MISS %:          0   MPKI: 0
PSCL5 TRANSLATION FROM L1D PREFETCHER ACCESS:        332  HIT:        332  MISS:          0  HIT %:        100  MISS %:          0   MPKI: 0
PSCL5 PREFETCH  REQUESTED:          0  ISSUED:          0  USEFUL:          0  USELESS:          0
PSCL5 USEFUL LOAD PREFETCHES:          0 PREFETCH ISSUED TO LOWER LEVEL:          0  ACCURACY: -nan
PSCL5 TIMELY PREFETCHES:          0 LATE PREFETCHES: 0 DROPPED PREFETCHES: 0
PSCL5 PREFETCHES SAME FILL-ORIGIN LEVEL: 0 DIFFERENT FILL-ORIGIN LEVEL: 0

PSCL4 TOTAL     ACCESS:       3933  HIT:       3926  MISS:          7  HIT %:     99.822  MISS %:   0.177981   MPKI: 0.00014
PSCL4 LOAD TRANSLATION ACCESS:       3635  HIT:       3628  MISS:          7  HIT %:    99.8074  MISS %:   0.192572   MPKI: 0.00014
PSCL4 TRANSLATION FROM L1D PREFETCHER ACCESS:        298  HIT:        298  MISS:          0  HIT %:        100  MISS %:          0   MPKI: 0
PSCL4 PREFETCH  REQUESTED:          0  ISSUED:          0  USEFUL:          0  USELESS:          0
PSCL4 USEFUL LOAD PREFETCHES:          0 PREFETCH ISSUED TO LOWER LEVEL:          0  ACCURACY: -nan
PSCL4 TIMELY PREFETCHES:          0 LATE PREFETCHES: 0 DROPPED PREFETCHES: 0
PSCL4 PREFETCHES SAME FILL-ORIGIN LEVEL: 0 DIFFERENT FILL-ORIGIN LEVEL: 0

PSCL3 TOTAL     ACCESS:       4175  HIT:       4158  MISS:         17  HIT %:    99.5928  MISS %:   0.407186   MPKI: 0.00034
PSCL3 LOAD TRANSLATION ACCESS:       3853  HIT:       3836  MISS:         17  HIT %:    99.5588  MISS %:   0.441215   MPKI: 0.00034
PSCL3 TRANSLATION FROM L1D PREFETCHER ACCESS:        322  HIT:        322  MISS:          0  HIT %:        100  MISS %:          0   MPKI: 0
PSCL3 PREFETCH  REQUESTED:          0  ISSUED:          0  USEFUL:          0  USELESS:          0
PSCL3 USEFUL LOAD PREFETCHES:          0 PREFETCH ISSUED TO LOWER LEVEL:          0  ACCURACY: -nan
PSCL3 TIMELY PREFETCHES:          0 LATE PREFETCHES: 0 DROPPED PREFETCHES: 0
PSCL3 PREFETCHES SAME FILL-ORIGIN LEVEL: 0 DIFFERENT FILL-ORIGIN LEVEL: 0

PSCL2 TOTAL     ACCESS:       4232  HIT:       4058  MISS:        174  HIT %:    95.8885  MISS %:    4.11153   MPKI: 0.00348
PSCL2 LOAD TRANSLATION ACCESS:       3921  HIT:       3747  MISS:        174  HIT %:    95.5624  MISS %:    4.43764   MPKI: 0.00348
PSCL2 TRANSLATION FROM L1D PREFETCHER ACCESS:        311  HIT:        311  MISS:          0  HIT %:        100  MISS %:          0   MPKI: 0
PSCL2 PREFETCH  REQUESTED:          0  ISSUED:          0  USEFUL:          0  USELESS:          0
PSCL2 USEFUL LOAD PREFETCHES:          0 PREFETCH ISSUED TO LOWER LEVEL:          0  ACCURACY: -nan
PSCL2 TIMELY PREFETCHES:          0 LATE PREFETCHES: 0 DROPPED PREFETCHES: 0
PSCL2 PREFETCHES SAME FILL-ORIGIN LEVEL: 0 DIFFERENT FILL-ORIGIN LEVEL: 0

LLC TOTAL     ACCESS:     272911  HIT:     130376  MISS:     142535  HIT %:    47.7724  MISS %:    52.2276   MPKI: 2.8507
LLC LOAD      ACCESS:      92306  HIT:      34461  MISS:      57845  HIT %:    37.3334  MISS %:    62.6666   MPKI: 1.1569
LLC RFO       ACCESS:      46273  HIT:       4839  MISS:      41434  HIT %:    10.4575  MISS %:    89.5425   MPKI: 0.82868
LLC PREFETCH  ACCESS:      60978  HIT:      21226  MISS:      39752  HIT %:    34.8093  MISS %:    65.1907   MPKI: 0.79504
LLC WRITEBACK ACCESS:      71544  HIT:      69156  MISS:       2388  HIT %:    96.6622  MISS %:    3.33781   MPKI: 0.04776
LLC LOAD TRANSLATION ACCESS:       1599  HIT:        601  MISS:        998  HIT %:     37.586  MISS %:     62.414   MPKI: 0.01996
LLC TRANSLATION FROM L1D PREFETCHER ACCESS:        211  HIT:         93  MISS:        118  HIT %:    44.0758  MISS %:    55.9242   MPKI: 0.00236
LLC PREFETCH  REQUESTED:          0  ISSUED:          0  USEFUL:       6157  USELESS:      31243
LLC USEFUL LOAD PREFETCHES:       6157 PREFETCH ISSUED TO LOWER LEVEL:      39752  ACCURACY: 15.4885
LLC TIMELY PREFETCHES:       6157 LATE PREFETCHES: 0 DROPPED PREFETCHES: 0
LLC PREFETCHES SAME FILL-ORIGIN LEVEL: 0 DIFFERENT FILL-ORIGIN LEVEL: 0
LLC AVERAGE MISS LATENCY: 171.505 cycles
LLC RQ	ACCESS:     140389	FORWARD:          0	MERGED:          0	TO_CACHE:     140389
LLC WQ	ACCESS:      71544	FORWARD:          0	MERGED:          0	TO_CACHE:      71544
LLC PQ	ACCESS:      60978	FORWARD:          0	MERGED:          0	TO_CACHE:      60978

LLC Dense regions hint to LLC: 0

RAW hits: 1069567
Loads Generated: 13879936
Loads sent to L1D: 12810368
Stores Generated: 5437650
Stores sent to L1D: 5437654
Major fault: 0 Minor fault: 4494
Allocated PAGES: 4494
I-Shadow cache 408 bytes
Touched + WorthPF tables 6144 bytes 
MMA filter 174 bytes 
FNL filter 272 bytes 
TOTAL PREFETCHER STORAGE SIZE: 25174 bytes
CPU 0 L1I next line prefetcher final stats
[Bingo] PHT Access: 16754
[Bingo] PHT Hit PC+Addr: 3285
[Bingo] PHT Hit PC+Offs: 6288
[Bingo] PHT Miss: 7181
[Bingo] Prefetch PC+Addr: 0
[Bingo] Prefetch PC+Offs: 0
[Bingo] Useful PC+Addr: 0
[Bingo] Useful PC+Offs: 0
[Bingo] Useless PC+Addr: 0
[Bingo] Useless PC+Offs: 0
[Bingo] L1 Prefetch per Region: 0
[Bingo] L2 Prefetch per Region: 9.21216
[Bingo] L3 Prefetch per Region: 0
[Bingo] No Prefetch per Region: 22.7878
[Bingo] Number of Voters Mean: 5.01495
[Bingo] Number of Voters SD: 5.10864
PHT read accesses: 97016
PHT write accesses: 9698
AT read accesses: 165344
AT write accesses: 168294
FT read accesses: 49276
FT write accesses: 16754
PS read accesses: 20964
PS write accesses: 9573
PHT tag read accesses: 448900
PHT tag write accesses: 12983
AT tag read accesses: 6605646
AT tag write accesses: 175002
FT tag read accesses: 4397945
FT tag write accesses: 47657
PS tag read accesses: 3272788
PS tag write accesses: 30291

DRAM Statistics
 CHANNEL 0
 RQ ROW_BUFFER_HIT:      37859  ROW_BUFFER_MISS:     102283
 DBUS_CONGESTED:         50
 WQ ROW_BUFFER_HIT:      10721  ROW_BUFFER_MISS:      52209  FULL:          0

 AVG_CONGESTED_CYCLE: 4
 All warmup complete: 2
Channel 0 Bank busy for read cycles: 0
Channel 0 Bank busy for write cycles: 0
Channel 0
Rank 0
0banks busy for read cycles: 55355809
0banks busy for write cycles: 20074
1banks busy for read cycles: 6164264
1banks busy for write cycles: 2836864
2banks busy for read cycles: 1592846
2banks busy for write cycles: 865329
3banks busy for read cycles: 689395
3banks busy for write cycles: 409212
4banks busy for read cycles: 271114
4banks busy for write cycles: 265002
5banks busy for read cycles: 209446
5banks busy for write cycles: 183495
6banks busy for read cycles: 150067
6banks busy for write cycles: 154639
7banks busy for read cycles: 145446
7banks busy for write cycles: 152649
8banks busy for read cycles: 224939
8banks busy for write cycles: 416672

CPU 0 Branch Prediction Accuracy: 98.8607% MPKI: 1.8623 Average ROB Occupancy at Mispredict: 73.4745
Branch types
NOT_BRANCH: 41826774 83.6535%
BRANCH_DIRECT_JUMP: 735331 1.47066%
BRANCH_INDIRECT: 269194 0.538388%
BRANCH_CONDITIONAL: 5957947 11.9159%
BRANCH_DIRECT_CALL: 368758 0.737516%
BRANCH_INDIRECT_CALL: 226975 0.45395%
BRANCH_RETURN: 614696 1.22939%
BRANCH_OTHER: 0 0%

DRAM PAGES: 1048576
Allocated PAGES: 4494
