Initialize SIGNATURE TABLE
ST_SET: 1
ST_WAY: 256
ST_TAG_BIT: 16
ST_TAG_MASK: ffff

Initialize PATTERN TABLE
PT_SET: 512
PT_WAY: 4
SIG_DELTA_BIT: 7
C_SIG_BIT: 4
C_DELTA_BIT: 4

Initialize PREFETCH FILTER
FILTER_SET: 1024
MANA initialize 
tds: 2 tdm: 4
size MANA SINGLE: 25.5 KB
size MANA NULTIPLE: 9.875 KB
size HOBPT: 0.703125 KB
size SRQ: 0.0644531 KB
size SABs: 0.0402832 KB
size prefetch queue: 0.453125 KB
total: 36.636 KB

*** ChampSim Multicore Out-of-Order Simulator ***

Warmup Instructions: 50000000
Simulation Instructions: 50000000
Number of CPUs: 1
LLC sets: 2048
LLC ways: 16
Off-chip DRAM Size: 4096 MB Channels: 1 Width: 64-bit Data Rate: 6400 MT/s
CPU 0 runs ../IPC-traces//client_005.champsimtrace.xz
.xz
BTB has LRU replacement policy
ITLB has LRU replacement policy
DTLB has LRU replacement policy
STLB has LRU replacement policy
L1I has LRU replacement policy
L1D has LRU replacement policy
Initialize SRRIP state for L2C
Initialize DRRIP state for LLC
Heartbeat CPU 0 instructions: 10000001 cycles: 2908403 heartbeat IPC: 3.43831 cumulative IPC: 3.43831 (Simulation time: 0 hr 4 min 57 sec) 
Heartbeat CPU 0 instructions: 20000002 cycles: 5802439 heartbeat IPC: 3.45538 cumulative IPC: 3.44683 (Simulation time: 0 hr 8 min 34 sec) 
Heartbeat CPU 0 instructions: 30000000 cycles: 8672492 heartbeat IPC: 3.48426 cumulative IPC: 3.45921 (Simulation time: 0 hr 12 min 22 sec) 
Heartbeat CPU 0 instructions: 40000000 cycles: 11541685 heartbeat IPC: 3.4853 cumulative IPC: 3.4657 (Simulation time: 0 hr 16 min 15 sec) 
Heartbeat CPU 0 instructions: 50000001 cycles: 14547809 heartbeat IPC: 3.32654 cumulative IPC: 3.43694 (Simulation time: 0 hr 18 min 49 sec) 

Warmup complete CPU 0 instructions: 50000001 cycles: 14547809 (Simulation time: 0 hr 18 min 49 sec) 

Epoch all ip prefetch: 0, epoch id: 2
Epoch all ip prefetch: 1, epoch id: 3
Epoch all ip prefetch: 0, epoch id: 4
Epoch all ip prefetch: 0, epoch id: 5
Epoch all ip prefetch: 0, epoch id: 6
Epoch all ip prefetch: 0, epoch id: 7
Epoch all ip prefetch: 0, epoch id: 8
Epoch all ip prefetch: 0, epoch id: 9
Epoch all ip prefetch: 0, epoch id: 10
Epoch all ip prefetch: 0, epoch id: 11
Heartbeat CPU 0 instructions: 60000001 cycles: 30886584 heartbeat IPC: 0.612041 cumulative IPC: 0.612041 (Simulation time: 0 hr 22 min 23 sec) 
Epoch all ip prefetch: 0, epoch id: 12
Epoch all ip prefetch: 0, epoch id: 13
Epoch all ip prefetch: 0, epoch id: 14
Epoch all ip prefetch: 0, epoch id: 15
Epoch all ip prefetch: 0, epoch id: 16
Epoch all ip prefetch: 0, epoch id: 17
Epoch all ip prefetch: 0, epoch id: 18
Epoch all ip prefetch: 0, epoch id: 19
Epoch all ip prefetch: 0, epoch id: 20
Epoch all ip prefetch: 0, epoch id: 21
Heartbeat CPU 0 instructions: 70000002 cycles: 45112885 heartbeat IPC: 0.702923 cumulative IPC: 0.654342 (Simulation time: 0 hr 25 min 49 sec) 
Epoch all ip prefetch: 0, epoch id: 22
Epoch all ip prefetch: 0, epoch id: 23
Epoch all ip prefetch: 0, epoch id: 24
Epoch all ip prefetch: 0, epoch id: 25
Epoch all ip prefetch: 0, epoch id: 26
Epoch all ip prefetch: 0, epoch id: 27
Epoch all ip prefetch: 0, epoch id: 28
Epoch all ip prefetch: 0, epoch id: 29
Epoch all ip prefetch: 0, epoch id: 30
Epoch all ip prefetch: 0, epoch id: 31
Heartbeat CPU 0 instructions: 80000003 cycles: 58098045 heartbeat IPC: 0.77011 cumulative IPC: 0.68886 (Simulation time: 0 hr 29 min 26 sec) 
Epoch all ip prefetch: 0, epoch id: 32
Epoch all ip prefetch: 0, epoch id: 33
Epoch all ip prefetch: 0, epoch id: 34
Epoch all ip prefetch: 0, epoch id: 35
Epoch all ip prefetch: 0, epoch id: 36
Epoch all ip prefetch: 0, epoch id: 37
Epoch all ip prefetch: 0, epoch id: 38
Epoch all ip prefetch: 0, epoch id: 39
Epoch all ip prefetch: 0, epoch id: 40
Epoch all ip prefetch: 0, epoch id: 41
Heartbeat CPU 0 instructions: 90000002 cycles: 73753680 heartbeat IPC: 0.638748 cumulative IPC: 0.675609 (Simulation time: 0 hr 33 min 11 sec) 
Epoch all ip prefetch: 0, epoch id: 42
Epoch all ip prefetch: 0, epoch id: 43
Epoch all ip prefetch: 0, epoch id: 44
Epoch all ip prefetch: 0, epoch id: 45
Epoch all ip prefetch: 0, epoch id: 46
Epoch all ip prefetch: 0, epoch id: 47
Epoch all ip prefetch: 0, epoch id: 48
Epoch all ip prefetch: 0, epoch id: 49
Epoch all ip prefetch: 0, epoch id: 50
Epoch all ip prefetch: 0, epoch id: 51
Heartbeat CPU 0 instructions: 100000002 cycles: 89208221 heartbeat IPC: 0.647059 cumulative IPC: 0.669699 (Simulation time: 0 hr 36 min 14 sec) 
Finished CPU 0 instructions: 50000001 cycles: 74660412 cumulative IPC: 0.669699 (Simulation time: 0 hr 36 min 14 sec) 

ChampSim completed all CPUs

Region of Interest Statistics

CPU 0 cumulative IPC: 0.669699 instructions: 50000001 cycles: 74660412

CPU 0 Average Load ROB stall cycles: 3.42325
CPU 0 Fraction of times ROB stalled by Loads: 25.1807
CPU 0 Percentage of Load stall cycles in Total stall cycles: 51.7349
CPU 0 NUM of IPS identified critical: 0

Average ROB occupancy Load Stall Begin: 60.647
Average ROB occupancy Load Stall End: 69.5454
Min ROB occupancy Load Stall Begin: 1
Max ROB occupancy Load Stall Begin: 351
Min ROB occupancy Load Stall End: 1
Max ROB occupancy Load Stall End: 352
Average ROB occupancy Critical Load Stall Begin: -nan
Average ROB occupancy Critical Load Stall End: -nan
Min ROB occupancy Critical Load Stall Begin: 400
Max ROB occupancy Critical Load Stall Begin: 0
Min ROB occupancy Critical Load Stall End: 400
Max ROB occupancy Critical Load Stall End: 0
 ROB Load Stall Begin Bucket Count 0: 1124209
 ROB Load Stall End Bucket Count 0: 976822
 ROB Critical Load Stall Begin Bucket Count 0: 0
 ROB Critical Load Stall End Bucket Count 0: 0
 ROB Load Stall Begin Bucket Count 1: 504436
 ROB Load Stall End Bucket Count 1: 567389
 ROB Critical Load Stall Begin Bucket Count 1: 0
 ROB Critical Load Stall End Bucket Count 1: 0
 ROB Load Stall Begin Bucket Count 2: 222384
 ROB Load Stall End Bucket Count 2: 271425
 ROB Critical Load Stall Begin Bucket Count 2: 0
 ROB Critical Load Stall End Bucket Count 2: 0
 ROB Load Stall Begin Bucket Count 3: 68431
 ROB Load Stall End Bucket Count 3: 91651
 ROB Critical Load Stall Begin Bucket Count 3: 0
 ROB Critical Load Stall End Bucket Count 3: 0
 ROB Load Stall Begin Bucket Count 4: 23553
 ROB Load Stall End Bucket Count 4: 30249
 ROB Critical Load Stall Begin Bucket Count 4: 0
 ROB Critical Load Stall End Bucket Count 4: 0
 ROB Load Stall Begin Bucket Count 5: 17402
 ROB Load Stall End Bucket Count 5: 19519
 ROB Critical Load Stall Begin Bucket Count 5: 0
 ROB Critical Load Stall End Bucket Count 5: 0
 ROB Load Stall Begin Bucket Count 6: 27944
 ROB Load Stall End Bucket Count 6: 31304
 ROB Critical Load Stall Begin Bucket Count 6: 0
 ROB Critical Load Stall End Bucket Count 6: 0
Threshold Modified: 2 times, factor: 0
Sturdy critical IP cache stats: 
 Unused entries: 96
Wobbly critical IP cache stats: 
 Unused entries: 192
ITLB TOTAL     ACCESS:   13033667  HIT:   12844331  MISS:     189336  HIT %:    98.5473  MISS %:    1.45267   MPKI: 3.78672
ITLB LOAD TRANSLATION ACCESS:    8241140  HIT:    8186356  MISS:      54784  HIT %:    99.3352  MISS %:   0.664762   MPKI: 1.09568
ITLB TRANSLATION FROM L1D PREFETCHER ACCESS:    4792527  HIT:    4657975  MISS:     134552  HIT %:    97.1925  MISS %:    2.80754   MPKI: 2.69104
ITLB AVERAGE MISS LATENCY: 2.64486e+06 cycles
ITLB RQ	ACCESS:   23190532	FORWARD:          0	MERGED:   10072956	TO_CACHE:   13117576

DTLB TOTAL     ACCESS:   10407753  HIT:   10206025  MISS:     201728  HIT %:    98.0618  MISS %:    1.93825   MPKI: 4.03456
DTLB LOAD TRANSLATION ACCESS:   10407753  HIT:   10206025  MISS:     201728  HIT %:    98.0618  MISS %:    1.93825   MPKI: 4.03456
DTLB AVERAGE MISS LATENCY: 12.9821 cycles
DTLB RQ	ACCESS:   14349879	FORWARD:          0	MERGED:    3911690	TO_CACHE:   10438189

STLB TOTAL     ACCESS:     391064  HIT:     379055  MISS:      12009  HIT %:    96.9291  MISS %:    3.07085   MPKI: 0.24018
STLB LOAD TRANSLATION ACCESS:     246389  HIT:     234895  MISS:      11494  HIT %:     95.335  MISS %:    4.66498   MPKI: 0.22988
STLB TRANSLATION FROM L1D PREFETCHER ACCESS:     144675  HIT:     144160  MISS:        515  HIT %:     99.644  MISS %:    0.35597   MPKI: 0.0103
STLB AVERAGE MISS LATENCY: 80.4547 cycles
STLB RQ	ACCESS:     435045	FORWARD:          0	MERGED:          0	TO_CACHE:     435045

STLB Hit, L1D data hit: 0
STLB Hit, L2C data hit: 0
STLB Hit, LLC data hit: 0
STLB Hit, LLC data miss: 0
STLB STLB hints to L2: 0
L1D TOTAL     ACCESS:   13859701  HIT:   13472437  MISS:     387264  HIT %:    97.2058  MISS %:    2.79417   MPKI: 7.74528
L1D LOAD      ACCESS:    7058699  HIT:    6867987  MISS:     190712  HIT %:    97.2982  MISS %:     2.7018   MPKI: 3.81424
L1D RFO       ACCESS:    6801002  HIT:    6604450  MISS:     196552  HIT %:      97.11  MISS %:    2.89004   MPKI: 3.93104
L1D AVERAGE MISS LATENCY: 106.821 cycles
L1D RQ	ACCESS:   10959674	FORWARD:          0	MERGED:    3720220	TO_CACHE:    7089230
L1D WQ	ACCESS:    7412318	FORWARD:     150224	MERGED:     151669	TO_CACHE:    7260649

L1D UNIQUE REGIONS ACCESSED: 0
L1D REGIONS CONFLICTS: 0
L1D Cross Page Prefetch Requests: 0
L1D Same Page Prefetch Requests: 0
L1D ROI Sum of L1D PQ occupancy: 0
L1D PREFETCHES PUSHED FROM L2C: 0
L1I TOTAL     ACCESS:   22880015  HIT:   21961108  MISS:     918907  HIT %:    95.9838  MISS %:     4.0162   MPKI: 18.3781
L1I LOAD      ACCESS:    9711913  HIT:    9442189  MISS:     269724  HIT %:    97.2228  MISS %:    2.77725   MPKI: 5.39448
L1I PREFETCH  ACCESS:   13168102  HIT:   12518919  MISS:     649183  HIT %:      95.07  MISS %:    4.92997   MPKI: 12.9837
L1I PREFETCH  REQUESTED:   15719423  ISSUED:   14789430  USEFUL:     431473  USELESS:     217679
L1I USEFUL LOAD PREFETCHES:     431473 PREFETCH ISSUED TO LOWER LEVEL:     693276  ACCURACY: 62.2368
L1I TIMELY PREFETCHES:     431473 LATE PREFETCHES: 44093 DROPPED PREFETCHES: 44110
L1I AVERAGE MISS LATENCY: 2.38767e+06 cycles
L1I RQ	ACCESS:   14538556	FORWARD:          0	MERGED:    4785653	TO_CACHE:    9752903
L1I PQ	ACCESS:   14789430	FORWARD:          0	MERGED:    1351801	TO_CACHE:   13437629

BTB TOTAL     ACCESS:    6897148  HIT:    6294108  MISS:     603040  HIT %:    91.2567  MISS %:    8.74332   MPKI: 12.0608
BTB BRANCH_DIRECT_JUMP	ACCESS:     484668  HIT:     467653  MISS:      17015
BTB BRANCH_INDIRECT	ACCESS:      85086  HIT:      43882  MISS:      41204
BTB BRANCH_CONDITIONAL	ACCESS:    3984653  HIT:    3933542  MISS:      51111
BTB BRANCH_DIRECT_CALL	ACCESS:    1028925  HIT:     994062  MISS:      34863
BTB BRANCH_INDIRECT_CALL	ACCESS:     141825  HIT:     105579  MISS:      36246
BTB BRANCH_RETURN	ACCESS:    1171991  HIT:     749390  MISS:     422601
BTB BRANCH_OTHER ACCESS:          0  HIT:          0  MISS:          0

L2C TOTAL     ACCESS:    1936332  HIT:    1590323  MISS:     346009  HIT %:    82.1307  MISS %:    17.8693   MPKI: 6.92018
L2C LOAD      ACCESS:     416339  HIT:     278743  MISS:     137596  HIT %:     66.951  MISS %:     33.049   MPKI: 2.75192
L2C DATA LOAD MPKI: 1.99456
L2C INSTRUCTION LOAD MPKI: 0.75736
L2C RFO       ACCESS:     196549  HIT:      32156  MISS:     164393  HIT %:    16.3603  MISS %:    83.6397   MPKI: 3.28786
L2C PREFETCH  ACCESS:    1025797  HIT:     998680  MISS:      27117  HIT %:    97.3565  MISS %:    2.64351   MPKI: 0.54234
L2C DATA PREFETCH MPKI: 0.03056
L2C INSTRUCTION PREFETCH MPKI: 0.51178
L2C WRITEBACK ACCESS:     240655  HIT:     227751  MISS:      12904  HIT %:     94.638  MISS %:    5.36203   MPKI: 0.25808
L2C LOAD TRANSLATION ACCESS:      12357  HIT:       8511  MISS:       3846  HIT %:    68.8759  MISS %:    31.1241   MPKI: 0.07692
L2C TRANSLATION FROM L1D PREFETCHER ACCESS:      44635  HIT:      44482  MISS:        153  HIT %:    99.6572  MISS %:    0.34278   MPKI: 0.00306
L2C PREFETCH  REQUESTED:     909903  ISSUED:     909884  USEFUL:       8042  USELESS:      19112
L2C USEFUL LOAD PREFETCHES:       8042 PREFETCH ISSUED TO LOWER LEVEL:     284275  ACCURACY: 2.82895
L2C TIMELY PREFETCHES:       8042 LATE PREFETCHES: 816 DROPPED PREFETCHES: 0
L2C AVERAGE MISS LATENCY: 120.022 cycles
L2C RQ	ACCESS:     669887	FORWARD:          0	MERGED:          0	TO_CACHE:     669880
L2C WQ	ACCESS:     240655	FORWARD:          9	MERGED:          0	TO_CACHE:     240655
L2C PQ	ACCESS:    1603160	FORWARD:          0	MERGED:     314542	TO_CACHE:    1288616

L2C Instructions Evicting Data40682
L2C Translations Evicting Data2832
L2C Data Evicting Data226971
L2C Instructions Evicting Instructions21703
L2C Translations Evicting Instructions1101
L2C Data Evicting Instructions36006
L2C Instructions Evicting Translations1072
L2C Translations Evicting Translations66
L2C Data Evicting Translations2672
L2C Dense regions hint from L2: 0
PSCL5 TOTAL     ACCESS:      55990  HIT:      55990  MISS:          0  HIT %:        100  MISS %:          0   MPKI: 0
PSCL5 LOAD TRANSLATION ACCESS:      11494  HIT:      11494  MISS:          0  HIT %:        100  MISS %:          0   MPKI: 0
PSCL5 TRANSLATION FROM L1D PREFETCHER ACCESS:      44496  HIT:      44496  MISS:          0  HIT %:        100  MISS %:          0   MPKI: 0

PSCL4 TOTAL     ACCESS:      55990  HIT:      55990  MISS:          0  HIT %:        100  MISS %:          0   MPKI: 0
PSCL4 LOAD TRANSLATION ACCESS:      11494  HIT:      11494  MISS:          0  HIT %:        100  MISS %:          0   MPKI: 0
PSCL4 TRANSLATION FROM L1D PREFETCHER ACCESS:      44496  HIT:      44496  MISS:          0  HIT %:        100  MISS %:          0   MPKI: 0

PSCL3 TOTAL     ACCESS:      55881  HIT:      55871  MISS:         10  HIT %:    99.9821  MISS %:  0.0178952   MPKI: 0.0002
PSCL3 LOAD TRANSLATION ACCESS:      11483  HIT:      11473  MISS:         10  HIT %:    99.9129  MISS %:  0.0870853   MPKI: 0.0002
PSCL3 TRANSLATION FROM L1D PREFETCHER ACCESS:      44398  HIT:      44398  MISS:          0  HIT %:        100  MISS %:          0   MPKI: 0

PSCL2 TOTAL     ACCESS:      12009  HIT:      11112  MISS:        897  HIT %:    92.5306  MISS %:     7.4694   MPKI: 0.01794
PSCL2 LOAD TRANSLATION ACCESS:      11535  HIT:      10638  MISS:        897  HIT %:    92.2237  MISS %:    7.77633   MPKI: 0.01794
PSCL2 TRANSLATION FROM L1D PREFETCHER ACCESS:        474  HIT:        474  MISS:          0  HIT %:        100  MISS %:          0   MPKI: 0

LLC TOTAL     ACCESS:     775521  HIT:     500051  MISS:     275470  HIT %:    64.4794  MISS %:    35.5206   MPKI: 5.5094
LLC LOAD      ACCESS:     136780  HIT:      74878  MISS:      61902  HIT %:    54.7434  MISS %:    45.2566   MPKI: 1.23804
LLC RFO       ACCESS:     164393  HIT:      12298  MISS:     152095  HIT %:    7.48085  MISS %:    92.5191   MPKI: 3.0419
LLC PREFETCH  ACCESS:     275924  HIT:     223974  MISS:      51950  HIT %:    81.1724  MISS %:    18.8276   MPKI: 1.039
LLC WRITEBACK ACCESS:     194425  HIT:     187085  MISS:       7340  HIT %:    96.2248  MISS %:    3.77523   MPKI: 0.1468
LLC LOAD TRANSLATION ACCESS:       3846  HIT:       1754  MISS:       2092  HIT %:    45.6058  MISS %:    54.3942   MPKI: 0.04184
LLC TRANSLATION FROM L1D PREFETCHER ACCESS:        153  HIT:         62  MISS:         91  HIT %:    40.5229  MISS %:    59.4771   MPKI: 0.00182
LLC AVERAGE MISS LATENCY: 143.234 cycles
LLC RQ	ACCESS:     305172	FORWARD:          0	MERGED:          0	TO_CACHE:     305172
LLC WQ	ACCESS:     194425	FORWARD:          0	MERGED:          0	TO_CACHE:     194425
LLC PQ	ACCESS:     284275	FORWARD:          0	MERGED:        177	TO_CACHE:     284098

LLC Dense regions hint to LLC: 0

RAW hits: 1832525
Loads Generated: 12792198
Loads sent to L1D: 10959674
Stores Generated: 7412307
Stores sent to L1D: 7412318
Major fault: 0 Minor fault: 6178
Allocated PAGES: 6178



Printing Logs
statHeadFound: 2920035
statHeadMissing: 1818598
statStreamBufferHit: 11510268
statPrefetchEntryFound: 11188433
statCompactorMatch: 12739874
statStreamTrackerLookup: 16248901
statRecord: 3509027
statGetPointer: 4738633
statEnqueuePrefetch: 27417153
statPrefetchQueueIsFull: 378
StreamBufferHitRate: 0.708372
Regions' size: 9626
next_region_correct: 2318521
next_region_wrong: 1180872
next_region_correct_prediction: 0.662549
statStreamBufferLookups: 162489010
statL1iLookups: 219337224
statCompactorLookups: 259982416
------------------
Depth Distribution
------------------
depth 0: 0
depth 1: 1459575
depth 2: 304295
depth 3: 44844
depth 4: 23937
depth 5: 18385
depth 6: 15071
depth 7: 12381
depth 8: 9669
depth 9: 6995
depth 10: 4606
depth 11: 2960
depth 12: 1640
depth 13: 781
depth 14: 73
depth 15: 74
depth 16: 0
depth 17: 0
depth 18: 0
depth 19: 0
depth 20: 0
depth 21: 0
depth 22: 0
depth 23: 0
depth 24: 0
depth 25: 0
depth 26: 0
depth 27: 0
depth 28: 0
depth 29: 0
Total: 1905286
-----------------------------
-----------------------------
	Captured at Filter
-----------------------------
depth 0: 0
depth 1: 21361
depth 2: 9951
depth 3: 4673
depth 4: 970
depth 5: 638
depth 6: 382
depth 7: 302
depth 8: 187
depth 9: 123
depth 10: 90
depth 11: 53
depth 12: 28
depth 13: 21
depth 14: 2
depth 15: 0
depth 16: 0
depth 17: 0
depth 18: 0
depth 19: 0
depth 20: 0
depth 21: 0
depth 22: 0
depth 23: 0
depth 24: 0
depth 25: 0
depth 26: 0
depth 27: 0
depth 28: 0
depth 29: 0
-----------------------------
-----------------------------
		Lost at Page
-----------------------------
depth 0: 0
depth 1: 28515
depth 2: 7754
depth 3: 1967
depth 4: 1600
depth 5: 1581
depth 6: 1573
depth 7: 1531
depth 8: 1395
depth 9: 1157
depth 10: 862
depth 11: 634
depth 12: 393
depth 13: 208
depth 14: 19
depth 15: 20
depth 16: 0
depth 17: 0
depth 18: 0
depth 19: 0
depth 20: 0
depth 21: 0
depth 22: 0
depth 23: 0
depth 24: 0
depth 25: 0
depth 26: 0
depth 27: 0
depth 28: 0
depth 29: 0
-----------------------------
-----------------------------
	Lost due to PQ Size
-----------------------------
4936
-----------------------------
ST read accesses: 371360358
ST write accesses: 38778194
PT read accesses: 11637947
PT write accesses: 1116037
FILTER read accesses: 2156241
FILTER write accesses: 367748
GHR read accesses: 619196
GHR write accesses: 23405
GHR counter read accesses: 9057274
GHR counter write accesses: 898515

DRAM Statistics
 CHANNEL 0
 RQ ROW_BUFFER_HIT:      89152  ROW_BUFFER_MISS:     178977
 DBUS_CONGESTED:        251
 WQ ROW_BUFFER_HIT:      35656  ROW_BUFFER_MISS:     146272  FULL:          0

 AVG_CONGESTED_CYCLE: 3

CPU 0 Branch Prediction Accuracy: 97.8666% MPKI: 3.90132 Average ROB Occupancy at Mispredict: 48.1458
Branch types
NOT_BRANCH: 40856516 81.713%
BRANCH_DIRECT_JUMP: 484668 0.969336%
BRANCH_INDIRECT: 85086 0.170172%
BRANCH_CONDITIONAL: 6230912 12.4618%
BRANCH_DIRECT_CALL: 1028925 2.05785%
BRANCH_INDIRECT_CALL: 141825 0.28365%
BRANCH_RETURN: 1171991 2.34398%
BRANCH_OTHER: 0 0%

DRAM PAGES: 1048576
Allocated PAGES: 6178
