
*** ChampSim Multicore Out-of-Order Simulator ***

Warmup Instructions: 50000000
Simulation Instructions: 50000000
Number of CPUs: 1
LLC sets: 2048
LLC ways: 16
Off-chip DRAM Size: 4096 MB Channels: 1 Width: 64-bit Data Rate: 6400 MT/s
CPU 0 runs ../IPC-traces//client_007.champsimtrace.xz
.xz
BTB has LRU replacement policy
ITLB has LRU replacement policy
DTLB has LRU replacement policy
STLB has LRU replacement policy
CPU 0 L1I next line prefetcher
L1I has LRU replacement policy
IP Table Entries: 64
L1D has LRU replacement policy
Initialize SRRIP state for L2C
Initialize DRRIP state for LLC
Heartbeat CPU 0 instructions: 10000003 cycles: 3033832 heartbeat IPC: 3.29616 cumulative IPC: 3.29616 (Simulation time: 0 hr 2 min 54 sec) 
Heartbeat CPU 0 instructions: 20000003 cycles: 5975312 heartbeat IPC: 3.39965 cumulative IPC: 3.34711 (Simulation time: 0 hr 5 min 15 sec) 
Heartbeat CPU 0 instructions: 30000000 cycles: 9156392 heartbeat IPC: 3.14359 cumulative IPC: 3.2764 (Simulation time: 0 hr 7 min 54 sec) 
Heartbeat CPU 0 instructions: 40000003 cycles: 12444065 heartbeat IPC: 3.04167 cumulative IPC: 3.21438 (Simulation time: 0 hr 10 min 13 sec) 
Heartbeat CPU 0 instructions: 50000001 cycles: 15345184 heartbeat IPC: 3.44695 cumulative IPC: 3.25835 (Simulation time: 0 hr 12 min 17 sec) 

Warmup complete CPU 0 instructions: 50000001 cycles: 15345184 (Simulation time: 0 hr 12 min 17 sec) 

Heartbeat CPU 0 instructions: 60000003 cycles: 28428412 heartbeat IPC: 0.764338 cumulative IPC: 0.764338 (Simulation time: 0 hr 14 min 56 sec) 
Heartbeat CPU 0 instructions: 70000003 cycles: 45222015 heartbeat IPC: 0.595465 cumulative IPC: 0.669415 (Simulation time: 0 hr 17 min 54 sec) 
Heartbeat CPU 0 instructions: 80000001 cycles: 55544014 heartbeat IPC: 0.968804 cumulative IPC: 0.74629 (Simulation time: 0 hr 20 min 22 sec) 
Heartbeat CPU 0 instructions: 90000001 cycles: 69706104 heartbeat IPC: 0.70611 cumulative IPC: 0.735823 (Simulation time: 0 hr 22 min 58 sec) 
Heartbeat CPU 0 instructions: 100000000 cycles: 85881368 heartbeat IPC: 0.618228 cumulative IPC: 0.708856 (Simulation time: 0 hr 25 min 36 sec) 
Finished CPU 0 instructions: 50000001 cycles: 70536185 cumulative IPC: 0.708856 (Simulation time: 0 hr 25 min 36 sec) 

ChampSim completed all CPUs

Region of Interest Statistics

CPU 0 cumulative IPC: 0.708856 instructions: 50000001 cycles: 70536185

CPU 0 Average Load ROB stall cycles: 1.86787e+07
CPU 0 Fraction of times ROB stalled by Loads: 39.0206
CPU 0 Percentage of Load stall cycles in Total stall cycles: 2.40495e+08
Issued all: 30488887
Issued LT all: 25065118
rob_not_full_when_issued_lt_all: 18655362
Issued LT one: 19358199
rob_not_full_when_issued_lt_one: 14293614
FVP critical_dynamic_instances_0: 4534380
FVP unique_critical_ips_0: 7347
 Total stall cycles: 58055856
 Total load stall cycles: 139621396006864
Unique Load IPs: 16511
CPU 0 NUM of IPS identified critical: 0
CPU 0 Num of Load IPs stalling ROB: 0
Threshold modification factor: 0
Trouble in retire width: -nan
MaC = Marked as critical.
lt_50_percent_before_Mac: 0
gt_90_percent_before_Mac: 0
gt_75_percent_before_Mac: 0
gt_50_percent_before_Mac: 0
stall_proportion_bin_same_before_after: 0
stall_proportion_bin_lower_before_after: 0
stall_proportion_bin_upper_before_after: 0
average_stall_proportion_before: -nan
average_stall_proportion_after: -nan
Critical IP stalls, total frequency: 0
Non-critical IP stalls, total frequency: 0
Total Freq all stalling IPs: 0
Critical_IP_Detector_Accuracy_70: 0.00013611
Critical_IP_Detector_Accuracy_80: 0.00013611
Critical_IP_Detector_Accuracy_90: 0.00013611
Critical_IP_Detector_Coverage_70: 1
Critical_IP_Detector_Coverage_80: 1
Critical_IP_Detector_Coverage_90: 1
stat_90_percent_critical_ip_stalls_freq: 146492
stat_90_percent_non_critical_ip_stalls_freq: 18446744073709405124
AVERAGE_ROB_Occupancy_90_Percent_Critical_IP_Stalls: 292.526
AVERAGE_ROB_Occupancy_90_Percent_Non_Critical_IP_Stalls: 1.4628e-11
Critical_IP_ROB_Stalls_Bucket_0: 0
Non-critical_IP_ROB_Stalls_Bucket_0: 1105346
Critical_IP_ROB_Stalls_Bucket_1: 0
Non-critical_IP_ROB_Stalls_Bucket_1: 785161
Critical_IP_ROB_Stalls_Bucket_2: 0
Non-critical_IP_ROB_Stalls_Bucket_2: 377970
Critical_IP_ROB_Stalls_Bucket_3: 0
Non-critical_IP_ROB_Stalls_Bucket_3: 190980
Critical_IP_ROB_Stalls_Bucket_4: 0
Non-critical_IP_ROB_Stalls_Bucket_4: 80609
Critical_IP_ROB_Stalls_Bucket_5: 0
Non-critical_IP_ROB_Stalls_Bucket_5: 48216
Critical_IP_ROB_Stalls_Bucket_6: 0
Non-critical_IP_ROB_Stalls_Bucket_6: 328463
0 => IPs accounting for >50 percent of stalls, 1 => 55, 2 => 60, 3 => 65 and so on till 90.
percent50: inf num IPs:  1
percent55: inf num IPs: 1
percent60: inf num IPs: 1
percent65: inf num IPs: 1
percent70: inf num IPs: 1
percent75: inf num IPs: 1
percent80: inf num IPs: 1
percent85: inf num IPs: 1
percent90: inf num IPs: 1
Critical_ROB_Stalls_Percent_0_Bucket_0: 1860
Non-critical_ROB_Stalls_Percent_0_Bucket_0: 1103486
Critical_ROB_Stalls_Percent_0_Bucket_1: 5725
Non-critical_ROB_Stalls_Percent_0_Bucket_1: 779436
Critical_ROB_Stalls_Percent_0_Bucket_2: 12053
Non-critical_ROB_Stalls_Percent_0_Bucket_2: 365917
Critical_ROB_Stalls_Percent_0_Bucket_3: 10875
Non-critical_ROB_Stalls_Percent_0_Bucket_3: 180105
Critical_ROB_Stalls_Percent_0_Bucket_4: 7824
Non-critical_ROB_Stalls_Percent_0_Bucket_4: 72785
Critical_ROB_Stalls_Percent_0_Bucket_5: 7654
Non-critical_ROB_Stalls_Percent_0_Bucket_5: 40562
Critical_ROB_Stalls_Percent_0_Bucket_6: 100501
Non-critical_ROB_Stalls_Percent_0_Bucket_6: 227962
Critical_ROB_Stalls_Percent_1_Bucket_0: 1860
Non-critical_ROB_Stalls_Percent_1_Bucket_0: 1103486
Critical_ROB_Stalls_Percent_1_Bucket_1: 5725
Non-critical_ROB_Stalls_Percent_1_Bucket_1: 779436
Critical_ROB_Stalls_Percent_1_Bucket_2: 12053
Non-critical_ROB_Stalls_Percent_1_Bucket_2: 365917
Critical_ROB_Stalls_Percent_1_Bucket_3: 10875
Non-critical_ROB_Stalls_Percent_1_Bucket_3: 180105
Critical_ROB_Stalls_Percent_1_Bucket_4: 7824
Non-critical_ROB_Stalls_Percent_1_Bucket_4: 72785
Critical_ROB_Stalls_Percent_1_Bucket_5: 7654
Non-critical_ROB_Stalls_Percent_1_Bucket_5: 40562
Critical_ROB_Stalls_Percent_1_Bucket_6: 100501
Non-critical_ROB_Stalls_Percent_1_Bucket_6: 227962
Critical_ROB_Stalls_Percent_2_Bucket_0: 1860
Non-critical_ROB_Stalls_Percent_2_Bucket_0: 1103486
Critical_ROB_Stalls_Percent_2_Bucket_1: 5725
Non-critical_ROB_Stalls_Percent_2_Bucket_1: 779436
Critical_ROB_Stalls_Percent_2_Bucket_2: 12053
Non-critical_ROB_Stalls_Percent_2_Bucket_2: 365917
Critical_ROB_Stalls_Percent_2_Bucket_3: 10875
Non-critical_ROB_Stalls_Percent_2_Bucket_3: 180105
Critical_ROB_Stalls_Percent_2_Bucket_4: 7824
Non-critical_ROB_Stalls_Percent_2_Bucket_4: 72785
Critical_ROB_Stalls_Percent_2_Bucket_5: 7654
Non-critical_ROB_Stalls_Percent_2_Bucket_5: 40562
Critical_ROB_Stalls_Percent_2_Bucket_6: 100501
Non-critical_ROB_Stalls_Percent_2_Bucket_6: 227962
Critical_ROB_Stalls_Percent_3_Bucket_0: 1860
Non-critical_ROB_Stalls_Percent_3_Bucket_0: 1103486
Critical_ROB_Stalls_Percent_3_Bucket_1: 5725
Non-critical_ROB_Stalls_Percent_3_Bucket_1: 779436
Critical_ROB_Stalls_Percent_3_Bucket_2: 12053
Non-critical_ROB_Stalls_Percent_3_Bucket_2: 365917
Critical_ROB_Stalls_Percent_3_Bucket_3: 10875
Non-critical_ROB_Stalls_Percent_3_Bucket_3: 180105
Critical_ROB_Stalls_Percent_3_Bucket_4: 7824
Non-critical_ROB_Stalls_Percent_3_Bucket_4: 72785
Critical_ROB_Stalls_Percent_3_Bucket_5: 7654
Non-critical_ROB_Stalls_Percent_3_Bucket_5: 40562
Critical_ROB_Stalls_Percent_3_Bucket_6: 100501
Non-critical_ROB_Stalls_Percent_3_Bucket_6: 227962
Critical_ROB_Stalls_Percent_4_Bucket_0: 1860
Non-critical_ROB_Stalls_Percent_4_Bucket_0: 1103486
Critical_ROB_Stalls_Percent_4_Bucket_1: 5725
Non-critical_ROB_Stalls_Percent_4_Bucket_1: 779436
Critical_ROB_Stalls_Percent_4_Bucket_2: 12053
Non-critical_ROB_Stalls_Percent_4_Bucket_2: 365917
Critical_ROB_Stalls_Percent_4_Bucket_3: 10875
Non-critical_ROB_Stalls_Percent_4_Bucket_3: 180105
Critical_ROB_Stalls_Percent_4_Bucket_4: 7824
Non-critical_ROB_Stalls_Percent_4_Bucket_4: 72785
Critical_ROB_Stalls_Percent_4_Bucket_5: 7654
Non-critical_ROB_Stalls_Percent_4_Bucket_5: 40562
Critical_ROB_Stalls_Percent_4_Bucket_6: 100501
Non-critical_ROB_Stalls_Percent_4_Bucket_6: 227962
Critical_ROB_Stalls_Percent_5_Bucket_0: 1860
Non-critical_ROB_Stalls_Percent_5_Bucket_0: 1103486
Critical_ROB_Stalls_Percent_5_Bucket_1: 5725
Non-critical_ROB_Stalls_Percent_5_Bucket_1: 779436
Critical_ROB_Stalls_Percent_5_Bucket_2: 12053
Non-critical_ROB_Stalls_Percent_5_Bucket_2: 365917
Critical_ROB_Stalls_Percent_5_Bucket_3: 10875
Non-critical_ROB_Stalls_Percent_5_Bucket_3: 180105
Critical_ROB_Stalls_Percent_5_Bucket_4: 7824
Non-critical_ROB_Stalls_Percent_5_Bucket_4: 72785
Critical_ROB_Stalls_Percent_5_Bucket_5: 7654
Non-critical_ROB_Stalls_Percent_5_Bucket_5: 40562
Critical_ROB_Stalls_Percent_5_Bucket_6: 100501
Non-critical_ROB_Stalls_Percent_5_Bucket_6: 227962
Critical_ROB_Stalls_Percent_6_Bucket_0: 1860
Non-critical_ROB_Stalls_Percent_6_Bucket_0: 1103486
Critical_ROB_Stalls_Percent_6_Bucket_1: 5725
Non-critical_ROB_Stalls_Percent_6_Bucket_1: 779436
Critical_ROB_Stalls_Percent_6_Bucket_2: 12053
Non-critical_ROB_Stalls_Percent_6_Bucket_2: 365917
Critical_ROB_Stalls_Percent_6_Bucket_3: 10875
Non-critical_ROB_Stalls_Percent_6_Bucket_3: 180105
Critical_ROB_Stalls_Percent_6_Bucket_4: 7824
Non-critical_ROB_Stalls_Percent_6_Bucket_4: 72785
Critical_ROB_Stalls_Percent_6_Bucket_5: 7654
Non-critical_ROB_Stalls_Percent_6_Bucket_5: 40562
Critical_ROB_Stalls_Percent_6_Bucket_6: 100501
Non-critical_ROB_Stalls_Percent_6_Bucket_6: 227962
Critical_ROB_Stalls_Percent_7_Bucket_0: 1860
Non-critical_ROB_Stalls_Percent_7_Bucket_0: 1103486
Critical_ROB_Stalls_Percent_7_Bucket_1: 5725
Non-critical_ROB_Stalls_Percent_7_Bucket_1: 779436
Critical_ROB_Stalls_Percent_7_Bucket_2: 12053
Non-critical_ROB_Stalls_Percent_7_Bucket_2: 365917
Critical_ROB_Stalls_Percent_7_Bucket_3: 10875
Non-critical_ROB_Stalls_Percent_7_Bucket_3: 180105
Critical_ROB_Stalls_Percent_7_Bucket_4: 7824
Non-critical_ROB_Stalls_Percent_7_Bucket_4: 72785
Critical_ROB_Stalls_Percent_7_Bucket_5: 7654
Non-critical_ROB_Stalls_Percent_7_Bucket_5: 40562
Critical_ROB_Stalls_Percent_7_Bucket_6: 100501
Non-critical_ROB_Stalls_Percent_7_Bucket_6: 227962
Critical_ROB_Stalls_Percent_8_Bucket_0: 1860
Non-critical_ROB_Stalls_Percent_8_Bucket_0: 1103486
Critical_ROB_Stalls_Percent_8_Bucket_1: 5725
Non-critical_ROB_Stalls_Percent_8_Bucket_1: 779436
Critical_ROB_Stalls_Percent_8_Bucket_2: 12053
Non-critical_ROB_Stalls_Percent_8_Bucket_2: 365917
Critical_ROB_Stalls_Percent_8_Bucket_3: 10875
Non-critical_ROB_Stalls_Percent_8_Bucket_3: 180105
Critical_ROB_Stalls_Percent_8_Bucket_4: 7824
Non-critical_ROB_Stalls_Percent_8_Bucket_4: 72785
Critical_ROB_Stalls_Percent_8_Bucket_5: 7654
Non-critical_ROB_Stalls_Percent_8_Bucket_5: 40562
Critical_ROB_Stalls_Percent_8_Bucket_6: 100501
Non-critical_ROB_Stalls_Percent_8_Bucket_6: 227962
Average ROB occupancy Load Stall Begin: 98.1655
Average ROB occupancy Load Stall End: 107.206
Min ROB occupancy Load Stall Begin: 1
Max ROB occupancy Load Stall Begin: 352
Min ROB occupancy Load Stall End: 1
Max ROB occupancy Load Stall End: 352
Average ROB occupancy Critical Load Stall Begin: -nan
Average ROB occupancy Critical Load Stall End: -nan
Min ROB occupancy Critical Load Stall Begin: 400
Max ROB occupancy Critical Load Stall Begin: 0
Min ROB occupancy Critical Load Stall End: 400
Max ROB occupancy Critical Load Stall End: 0
 ROB Load Stall Begin Bucket Count 0: 1362106
 ROB Load Stall End Bucket Count 0: 1105346
 ROB Critical Load Stall Begin Bucket Count 0: 0
 ROB Critical Load Stall End Bucket Count 0: 0
 ROB Load Stall Begin Bucket Count 1: 635891
 ROB Load Stall End Bucket Count 1: 785161
 ROB Critical Load Stall Begin Bucket Count 1: 0
 ROB Critical Load Stall End Bucket Count 1: 0
 ROB Load Stall Begin Bucket Count 2: 327720
 ROB Load Stall End Bucket Count 2: 377970
 ROB Critical Load Stall Begin Bucket Count 2: 0
 ROB Critical Load Stall End Bucket Count 2: 0
 ROB Load Stall Begin Bucket Count 3: 159291
 ROB Load Stall End Bucket Count 3: 190980
 ROB Critical Load Stall Begin Bucket Count 3: 0
 ROB Critical Load Stall End Bucket Count 3: 0
 ROB Load Stall Begin Bucket Count 4: 69320
 ROB Load Stall End Bucket Count 4: 80609
 ROB Critical Load Stall Begin Bucket Count 4: 0
 ROB Critical Load Stall End Bucket Count 4: 0
 ROB Load Stall Begin Bucket Count 5: 42646
 ROB Load Stall End Bucket Count 5: 48216
 ROB Critical Load Stall Begin Bucket Count 5: 0
 ROB Critical Load Stall End Bucket Count 5: 0
 ROB Load Stall Begin Bucket Count 6: 319771
 ROB Load Stall End Bucket Count 6: 328463
 ROB Critical Load Stall Begin Bucket Count 6: 0
 ROB Critical Load Stall End Bucket Count 6: 0
PIST Tag Read Accesses: 0
PIST Read Accesses: 0
PIST Tag Write Accesses: 0
PIST Write Accesses: 0
Criticality detector called times: 0
Max global_stall_cycles_count: 0
Threshold Modified: 0 times, factor: 0
ITLB TOTAL     ACCESS:    8764842  HIT:    8584239  MISS:     180603  HIT %:    97.9395  MISS %:    2.06054   MPKI: 3.61206
ITLB LOAD TRANSLATION ACCESS:    8151771  HIT:    8137458  MISS:      14313  HIT %:    99.8244  MISS %:   0.175581   MPKI: 0.28626
ITLB TRANSLATION FROM L1D PREFETCHER ACCESS:     613071  HIT:     446781  MISS:     166290  HIT %:    72.8759  MISS %:    27.1241   MPKI: 3.3258
ITLB PREFETCH  REQUESTED:          0  ISSUED:          0  USEFUL:     140570  USELESS:      25722
ITLB USEFUL LOAD PREFETCHES:     140570 PREFETCH ISSUED TO LOWER LEVEL:          0  ACCURACY: inf
ITLB TIMELY PREFETCHES:     140570 LATE PREFETCHES: 55 DROPPED PREFETCHES: 16
ITLB PREFETCHES SAME FILL-ORIGIN LEVEL: 0 DIFFERENT FILL-ORIGIN LEVEL: 0
ITLB AVERAGE MISS LATENCY: 12368.9 cycles
ITLB RQ	ACCESS:   11226758	FORWARD:          0	MERGED:    2448539	TO_CACHE:    8778219

DTLB TOTAL     ACCESS:   11644524  HIT:   11327562  MISS:     316962  HIT %:     97.278  MISS %:    2.72198   MPKI: 6.33924
DTLB LOAD TRANSLATION ACCESS:   11644524  HIT:   11327562  MISS:     316962  HIT %:     97.278  MISS %:    2.72198   MPKI: 6.33924
DTLB PREFETCH  REQUESTED:          0  ISSUED:          0  USEFUL:          0  USELESS:          0
DTLB USEFUL LOAD PREFETCHES:          0 PREFETCH ISSUED TO LOWER LEVEL:          0  ACCURACY: -nan
DTLB TIMELY PREFETCHES:          0 LATE PREFETCHES: 0 DROPPED PREFETCHES: 0
DTLB PREFETCHES SAME FILL-ORIGIN LEVEL: 0 DIFFERENT FILL-ORIGIN LEVEL: 0
DTLB AVERAGE MISS LATENCY: 10.3738 cycles
DTLB RQ	ACCESS:   13905950	FORWARD:          0	MERGED:    2244875	TO_CACHE:   11661075

STLB TOTAL     ACCESS:     895542  HIT:     891353  MISS:       4189  HIT %:    99.5322  MISS %:   0.467761   MPKI: 0.08378
STLB LOAD TRANSLATION ACCESS:     331220  HIT:     327336  MISS:       3884  HIT %:    98.8274  MISS %:    1.17263   MPKI: 0.07768
STLB TRANSLATION FROM L1D PREFETCHER ACCESS:     564322  HIT:     564017  MISS:        305  HIT %:     99.946  MISS %:  0.0540472   MPKI: 0.0061
STLB PREFETCH  REQUESTED:          0  ISSUED:          0  USEFUL:        237  USELESS:         55
STLB USEFUL LOAD PREFETCHES:        237 PREFETCH ISSUED TO LOWER LEVEL:          0  ACCURACY: inf
STLB TIMELY PREFETCHES:        237 LATE PREFETCHES: 0 DROPPED PREFETCHES: 16
STLB PREFETCHES SAME FILL-ORIGIN LEVEL: 0 DIFFERENT FILL-ORIGIN LEVEL: 0
STLB AVERAGE MISS LATENCY: 127.801 cycles
STLB RQ	ACCESS:    1083338	FORWARD:          0	MERGED:     187780	TO_CACHE:     895558

STLB Hit, L1D data hit: 0
STLB Hit, L2C data hit: 0
STLB Hit, LLC data hit: 0
STLB Hit, LLC data miss: 0
STLB STLB hints to L2: 0
L1D TOTAL     ACCESS:   14313944  HIT:   13493956  MISS:     819988  HIT %:    94.2714  MISS %:     5.7286   MPKI: 16.3998
L1D LOAD      ACCESS:    8818699  HIT:    8346205  MISS:     472494  HIT %:    94.6421  MISS %:    5.35787   MPKI: 9.44988
L1D RFO       ACCESS:    4927606  HIT:    4849517  MISS:      78089  HIT %:    98.4153  MISS %:    1.58472   MPKI: 1.56178
L1D PREFETCH  ACCESS:     567639  HIT:     298234  MISS:     269405  HIT %:    52.5394  MISS %:    47.4606   MPKI: 5.3881
L1D PREFETCH  REQUESTED:    1171576  ISSUED:    1171576  USEFUL:      93538  USELESS:     175798
L1D USEFUL LOAD PREFETCHES:      93538 PREFETCH ISSUED TO LOWER LEVEL:     278223  ACCURACY: 33.6198
L1D TIMELY PREFETCHES:      93538 LATE PREFETCHES: 7596 DROPPED PREFETCHES: 0
L1D PREFETCHES SAME FILL-ORIGIN LEVEL: 278223 DIFFERENT FILL-ORIGIN LEVEL: 0
L1D AVERAGE MISS LATENCY: 526597 cycles
L1D RQ	ACCESS:   12809434	FORWARD:          0	MERGED:    3856345	TO_CACHE:    8867927
L1D WQ	ACCESS:    5437654	FORWARD:      85224	MERGED:     399631	TO_CACHE:    5038023
L1D PQ	ACCESS:     585819	FORWARD:          0	MERGED:          0	TO_CACHE:     585757

L1D UNIQUE REGIONS ACCESSED: 0
L1D REGIONS CONFLICTS: 0
L1D Cross Page Prefetch Requests: 0
L1D Same Page Prefetch Requests: 594066
L1D ROI Sum of L1D PQ occupancy: 7670496
L1D PREFETCHES PUSHED FROM L2C: 0
L1I TOTAL     ACCESS:   11195673  HIT:   10020089  MISS:    1175584  HIT %:    89.4997  MISS %:    10.5003   MPKI: 23.5117
L1I LOAD      ACCESS:    9642488  HIT:    9594150  MISS:      48338  HIT %:    99.4987  MISS %:   0.501302   MPKI: 0.96676
L1I PREFETCH  ACCESS:    1553185  HIT:     425939  MISS:    1127246  HIT %:    27.4236  MISS %:    72.5764   MPKI: 22.5449
L1I PREFETCH  REQUESTED:    1601085  ISSUED:    1599811  USEFUL:     842153  USELESS:     285129
L1I USEFUL LOAD PREFETCHES:     842153 PREFETCH ISSUED TO LOWER LEVEL:    1134304  ACCURACY: 74.244
L1I TIMELY PREFETCHES:     842153 LATE PREFETCHES: 7058 DROPPED PREFETCHES: 21
L1I PREFETCHES SAME FILL-ORIGIN LEVEL: 1134304 DIFFERENT FILL-ORIGIN LEVEL: 0
L1I AVERAGE MISS LATENCY: 260760 cycles
L1I RQ	ACCESS:   14351797	FORWARD:          0	MERGED:    4702020	TO_CACHE:    9649777
L1I PQ	ACCESS:    1599811	FORWARD:          0	MERGED:      22830	TO_CACHE:    1576981

BTB TOTAL     ACCESS:    6145704  HIT:    5759281  MISS:     386423  HIT %:    93.7123  MISS %:    6.28769   MPKI: 7.72846
BTB BRANCH_DIRECT_JUMP	ACCESS:     735331  HIT:     732025  MISS:       3306
BTB BRANCH_INDIRECT	ACCESS:     269194  HIT:     145703  MISS:     123491
BTB BRANCH_CONDITIONAL	ACCESS:    3930750  HIT:    3920624  MISS:      10126
BTB BRANCH_DIRECT_CALL	ACCESS:     368758  HIT:     363374  MISS:       5384
BTB BRANCH_INDIRECT_CALL	ACCESS:     226975  HIT:     162973  MISS:      64002
BTB BRANCH_RETURN	ACCESS:     614696  HIT:     434582  MISS:     180114
BTB BRANCH_OTHER ACCESS:          0  HIT:          0  MISS:          0

L2C TOTAL     ACCESS:    2413714  HIT:    2208580  MISS:     205134  HIT %:    91.5013  MISS %:    8.49869   MPKI: 4.10268
L2C LOAD      ACCESS:     506089  HIT:     411159  MISS:      94930  HIT %:    81.2424  MISS %:    18.7576   MPKI: 1.8986
L2C DATA LOAD MPKI: 1.8122
L2C INSTRUCTION LOAD MPKI: 0.0864
L2C RFO       ACCESS:      76870  HIT:      34295  MISS:      42575  HIT %:    44.6143  MISS %:    55.3857   MPKI: 0.8515
L2C PREFETCH  ACCESS:    1582872  HIT:    1519098  MISS:      63774  HIT %:     95.971  MISS %:    4.02901   MPKI: 1.27548
L2C DATA PREFETCH MPKI: 1.09174
L2C INSTRUCTION PREFETCH MPKI: 0.18374
L2C WRITEBACK ACCESS:     243485  HIT:     241461  MISS:       2024  HIT %:    99.1687  MISS %:   0.831263   MPKI: 0.04048
L2C LOAD TRANSLATION ACCESS:       4056  HIT:       2433  MISS:       1623  HIT %:    59.9852  MISS %:    40.0148   MPKI: 0.03246
L2C TRANSLATION FROM L1D PREFETCHER ACCESS:        342  HIT:        134  MISS:        208  HIT %:    39.1813  MISS %:    60.8187   MPKI: 0.00416
L2C PREFETCH  REQUESTED:     252108  ISSUED:     252094  USEFUL:       8444  USELESS:      56874
L2C USEFUL LOAD PREFETCHES:       8444 PREFETCH ISSUED TO LOWER LEVEL:      64054  ACCURACY: 13.1826
L2C TIMELY PREFETCHES:       8444 LATE PREFETCHES: 280 DROPPED PREFETCHES: 0
L2C PREFETCHES SAME FILL-ORIGIN LEVEL: 12149 DIFFERENT FILL-ORIGIN LEVEL: 0
L2C AVERAGE MISS LATENCY: 146.445 cycles
L2C RQ	ACCESS:     587454	FORWARD:          0	MERGED:          0	TO_CACHE:     587357
L2C WQ	ACCESS:     243485	FORWARD:        100	MERGED:          0	TO_CACHE:     243485
L2C PQ	ACCESS:    1664610	FORWARD:          0	MERGED:      79882	TO_CACHE:    1584725

L2C Instructions Evicting Data 10129
L2C Translations Evicting Data 1511
L2C Data Evicting Data 173366
L2C Instructions Evicting Instructions 3112
L2C Translations Evicting Instructions 292
L2C Data Evicting Instructions 12729
L2C Instructions Evicting Translations 266
L2C Translations Evicting Translations 28
L2C Data Evicting Translations 1677
L2C Dense regions hint from L2: 0
PSCL5 TOTAL     ACCESS:       4205  HIT:       4205  MISS:          0  HIT %:        100  MISS %:          0   MPKI: 0
PSCL5 LOAD TRANSLATION ACCESS:       3884  HIT:       3884  MISS:          0  HIT %:        100  MISS %:          0   MPKI: 0
PSCL5 TRANSLATION FROM L1D PREFETCHER ACCESS:        321  HIT:        321  MISS:          0  HIT %:        100  MISS %:          0   MPKI: 0
PSCL5 PREFETCH  REQUESTED:          0  ISSUED:          0  USEFUL:          0  USELESS:          0
PSCL5 USEFUL LOAD PREFETCHES:          0 PREFETCH ISSUED TO LOWER LEVEL:          0  ACCURACY: -nan
PSCL5 TIMELY PREFETCHES:          0 LATE PREFETCHES: 0 DROPPED PREFETCHES: 0
PSCL5 PREFETCHES SAME FILL-ORIGIN LEVEL: 0 DIFFERENT FILL-ORIGIN LEVEL: 0

PSCL4 TOTAL     ACCESS:       3917  HIT:       3910  MISS:          7  HIT %:    99.8213  MISS %:   0.178708   MPKI: 0.00014
PSCL4 LOAD TRANSLATION ACCESS:       3626  HIT:       3619  MISS:          7  HIT %:    99.8069  MISS %:    0.19305   MPKI: 0.00014
PSCL4 TRANSLATION FROM L1D PREFETCHER ACCESS:        291  HIT:        291  MISS:          0  HIT %:        100  MISS %:          0   MPKI: 0
PSCL4 PREFETCH  REQUESTED:          0  ISSUED:          0  USEFUL:          0  USELESS:          0
PSCL4 USEFUL LOAD PREFETCHES:          0 PREFETCH ISSUED TO LOWER LEVEL:          0  ACCURACY: -nan
PSCL4 TIMELY PREFETCHES:          0 LATE PREFETCHES: 0 DROPPED PREFETCHES: 0
PSCL4 PREFETCHES SAME FILL-ORIGIN LEVEL: 0 DIFFERENT FILL-ORIGIN LEVEL: 0

PSCL3 TOTAL     ACCESS:       4151  HIT:       4134  MISS:         17  HIT %:    99.5905  MISS %:    0.40954   MPKI: 0.00034
PSCL3 LOAD TRANSLATION ACCESS:       3837  HIT:       3820  MISS:         17  HIT %:    99.5569  MISS %:   0.443054   MPKI: 0.00034
PSCL3 TRANSLATION FROM L1D PREFETCHER ACCESS:        314  HIT:        314  MISS:          0  HIT %:        100  MISS %:          0   MPKI: 0
PSCL3 PREFETCH  REQUESTED:          0  ISSUED:          0  USEFUL:          0  USELESS:          0
PSCL3 USEFUL LOAD PREFETCHES:          0 PREFETCH ISSUED TO LOWER LEVEL:          0  ACCURACY: -nan
PSCL3 TIMELY PREFETCHES:          0 LATE PREFETCHES: 0 DROPPED PREFETCHES: 0
PSCL3 PREFETCHES SAME FILL-ORIGIN LEVEL: 0 DIFFERENT FILL-ORIGIN LEVEL: 0

PSCL2 TOTAL     ACCESS:       4205  HIT:       4031  MISS:        174  HIT %:    95.8621  MISS %:    4.13793   MPKI: 0.00348
PSCL2 LOAD TRANSLATION ACCESS:       3903  HIT:       3729  MISS:        174  HIT %:    95.5419  MISS %:    4.45811   MPKI: 0.00348
PSCL2 TRANSLATION FROM L1D PREFETCHER ACCESS:        302  HIT:        302  MISS:          0  HIT %:        100  MISS %:          0   MPKI: 0
PSCL2 PREFETCH  REQUESTED:          0  ISSUED:          0  USEFUL:          0  USELESS:          0
PSCL2 USEFUL LOAD PREFETCHES:          0 PREFETCH ISSUED TO LOWER LEVEL:          0  ACCURACY: -nan
PSCL2 TIMELY PREFETCHES:          0 LATE PREFETCHES: 0 DROPPED PREFETCHES: 0
PSCL2 PREFETCHES SAME FILL-ORIGIN LEVEL: 0 DIFFERENT FILL-ORIGIN LEVEL: 0

LLC TOTAL     ACCESS:     273410  HIT:     128160  MISS:     145250  HIT %:    46.8747  MISS %:    53.1253   MPKI: 2.905
LLC LOAD      ACCESS:      94650  HIT:      32061  MISS:      62589  HIT %:    33.8732  MISS %:    66.1268   MPKI: 1.25178
LLC RFO       ACCESS:      42575  HIT:       4980  MISS:      37595  HIT %:     11.697  MISS %:     88.303   MPKI: 0.7519
LLC PREFETCH  ACCESS:      64054  HIT:      22751  MISS:      41303  HIT %:    35.5185  MISS %:    64.4815   MPKI: 0.82606
LLC WRITEBACK ACCESS:      70300  HIT:      67661  MISS:       2639  HIT %:    96.2461  MISS %:    3.75391   MPKI: 0.05278
LLC LOAD TRANSLATION ACCESS:       1623  HIT:        618  MISS:       1005  HIT %:    38.0776  MISS %:    61.9224   MPKI: 0.0201
LLC TRANSLATION FROM L1D PREFETCHER ACCESS:        208  HIT:         89  MISS:        119  HIT %:    42.7885  MISS %:    57.2115   MPKI: 0.00238
LLC PREFETCH  REQUESTED:          0  ISSUED:          0  USEFUL:       3693  USELESS:      36773
LLC USEFUL LOAD PREFETCHES:       3693 PREFETCH ISSUED TO LOWER LEVEL:      41303  ACCURACY: 8.94124
LLC TIMELY PREFETCHES:       3693 LATE PREFETCHES: 0 DROPPED PREFETCHES: 0
LLC PREFETCHES SAME FILL-ORIGIN LEVEL: 0 DIFFERENT FILL-ORIGIN LEVEL: 0
LLC AVERAGE MISS LATENCY: 164.253 cycles
LLC RQ	ACCESS:     139056	FORWARD:          0	MERGED:          0	TO_CACHE:     139056
LLC WQ	ACCESS:      70300	FORWARD:          0	MERGED:          0	TO_CACHE:      70300
LLC PQ	ACCESS:      64054	FORWARD:          0	MERGED:          0	TO_CACHE:      64054

LLC Dense regions hint to LLC: 0

RAW hits: 1070501
Loads Generated: 13879936
Loads sent to L1D: 12809434
Stores Generated: 5437650
Stores sent to L1D: 5437654
Major fault: 0 Minor fault: 4494
Allocated PAGES: 4494
I-Shadow cache 408 bytes
Touched + WorthPF tables 6144 bytes 
MMA filter 174 bytes 
FNL filter 272 bytes 
TOTAL PREFETCHER STORAGE SIZE: 25174 bytes
CPU 0 L1I next line prefetcher final stats

stream: 
stream:times selected: 583386
stream:pref_filled: 159681
stream:pref_useful: 21685
stream:pref_late: 2859
stream:misses: 19956
stream:misses_by_poll: 0

CS: 
CS:times selected: 138781
CS:pref_filled: 68404
CS:pref_useful: 57677
CS:pref_late: 2098
CS:misses: 8718
CS:misses_by_poll: 41

CPLX: 
CPLX:times selected: 442498
CPLX:pref_filled: 43070
CPLX:pref_useful: 14382
CPLX:pref_late: 1521
CPLX:misses: 85172
CPLX:misses_by_poll: 67

NL_L1: 
NL:times selected: 3016
NL:pref_filled: 1111
NL:pref_useful: 406
NL:pref_late: 31
NL:misses: 546
NL:misses_by_poll: 0

total selections: 1167681
total_filled: 269405
total_useful: 93538
total_late: 7722
total_polluted: 108
total_misses_after_warmup: 171799
conflicts: 287468
Degree Incremented Times: 6918
Degree Decremented Times: 86645

L1 IP Table Write Accesses: 2436407
L1 IP Table Read Accesses: 2148939
L1 RST Write Accesses: 575598
L1 RST Read Accesses: 1151196
L1 CSPT Write Accesses: 575598
L1 CSPT Read Accesses: 1011039
L1 RR Filter Tag Write Accesses: 585819
L1 RR Filter Tag Read Accesses: 31803524
L1 IP Table Tag Write Accesses: 3044515
L1 IP Table Tag Read Accesses: 3044515
L1 RST Tag Write Accesses: 0
L1 RST Tag Read Accesses: 5144536
L1 RR Filter Write Accesses: 0
L1 RR Filter Read Accesses: 1121253
test: 162104
L2 IP Table Read Accesses: 823559
L2 IP Table Write Accesses: 764915
L2 IP Table Tag Read Accesses: 453999
L2 IP Table Tag Write Accesses: 453999

DRAM Statistics
 CHANNEL 0
 RQ ROW_BUFFER_HIT:      28469  ROW_BUFFER_MISS:     114140
 DBUS_CONGESTED:         60
 WQ ROW_BUFFER_HIT:      11090  ROW_BUFFER_MISS:      49652  FULL:          0

 AVG_CONGESTED_CYCLE: 4
 All warmup complete: 2
Channel 0 Bank busy for read cycles: 0
Channel 0 Bank busy for write cycles: 0
Channel 0
Rank 0
0banks busy for read cycles: 53422377
0banks busy for write cycles: 22660
1banks busy for read cycles: 7105971
1banks busy for write cycles: 3177420
2banks busy for read cycles: 2509240
2banks busy for write cycles: 1105394
3banks busy for read cycles: 933530
3banks busy for write cycles: 541547
4banks busy for read cycles: 336139
4banks busy for write cycles: 291785
5banks busy for read cycles: 154172
5banks busy for write cycles: 175395
6banks busy for read cycles: 78380
6banks busy for write cycles: 115267
7banks busy for read cycles: 47232
7banks busy for write cycles: 100934
8banks busy for read cycles: 91054
8banks busy for write cycles: 327689

CPU 0 Branch Prediction Accuracy: 98.8607% MPKI: 1.8623 Average ROB Occupancy at Mispredict: 72.6058
Branch types
NOT_BRANCH: 41826774 83.6535%
BRANCH_DIRECT_JUMP: 735331 1.47066%
BRANCH_INDIRECT: 269194 0.538388%
BRANCH_CONDITIONAL: 5957947 11.9159%
BRANCH_DIRECT_CALL: 368758 0.737516%
BRANCH_INDIRECT_CALL: 226975 0.45395%
BRANCH_RETURN: 614696 1.22939%
BRANCH_OTHER: 0 0%

DRAM PAGES: 1048576
Allocated PAGES: 4494
