
*** ChampSim Multicore Out-of-Order Simulator ***

Warmup Instructions: 50000000
Simulation Instructions: 50000000
Number of CPUs: 1
LLC sets: 2048
LLC ways: 16
Off-chip DRAM Size: 4096 MB Channels: 1 Width: 64-bit Data Rate: 6400 MT/s
CPU 0 runs ../IPC-traces//client_005.champsimtrace.xz
.xz
NUM_OF_IPS_IN_CRITICAL_IP_TRAINING: 64
NUM_OF_CRITICAL_IP_TRAINING_TABLE_WAYS: 2
NUM_OF_CRITICAL_IP_TRAINING_TABLE_SETS: 32
WOBBLY_CRITICAL_IP_CACHE_SETS: 32
WOBBLY_CRITICAL_IP_CACHE_WAYS: 4
BTB has LRU replacement policy
ITLB has LRU replacement policy
DTLB has LRU replacement policy
STLB has LRU replacement policy
CPU 0 L1I next line prefetcher
L1I has LRU replacement policy
L1D has LRU replacement policy
Bingo PHT WAYS: 16 and PHT_SIZE: 16384
Initialize SRRIP state for L2C
Initialize DRRIP state for LLC
Heartbeat CPU 0 instructions: 10000001 cycles: 2800305 heartbeat IPC: 3.57104 cumulative IPC: 3.57104 (Simulation time: 0 hr 2 min 46 sec) 
Heartbeat CPU 0 instructions: 20000002 cycles: 5595831 heartbeat IPC: 3.57714 cumulative IPC: 3.57409 (Simulation time: 0 hr 5 min 15 sec) 
Heartbeat CPU 0 instructions: 30000001 cycles: 8444528 heartbeat IPC: 3.51038 cumulative IPC: 3.5526 (Simulation time: 0 hr 7 min 49 sec) 
Heartbeat CPU 0 instructions: 40000000 cycles: 11291090 heartbeat IPC: 3.51301 cumulative IPC: 3.54262 (Simulation time: 0 hr 10 min 2 sec) 
Heartbeat CPU 0 instructions: 50000001 cycles: 14064349 heartbeat IPC: 3.60587 cumulative IPC: 3.55509 (Simulation time: 0 hr 11 min 58 sec) 

Warmup complete CPU 0 instructions: 50000001 cycles: 14064349 (Simulation time: 0 hr 11 min 58 sec) 

% increase in all ip prefetch 398.844
% increase in all ip prefetch 8.87648
% increase in all ip prefetch 10.9277
% increase in all ip prefetch 2.29277
Heartbeat CPU 0 instructions: 60000001 cycles: 29943024 heartbeat IPC: 0.629775 cumulative IPC: 0.629775 (Simulation time: 0 hr 14 min 25 sec) 
Heartbeat CPU 0 instructions: 70000002 cycles: 44531319 heartbeat IPC: 0.685481 cumulative IPC: 0.656449 (Simulation time: 0 hr 16 min 55 sec) 
Heartbeat CPU 0 instructions: 80000003 cycles: 57663387 heartbeat IPC: 0.761495 cumulative IPC: 0.688089 (Simulation time: 0 hr 19 min 31 sec) 
Heartbeat CPU 0 instructions: 90000002 cycles: 73340060 heartbeat IPC: 0.63789 cumulative IPC: 0.674813 (Simulation time: 0 hr 22 min 15 sec) 
Heartbeat CPU 0 instructions: 100000002 cycles: 88745244 heartbeat IPC: 0.649132 cumulative IPC: 0.669515 (Simulation time: 0 hr 24 min 38 sec) 
Finished CPU 0 instructions: 50000001 cycles: 74680895 cumulative IPC: 0.669515 (Simulation time: 0 hr 24 min 38 sec) 

ChampSim completed all CPUs

Region of Interest Statistics

CPU 0 cumulative IPC: 0.669515 instructions: 50000001 cycles: 74680895

CPU 0 Average Load ROB stall cycles: 1.73596e+07
CPU 0 Fraction of times ROB stalled by Loads: 34.3756
CPU 0 Percentage of Load stall cycles in Total stall cycles: 2.40512e+08
Issued all: 27353443
Issued LT all: 21651431
rob_not_full_when_issued_lt_all: 20364656
Issued LT one: 16397792
rob_not_full_when_issued_lt_one: 15231875
critical_ip_candidate_identification_operations: 5815610
critical_ip_candidate_identification_operation_per_cycle: 0.0778728
 Total stall cycles: 61054782
 Total load stall cycles: 146843952323961
Unique Load IPs: 41101
CPU 0 NUM of IPS identified critical: 116
CPU 0 Num of Load IPs stalling ROB: 27728
Threshold modification factor: -3
Max PIST entries: 64
Min PIST entries: 0
Avg PIST entries: 31.93
Trouble in retire width: 0.870342
MaC = Marked as critical.
lt_50_percent_before_Mac: 74
gt_90_percent_before_Mac: 2
gt_75_percent_before_Mac: 10
gt_50_percent_before_Mac: 29
stall_proportion_bin_same_before_after: 0
stall_proportion_bin_lower_before_after: 0
stall_proportion_bin_upper_before_after: 0
average_stall_proportion_before: 0.0537396
average_stall_proportion_after: 0.0523074
Critical IP stalls, total frequency: 339976
Non-critical IP stalls, total frequency: 2567829
Total Freq all stalling IPs: 2907805
Critical_IP_Detector_Accuracy_70: 0.62931
Critical_IP_Detector_Accuracy_80: 0.801724
Critical_IP_Detector_Accuracy_90: 0.982759
Critical_IP_Detector_Coverage_70: 0.101108
Critical_IP_Detector_Coverage_80: 0.0683824
Critical_IP_Detector_Coverage_90: 0.0391753
stat_90_percent_critical_ip_stalls_freq: 2617104
stat_90_percent_non_critical_ip_stalls_freq: 290701
AVERAGE_ROB_Occupancy_90_Percent_Critical_IP_Stalls: 73.1082
AVERAGE_ROB_Occupancy_90_Percent_Non_Critical_IP_Stalls: 37.7421
Critical_IP_ROB_Stalls_Bucket_0: 103962
Non-critical_IP_ROB_Stalls_Bucket_0: 1328387
Critical_IP_ROB_Stalls_Bucket_1: 95670
Non-critical_IP_ROB_Stalls_Bucket_1: 731346
Critical_IP_ROB_Stalls_Bucket_2: 50105
Non-critical_IP_ROB_Stalls_Bucket_2: 334500
Critical_IP_ROB_Stalls_Bucket_3: 29736
Non-critical_IP_ROB_Stalls_Bucket_3: 107320
Critical_IP_ROB_Stalls_Bucket_4: 13108
Non-critical_IP_ROB_Stalls_Bucket_4: 37905
Critical_IP_ROB_Stalls_Bucket_5: 12633
Non-critical_IP_ROB_Stalls_Bucket_5: 17104
Critical_IP_ROB_Stalls_Bucket_6: 34762
Non-critical_IP_ROB_Stalls_Bucket_6: 11267
0 => IPs accounting for >50 percent of stalls, 1 => 55, 2 => 60, 3 => 65 and so on till 90.
percent50: 50.0408 num IPs:  200
percent55: 55.0135 num IPs: 280
percent60: 60.0373 num IPs: 391
percent65: 65.0034 num IPs: 529
percent70: 70.0157 num IPs: 722
percent75: 75.0093 num IPs: 991
percent80: 80.0091 num IPs: 1360
percent85: 85.0025 num IPs: 1919
percent90: 90.0026 num IPs: 2910
Critical_ROB_Stalls_Percent_0_Bucket_0: 529609
Non-critical_ROB_Stalls_Percent_0_Bucket_0: 902740
Critical_ROB_Stalls_Percent_0_Bucket_1: 487340
Non-critical_ROB_Stalls_Percent_0_Bucket_1: 339676
Critical_ROB_Stalls_Percent_0_Bucket_2: 265107
Non-critical_ROB_Stalls_Percent_0_Bucket_2: 119498
Critical_ROB_Stalls_Percent_0_Bucket_3: 93671
Non-critical_ROB_Stalls_Percent_0_Bucket_3: 43385
Critical_ROB_Stalls_Percent_0_Bucket_4: 30705
Non-critical_ROB_Stalls_Percent_0_Bucket_4: 20308
Critical_ROB_Stalls_Percent_0_Bucket_5: 20215
Non-critical_ROB_Stalls_Percent_0_Bucket_5: 9522
Critical_ROB_Stalls_Percent_0_Bucket_6: 28441
Non-critical_ROB_Stalls_Percent_0_Bucket_6: 17588
Critical_ROB_Stalls_Percent_1_Bucket_0: 607172
Non-critical_ROB_Stalls_Percent_1_Bucket_0: 825177
Critical_ROB_Stalls_Percent_1_Bucket_1: 528020
Non-critical_ROB_Stalls_Percent_1_Bucket_1: 298996
Critical_ROB_Stalls_Percent_1_Bucket_2: 278570
Non-critical_ROB_Stalls_Percent_1_Bucket_2: 106035
Critical_ROB_Stalls_Percent_1_Bucket_3: 98911
Non-critical_ROB_Stalls_Percent_1_Bucket_3: 38145
Critical_ROB_Stalls_Percent_1_Bucket_4: 32659
Non-critical_ROB_Stalls_Percent_1_Bucket_4: 18354
Critical_ROB_Stalls_Percent_1_Bucket_5: 21224
Non-critical_ROB_Stalls_Percent_1_Bucket_5: 8513
Critical_ROB_Stalls_Percent_1_Bucket_6: 33130
Non-critical_ROB_Stalls_Percent_1_Bucket_6: 12899
Critical_ROB_Stalls_Percent_2_Bucket_0: 676954
Non-critical_ROB_Stalls_Percent_2_Bucket_0: 755395
Critical_ROB_Stalls_Percent_2_Bucket_1: 572486
Non-critical_ROB_Stalls_Percent_2_Bucket_1: 254530
Critical_ROB_Stalls_Percent_2_Bucket_2: 293969
Non-critical_ROB_Stalls_Percent_2_Bucket_2: 90636
Critical_ROB_Stalls_Percent_2_Bucket_3: 104710
Non-critical_ROB_Stalls_Percent_2_Bucket_3: 32346
Critical_ROB_Stalls_Percent_2_Bucket_4: 37935
Non-critical_ROB_Stalls_Percent_2_Bucket_4: 13078
Critical_ROB_Stalls_Percent_2_Bucket_5: 23055
Non-critical_ROB_Stalls_Percent_2_Bucket_5: 6682
Critical_ROB_Stalls_Percent_2_Bucket_6: 36660
Non-critical_ROB_Stalls_Percent_2_Bucket_6: 9369
Critical_ROB_Stalls_Percent_3_Bucket_0: 744436
Non-critical_ROB_Stalls_Percent_3_Bucket_0: 687913
Critical_ROB_Stalls_Percent_3_Bucket_1: 619779
Non-critical_ROB_Stalls_Percent_3_Bucket_1: 207237
Critical_ROB_Stalls_Percent_3_Bucket_2: 312905
Non-critical_ROB_Stalls_Percent_3_Bucket_2: 71700
Critical_ROB_Stalls_Percent_3_Bucket_3: 111049
Non-critical_ROB_Stalls_Percent_3_Bucket_3: 26007
Critical_ROB_Stalls_Percent_3_Bucket_4: 40704
Non-critical_ROB_Stalls_Percent_3_Bucket_4: 10309
Critical_ROB_Stalls_Percent_3_Bucket_5: 24088
Non-critical_ROB_Stalls_Percent_3_Bucket_5: 5649
Critical_ROB_Stalls_Percent_3_Bucket_6: 37214
Non-critical_ROB_Stalls_Percent_3_Bucket_6: 8815
Critical_ROB_Stalls_Percent_4_Bucket_0: 838847
Non-critical_ROB_Stalls_Percent_4_Bucket_0: 593502
Critical_ROB_Stalls_Percent_4_Bucket_1: 649888
Non-critical_ROB_Stalls_Percent_4_Bucket_1: 177128
Critical_ROB_Stalls_Percent_4_Bucket_2: 325706
Non-critical_ROB_Stalls_Percent_4_Bucket_2: 58899
Critical_ROB_Stalls_Percent_4_Bucket_3: 115018
Non-critical_ROB_Stalls_Percent_4_Bucket_3: 22038
Critical_ROB_Stalls_Percent_4_Bucket_4: 42629
Non-critical_ROB_Stalls_Percent_4_Bucket_4: 8384
Critical_ROB_Stalls_Percent_4_Bucket_5: 25036
Non-critical_ROB_Stalls_Percent_4_Bucket_5: 4701
Critical_ROB_Stalls_Percent_4_Bucket_6: 38796
Non-critical_ROB_Stalls_Percent_4_Bucket_6: 7233
Critical_ROB_Stalls_Percent_5_Bucket_0: 923234
Non-critical_ROB_Stalls_Percent_5_Bucket_0: 509115
Critical_ROB_Stalls_Percent_5_Bucket_1: 687630
Non-critical_ROB_Stalls_Percent_5_Bucket_1: 139386
Critical_ROB_Stalls_Percent_5_Bucket_2: 338830
Non-critical_ROB_Stalls_Percent_5_Bucket_2: 45775
Critical_ROB_Stalls_Percent_5_Bucket_3: 119863
Non-critical_ROB_Stalls_Percent_5_Bucket_3: 17193
Critical_ROB_Stalls_Percent_5_Bucket_4: 44570
Non-critical_ROB_Stalls_Percent_5_Bucket_4: 6443
Critical_ROB_Stalls_Percent_5_Bucket_5: 26456
Non-critical_ROB_Stalls_Percent_5_Bucket_5: 3281
Critical_ROB_Stalls_Percent_5_Bucket_6: 40540
Non-critical_ROB_Stalls_Percent_5_Bucket_6: 5489
Critical_ROB_Stalls_Percent_6_Bucket_0: 1014253
Non-critical_ROB_Stalls_Percent_6_Bucket_0: 418096
Critical_ROB_Stalls_Percent_6_Bucket_1: 725893
Non-critical_ROB_Stalls_Percent_6_Bucket_1: 101123
Critical_ROB_Stalls_Percent_6_Bucket_2: 348053
Non-critical_ROB_Stalls_Percent_6_Bucket_2: 36552
Critical_ROB_Stalls_Percent_6_Bucket_3: 123415
Non-critical_ROB_Stalls_Percent_6_Bucket_3: 13641
Critical_ROB_Stalls_Percent_6_Bucket_4: 46044
Non-critical_ROB_Stalls_Percent_6_Bucket_4: 4969
Critical_ROB_Stalls_Percent_6_Bucket_5: 27224
Non-critical_ROB_Stalls_Percent_6_Bucket_5: 2513
Critical_ROB_Stalls_Percent_6_Bucket_6: 41628
Non-critical_ROB_Stalls_Percent_6_Bucket_6: 4401
Critical_ROB_Stalls_Percent_7_Bucket_0: 1110103
Non-critical_ROB_Stalls_Percent_7_Bucket_0: 322246
Critical_ROB_Stalls_Percent_7_Bucket_1: 755830
Non-critical_ROB_Stalls_Percent_7_Bucket_1: 71186
Critical_ROB_Stalls_Percent_7_Bucket_2: 359621
Non-critical_ROB_Stalls_Percent_7_Bucket_2: 24984
Critical_ROB_Stalls_Percent_7_Bucket_3: 127041
Non-critical_ROB_Stalls_Percent_7_Bucket_3: 10015
Critical_ROB_Stalls_Percent_7_Bucket_4: 47409
Non-critical_ROB_Stalls_Percent_7_Bucket_4: 3604
Critical_ROB_Stalls_Percent_7_Bucket_5: 28112
Non-critical_ROB_Stalls_Percent_7_Bucket_5: 1625
Critical_ROB_Stalls_Percent_7_Bucket_6: 43592
Non-critical_ROB_Stalls_Percent_7_Bucket_6: 2437
Critical_ROB_Stalls_Percent_8_Bucket_0: 1206133
Non-critical_ROB_Stalls_Percent_8_Bucket_0: 226216
Critical_ROB_Stalls_Percent_8_Bucket_1: 785512
Non-critical_ROB_Stalls_Percent_8_Bucket_1: 41504
Critical_ROB_Stalls_Percent_8_Bucket_2: 370968
Non-critical_ROB_Stalls_Percent_8_Bucket_2: 13637
Critical_ROB_Stalls_Percent_8_Bucket_3: 131955
Non-critical_ROB_Stalls_Percent_8_Bucket_3: 5101
Critical_ROB_Stalls_Percent_8_Bucket_4: 48970
Non-critical_ROB_Stalls_Percent_8_Bucket_4: 2043
Critical_ROB_Stalls_Percent_8_Bucket_5: 28863
Non-critical_ROB_Stalls_Percent_8_Bucket_5: 874
Critical_ROB_Stalls_Percent_8_Bucket_6: 44703
Non-critical_ROB_Stalls_Percent_8_Bucket_6: 1326
Average ROB occupancy Load Stall Begin: 59.9469
Average ROB occupancy Load Stall End: 69.5726
Min ROB occupancy Load Stall Begin: 1
Max ROB occupancy Load Stall Begin: 352
Min ROB occupancy Load Stall End: 1
Max ROB occupancy Load Stall End: 352
Average ROB occupancy Critical Load Stall Begin: 116.327
Average ROB occupancy Critical Load Stall End: 127.573
Min ROB occupancy Critical Load Stall Begin: 2
Max ROB occupancy Critical Load Stall Begin: 352
Min ROB occupancy Critical Load Stall End: 2
Max ROB occupancy Critical Load Stall End: 352
 ROB Load Stall Begin Bucket Count 0: 1686677
 ROB Load Stall End Bucket Count 0: 1432349
 ROB Critical Load Stall Begin Bucket Count 0: 89263
 ROB Critical Load Stall End Bucket Count 0: 63966
 ROB Load Stall Begin Bucket Count 1: 698461
 ROB Load Stall End Bucket Count 1: 827016
 ROB Critical Load Stall Begin Bucket Count 1: 51919
 ROB Critical Load Stall End Bucket Count 1: 66285
 ROB Load Stall Begin Bucket Count 2: 312343
 ROB Load Stall End Bucket Count 2: 384605
 ROB Critical Load Stall Begin Bucket Count 2: 34943
 ROB Critical Load Stall End Bucket Count 2: 38585
 ROB Load Stall Begin Bucket Count 3: 103917
 ROB Load Stall End Bucket Count 3: 137056
 ROB Critical Load Stall Begin Bucket Count 3: 20019
 ROB Critical Load Stall End Bucket Count 3: 23945
 ROB Load Stall Begin Bucket Count 4: 39951
 ROB Load Stall End Bucket Count 4: 51013
 ROB Critical Load Stall Begin Bucket Count 4: 9348
 ROB Critical Load Stall End Bucket Count 4: 10179
 ROB Load Stall Begin Bucket Count 5: 26888
 ROB Load Stall End Bucket Count 5: 29737
 ROB Critical Load Stall Begin Bucket Count 5: 11315
 ROB Critical Load Stall End Bucket Count 5: 10563
 ROB Load Stall Begin Bucket Count 6: 39568
 ROB Load Stall End Bucket Count 6: 46029
 ROB Critical Load Stall Begin Bucket Count 6: 27135
 ROB Critical Load Stall End Bucket Count 6: 30419
PIST Tag Read Accesses: 4206188
PIST Read Accesses: 2103094
PIST Tag Write Accesses: 4206188
PIST Write Accesses: 2103094
Criticality detector called times: 2668886
Max global_stall_cycles_count: 4342943
Threshold Modified: 3 times, factor: -3
Sturdy critical IP cache stats: 
 Unused entries: 0
CIC Tag Read Accesses: 0
CIC Read Accesses: 0
CIC Tag Write Accesses: 0
CIC Write Accesses: 0
Wobbly critical IP cache stats: 
 Unused entries: 30
CIC Tag Read Accesses: 81187381
CIC Read Accesses: 0
CIC Tag Write Accesses: 35152
CIC Write Accesses: 0
ITLB TOTAL     ACCESS:    9251279  HIT:    9133536  MISS:     117743  HIT %:    98.7273  MISS %:    1.27272   MPKI: 2.35486
ITLB LOAD TRANSLATION ACCESS:    8278463  HIT:    8220498  MISS:      57965  HIT %:    99.2998  MISS %:    0.70019   MPKI: 1.1593
ITLB TRANSLATION FROM L1D PREFETCHER ACCESS:     972816  HIT:     913038  MISS:      59778  HIT %:    93.8552  MISS %:    6.14484   MPKI: 1.19556
ITLBprefetch_cycle_count: 0 prefetches_per_prefetch_cycle: -nan
ITLB PREFETCH  REQUESTED:          0  ISSUED:          0  USEFUL:      48233  USELESS:      11549
ITLB USEFUL LOAD PREFETCHES:      48233 PREFETCH ISSUED TO LOWER LEVEL:          0  ACCURACY: inf
ITLB TIMELY PREFETCHES:      48233 LATE PREFETCHES: 363 DROPPED PREFETCHES: 324
ITLB PREFETCHES SAME FILL-ORIGIN LEVEL: 0 DIFFERENT FILL-ORIGIN LEVEL: 0
ITLB AVERAGE MISS LATENCY: 146516 cycles
ITLB RQ	ACCESS:   12549379	FORWARD:          0	MERGED:    3278423	TO_CACHE:    9270956

DTLB TOTAL     ACCESS:   10408635  HIT:   10207277  MISS:     201358  HIT %:    98.0655  MISS %:    1.93453   MPKI: 4.02716
DTLB LOAD TRANSLATION ACCESS:   10408635  HIT:   10207277  MISS:     201358  HIT %:    98.0655  MISS %:    1.93453   MPKI: 4.02716
DTLBprefetch_cycle_count: 0 prefetches_per_prefetch_cycle: -nan
DTLB PREFETCH  REQUESTED:          0  ISSUED:          0  USEFUL:          0  USELESS:          0
DTLB USEFUL LOAD PREFETCHES:          0 PREFETCH ISSUED TO LOWER LEVEL:          0  ACCURACY: -nan
DTLB TIMELY PREFETCHES:          0 LATE PREFETCHES: 0 DROPPED PREFETCHES: 0
DTLB PREFETCHES SAME FILL-ORIGIN LEVEL: 0 DIFFERENT FILL-ORIGIN LEVEL: 0
DTLB AVERAGE MISS LATENCY: 12.8687 cycles
DTLB RQ	ACCESS:   14349092	FORWARD:          0	MERGED:    3909800	TO_CACHE:   10439292

STLB TOTAL     ACCESS:     319101  HIT:     307162  MISS:      11939  HIT %:    96.2586  MISS %:    3.74145   MPKI: 0.23878
STLB LOAD TRANSLATION ACCESS:     258962  HIT:     247838  MISS:      11124  HIT %:    95.7044  MISS %:    4.29561   MPKI: 0.22248
STLB TRANSLATION FROM L1D PREFETCHER ACCESS:      60139  HIT:      59324  MISS:        815  HIT %:    98.6448  MISS %:    1.35519   MPKI: 0.0163
STLBprefetch_cycle_count: 0 prefetches_per_prefetch_cycle: -nan
STLB PREFETCH  REQUESTED:          0  ISSUED:          0  USEFUL:        559  USELESS:        251
STLB USEFUL LOAD PREFETCHES:        559 PREFETCH ISSUED TO LOWER LEVEL:          0  ACCURACY: inf
STLB TIMELY PREFETCHES:        559 LATE PREFETCHES: 0 DROPPED PREFETCHES: 326
STLB PREFETCHES SAME FILL-ORIGIN LEVEL: 0 DIFFERENT FILL-ORIGIN LEVEL: 0
STLB AVERAGE MISS LATENCY: 79.0885 cycles
STLB RQ	ACCESS:     319427	FORWARD:          0	MERGED:          0	TO_CACHE:     319427

STLB Hit, L1D data hit: 0
STLB Hit, L2C data hit: 0
STLB Hit, LLC data hit: 0
STLB Hit, LLC data miss: 0
STLB STLB hints to L2: 0
L1D TOTAL     ACCESS:   13849419  HIT:   13462155  MISS:     387264  HIT %:    97.2038  MISS %:    2.79625   MPKI: 7.74528
L1D LOAD      ACCESS:    7055317  HIT:    6864594  MISS:     190723  HIT %:    97.2967  MISS %:    2.70325   MPKI: 3.81446
L1D RFO       ACCESS:    6794102  HIT:    6597561  MISS:     196541  HIT %:    97.1072  MISS %:    2.89282   MPKI: 3.93082
L1Dprefetch_cycle_count: 0 prefetches_per_prefetch_cycle: -nan
L1D PREFETCH  REQUESTED:          0  ISSUED:          0  USEFUL:          0  USELESS:          0
L1D USEFUL LOAD PREFETCHES:          0 PREFETCH ISSUED TO LOWER LEVEL:          0  ACCURACY: -nan
L1D TIMELY PREFETCHES:          0 LATE PREFETCHES: 0 DROPPED PREFETCHES: 0
L1D PREFETCHES SAME FILL-ORIGIN LEVEL: 0 DIFFERENT FILL-ORIGIN LEVEL: 0
L1D AVERAGE MISS LATENCY: 113.445 cycles
L1D RQ	ACCESS:   10970966	FORWARD:          0	MERGED:    3729014	TO_CACHE:    7088964
L1D WQ	ACCESS:    7412318	FORWARD:     152988	MERGED:     152190	TO_CACHE:    7260128

L1D UNIQUE REGIONS ACCESSED: 0
L1D REGIONS CONFLICTS: 0
L1D Cross Page Prefetch Requests: 0
L1D Same Page Prefetch Requests: 0
L1D ROI Sum of L1D PQ occupancy: 0
L1D PREFETCHES PUSHED FROM L2C: 0
L1I TOTAL     ACCESS:   12415002  HIT:   11349096  MISS:    1065906  HIT %:    91.4144  MISS %:    8.58563   MPKI: 21.3181
L1I LOAD      ACCESS:    9751274  HIT:    9482233  MISS:     269041  HIT %:     97.241  MISS %:    2.75903   MPKI: 5.38082
L1I PREFETCH  ACCESS:    2663728  HIT:    1866863  MISS:     796865  HIT %:    70.0846  MISS %:    29.9154   MPKI: 15.9373
L1Iprefetch_cycle_count: 0 prefetches_per_prefetch_cycle: inf
L1I PREFETCH  REQUESTED:    2915280  ISSUED:    2912016  USEFUL:     509891  USELESS:     286925
L1I USEFUL LOAD PREFETCHES:     509891 PREFETCH ISSUED TO LOWER LEVEL:     825994  ACCURACY: 61.7306
L1I TIMELY PREFETCHES:     509891 LATE PREFETCHES: 29042 DROPPED PREFETCHES: 691
L1I PREFETCHES SAME FILL-ORIGIN LEVEL: 825994 DIFFERENT FILL-ORIGIN LEVEL: 0
L1I AVERAGE MISS LATENCY: 1.29946e+06 cycles
L1I RQ	ACCESS:   14564656	FORWARD:          0	MERGED:    4776972	TO_CACHE:    9787684
L1I PQ	ACCESS:    2912016	FORWARD:          0	MERGED:     150321	TO_CACHE:    2761695

BTB TOTAL     ACCESS:    6897112  HIT:    6294074  MISS:     603038  HIT %:    91.2567  MISS %:    8.74334   MPKI: 12.0608
BTB BRANCH_DIRECT_JUMP	ACCESS:     484667  HIT:     467652  MISS:      17015
BTB BRANCH_INDIRECT	ACCESS:      85086  HIT:      43882  MISS:      41204
BTB BRANCH_CONDITIONAL	ACCESS:    3984632  HIT:    3933521  MISS:      51111
BTB BRANCH_DIRECT_CALL	ACCESS:    1028917  HIT:     994054  MISS:      34863
BTB BRANCH_INDIRECT_CALL	ACCESS:     141825  HIT:     105579  MISS:      36246
BTB BRANCH_RETURN	ACCESS:    1171985  HIT:     749386  MISS:     422599
BTB BRANCH_OTHER ACCESS:          0  HIT:          0  MISS:          0

L2C TOTAL     ACCESS:    1731311  HIT:    1357932  MISS:     373379  HIT %:    78.4337  MISS %:    21.5663   MPKI: 7.46758
L2C LOAD      ACCESS:     430716  HIT:     311594  MISS:     119122  HIT %:    72.3433  MISS %:    27.6567   MPKI: 2.38244
L2C DATA LOAD MPKI: 1.892
L2C INSTRUCTION LOAD MPKI: 0.49044
L2C RFO       ACCESS:     196539  HIT:      32691  MISS:     163848  HIT %:    16.6333  MISS %:    83.3667   MPKI: 3.27696
L2C PREFETCH  ACCESS:     850203  HIT:     776345  MISS:      73858  HIT %:    91.3129  MISS %:     8.6871   MPKI: 1.47716
L2C DATA PREFETCH MPKI: 0.37544
L2C INSTRUCTION PREFETCH MPKI: 1.10172
L2C WRITEBACK ACCESS:     240648  HIT:     228158  MISS:      12490  HIT %:    94.8098  MISS %:    5.19015   MPKI: 0.2498
L2C LOAD TRANSLATION ACCESS:      11958  HIT:       8249  MISS:       3709  HIT %:    68.9831  MISS %:    31.0169   MPKI: 0.07418
L2C TRANSLATION FROM L1D PREFETCHER ACCESS:       1247  HIT:        895  MISS:        352  HIT %:    71.7723  MISS %:    28.2277   MPKI: 0.00704
L2Cprefetch_cycle_count: 5349 prefetches_per_prefetch_cycle: 4.68686
L2C PREFETCH  REQUESTED:      25070  ISSUED:      25070  USEFUL:      14588  USELESS:      57986
L2C USEFUL LOAD PREFETCHES:      14588 PREFETCH ISSUED TO LOWER LEVEL:      74328  ACCURACY: 19.6265
L2C TIMELY PREFETCHES:      14588 LATE PREFETCHES: 470 DROPPED PREFETCHES: 0
L2C PREFETCHES SAME FILL-ORIGIN LEVEL: 19242 DIFFERENT FILL-ORIGIN LEVEL: 0
L2C AVERAGE MISS LATENCY: 129.719 cycles
L2C RQ	ACCESS:     640468	FORWARD:          0	MERGED:          0	TO_CACHE:     640460
L2C WQ	ACCESS:     240648	FORWARD:          8	MERGED:          0	TO_CACHE:     240648
L2C PQ	ACCESS:     850977	FORWARD:          0	MERGED:          0	TO_CACHE:     850977

L2C Instructions Evicting Data 47420
L2C Translations Evicting Data 2740
L2C Data Evicting Data 232221
L2C Instructions Evicting Instructions 30962
L2C Translations Evicting Instructions 1240
L2C Data Evicting Instructions 42399
L2C Instructions Evicting Translations 1226
L2C Translations Evicting Translations 81
L2C Data Evicting Translations 2600
L2C Dense regions hint from L2: 0
PSCL5 TOTAL     ACCESS:      12265  HIT:      12265  MISS:          0  HIT %:        100  MISS %:          0   MPKI: 0
PSCL5 LOAD TRANSLATION ACCESS:      11124  HIT:      11124  MISS:          0  HIT %:        100  MISS %:          0   MPKI: 0
PSCL5 TRANSLATION FROM L1D PREFETCHER ACCESS:       1141  HIT:       1141  MISS:          0  HIT %:        100  MISS %:          0   MPKI: 0
PSCL5prefetch_cycle_count: 0 prefetches_per_prefetch_cycle: -nan
PSCL5 PREFETCH  REQUESTED:          0  ISSUED:          0  USEFUL:          0  USELESS:          0
PSCL5 USEFUL LOAD PREFETCHES:          0 PREFETCH ISSUED TO LOWER LEVEL:          0  ACCURACY: -nan
PSCL5 TIMELY PREFETCHES:          0 LATE PREFETCHES: 0 DROPPED PREFETCHES: 0
PSCL5 PREFETCHES SAME FILL-ORIGIN LEVEL: 0 DIFFERENT FILL-ORIGIN LEVEL: 0

PSCL4 TOTAL     ACCESS:      12265  HIT:      12265  MISS:          0  HIT %:        100  MISS %:          0   MPKI: 0
PSCL4 LOAD TRANSLATION ACCESS:      11124  HIT:      11124  MISS:          0  HIT %:        100  MISS %:          0   MPKI: 0
PSCL4 TRANSLATION FROM L1D PREFETCHER ACCESS:       1141  HIT:       1141  MISS:          0  HIT %:        100  MISS %:          0   MPKI: 0
PSCL4prefetch_cycle_count: 0 prefetches_per_prefetch_cycle: -nan
PSCL4 PREFETCH  REQUESTED:          0  ISSUED:          0  USEFUL:          0  USELESS:          0
PSCL4 USEFUL LOAD PREFETCHES:          0 PREFETCH ISSUED TO LOWER LEVEL:          0  ACCURACY: -nan
PSCL4 TIMELY PREFETCHES:          0 LATE PREFETCHES: 0 DROPPED PREFETCHES: 0
PSCL4 PREFETCHES SAME FILL-ORIGIN LEVEL: 0 DIFFERENT FILL-ORIGIN LEVEL: 0

PSCL3 TOTAL     ACCESS:      12246  HIT:      12236  MISS:         10  HIT %:    99.9183  MISS %:  0.0816593   MPKI: 0.0002
PSCL3 LOAD TRANSLATION ACCESS:      11109  HIT:      11099  MISS:         10  HIT %:      99.91  MISS %:  0.0900171   MPKI: 0.0002
PSCL3 TRANSLATION FROM L1D PREFETCHER ACCESS:       1137  HIT:       1137  MISS:          0  HIT %:        100  MISS %:          0   MPKI: 0
PSCL3prefetch_cycle_count: 0 prefetches_per_prefetch_cycle: -nan
PSCL3 PREFETCH  REQUESTED:          0  ISSUED:          0  USEFUL:          0  USELESS:          0
PSCL3 USEFUL LOAD PREFETCHES:          0 PREFETCH ISSUED TO LOWER LEVEL:          0  ACCURACY: -nan
PSCL3 TIMELY PREFETCHES:          0 LATE PREFETCHES: 0 DROPPED PREFETCHES: 0
PSCL3 PREFETCHES SAME FILL-ORIGIN LEVEL: 0 DIFFERENT FILL-ORIGIN LEVEL: 0

PSCL2 TOTAL     ACCESS:      12223  HIT:      11334  MISS:        889  HIT %:    92.7268  MISS %:    7.27317   MPKI: 0.01778
PSCL2 LOAD TRANSLATION ACCESS:      11186  HIT:      10297  MISS:        889  HIT %:    92.0526  MISS %:    7.94743   MPKI: 0.01778
PSCL2 TRANSLATION FROM L1D PREFETCHER ACCESS:       1037  HIT:       1037  MISS:          0  HIT %:        100  MISS %:          0   MPKI: 0
PSCL2prefetch_cycle_count: 0 prefetches_per_prefetch_cycle: -nan
PSCL2 PREFETCH  REQUESTED:          0  ISSUED:          0  USEFUL:          0  USELESS:          0
PSCL2 USEFUL LOAD PREFETCHES:          0 PREFETCH ISSUED TO LOWER LEVEL:          0  ACCURACY: -nan
PSCL2 TIMELY PREFETCHES:          0 LATE PREFETCHES: 0 DROPPED PREFETCHES: 0
PSCL2 PREFETCHES SAME FILL-ORIGIN LEVEL: 0 DIFFERENT FILL-ORIGIN LEVEL: 0

LLC TOTAL     ACCESS:     555722  HIT:     294185  MISS:     261537  HIT %:    52.9374  MISS %:    47.0626   MPKI: 5.23074
LLC LOAD      ACCESS:     118654  HIT:      51074  MISS:      67580  HIT %:    43.0445  MISS %:    56.9555   MPKI: 1.3516
LLC RFO       ACCESS:     163846  HIT:       8135  MISS:     155711  HIT %:    4.96503  MISS %:     95.035   MPKI: 3.11422
LLC PREFETCH  ACCESS:      74328  HIT:      42394  MISS:      31934  HIT %:    57.0364  MISS %:    42.9636   MPKI: 0.63868
LLC WRITEBACK ACCESS:     194833  HIT:     190580  MISS:       4253  HIT %:    97.8171  MISS %:     2.1829   MPKI: 0.08506
LLC LOAD TRANSLATION ACCESS:       3709  HIT:       1813  MISS:       1896  HIT %:    48.8811  MISS %:    51.1189   MPKI: 0.03792
LLC TRANSLATION FROM L1D PREFETCHER ACCESS:        352  HIT:        189  MISS:        163  HIT %:    53.6932  MISS %:    46.3068   MPKI: 0.00326
LLCprefetch_cycle_count: 0 prefetches_per_prefetch_cycle: -nan
LLC PREFETCH  REQUESTED:          0  ISSUED:          0  USEFUL:       3324  USELESS:      24735
LLC USEFUL LOAD PREFETCHES:       3324 PREFETCH ISSUED TO LOWER LEVEL:      31934  ACCURACY: 10.409
LLC TIMELY PREFETCHES:       3324 LATE PREFETCHES: 0 DROPPED PREFETCHES: 0
LLC PREFETCHES SAME FILL-ORIGIN LEVEL: 0 DIFFERENT FILL-ORIGIN LEVEL: 0
LLC AVERAGE MISS LATENCY: 143.87 cycles
LLC RQ	ACCESS:     286561	FORWARD:          0	MERGED:          0	TO_CACHE:     286561
LLC WQ	ACCESS:     194833	FORWARD:          0	MERGED:          0	TO_CACHE:     194833
LLC PQ	ACCESS:      74328	FORWARD:          0	MERGED:          0	TO_CACHE:      74328

LLC Dense regions hint to LLC: 0

RAW hits: 1821233
Loads Generated: 12792198
Loads sent to L1D: 10970966
Stores Generated: 7412307
Stores sent to L1D: 7412318
Major fault: 0 Minor fault: 6178
Allocated PAGES: 6178
I-Shadow cache 408 bytes
Touched + WorthPF tables 6144 bytes 
MMA filter 174 bytes 
FNL filter 272 bytes 
TOTAL PREFETCHER STORAGE SIZE: 25174 bytes
CPU 0 L1I next line prefetcher final stats
total_pref_operate_instances_l2: 772398
dynamic_config_counter_instances_l2_1: 759995
dynamic_config_counter_instances_l2_2: 7260
dynamic_config_counter_instances_l2_3: 5143
dynamic_config_counter_instances_l2_4: 0
dynamic_config_counter_instances_l2_5: 0
[Bingo] PHT Access: 9814
[Bingo] PHT Hit PC+Addr: 1649
[Bingo] PHT Hit PC+Offs: 3855
[Bingo] PHT Miss: 4310
[Bingo] Prefetch PC+Addr: 0
[Bingo] Prefetch PC+Offs: 0
[Bingo] Useful PC+Addr: 0
[Bingo] Useful PC+Offs: 0
[Bingo] Useless PC+Addr: 0
[Bingo] Useless PC+Offs: 0
[Bingo] L1 Prefetch per Region: 0
[Bingo] L2 Prefetch per Region: 7.81195
[Bingo] L3 Prefetch per Region: 0
[Bingo] No Prefetch per Region: 24.188
[Bingo] Number of Voters Mean: 7.47938
[Bingo] Number of Voters SD: 6.18634
PHT read accesses: 52685
PHT write accesses: 6319
AT read accesses: 45163
AT write accesses: 46711
FT read accesses: 21724
FT write accesses: 9814
PS read accesses: 11067
PS write accesses: 5504
PHT tag read accesses: 280531
PHT tag write accesses: 7968
AT tag read accesses: 7047704
AT tag write accesses: 51480
FT tag read accesses: 6577609
FT tag write accesses: 24626
PS tag read accesses: 995359
PS tag write accesses: 16565

DRAM Statistics
 CHANNEL 0
 RQ ROW_BUFFER_HIT:      90465  ROW_BUFFER_MISS:     166819
 DBUS_CONGESTED:        238
 WQ ROW_BUFFER_HIT:      34742  ROW_BUFFER_MISS:     146482  FULL:          0

 AVG_CONGESTED_CYCLE: 3
 All warmup complete: 2
Channel 0 Bank busy for read cycles: 0
Channel 0 Bank busy for write cycles: 0
Channel 0
Rank 0
0banks busy for read cycles: 45804830
0banks busy for write cycles: 46344
1banks busy for read cycles: 11271109
1banks busy for write cycles: 5449543
2banks busy for read cycles: 3192430
2banks busy for write cycles: 2647825
3banks busy for read cycles: 747831
3banks busy for write cycles: 1159713
4banks busy for read cycles: 386914
4banks busy for write cycles: 549133
5banks busy for read cycles: 312544
5banks busy for write cycles: 393772
6banks busy for read cycles: 304938
6banks busy for write cycles: 363302
7banks busy for read cycles: 225584
7banks busy for write cycles: 410005
8banks busy for read cycles: 398470
8banks busy for write cycles: 1016609

CPU 0 Branch Prediction Accuracy: 97.8666% MPKI: 3.9013 Average ROB Occupancy at Mispredict: 48.8853
Branch types
NOT_BRANCH: 40856330 81.7127%
BRANCH_DIRECT_JUMP: 484667 0.969334%
BRANCH_INDIRECT: 85086 0.170172%
BRANCH_CONDITIONAL: 6230887 12.4618%
BRANCH_DIRECT_CALL: 1028917 2.05783%
BRANCH_INDIRECT_CALL: 141825 0.28365%
BRANCH_RETURN: 1171985 2.34397%
BRANCH_OTHER: 0 0%

DRAM PAGES: 1048576
Allocated PAGES: 6178
