
*** ChampSim Multicore Out-of-Order Simulator ***

Warmup Instructions: 50000000
Simulation Instructions: 50000000
Number of CPUs: 1
LLC sets: 2048
LLC ways: 16
Off-chip DRAM Size: 4096 MB Channels: 1 Width: 64-bit Data Rate: 6400 MT/s
CPU 0 runs ../IPC-traces//client_006.champsimtrace.xz
.xz
BTB has LRU replacement policy
ITLB has LRU replacement policy
DTLB has LRU replacement policy
STLB has LRU replacement policy
CPU 0 L1I next line prefetcher
L1I has LRU replacement policy
L1D has LRU replacement policy
Bingo PHT WAYS: 16 and PHT_SIZE: 16384
Initialize SRRIP state for L2C
Initialize DRRIP state for LLC
Heartbeat CPU 0 instructions: 10000001 cycles: 3366692 heartbeat IPC: 2.97027 cumulative IPC: 2.97027 (Simulation time: 0 hr 3 min 38 sec) 
Heartbeat CPU 0 instructions: 20000002 cycles: 6629029 heartbeat IPC: 3.06529 cumulative IPC: 3.01703 (Simulation time: 0 hr 7 min 16 sec) 
Heartbeat CPU 0 instructions: 30000003 cycles: 9423118 heartbeat IPC: 3.57898 cumulative IPC: 3.18366 (Simulation time: 0 hr 10 min 8 sec) 
Heartbeat CPU 0 instructions: 40000000 cycles: 12348626 heartbeat IPC: 3.41821 cumulative IPC: 3.23923 (Simulation time: 0 hr 13 min 25 sec) 
Heartbeat CPU 0 instructions: 50000003 cycles: 15544331 heartbeat IPC: 3.1292 cumulative IPC: 3.21661 (Simulation time: 0 hr 16 min 13 sec) 

Warmup complete CPU 0 instructions: 50000003 cycles: 15544331 (Simulation time: 0 hr 16 min 13 sec) 

Heartbeat CPU 0 instructions: 60000002 cycles: 30138312 heartbeat IPC: 0.685214 cumulative IPC: 0.685214 (Simulation time: 0 hr 19 min 28 sec) 
Heartbeat CPU 0 instructions: 70000000 cycles: 47837224 heartbeat IPC: 0.565006 cumulative IPC: 0.619331 (Simulation time: 0 hr 23 min 0 sec) 
Heartbeat CPU 0 instructions: 80000002 cycles: 62646934 heartbeat IPC: 0.675233 cumulative IPC: 0.636907 (Simulation time: 0 hr 26 min 9 sec) 
Heartbeat CPU 0 instructions: 90000003 cycles: 77529473 heartbeat IPC: 0.671928 cumulative IPC: 0.645316 (Simulation time: 0 hr 29 min 11 sec) 
Heartbeat CPU 0 instructions: 100000001 cycles: 92108429 heartbeat IPC: 0.68592 cumulative IPC: 0.653048 (Simulation time: 0 hr 32 min 12 sec) 
Finished CPU 0 instructions: 50000002 cycles: 76564099 cumulative IPC: 0.653048 (Simulation time: 0 hr 32 min 12 sec) 

ChampSim completed all CPUs

Region of Interest Statistics

CPU 0 cumulative IPC: 0.653048 instructions: 50000002 cycles: 76564099

CPU 0 Average Load ROB stall cycles: 1.83692e+07
CPU 0 Fraction of times ROB stalled by Loads: 33.6721
CPU 0 Percentage of Load stall cycles in Total stall cycles: 1.99894e+08
Issued all: 30611792
Issued LT all: 24422900
rob_not_full_when_issued_lt_all: 19408421
Issued LT one: 20300701
rob_not_full_when_issued_lt_one: 15606084
 Total stall cycles: 64283593
 Total load stall cycles: 128499238098901
Unique Load IPs: 14924
CPU 0 NUM of IPS identified critical: 2
CPU 0 Num of Load IPs stalling ROB: 0
Threshold modification factor: 0
Trouble in retire width: -nan
MaC = Marked as critical.
lt_50_percent_before_Mac: 1
gt_90_percent_before_Mac: 1
gt_75_percent_before_Mac: 0
gt_50_percent_before_Mac: 0
stall_proportion_bin_same_before_after: 0
stall_proportion_bin_lower_before_after: 0
stall_proportion_bin_upper_before_after: 0
average_stall_proportion_before: 0.023509
average_stall_proportion_after: 0.0522435
Critical_IP_Detector_Accuracy_70: 0.5
Critical_IP_Detector_Accuracy_80: 0.5
Critical_IP_Detector_Accuracy_90: 0.5
Critical_IP_Detector_Coverage_70: 1
Critical_IP_Detector_Coverage_80: 1
Critical_IP_Detector_Coverage_90: 1
stat_90_percent_critical_ip_stalls_freq: 87838
stat_90_percent_non_critical_ip_stalls_freq: 18446744073709463778
AVERAGE_ROB_Occupancy_90_Percent_Critical_IP_Stalls: 41.5938
AVERAGE_ROB_Occupancy_90_Percent_Non_Critical_IP_Stalls: 1.00209e-11
Critical_IP_ROB_Stalls_Bucket_0: 80326
Non-critical_IP_ROB_Stalls_Bucket_0: 1186134
Critical_IP_ROB_Stalls_Bucket_1: 2257
Non-critical_IP_ROB_Stalls_Bucket_1: 487128
Critical_IP_ROB_Stalls_Bucket_2: 594
Non-critical_IP_ROB_Stalls_Bucket_2: 251380
Critical_IP_ROB_Stalls_Bucket_3: 672
Non-critical_IP_ROB_Stalls_Bucket_3: 123389
Critical_IP_ROB_Stalls_Bucket_4: 551
Non-critical_IP_ROB_Stalls_Bucket_4: 61504
Critical_IP_ROB_Stalls_Bucket_5: 808
Non-critical_IP_ROB_Stalls_Bucket_5: 38616
Critical_IP_ROB_Stalls_Bucket_6: 3226
Non-critical_IP_ROB_Stalls_Bucket_6: 118901
0 => IPs accounting for >50 percent of stalls, 1 => 55, 2 => 60, 3 => 65 and so on till 90.
percent50: inf num IPs:  1
percent55: inf num IPs: 1
percent60: inf num IPs: 1
percent65: inf num IPs: 1
percent70: inf num IPs: 1
percent75: inf num IPs: 1
percent80: inf num IPs: 1
percent85: inf num IPs: 1
percent90: inf num IPs: 1
Critical_ROB_Stalls_Percent_0_Bucket_0: 80145
Non-critical_ROB_Stalls_Percent_0_Bucket_0: 1186315
Critical_ROB_Stalls_Percent_0_Bucket_1: 2001
Non-critical_ROB_Stalls_Percent_0_Bucket_1: 487384
Critical_ROB_Stalls_Percent_0_Bucket_2: 582
Non-critical_ROB_Stalls_Percent_0_Bucket_2: 251392
Critical_ROB_Stalls_Percent_0_Bucket_3: 637
Non-critical_ROB_Stalls_Percent_0_Bucket_3: 123424
Critical_ROB_Stalls_Percent_0_Bucket_4: 499
Non-critical_ROB_Stalls_Percent_0_Bucket_4: 61556
Critical_ROB_Stalls_Percent_0_Bucket_5: 770
Non-critical_ROB_Stalls_Percent_0_Bucket_5: 38654
Critical_ROB_Stalls_Percent_0_Bucket_6: 3204
Non-critical_ROB_Stalls_Percent_0_Bucket_6: 118923
Critical_ROB_Stalls_Percent_1_Bucket_0: 80145
Non-critical_ROB_Stalls_Percent_1_Bucket_0: 1186315
Critical_ROB_Stalls_Percent_1_Bucket_1: 2001
Non-critical_ROB_Stalls_Percent_1_Bucket_1: 487384
Critical_ROB_Stalls_Percent_1_Bucket_2: 582
Non-critical_ROB_Stalls_Percent_1_Bucket_2: 251392
Critical_ROB_Stalls_Percent_1_Bucket_3: 637
Non-critical_ROB_Stalls_Percent_1_Bucket_3: 123424
Critical_ROB_Stalls_Percent_1_Bucket_4: 499
Non-critical_ROB_Stalls_Percent_1_Bucket_4: 61556
Critical_ROB_Stalls_Percent_1_Bucket_5: 770
Non-critical_ROB_Stalls_Percent_1_Bucket_5: 38654
Critical_ROB_Stalls_Percent_1_Bucket_6: 3204
Non-critical_ROB_Stalls_Percent_1_Bucket_6: 118923
Critical_ROB_Stalls_Percent_2_Bucket_0: 80145
Non-critical_ROB_Stalls_Percent_2_Bucket_0: 1186315
Critical_ROB_Stalls_Percent_2_Bucket_1: 2001
Non-critical_ROB_Stalls_Percent_2_Bucket_1: 487384
Critical_ROB_Stalls_Percent_2_Bucket_2: 582
Non-critical_ROB_Stalls_Percent_2_Bucket_2: 251392
Critical_ROB_Stalls_Percent_2_Bucket_3: 637
Non-critical_ROB_Stalls_Percent_2_Bucket_3: 123424
Critical_ROB_Stalls_Percent_2_Bucket_4: 499
Non-critical_ROB_Stalls_Percent_2_Bucket_4: 61556
Critical_ROB_Stalls_Percent_2_Bucket_5: 770
Non-critical_ROB_Stalls_Percent_2_Bucket_5: 38654
Critical_ROB_Stalls_Percent_2_Bucket_6: 3204
Non-critical_ROB_Stalls_Percent_2_Bucket_6: 118923
Critical_ROB_Stalls_Percent_3_Bucket_0: 80145
Non-critical_ROB_Stalls_Percent_3_Bucket_0: 1186315
Critical_ROB_Stalls_Percent_3_Bucket_1: 2001
Non-critical_ROB_Stalls_Percent_3_Bucket_1: 487384
Critical_ROB_Stalls_Percent_3_Bucket_2: 582
Non-critical_ROB_Stalls_Percent_3_Bucket_2: 251392
Critical_ROB_Stalls_Percent_3_Bucket_3: 637
Non-critical_ROB_Stalls_Percent_3_Bucket_3: 123424
Critical_ROB_Stalls_Percent_3_Bucket_4: 499
Non-critical_ROB_Stalls_Percent_3_Bucket_4: 61556
Critical_ROB_Stalls_Percent_3_Bucket_5: 770
Non-critical_ROB_Stalls_Percent_3_Bucket_5: 38654
Critical_ROB_Stalls_Percent_3_Bucket_6: 3204
Non-critical_ROB_Stalls_Percent_3_Bucket_6: 118923
Critical_ROB_Stalls_Percent_4_Bucket_0: 80145
Non-critical_ROB_Stalls_Percent_4_Bucket_0: 1186315
Critical_ROB_Stalls_Percent_4_Bucket_1: 2001
Non-critical_ROB_Stalls_Percent_4_Bucket_1: 487384
Critical_ROB_Stalls_Percent_4_Bucket_2: 582
Non-critical_ROB_Stalls_Percent_4_Bucket_2: 251392
Critical_ROB_Stalls_Percent_4_Bucket_3: 637
Non-critical_ROB_Stalls_Percent_4_Bucket_3: 123424
Critical_ROB_Stalls_Percent_4_Bucket_4: 499
Non-critical_ROB_Stalls_Percent_4_Bucket_4: 61556
Critical_ROB_Stalls_Percent_4_Bucket_5: 770
Non-critical_ROB_Stalls_Percent_4_Bucket_5: 38654
Critical_ROB_Stalls_Percent_4_Bucket_6: 3204
Non-critical_ROB_Stalls_Percent_4_Bucket_6: 118923
Critical_ROB_Stalls_Percent_5_Bucket_0: 80145
Non-critical_ROB_Stalls_Percent_5_Bucket_0: 1186315
Critical_ROB_Stalls_Percent_5_Bucket_1: 2001
Non-critical_ROB_Stalls_Percent_5_Bucket_1: 487384
Critical_ROB_Stalls_Percent_5_Bucket_2: 582
Non-critical_ROB_Stalls_Percent_5_Bucket_2: 251392
Critical_ROB_Stalls_Percent_5_Bucket_3: 637
Non-critical_ROB_Stalls_Percent_5_Bucket_3: 123424
Critical_ROB_Stalls_Percent_5_Bucket_4: 499
Non-critical_ROB_Stalls_Percent_5_Bucket_4: 61556
Critical_ROB_Stalls_Percent_5_Bucket_5: 770
Non-critical_ROB_Stalls_Percent_5_Bucket_5: 38654
Critical_ROB_Stalls_Percent_5_Bucket_6: 3204
Non-critical_ROB_Stalls_Percent_5_Bucket_6: 118923
Critical_ROB_Stalls_Percent_6_Bucket_0: 80145
Non-critical_ROB_Stalls_Percent_6_Bucket_0: 1186315
Critical_ROB_Stalls_Percent_6_Bucket_1: 2001
Non-critical_ROB_Stalls_Percent_6_Bucket_1: 487384
Critical_ROB_Stalls_Percent_6_Bucket_2: 582
Non-critical_ROB_Stalls_Percent_6_Bucket_2: 251392
Critical_ROB_Stalls_Percent_6_Bucket_3: 637
Non-critical_ROB_Stalls_Percent_6_Bucket_3: 123424
Critical_ROB_Stalls_Percent_6_Bucket_4: 499
Non-critical_ROB_Stalls_Percent_6_Bucket_4: 61556
Critical_ROB_Stalls_Percent_6_Bucket_5: 770
Non-critical_ROB_Stalls_Percent_6_Bucket_5: 38654
Critical_ROB_Stalls_Percent_6_Bucket_6: 3204
Non-critical_ROB_Stalls_Percent_6_Bucket_6: 118923
Critical_ROB_Stalls_Percent_7_Bucket_0: 80145
Non-critical_ROB_Stalls_Percent_7_Bucket_0: 1186315
Critical_ROB_Stalls_Percent_7_Bucket_1: 2001
Non-critical_ROB_Stalls_Percent_7_Bucket_1: 487384
Critical_ROB_Stalls_Percent_7_Bucket_2: 582
Non-critical_ROB_Stalls_Percent_7_Bucket_2: 251392
Critical_ROB_Stalls_Percent_7_Bucket_3: 637
Non-critical_ROB_Stalls_Percent_7_Bucket_3: 123424
Critical_ROB_Stalls_Percent_7_Bucket_4: 499
Non-critical_ROB_Stalls_Percent_7_Bucket_4: 61556
Critical_ROB_Stalls_Percent_7_Bucket_5: 770
Non-critical_ROB_Stalls_Percent_7_Bucket_5: 38654
Critical_ROB_Stalls_Percent_7_Bucket_6: 3204
Non-critical_ROB_Stalls_Percent_7_Bucket_6: 118923
Critical_ROB_Stalls_Percent_8_Bucket_0: 80145
Non-critical_ROB_Stalls_Percent_8_Bucket_0: 1186315
Critical_ROB_Stalls_Percent_8_Bucket_1: 2001
Non-critical_ROB_Stalls_Percent_8_Bucket_1: 487384
Critical_ROB_Stalls_Percent_8_Bucket_2: 582
Non-critical_ROB_Stalls_Percent_8_Bucket_2: 251392
Critical_ROB_Stalls_Percent_8_Bucket_3: 637
Non-critical_ROB_Stalls_Percent_8_Bucket_3: 123424
Critical_ROB_Stalls_Percent_8_Bucket_4: 499
Non-critical_ROB_Stalls_Percent_8_Bucket_4: 61556
Critical_ROB_Stalls_Percent_8_Bucket_5: 770
Non-critical_ROB_Stalls_Percent_8_Bucket_5: 38654
Critical_ROB_Stalls_Percent_8_Bucket_6: 3204
Non-critical_ROB_Stalls_Percent_8_Bucket_6: 118923
Average ROB occupancy Load Stall Begin: 67.9242
Average ROB occupancy Load Stall End: 80.0288
Min ROB occupancy Load Stall Begin: 1
Max ROB occupancy Load Stall Begin: 352
Min ROB occupancy Load Stall End: 1
Max ROB occupancy Load Stall End: 352
Average ROB occupancy Critical Load Stall Begin: 30.4962
Average ROB occupancy Critical Load Stall End: 35.8463
Min ROB occupancy Critical Load Stall Begin: 8
Max ROB occupancy Critical Load Stall Begin: 352
Min ROB occupancy Critical Load Stall End: 12
Max ROB occupancy Critical Load Stall End: 352
 ROB Load Stall Begin Bucket Count 0: 1481461
 ROB Load Stall End Bucket Count 0: 1266460
 ROB Critical Load Stall Begin Bucket Count 0: 81049
 ROB Critical Load Stall End Bucket Count 0: 79386
 ROB Load Stall Begin Bucket Count 1: 393376
 ROB Load Stall End Bucket Count 1: 489385
 ROB Critical Load Stall Begin Bucket Count 1: 600
 ROB Critical Load Stall End Bucket Count 1: 1788
 ROB Load Stall Begin Bucket Count 2: 202353
 ROB Load Stall End Bucket Count 2: 251974
 ROB Critical Load Stall Begin Bucket Count 2: 347
 ROB Critical Load Stall End Bucket Count 2: 483
 ROB Load Stall Begin Bucket Count 3: 90349
 ROB Load Stall End Bucket Count 3: 124061
 ROB Critical Load Stall Begin Bucket Count 3: 382
 ROB Critical Load Stall End Bucket Count 3: 452
 ROB Load Stall Begin Bucket Count 4: 47583
 ROB Load Stall End Bucket Count 4: 62055
 ROB Critical Load Stall Begin Bucket Count 4: 591
 ROB Critical Load Stall End Bucket Count 4: 403
 ROB Load Stall Begin Bucket Count 5: 34895
 ROB Load Stall End Bucket Count 5: 39424
 ROB Critical Load Stall Begin Bucket Count 5: 1132
 ROB Critical Load Stall End Bucket Count 5: 624
 ROB Load Stall Begin Bucket Count 6: 105469
 ROB Load Stall End Bucket Count 6: 122127
 ROB Critical Load Stall Begin Bucket Count 6: 920
 ROB Critical Load Stall End Bucket Count 6: 1885
PIST Tag Read Accesses: 0
PIST Read Accesses: 0
PIST Tag Write Accesses: 0
PIST Write Accesses: 0
Criticality detector called times: 0
Max global_stall_cycles_count: 0
Threshold Modified: 0 times, factor: 0
Sturdy critical IP cache stats: 
 Unused entries: 0
CIC Tag Read Accesses: 0
CIC Read Accesses: 0
CIC Tag Write Accesses: 0
CIC Write Accesses: 0
Wobbly critical IP cache stats: 
 Unused entries: 13
CIC Tag Read Accesses: 120948821
CIC Read Accesses: 0
CIC Tag Write Accesses: 21714
CIC Write Accesses: 0
ITLB TOTAL     ACCESS:    8345267  HIT:    8146133  MISS:     199134  HIT %:    97.6138  MISS %:    2.38619   MPKI: 3.98268
ITLB LOAD TRANSLATION ACCESS:    7600663  HIT:    7582412  MISS:      18251  HIT %:    99.7599  MISS %:   0.240124   MPKI: 0.36502
ITLB TRANSLATION FROM L1D PREFETCHER ACCESS:     744604  HIT:     563721  MISS:     180883  HIT %:    75.7075  MISS %:    24.2925   MPKI: 3.61766
ITLB PREFETCH  REQUESTED:          0  ISSUED:          0  USEFUL:     147331  USELESS:      33548
ITLB USEFUL LOAD PREFETCHES:     147331 PREFETCH ISSUED TO LOWER LEVEL:          0  ACCURACY: inf
ITLB TIMELY PREFETCHES:     147331 LATE PREFETCHES: 152 DROPPED PREFETCHES: 14
ITLB PREFETCHES SAME FILL-ORIGIN LEVEL: 0 DIFFERENT FILL-ORIGIN LEVEL: 0
ITLB AVERAGE MISS LATENCY: 44223.9 cycles
ITLB RQ	ACCESS:   11082782	FORWARD:          0	MERGED:    2726633	TO_CACHE:    8356149

DTLB TOTAL     ACCESS:    8982249  HIT:    8691026  MISS:     291223  HIT %:    96.7578  MISS %:    3.24221   MPKI: 5.82446
DTLB LOAD TRANSLATION ACCESS:    8982249  HIT:    8691026  MISS:     291223  HIT %:    96.7578  MISS %:    3.24221   MPKI: 5.82446
DTLB PREFETCH  REQUESTED:          0  ISSUED:          0  USEFUL:          0  USELESS:          0
DTLB USEFUL LOAD PREFETCHES:          0 PREFETCH ISSUED TO LOWER LEVEL:          0  ACCURACY: -nan
DTLB TIMELY PREFETCHES:          0 LATE PREFETCHES: 0 DROPPED PREFETCHES: 0
DTLB PREFETCHES SAME FILL-ORIGIN LEVEL: 0 DIFFERENT FILL-ORIGIN LEVEL: 0
DTLB AVERAGE MISS LATENCY: 18.3714 cycles
DTLB RQ	ACCESS:   10980880	FORWARD:          0	MERGED:    1981383	TO_CACHE:    8999497

STLB TOTAL     ACCESS:     490357  HIT:     465094  MISS:      25263  HIT %:     94.848  MISS %:    5.15196   MPKI: 0.50526
STLB LOAD TRANSLATION ACCESS:     309322  HIT:     285743  MISS:      23579  HIT %:    92.3772  MISS %:     7.6228   MPKI: 0.47158
STLB TRANSLATION FROM L1D PREFETCHER ACCESS:     181035  HIT:     179351  MISS:       1684  HIT %:    99.0698  MISS %:   0.930207   MPKI: 0.03368
STLB PREFETCH  REQUESTED:          0  ISSUED:          0  USEFUL:       1072  USELESS:        628
STLB USEFUL LOAD PREFETCHES:       1072 PREFETCH ISSUED TO LOWER LEVEL:          0  ACCURACY: inf
STLB TIMELY PREFETCHES:       1072 LATE PREFETCHES: 0 DROPPED PREFETCHES: 14
STLB PREFETCHES SAME FILL-ORIGIN LEVEL: 0 DIFFERENT FILL-ORIGIN LEVEL: 0
STLB AVERAGE MISS LATENCY: 126.215 cycles
STLB RQ	ACCESS:     490371	FORWARD:          0	MERGED:          0	TO_CACHE:     490371

STLB Hit, L1D data hit: 0
STLB Hit, L2C data hit: 0
STLB Hit, LLC data hit: 0
STLB Hit, LLC data miss: 0
STLB STLB hints to L2: 0
L1D TOTAL     ACCESS:   10802882  HIT:   10300140  MISS:     502742  HIT %:    95.3462  MISS %:    4.65378   MPKI: 10.0548
L1D LOAD      ACCESS:    6467757  HIT:    6004984  MISS:     462773  HIT %:    92.8449  MISS %:    7.15508   MPKI: 9.25546
L1D RFO       ACCESS:    4335125  HIT:    4295156  MISS:      39969  HIT %:     99.078  MISS %:    0.92198   MPKI: 0.79938
L1D PREFETCH  REQUESTED:          0  ISSUED:          0  USEFUL:          0  USELESS:          0
L1D USEFUL LOAD PREFETCHES:          0 PREFETCH ISSUED TO LOWER LEVEL:          0  ACCURACY: -nan
L1D TIMELY PREFETCHES:          0 LATE PREFETCHES: 0 DROPPED PREFETCHES: 0
L1D PREFETCHES SAME FILL-ORIGIN LEVEL: 0 DIFFERENT FILL-ORIGIN LEVEL: 0
L1D AVERAGE MISS LATENCY: 110.821 cycles
L1D RQ	ACCESS:   10553875	FORWARD:          0	MERGED:    3925123	TO_CACHE:    6541856
L1D WQ	ACCESS:    4525584	FORWARD:      86896	MERGED:      86560	TO_CACHE:    4439024

L1D UNIQUE REGIONS ACCESSED: 0
L1D REGIONS CONFLICTS: 0
L1D Cross Page Prefetch Requests: 0
L1D Same Page Prefetch Requests: 0
L1D ROI Sum of L1D PQ occupancy: 0
L1D PREFETCHES PUSHED FROM L2C: 0
L1I TOTAL     ACCESS:   11062536  HIT:   10083007  MISS:     979529  HIT %:    91.1455  MISS %:    8.85447   MPKI: 19.5906
L1I LOAD      ACCESS:    9123070  HIT:    9102834  MISS:      20236  HIT %:    99.7782  MISS %:   0.221811   MPKI: 0.40472
L1I PREFETCH  ACCESS:    1939466  HIT:     980173  MISS:     959293  HIT %:    50.5383  MISS %:    49.4617   MPKI: 19.1859
L1I PREFETCH  REQUESTED:    1992802  ISSUED:    1988303  USEFUL:     751219  USELESS:     208078
L1I USEFUL LOAD PREFETCHES:     751219 PREFETCH ISSUED TO LOWER LEVEL:     964358  ACCURACY: 77.8984
L1I TIMELY PREFETCHES:     751219 LATE PREFETCHES: 5065 DROPPED PREFETCHES: 24
L1I PREFETCHES SAME FILL-ORIGIN LEVEL: 964358 DIFFERENT FILL-ORIGIN LEVEL: 0
L1I AVERAGE MISS LATENCY: 289112 cycles
L1I RQ	ACCESS:   13301378	FORWARD:          0	MERGED:    4174577	TO_CACHE:    9126801
L1I PQ	ACCESS:    1988303	FORWARD:          0	MERGED:      32322	TO_CACHE:    1955981

BTB TOTAL     ACCESS:    5652927  HIT:    5410510  MISS:     242417  HIT %:    95.7117  MISS %:    4.28834   MPKI: 4.84834
BTB BRANCH_DIRECT_JUMP	ACCESS:     413829  HIT:     410707  MISS:       3122
BTB BRANCH_INDIRECT	ACCESS:      47058  HIT:      28780  MISS:      18278
BTB BRANCH_CONDITIONAL	ACCESS:    3935184  HIT:    3928918  MISS:       6266
BTB BRANCH_DIRECT_CALL	ACCESS:     536885  HIT:     534001  MISS:       2884
BTB BRANCH_INDIRECT_CALL	ACCESS:      90642  HIT:      74824  MISS:      15818
BTB BRANCH_RETURN	ACCESS:     629329  HIT:     433280  MISS:     196049
BTB BRANCH_OTHER ACCESS:          0  HIT:          0  MISS:          0

L2C TOTAL     ACCESS:    1761350  HIT:    1284946  MISS:     476404  HIT %:    72.9523  MISS %:    27.0477   MPKI: 9.52808
L2C LOAD      ACCESS:     477862  HIT:     182058  MISS:     295804  HIT %:    38.0984  MISS %:    61.9016   MPKI: 5.91608
L2C DATA LOAD MPKI: 5.7861
L2C INSTRUCTION LOAD MPKI: 0.12998
L2C RFO       ACCESS:      39963  HIT:       8044  MISS:      31919  HIT %:    20.1286  MISS %:    79.8714   MPKI: 0.63838
L2C PREFETCH  ACCESS:    1059294  HIT:     928817  MISS:     130477  HIT %:    87.6826  MISS %:    12.3174   MPKI: 2.60954
L2C DATA PREFETCH MPKI: 1.8292
L2C INSTRUCTION PREFETCH MPKI: 0.78034
L2C WRITEBACK ACCESS:     156022  HIT:     151215  MISS:       4807  HIT %:     96.919  MISS %:    3.08098   MPKI: 0.09614
L2C LOAD TRANSLATION ACCESS:      26165  HIT:      14005  MISS:      12160  HIT %:    53.5257  MISS %:    46.4743   MPKI: 0.2432
L2C TRANSLATION FROM L1D PREFETCHER ACCESS:       2044  HIT:        807  MISS:       1237  HIT %:    39.4814  MISS %:    60.5186   MPKI: 0.02474
L2C PREFETCH  REQUESTED:     121202  ISSUED:     121202  USEFUL:      93787  USELESS:      39271
L2C USEFUL LOAD PREFETCHES:      93787 PREFETCH ISSUED TO LOWER LEVEL:     147783  ACCURACY: 63.4626
L2C TIMELY PREFETCHES:      93787 LATE PREFETCHES: 17306 DROPPED PREFETCHES: 0
L2C PREFETCHES SAME FILL-ORIGIN LEVEL: 108766 DIFFERENT FILL-ORIGIN LEVEL: 0
L2C AVERAGE MISS LATENCY: 123.929 cycles
L2C RQ	ACCESS:     546122	FORWARD:          0	MERGED:          0	TO_CACHE:     546034
L2C WQ	ACCESS:     156022	FORWARD:         88	MERGED:          0	TO_CACHE:     156022
L2C PQ	ACCESS:    1085560	FORWARD:          0	MERGED:          0	TO_CACHE:    1085560

L2C Instructions Evicting Data 38305
L2C Translations Evicting Data 11271
L2C Data Evicting Data 361669
L2C Instructions Evicting Instructions 5900
L2C Translations Evicting Instructions 1583
L2C Data Evicting Instructions 39353
L2C Instructions Evicting Translations 1311
L2C Translations Evicting Translations 543
L2C Data Evicting Translations 11662
L2C Dense regions hint from L2: 0
PSCL5 TOTAL     ACCESS:      25277  HIT:      25277  MISS:          0  HIT %:        100  MISS %:          0   MPKI: 0
PSCL5 LOAD TRANSLATION ACCESS:      23579  HIT:      23579  MISS:          0  HIT %:        100  MISS %:          0   MPKI: 0
PSCL5 TRANSLATION FROM L1D PREFETCHER ACCESS:       1698  HIT:       1698  MISS:          0  HIT %:        100  MISS %:          0   MPKI: 0
PSCL5 PREFETCH  REQUESTED:          0  ISSUED:          0  USEFUL:          0  USELESS:          0
PSCL5 USEFUL LOAD PREFETCHES:          0 PREFETCH ISSUED TO LOWER LEVEL:          0  ACCURACY: -nan
PSCL5 TIMELY PREFETCHES:          0 LATE PREFETCHES: 0 DROPPED PREFETCHES: 0
PSCL5 PREFETCHES SAME FILL-ORIGIN LEVEL: 0 DIFFERENT FILL-ORIGIN LEVEL: 0

PSCL4 TOTAL     ACCESS:      22885  HIT:      22856  MISS:         29  HIT %:    99.8733  MISS %:   0.126721   MPKI: 0.00058
PSCL4 LOAD TRANSLATION ACCESS:      21269  HIT:      21240  MISS:         29  HIT %:    99.8637  MISS %:   0.136349   MPKI: 0.00058
PSCL4 TRANSLATION FROM L1D PREFETCHER ACCESS:       1616  HIT:       1616  MISS:          0  HIT %:        100  MISS %:          0   MPKI: 0
PSCL4 PREFETCH  REQUESTED:          0  ISSUED:          0  USEFUL:          0  USELESS:          0
PSCL4 USEFUL LOAD PREFETCHES:          0 PREFETCH ISSUED TO LOWER LEVEL:          0  ACCURACY: -nan
PSCL4 TIMELY PREFETCHES:          0 LATE PREFETCHES: 0 DROPPED PREFETCHES: 0
PSCL4 PREFETCHES SAME FILL-ORIGIN LEVEL: 0 DIFFERENT FILL-ORIGIN LEVEL: 0

PSCL3 TOTAL     ACCESS:      25166  HIT:      25079  MISS:         87  HIT %:    99.6543  MISS %:   0.345705   MPKI: 0.00174
PSCL3 LOAD TRANSLATION ACCESS:      23530  HIT:      23443  MISS:         87  HIT %:    99.6303  MISS %:   0.369741   MPKI: 0.00174
PSCL3 TRANSLATION FROM L1D PREFETCHER ACCESS:       1636  HIT:       1636  MISS:          0  HIT %:        100  MISS %:          0   MPKI: 0
PSCL3 PREFETCH  REQUESTED:          0  ISSUED:          0  USEFUL:          0  USELESS:          0
PSCL3 USEFUL LOAD PREFETCHES:          0 PREFETCH ISSUED TO LOWER LEVEL:          0  ACCURACY: -nan
PSCL3 TIMELY PREFETCHES:          0 LATE PREFETCHES: 0 DROPPED PREFETCHES: 0
PSCL3 PREFETCHES SAME FILL-ORIGIN LEVEL: 0 DIFFERENT FILL-ORIGIN LEVEL: 0

PSCL2 TOTAL     ACCESS:      25275  HIT:      22439  MISS:       2836  HIT %:    88.7794  MISS %:    11.2206   MPKI: 0.05672
PSCL2 LOAD TRANSLATION ACCESS:      23896  HIT:      21060  MISS:       2836  HIT %:    88.1319  MISS %:    11.8681   MPKI: 0.05672
PSCL2 TRANSLATION FROM L1D PREFETCHER ACCESS:       1379  HIT:       1379  MISS:          0  HIT %:        100  MISS %:          0   MPKI: 0
PSCL2 PREFETCH  REQUESTED:          0  ISSUED:          0  USEFUL:          0  USELESS:          0
PSCL2 USEFUL LOAD PREFETCHES:          0 PREFETCH ISSUED TO LOWER LEVEL:          0  ACCURACY: -nan
PSCL2 TIMELY PREFETCHES:          0 LATE PREFETCHES: 0 DROPPED PREFETCHES: 0
PSCL2 PREFETCHES SAME FILL-ORIGIN LEVEL: 0 DIFFERENT FILL-ORIGIN LEVEL: 0

LLC TOTAL     ACCESS:     599168  HIT:     323131  MISS:     276037  HIT %:    53.9299  MISS %:    46.0701   MPKI: 5.52074
LLC LOAD      ACCESS:     278498  HIT:      76047  MISS:     202451  HIT %:    27.3061  MISS %:    72.6939   MPKI: 4.04902
LLC RFO       ACCESS:      31919  HIT:       3093  MISS:      28826  HIT %:    9.69015  MISS %:    90.3098   MPKI: 0.57652
LLC PREFETCH  ACCESS:     147783  HIT:     118022  MISS:      29761  HIT %:    79.8617  MISS %:    20.1383   MPKI: 0.59522
LLC WRITEBACK ACCESS:     127571  HIT:     119632  MISS:       7939  HIT %:    93.7768  MISS %:     6.2232   MPKI: 0.15878
LLC LOAD TRANSLATION ACCESS:      12160  HIT:       5708  MISS:       6452  HIT %:    46.9408  MISS %:    53.0592   MPKI: 0.12904
LLC TRANSLATION FROM L1D PREFETCHER ACCESS:       1237  HIT:        629  MISS:        608  HIT %:    50.8488  MISS %:    49.1512   MPKI: 0.01216
LLC PREFETCH  REQUESTED:          0  ISSUED:          0  USEFUL:       1681  USELESS:      35447
LLC USEFUL LOAD PREFETCHES:       1681 PREFETCH ISSUED TO LOWER LEVEL:      29761  ACCURACY: 5.64833
LLC TIMELY PREFETCHES:       1681 LATE PREFETCHES: 0 DROPPED PREFETCHES: 0
LLC PREFETCHES SAME FILL-ORIGIN LEVEL: 0 DIFFERENT FILL-ORIGIN LEVEL: 0
LLC AVERAGE MISS LATENCY: 168.866 cycles
LLC RQ	ACCESS:     323814	FORWARD:          0	MERGED:          0	TO_CACHE:     323814
LLC WQ	ACCESS:     127571	FORWARD:          0	MERGED:          0	TO_CACHE:     127571
LLC PQ	ACCESS:     147783	FORWARD:          0	MERGED:          0	TO_CACHE:     147783

LLC Dense regions hint to LLC: 0

RAW hits: 1021694
Loads Generated: 11575568
Loads sent to L1D: 10553875
Stores Generated: 4525581
Stores sent to L1D: 4525584
Major fault: 0 Minor fault: 10830
Allocated PAGES: 10830
I-Shadow cache 408 bytes
Touched + WorthPF tables 6144 bytes 
MMA filter 174 bytes 
FNL filter 272 bytes 
TOTAL PREFETCHER STORAGE SIZE: 25174 bytes
CPU 0 L1I next line prefetcher final stats
[Bingo] PHT Access: 3936
[Bingo] PHT Hit PC+Addr: 35
[Bingo] PHT Hit PC+Offs: 3885
[Bingo] PHT Miss: 16
[Bingo] Prefetch PC+Addr: 0
[Bingo] Prefetch PC+Offs: 0
[Bingo] Useful PC+Addr: 0
[Bingo] Useful PC+Offs: 0
[Bingo] Useless PC+Addr: 0
[Bingo] Useless PC+Offs: 0
[Bingo] L1 Prefetch per Region: 0
[Bingo] L2 Prefetch per Region: 31.9217
[Bingo] L3 Prefetch per Region: 0
[Bingo] No Prefetch per Region: 0.0783163
[Bingo] Number of Voters Mean: 15.7274
[Bingo] Number of Voters SD: 21.9102
PHT read accesses: 62010
PHT write accesses: 3986
AT read accesses: 125547
AT write accesses: 125686
FT read accesses: 11852
FT write accesses: 3936
PS read accesses: 25439
PS write accesses: 3920
PHT tag read accesses: 188316
PHT tag write accesses: 4021
AT tag read accesses: 9787343
AT tag write accesses: 129476
FT tag read accesses: 7878070
FT tag write accesses: 11856
PS tag read accesses: 2151262
PS tag write accesses: 29358

DRAM Statistics
 CHANNEL 0
 RQ ROW_BUFFER_HIT:      60402  ROW_BUFFER_MISS:     207696
 DBUS_CONGESTED:        147
 WQ ROW_BUFFER_HIT:      27108  ROW_BUFFER_MISS:      85022  FULL:          0

 AVG_CONGESTED_CYCLE: 4
 All warmup complete: 2
Channel 0 Bank busy for read cycles: 0
Channel 0 Bank busy for write cycles: 0
Channel 0
Rank 0
0banks busy for read cycles: 44067784
0banks busy for write cycles: 38730
1banks busy for read cycles: 14425540
1banks busy for write cycles: 5772801
2banks busy for read cycles: 4384667
2banks busy for write cycles: 2205115
3banks busy for read cycles: 1533869
3banks busy for write cycles: 1020453
4banks busy for read cycles: 458562
4banks busy for write cycles: 523571
5banks busy for read cycles: 181683
5banks busy for write cycles: 285531
6banks busy for read cycles: 144845
6banks busy for write cycles: 190479
7banks busy for read cycles: 95736
7banks busy for write cycles: 214610
8banks busy for read cycles: 269241
8banks busy for write cycles: 750883

CPU 0 Branch Prediction Accuracy: 98.1683% MPKI: 3.13642 Average ROB Occupancy at Mispredict: 70.2661
Branch types
NOT_BRANCH: 41438057 82.8761%
BRANCH_DIRECT_JUMP: 413829 0.827658%
BRANCH_INDIRECT: 47058 0.094116%
BRANCH_CONDITIONAL: 6843835 13.6877%
BRANCH_DIRECT_CALL: 536885 1.07377%
BRANCH_INDIRECT_CALL: 90642 0.181284%
BRANCH_RETURN: 629329 1.25866%
BRANCH_OTHER: 0 0%

DRAM PAGES: 1048576
Allocated PAGES: 10830
