
*** ChampSim Multicore Out-of-Order Simulator ***

Warmup Instructions: 50000000
Simulation Instructions: 50000000
Number of CPUs: 1
LLC sets: 2048
LLC ways: 16
Off-chip DRAM Size: 4096 MB Channels: 1 Width: 64-bit Data Rate: 6400 MT/s
CPU 0 runs ../IPC-traces//client_003.champsimtrace.xz
.xz
NUM_OF_IPS_IN_CRITICAL_IP_TRAINING: 64
NUM_OF_CRITICAL_IP_TRAINING_TABLE_WAYS: 2
NUM_OF_CRITICAL_IP_TRAINING_TABLE_SETS: 32
WOBBLY_CRITICAL_IP_CACHE_SETS: 32
WOBBLY_CRITICAL_IP_CACHE_WAYS: 4
BTB has LRU replacement policy
ITLB has LRU replacement policy
DTLB has LRU replacement policy
STLB has LRU replacement policy
CPU 0 L1I next line prefetcher
L1I has LRU replacement policy
IP Table Entries: 256
L1D has LRU replacement policy
Initialize SRRIP state for L2C
Initialize DRRIP state for LLC
Heartbeat CPU 0 instructions: 10000000 cycles: 2804371 heartbeat IPC: 3.56586 cumulative IPC: 3.56586 (Simulation time: 0 hr 3 min 53 sec) 
Heartbeat CPU 0 instructions: 20000000 cycles: 5608252 heartbeat IPC: 3.56649 cumulative IPC: 3.56617 (Simulation time: 0 hr 7 min 1 sec) 
Heartbeat CPU 0 instructions: 30000003 cycles: 8417250 heartbeat IPC: 3.55999 cumulative IPC: 3.56411 (Simulation time: 0 hr 9 min 57 sec) 
Heartbeat CPU 0 instructions: 40000001 cycles: 11234540 heartbeat IPC: 3.54951 cumulative IPC: 3.56045 (Simulation time: 0 hr 12 min 30 sec) 
Heartbeat CPU 0 instructions: 50000002 cycles: 14054375 heartbeat IPC: 3.54631 cumulative IPC: 3.55761 (Simulation time: 0 hr 14 min 58 sec) 

Warmup complete CPU 0 instructions: 50000002 cycles: 14054375 (Simulation time: 0 hr 14 min 58 sec) 

% increase in all ip prefetch 307.664
% increase in all ip prefetch 1.74808
Heartbeat CPU 0 instructions: 60000002 cycles: 27026288 heartbeat IPC: 0.770896 cumulative IPC: 0.770896 (Simulation time: 0 hr 17 min 24 sec) 
Heartbeat CPU 0 instructions: 70000001 cycles: 39626849 heartbeat IPC: 0.793615 cumulative IPC: 0.782091 (Simulation time: 0 hr 19 min 45 sec) 
Heartbeat CPU 0 instructions: 80000001 cycles: 53597919 heartbeat IPC: 0.715765 cumulative IPC: 0.758657 (Simulation time: 0 hr 22 min 3 sec) 
Heartbeat CPU 0 instructions: 90000000 cycles: 68068060 heartbeat IPC: 0.691078 cumulative IPC: 0.740553 (Simulation time: 0 hr 24 min 14 sec) 
Heartbeat CPU 0 instructions: 100000000 cycles: 88022116 heartbeat IPC: 0.501151 cumulative IPC: 0.67597 (Simulation time: 0 hr 27 min 30 sec) 
Finished CPU 0 instructions: 50000002 cycles: 73967743 cumulative IPC: 0.67597 (Simulation time: 0 hr 27 min 30 sec) 

ChampSim completed all CPUs

Region of Interest Statistics

CPU 0 cumulative IPC: 0.67597 instructions: 50000002 cycles: 73967743

CPU 0 Average Load ROB stall cycles: 1.82603e+07
CPU 0 Fraction of times ROB stalled by Loads: 36.3384
CPU 0 Percentage of Load stall cycles in Total stall cycles: 2.67749e+08
Issued all: 39547692
Issued LT all: 34028162
rob_not_full_when_issued_lt_all: 17976196
Issued LT one: 27902183
rob_not_full_when_issued_lt_one: 13670753
 Total stall cycles: 61038464
 Total load stall cycles: 163430008638446
CPU 0 NUM of IPS identified critical: 0
CPU 0 Num of Load IPs stalling ROB: 26829
Threshold modification factor: -1
Max PIST entries: 64
Min PIST entries: 0
Avg PIST entries: 27.27
Trouble in retire width: 0.907308
MaC = Marked as critical.
lt_50_percent_before_Mac: 0
gt_90_percent_before_Mac: 0
gt_75_percent_before_Mac: 0
gt_50_percent_before_Mac: 0
stall_proportion_bin_same_before_after: 0
stall_proportion_bin_lower_before_after: 0
stall_proportion_bin_upper_before_after: 0
average_stall_proportion_before: -nan
average_stall_proportion_after: -nan
Critical IP stalls, total frequency: 0
Non-critical IP stalls, total frequency: 3252293
Total Freq all stalling IPs: 3252293
stat_90_percent_critical_ip_stalls_freq: 2927150
stat_90_percent_non_critical_ip_stalls_freq: 325143
Critical_IP_ROB_Stalls_Bucket_0: 0
Non-critical_IP_ROB_Stalls_Bucket_0: 1454581
Critical_IP_ROB_Stalls_Bucket_1: 0
Non-critical_IP_ROB_Stalls_Bucket_1: 660586
Critical_IP_ROB_Stalls_Bucket_2: 0
Non-critical_IP_ROB_Stalls_Bucket_2: 272970
Critical_IP_ROB_Stalls_Bucket_3: 0
Non-critical_IP_ROB_Stalls_Bucket_3: 90975
Critical_IP_ROB_Stalls_Bucket_4: 0
Non-critical_IP_ROB_Stalls_Bucket_4: 36994
Critical_IP_ROB_Stalls_Bucket_5: 0
Non-critical_IP_ROB_Stalls_Bucket_5: 20048
Critical_IP_ROB_Stalls_Bucket_6: 0
Non-critical_IP_ROB_Stalls_Bucket_6: 716139
0 => IPs accounting for >50 percent of stalls, 1 => 55, 2 => 60, 3 => 65 and so on till 90.
percent50: 50.0491 num IPs:  38
percent55: 55.0593 num IPs: 61
percent60: 60.02 num IPs: 95
percent65: 65.011 num IPs: 152
percent70: 70.0082 num IPs: 247
percent75: 75.0135 num IPs: 394
percent80: 80.0051 num IPs: 633
percent85: 85.0082 num IPs: 1061
percent90: 90.0024 num IPs: 1847
Critical_ROB_Stalls_Percent_0_Bucket_0: 525786
Non-critical_ROB_Stalls_Percent_0_Bucket_0: 928795
Critical_ROB_Stalls_Percent_0_Bucket_1: 213147
Non-critical_ROB_Stalls_Percent_0_Bucket_1: 447439
Critical_ROB_Stalls_Percent_0_Bucket_2: 114859
Non-critical_ROB_Stalls_Percent_0_Bucket_2: 158111
Critical_ROB_Stalls_Percent_0_Bucket_3: 42112
Non-critical_ROB_Stalls_Percent_0_Bucket_3: 48863
Critical_ROB_Stalls_Percent_0_Bucket_4: 18489
Non-critical_ROB_Stalls_Percent_0_Bucket_4: 18505
Critical_ROB_Stalls_Percent_0_Bucket_5: 11055
Non-critical_ROB_Stalls_Percent_0_Bucket_5: 8993
Critical_ROB_Stalls_Percent_0_Bucket_6: 702295
Non-critical_ROB_Stalls_Percent_0_Bucket_6: 13844
Critical_ROB_Stalls_Percent_1_Bucket_0: 604601
Non-critical_ROB_Stalls_Percent_1_Bucket_0: 849980
Critical_ROB_Stalls_Percent_1_Bucket_1: 268815
Non-critical_ROB_Stalls_Percent_1_Bucket_1: 391771
Critical_ROB_Stalls_Percent_1_Bucket_2: 133258
Non-critical_ROB_Stalls_Percent_1_Bucket_2: 139712
Critical_ROB_Stalls_Percent_1_Bucket_3: 48246
Non-critical_ROB_Stalls_Percent_1_Bucket_3: 42729
Critical_ROB_Stalls_Percent_1_Bucket_4: 20938
Non-critical_ROB_Stalls_Percent_1_Bucket_4: 16056
Critical_ROB_Stalls_Percent_1_Bucket_5: 11883
Non-critical_ROB_Stalls_Percent_1_Bucket_5: 8165
Critical_ROB_Stalls_Percent_1_Bucket_6: 702950
Non-critical_ROB_Stalls_Percent_1_Bucket_6: 13189
Critical_ROB_Stalls_Percent_2_Bucket_0: 669914
Non-critical_ROB_Stalls_Percent_2_Bucket_0: 784667
Critical_ROB_Stalls_Percent_2_Bucket_1: 323150
Non-critical_ROB_Stalls_Percent_2_Bucket_1: 337436
Critical_ROB_Stalls_Percent_2_Bucket_2: 158045
Non-critical_ROB_Stalls_Percent_2_Bucket_2: 114925
Critical_ROB_Stalls_Percent_2_Bucket_3: 55198
Non-critical_ROB_Stalls_Percent_2_Bucket_3: 35777
Critical_ROB_Stalls_Percent_2_Bucket_4: 24102
Non-critical_ROB_Stalls_Percent_2_Bucket_4: 12892
Critical_ROB_Stalls_Percent_2_Bucket_5: 13865
Non-critical_ROB_Stalls_Percent_2_Bucket_5: 6183
Critical_ROB_Stalls_Percent_2_Bucket_6: 707753
Non-critical_ROB_Stalls_Percent_2_Bucket_6: 8386
Critical_ROB_Stalls_Percent_3_Bucket_0: 747850
Non-critical_ROB_Stalls_Percent_3_Bucket_0: 706731
Critical_ROB_Stalls_Percent_3_Bucket_1: 370179
Non-critical_ROB_Stalls_Percent_3_Bucket_1: 290407
Critical_ROB_Stalls_Percent_3_Bucket_2: 180280
Non-critical_ROB_Stalls_Percent_3_Bucket_2: 92690
Critical_ROB_Stalls_Percent_3_Bucket_3: 63233
Non-critical_ROB_Stalls_Percent_3_Bucket_3: 27742
Critical_ROB_Stalls_Percent_3_Bucket_4: 27095
Non-critical_ROB_Stalls_Percent_3_Bucket_4: 9899
Critical_ROB_Stalls_Percent_3_Bucket_5: 15701
Non-critical_ROB_Stalls_Percent_3_Bucket_5: 4347
Critical_ROB_Stalls_Percent_3_Bucket_6: 710009
Non-critical_ROB_Stalls_Percent_3_Bucket_6: 6130
Critical_ROB_Stalls_Percent_4_Bucket_0: 825914
Non-critical_ROB_Stalls_Percent_4_Bucket_0: 628667
Critical_ROB_Stalls_Percent_4_Bucket_1: 428236
Non-critical_ROB_Stalls_Percent_4_Bucket_1: 232350
Critical_ROB_Stalls_Percent_4_Bucket_2: 200218
Non-critical_ROB_Stalls_Percent_4_Bucket_2: 72752
Critical_ROB_Stalls_Percent_4_Bucket_3: 67942
Non-critical_ROB_Stalls_Percent_4_Bucket_3: 23033
Critical_ROB_Stalls_Percent_4_Bucket_4: 28021
Non-critical_ROB_Stalls_Percent_4_Bucket_4: 8973
Critical_ROB_Stalls_Percent_4_Bucket_5: 16079
Non-critical_ROB_Stalls_Percent_4_Bucket_5: 3969
Critical_ROB_Stalls_Percent_4_Bucket_6: 710462
Non-critical_ROB_Stalls_Percent_4_Bucket_6: 5677
Critical_ROB_Stalls_Percent_5_Bucket_0: 911690
Non-critical_ROB_Stalls_Percent_5_Bucket_0: 542891
Critical_ROB_Stalls_Percent_5_Bucket_1: 474301
Non-critical_ROB_Stalls_Percent_5_Bucket_1: 186285
Critical_ROB_Stalls_Percent_5_Bucket_2: 217447
Non-critical_ROB_Stalls_Percent_5_Bucket_2: 55523
Critical_ROB_Stalls_Percent_5_Bucket_3: 74701
Non-critical_ROB_Stalls_Percent_5_Bucket_3: 16274
Critical_ROB_Stalls_Percent_5_Bucket_4: 31517
Non-critical_ROB_Stalls_Percent_5_Bucket_4: 5477
Critical_ROB_Stalls_Percent_5_Bucket_5: 16823
Non-critical_ROB_Stalls_Percent_5_Bucket_5: 3225
Critical_ROB_Stalls_Percent_5_Bucket_6: 713181
Non-critical_ROB_Stalls_Percent_5_Bucket_6: 2958
Critical_ROB_Stalls_Percent_6_Bucket_0: 1007078
Non-critical_ROB_Stalls_Percent_6_Bucket_0: 447503
Critical_ROB_Stalls_Percent_6_Bucket_1: 521759
Non-critical_ROB_Stalls_Percent_6_Bucket_1: 138827
Critical_ROB_Stalls_Percent_6_Bucket_2: 230110
Non-critical_ROB_Stalls_Percent_6_Bucket_2: 42860
Critical_ROB_Stalls_Percent_6_Bucket_3: 77648
Non-critical_ROB_Stalls_Percent_6_Bucket_3: 13327
Critical_ROB_Stalls_Percent_6_Bucket_4: 33045
Non-critical_ROB_Stalls_Percent_6_Bucket_4: 3949
Critical_ROB_Stalls_Percent_6_Bucket_5: 17943
Non-critical_ROB_Stalls_Percent_6_Bucket_5: 2105
Critical_ROB_Stalls_Percent_6_Bucket_6: 714421
Non-critical_ROB_Stalls_Percent_6_Bucket_6: 1718
Critical_ROB_Stalls_Percent_7_Bucket_0: 1104164
Non-critical_ROB_Stalls_Percent_7_Bucket_0: 350417
Critical_ROB_Stalls_Percent_7_Bucket_1: 565184
Non-critical_ROB_Stalls_Percent_7_Bucket_1: 95402
Critical_ROB_Stalls_Percent_7_Bucket_2: 244126
Non-critical_ROB_Stalls_Percent_7_Bucket_2: 28844
Critical_ROB_Stalls_Percent_7_Bucket_3: 83157
Non-critical_ROB_Stalls_Percent_7_Bucket_3: 7818
Critical_ROB_Stalls_Percent_7_Bucket_4: 34709
Non-critical_ROB_Stalls_Percent_7_Bucket_4: 2285
Critical_ROB_Stalls_Percent_7_Bucket_5: 18503
Non-critical_ROB_Stalls_Percent_7_Bucket_5: 1545
Critical_ROB_Stalls_Percent_7_Bucket_6: 714876
Non-critical_ROB_Stalls_Percent_7_Bucket_6: 1263
Critical_ROB_Stalls_Percent_8_Bucket_0: 1205982
Non-critical_ROB_Stalls_Percent_8_Bucket_0: 248599
Critical_ROB_Stalls_Percent_8_Bucket_1: 606415
Non-critical_ROB_Stalls_Percent_8_Bucket_1: 54171
Critical_ROB_Stalls_Percent_8_Bucket_2: 257750
Non-critical_ROB_Stalls_Percent_8_Bucket_2: 15220
Critical_ROB_Stalls_Percent_8_Bucket_3: 86523
Non-critical_ROB_Stalls_Percent_8_Bucket_3: 4452
Critical_ROB_Stalls_Percent_8_Bucket_4: 35671
Non-critical_ROB_Stalls_Percent_8_Bucket_4: 1323
Critical_ROB_Stalls_Percent_8_Bucket_5: 19443
Non-critical_ROB_Stalls_Percent_8_Bucket_5: 605
Critical_ROB_Stalls_Percent_8_Bucket_6: 715366
Non-critical_ROB_Stalls_Percent_8_Bucket_6: 773
Average ROB occupancy Load Stall Begin: 116.159
Average ROB occupancy Load Stall End: 123.543
Min ROB occupancy Load Stall Begin: 1
Max ROB occupancy Load Stall Begin: 352
Min ROB occupancy Load Stall End: 1
Max ROB occupancy Load Stall End: 352
Average ROB occupancy Critical Load Stall Begin: -nan
Average ROB occupancy Critical Load Stall End: -nan
Min ROB occupancy Critical Load Stall Begin: 400
Max ROB occupancy Critical Load Stall Begin: 0
Min ROB occupancy Critical Load Stall End: 400
Max ROB occupancy Critical Load Stall End: 0
 ROB Load Stall Begin Bucket Count 0: 1667421
 ROB Load Stall End Bucket Count 0: 1454581
 ROB Critical Load Stall Begin Bucket Count 0: 0
 ROB Critical Load Stall End Bucket Count 0: 0
 ROB Load Stall Begin Bucket Count 1: 532241
 ROB Load Stall End Bucket Count 1: 660586
 ROB Critical Load Stall Begin Bucket Count 1: 0
 ROB Critical Load Stall End Bucket Count 1: 0
 ROB Load Stall Begin Bucket Count 2: 219586
 ROB Load Stall End Bucket Count 2: 272970
 ROB Critical Load Stall Begin Bucket Count 2: 0
 ROB Critical Load Stall End Bucket Count 2: 0
 ROB Load Stall Begin Bucket Count 3: 72411
 ROB Load Stall End Bucket Count 3: 90975
 ROB Critical Load Stall Begin Bucket Count 3: 0
 ROB Critical Load Stall End Bucket Count 3: 0
 ROB Load Stall Begin Bucket Count 4: 29536
 ROB Load Stall End Bucket Count 4: 36994
 ROB Critical Load Stall Begin Bucket Count 4: 0
 ROB Critical Load Stall End Bucket Count 4: 0
 ROB Load Stall Begin Bucket Count 5: 18973
 ROB Load Stall End Bucket Count 5: 20048
 ROB Critical Load Stall Begin Bucket Count 5: 0
 ROB Critical Load Stall End Bucket Count 5: 0
 ROB Load Stall Begin Bucket Count 6: 712125
 ROB Load Stall End Bucket Count 6: 716139
 ROB Critical Load Stall Begin Bucket Count 6: 0
 ROB Critical Load Stall End Bucket Count 6: 0
PIST Tag Read Accesses: 2322016
PIST Read Accesses: 1161008
PIST Tag Write Accesses: 2322016
PIST Write Accesses: 1161008
Criticality detector called times: 2049085
Max global_stall_cycles_count: 3875927
Threshold Modified: 1 times, factor: -1
Sturdy critical IP cache stats: 
 Unused entries: 0
CIC Tag Read Accesses: 0
CIC Read Accesses: 0
CIC Tag Write Accesses: 0
CIC Write Accesses: 0
Wobbly critical IP cache stats: 
 Unused entries: 83
CIC Tag Read Accesses: 82127243
CIC Read Accesses: 0
CIC Tag Write Accesses: 10766
CIC Write Accesses: 0
ITLB TOTAL     ACCESS:    9297668  HIT:    9219998  MISS:      77670  HIT %:    99.1646  MISS %:   0.835371   MPKI: 1.5534
ITLB LOAD TRANSLATION ACCESS:    8633831  HIT:    8596762  MISS:      37069  HIT %:    99.5707  MISS %:   0.429346   MPKI: 0.74138
ITLB TRANSLATION FROM L1D PREFETCHER ACCESS:     663837  HIT:     623236  MISS:      40601  HIT %:    93.8839  MISS %:    6.11611   MPKI: 0.81202
ITLB PREFETCH  REQUESTED:          0  ISSUED:          0  USEFUL:      31856  USELESS:       8747
ITLB USEFUL LOAD PREFETCHES:      31856 PREFETCH ISSUED TO LOWER LEVEL:          0  ACCURACY: inf
ITLB TIMELY PREFETCHES:      31856 LATE PREFETCHES: 183 DROPPED PREFETCHES: 383
ITLB PREFETCHES SAME FILL-ORIGIN LEVEL: 0 DIFFERENT FILL-ORIGIN LEVEL: 0
ITLB AVERAGE MISS LATENCY: 102338 cycles
ITLB RQ	ACCESS:   11677396	FORWARD:          0	MERGED:    2365894	TO_CACHE:    9311502

DTLB TOTAL     ACCESS:    9901959  HIT:    9801412  MISS:     100547  HIT %:    98.9846  MISS %:    1.01543   MPKI: 2.01094
DTLB LOAD TRANSLATION ACCESS:    9901959  HIT:    9801412  MISS:     100547  HIT %:    98.9846  MISS %:    1.01543   MPKI: 2.01094
DTLB PREFETCH  REQUESTED:          0  ISSUED:          0  USEFUL:          0  USELESS:          0
DTLB USEFUL LOAD PREFETCHES:          0 PREFETCH ISSUED TO LOWER LEVEL:          0  ACCURACY: -nan
DTLB TIMELY PREFETCHES:          0 LATE PREFETCHES: 0 DROPPED PREFETCHES: 0
DTLB PREFETCHES SAME FILL-ORIGIN LEVEL: 0 DIFFERENT FILL-ORIGIN LEVEL: 0
DTLB AVERAGE MISS LATENCY: 14.0842 cycles
DTLB RQ	ACCESS:   12781716	FORWARD:          0	MERGED:    2862329	TO_CACHE:    9919387

STLB TOTAL     ACCESS:     274831  HIT:     270218  MISS:       4613  HIT %:    98.3215  MISS %:    1.67849   MPKI: 0.09226
STLB LOAD TRANSLATION ACCESS:     137433  HIT:     133011  MISS:       4422  HIT %:    96.7824  MISS %:    3.21757   MPKI: 0.08844
STLB TRANSLATION FROM L1D PREFETCHER ACCESS:     137398  HIT:     137207  MISS:        191  HIT %:     99.861  MISS %:   0.139012   MPKI: 0.00382
STLB PREFETCH  REQUESTED:          0  ISSUED:          0  USEFUL:        125  USELESS:         44
STLB USEFUL LOAD PREFETCHES:        125 PREFETCH ISSUED TO LOWER LEVEL:          0  ACCURACY: inf
STLB TIMELY PREFETCHES:        125 LATE PREFETCHES: 0 DROPPED PREFETCHES: 383
STLB PREFETCHES SAME FILL-ORIGIN LEVEL: 0 DIFFERENT FILL-ORIGIN LEVEL: 0
STLB AVERAGE MISS LATENCY: 132.397 cycles
STLB RQ	ACCESS:     288668	FORWARD:          0	MERGED:      13454	TO_CACHE:     275214

STLB Hit, L1D data hit: 0
STLB Hit, L2C data hit: 0
STLB Hit, LLC data hit: 0
STLB Hit, LLC data miss: 0
STLB STLB hints to L2: 0
L1D TOTAL     ACCESS:   12276348  HIT:   11858338  MISS:     418010  HIT %:     96.595  MISS %:      3.405   MPKI: 8.3602
L1D LOAD      ACCESS:    6226695  HIT:    6120768  MISS:     105927  HIT %:    98.2988  MISS %:    1.70118   MPKI: 2.11854
L1D RFO       ACCESS:    5949170  HIT:    5709224  MISS:     239946  HIT %:    95.9667  MISS %:    4.03327   MPKI: 4.79892
L1D PREFETCH  ACCESS:     100483  HIT:      28346  MISS:      72137  HIT %:    28.2097  MISS %:    71.7903   MPKI: 1.44274
L1D PREFETCH  REQUESTED:     220174  ISSUED:     220174  USEFUL:      62969  USELESS:       9202
L1D USEFUL LOAD PREFETCHES:      62969 PREFETCH ISSUED TO LOWER LEVEL:      80355  ACCURACY: 78.3635
L1D TIMELY PREFETCHES:      62969 LATE PREFETCHES: 8195 DROPPED PREFETCHES: 0
L1D PREFETCHES SAME FILL-ORIGIN LEVEL: 80355 DIFFERENT FILL-ORIGIN LEVEL: 0
L1D AVERAGE MISS LATENCY: 1.36096e+06 cycles
L1D RQ	ACCESS:    9777040	FORWARD:          0	MERGED:    3398296	TO_CACHE:    6249072
L1D WQ	ACCESS:    6907394	FORWARD:     129710	MERGED:     374750	TO_CACHE:    6532644
L1D PQ	ACCESS:     110106	FORWARD:          0	MERGED:          0	TO_CACHE:     110068

L1D UNIQUE REGIONS ACCESSED: 0
L1D REGIONS CONFLICTS: 0
L1D Cross Page Prefetch Requests: 0
L1D Same Page Prefetch Requests: 461047
L1D ROI Sum of L1D PQ occupancy: 1764810
L1D PREFETCHES PUSHED FROM L2C: 0
L1I TOTAL     ACCESS:   11587690  HIT:   10853536  MISS:     734154  HIT %:    93.6644  MISS %:    6.33564   MPKI: 14.6831
L1I LOAD      ACCESS:    9752433  HIT:    9572425  MISS:     180008  HIT %:    98.1542  MISS %:    1.84578   MPKI: 3.60016
L1I PREFETCH  ACCESS:    1835257  HIT:    1281111  MISS:     554146  HIT %:    69.8055  MISS %:    30.1945   MPKI: 11.0829
L1I PREFETCH  REQUESTED:    2004365  ISSUED:    2002347  USEFUL:     353498  USELESS:     200674
L1I USEFUL LOAD PREFETCHES:     353498 PREFETCH ISSUED TO LOWER LEVEL:     572118  ACCURACY: 61.7876
L1I TIMELY PREFETCHES:     353498 LATE PREFETCHES: 17972 DROPPED PREFETCHES: 686
L1I PREFETCHES SAME FILL-ORIGIN LEVEL: 572118 DIFFERENT FILL-ORIGIN LEVEL: 0
L1I AVERAGE MISS LATENCY: 974920 cycles
L1I RQ	ACCESS:   14256015	FORWARD:          0	MERGED:    4478919	TO_CACHE:    9777096
L1I PQ	ACCESS:    2002347	FORWARD:          0	MERGED:     102047	TO_CACHE:    1900300

BTB TOTAL     ACCESS:    7502677  HIT:    7071437  MISS:     431240  HIT %:    94.2522  MISS %:    5.74782   MPKI: 8.6248
BTB BRANCH_DIRECT_JUMP	ACCESS:     370859  HIT:     358934  MISS:      11925
BTB BRANCH_INDIRECT	ACCESS:      83252  HIT:      39140  MISS:      44112
BTB BRANCH_CONDITIONAL	ACCESS:    5399005  HIT:    5361920  MISS:      37085
BTB BRANCH_DIRECT_CALL	ACCESS:     722308  HIT:     695961  MISS:      26347
BTB BRANCH_INDIRECT_CALL	ACCESS:     101901  HIT:      81558  MISS:      20343
BTB BRANCH_RETURN	ACCESS:     825352  HIT:     533924  MISS:     291428
BTB BRANCH_OTHER ACCESS:          0  HIT:          0  MISS:          0

L2C TOTAL     ACCESS:    1506642  HIT:    1111497  MISS:     395145  HIT %:    73.7731  MISS %:    26.2269   MPKI: 7.9029
L2C LOAD      ACCESS:     259766  HIT:     202311  MISS:      57455  HIT %:     77.882  MISS %:     22.118   MPKI: 1.1491
L2C DATA LOAD MPKI: 0.7499
L2C INSTRUCTION LOAD MPKI: 0.3992
L2C RFO       ACCESS:     239920  HIT:      29264  MISS:     210656  HIT %:    12.1974  MISS %:    87.8026   MPKI: 4.21312
L2C PREFETCH  ACCESS:     739704  HIT:     623037  MISS:     116667  HIT %:    84.2279  MISS %:    15.7721   MPKI: 2.33334
L2C DATA PREFETCH MPKI: 1.49166
L2C INSTRUCTION PREFETCH MPKI: 0.84168
L2C WRITEBACK ACCESS:     262114  HIT:     253306  MISS:       8808  HIT %:    96.6396  MISS %:    3.36037   MPKI: 0.17616
L2C LOAD TRANSLATION ACCESS:       4538  HIT:       3102  MISS:       1436  HIT %:    68.3561  MISS %:    31.6439   MPKI: 0.02872
L2C TRANSLATION FROM L1D PREFETCHER ACCESS:        600  HIT:        477  MISS:        123  HIT %:       79.5  MISS %:       20.5   MPKI: 0.00246
L2C PREFETCH  REQUESTED:     121715  ISSUED:     121715  USEFUL:       7156  USELESS:     110862
L2C USEFUL LOAD PREFETCHES:       7156 PREFETCH ISSUED TO LOWER LEVEL:     116970  ACCURACY: 6.11781
L2C TIMELY PREFETCHES:       7156 LATE PREFETCHES: 303 DROPPED PREFETCHES: 0
L2C PREFETCHES SAME FILL-ORIGIN LEVEL: 48967 DIFFERENT FILL-ORIGIN LEVEL: 0
L2C AVERAGE MISS LATENCY: 140.627 cycles
L2C RQ	ACCESS:     504829	FORWARD:          0	MERGED:          0	TO_CACHE:     504824
L2C WQ	ACCESS:     262114	FORWARD:          5	MERGED:          0	TO_CACHE:     262114
L2C PQ	ACCESS:     774188	FORWARD:          0	MERGED:       8445	TO_CACHE:     765743

L2C Instructions Evicting Data 37132
L2C Translations Evicting Data 1163
L2C Data Evicting Data 284080
L2C Instructions Evicting Instructions 24511
L2C Translations Evicting Instructions 384
L2C Data Evicting Instructions 37650
L2C Instructions Evicting Translations 401
L2C Translations Evicting Translations 12
L2C Data Evicting Translations 1004
L2C Dense regions hint from L2: 0
PSCL5 TOTAL     ACCESS:       4996  HIT:       4996  MISS:          0  HIT %:        100  MISS %:          0   MPKI: 0
PSCL5 LOAD TRANSLATION ACCESS:       4422  HIT:       4422  MISS:          0  HIT %:        100  MISS %:          0   MPKI: 0
PSCL5 TRANSLATION FROM L1D PREFETCHER ACCESS:        574  HIT:        574  MISS:          0  HIT %:        100  MISS %:          0   MPKI: 0
PSCL5 PREFETCH  REQUESTED:          0  ISSUED:          0  USEFUL:          0  USELESS:          0
PSCL5 USEFUL LOAD PREFETCHES:          0 PREFETCH ISSUED TO LOWER LEVEL:          0  ACCURACY: -nan
PSCL5 TIMELY PREFETCHES:          0 LATE PREFETCHES: 0 DROPPED PREFETCHES: 0
PSCL5 PREFETCHES SAME FILL-ORIGIN LEVEL: 0 DIFFERENT FILL-ORIGIN LEVEL: 0

PSCL4 TOTAL     ACCESS:       4996  HIT:       4996  MISS:          0  HIT %:        100  MISS %:          0   MPKI: 0
PSCL4 LOAD TRANSLATION ACCESS:       4422  HIT:       4422  MISS:          0  HIT %:        100  MISS %:          0   MPKI: 0
PSCL4 TRANSLATION FROM L1D PREFETCHER ACCESS:        574  HIT:        574  MISS:          0  HIT %:        100  MISS %:          0   MPKI: 0
PSCL4 PREFETCH  REQUESTED:          0  ISSUED:          0  USEFUL:          0  USELESS:          0
PSCL4 USEFUL LOAD PREFETCHES:          0 PREFETCH ISSUED TO LOWER LEVEL:          0  ACCURACY: -nan
PSCL4 TIMELY PREFETCHES:          0 LATE PREFETCHES: 0 DROPPED PREFETCHES: 0
PSCL4 PREFETCHES SAME FILL-ORIGIN LEVEL: 0 DIFFERENT FILL-ORIGIN LEVEL: 0

PSCL3 TOTAL     ACCESS:       4967  HIT:       4965  MISS:          2  HIT %:    99.9597  MISS %:  0.0402658   MPKI: 4e-05
PSCL3 LOAD TRANSLATION ACCESS:       4396  HIT:       4394  MISS:          2  HIT %:    99.9545  MISS %:  0.0454959   MPKI: 4e-05
PSCL3 TRANSLATION FROM L1D PREFETCHER ACCESS:        571  HIT:        571  MISS:          0  HIT %:        100  MISS %:          0   MPKI: 0
PSCL3 PREFETCH  REQUESTED:          0  ISSUED:          0  USEFUL:          0  USELESS:          0
PSCL3 USEFUL LOAD PREFETCHES:          0 PREFETCH ISSUED TO LOWER LEVEL:          0  ACCURACY: -nan
PSCL3 TIMELY PREFETCHES:          0 LATE PREFETCHES: 0 DROPPED PREFETCHES: 0
PSCL3 PREFETCHES SAME FILL-ORIGIN LEVEL: 0 DIFFERENT FILL-ORIGIN LEVEL: 0

PSCL2 TOTAL     ACCESS:       4979  HIT:       4843  MISS:        136  HIT %:    97.2685  MISS %:    2.73147   MPKI: 0.00272
PSCL2 LOAD TRANSLATION ACCESS:       4430  HIT:       4294  MISS:        136  HIT %:      96.93  MISS %:    3.06998   MPKI: 0.00272
PSCL2 TRANSLATION FROM L1D PREFETCHER ACCESS:        549  HIT:        549  MISS:          0  HIT %:        100  MISS %:          0   MPKI: 0
PSCL2 PREFETCH  REQUESTED:          0  ISSUED:          0  USEFUL:          0  USELESS:          0
PSCL2 USEFUL LOAD PREFETCHES:          0 PREFETCH ISSUED TO LOWER LEVEL:          0  ACCURACY: -nan
PSCL2 TIMELY PREFETCHES:          0 LATE PREFETCHES: 0 DROPPED PREFETCHES: 0
PSCL2 PREFETCHES SAME FILL-ORIGIN LEVEL: 0 DIFFERENT FILL-ORIGIN LEVEL: 0

LLC TOTAL     ACCESS:     604634  HIT:     337205  MISS:     267429  HIT %:    55.7701  MISS %:    44.2299   MPKI: 5.34858
LLC LOAD      ACCESS:      57152  HIT:      40659  MISS:      16493  HIT %:    71.1419  MISS %:    28.8581   MPKI: 0.32986
LLC RFO       ACCESS:     210656  HIT:      35074  MISS:     175582  HIT %:    16.6499  MISS %:    83.3501   MPKI: 3.51164
LLC PREFETCH  ACCESS:     116970  HIT:      46774  MISS:      70196  HIT %:     39.988  MISS %:     60.012   MPKI: 1.40392
LLC WRITEBACK ACCESS:     218297  HIT:     214184  MISS:       4113  HIT %:    98.1159  MISS %:    1.88413   MPKI: 0.08226
LLC LOAD TRANSLATION ACCESS:       1436  HIT:        445  MISS:        991  HIT %:    30.9889  MISS %:    69.0111   MPKI: 0.01982
LLC TRANSLATION FROM L1D PREFETCHER ACCESS:        123  HIT:         69  MISS:         54  HIT %:    56.0976  MISS %:    43.9024   MPKI: 0.00108
LLC PREFETCH  REQUESTED:          0  ISSUED:          0  USEFUL:       1309  USELESS:      68589
LLC USEFUL LOAD PREFETCHES:       1309 PREFETCH ISSUED TO LOWER LEVEL:      70196  ACCURACY: 1.86478
LLC TIMELY PREFETCHES:       1309 LATE PREFETCHES: 0 DROPPED PREFETCHES: 0
LLC PREFETCHES SAME FILL-ORIGIN LEVEL: 0 DIFFERENT FILL-ORIGIN LEVEL: 0
LLC AVERAGE MISS LATENCY: 164.363 cycles
LLC RQ	ACCESS:     269367	FORWARD:          0	MERGED:          0	TO_CACHE:     269367
LLC WQ	ACCESS:     218297	FORWARD:          0	MERGED:          0	TO_CACHE:     218297
LLC PQ	ACCESS:     116970	FORWARD:          0	MERGED:          0	TO_CACHE:     116970

LLC Dense regions hint to LLC: 0

RAW hits: 1279236
Loads Generated: 11056274
Loads sent to L1D: 9777040
Stores Generated: 6907390
Stores sent to L1D: 6907394
Major fault: 0 Minor fault: 5106
Allocated PAGES: 5106
I-Shadow cache 408 bytes
Touched + WorthPF tables 6144 bytes 
MMA filter 174 bytes 
FNL filter 272 bytes 
TOTAL PREFETCHER STORAGE SIZE: 25174 bytes
CPU 0 L1I next line prefetcher final stats

stream: 
stream:times selected: 983857
stream:pref_filled: 50899
stream:pref_useful: 13926
stream:pref_late: 901
stream:misses: 8206
stream:misses_by_poll: 0

CS: 
CS:times selected: 144668
CS:pref_filled: 74583
CS:pref_useful: 69216
CS:pref_late: 7639
CS:misses: 23702
CS:misses_by_poll: 183

CPLX: 
CPLX:times selected: 835936
CPLX:pref_filled: 19125
CPLX:pref_useful: 2935
CPLX:pref_late: 55
CPLX:misses: 45079
CPLX:misses_by_poll: 3

NL_L1: 
NL:times selected: 10444
NL:pref_filled: 606
NL:pref_useful: 211
NL:pref_late: 6
NL:misses: 491
NL:misses_by_poll: 0

total selections: 1974905
total_filled: 72137
total_useful: 62969
total_late: 8931
total_polluted: 186
total_misses_after_warmup: 128305
conflicts: 1651010
Degree Incremented Times: 15051
Degree Decremented Times: 108753

L1 IP Table Write Accesses: 4290902
L1 IP Table Read Accesses: 2639892
L1 RST Write Accesses: 443523
L1 RST Read Accesses: 887046
L1 CSPT Write Accesses: 443523
L1 CSPT Read Accesses: 782821
L1 RR Filter Tag Write Accesses: 110106
L1 RR Filter Tag Read Accesses: 11826216
L1 IP Table Tag Write Accesses: 6249073
L1 IP Table Tag Read Accesses: 6249073
L1 RST Tag Write Accesses: 0
L1 RST Tag Read Accesses: 4005858
L1 RR Filter Write Accesses: 0
L1 RR Filter Read Accesses: 409793
test: 238115
L2 IP Table Read Accesses: 857068
L2 IP Table Write Accesses: 1405965
L2 IP Table Tag Read Accesses: 735326
L2 IP Table Tag Write Accesses: 735326

DRAM Statistics
 CHANNEL 0
 RQ ROW_BUFFER_HIT:     106772  ROW_BUFFER_MISS:     156542
 DBUS_CONGESTED:        142
 WQ ROW_BUFFER_HIT:      38716  ROW_BUFFER_MISS:     136153  FULL:          0

 AVG_CONGESTED_CYCLE: 2
 All warmup complete: 2
Channel 0 Bank busy for read cycles: 0
Channel 0 Bank busy for write cycles: 0
Channel 0
Rank 0
0banks busy for read cycles: 51850137
0banks busy for write cycles: 33316
1banks busy for read cycles: 7765023
1banks busy for write cycles: 4015641
2banks busy for read cycles: 2548922
2banks busy for write cycles: 1252465
3banks busy for read cycles: 959895
3banks busy for write cycles: 370125
4banks busy for read cycles: 459885
4banks busy for write cycles: 280268
5banks busy for read cycles: 276943
5banks busy for write cycles: 235304
6banks busy for read cycles: 338736
6banks busy for write cycles: 240917
7banks busy for read cycles: 364270
7banks busy for write cycles: 379974
8banks busy for read cycles: 712932
8banks busy for write cycles: 1882991

CPU 0 Branch Prediction Accuracy: 98.6631% MPKI: 2.66884 Average ROB Occupancy at Mispredict: 41.7179
Branch types
NOT_BRANCH: 40018632 80.0373%
BRANCH_DIRECT_JUMP: 370859 0.741718%
BRANCH_INDIRECT: 83252 0.166504%
BRANCH_CONDITIONAL: 7877415 15.7548%
BRANCH_DIRECT_CALL: 722308 1.44462%
BRANCH_INDIRECT_CALL: 101901 0.203802%
BRANCH_RETURN: 825352 1.6507%
BRANCH_OTHER: 0 0%

DRAM PAGES: 1048576
Allocated PAGES: 5106
