
*** ChampSim Multicore Out-of-Order Simulator ***

Warmup Instructions: 50000000
Simulation Instructions: 50000000
Number of CPUs: 1
LLC sets: 2048
LLC ways: 16
Off-chip DRAM Size: 4096 MB Channels: 1 Width: 64-bit Data Rate: 6400 MT/s
CPU 0 runs ../IPC-traces//client_003.champsimtrace.xz
.xz
NUM_OF_IPS_IN_CRITICAL_IP_TRAINING: 64
NUM_OF_CRITICAL_IP_TRAINING_TABLE_WAYS: 2
NUM_OF_CRITICAL_IP_TRAINING_TABLE_SETS: 32
WOBBLY_CRITICAL_IP_CACHE_SETS: 32
WOBBLY_CRITICAL_IP_CACHE_WAYS: 4
BTB has LRU replacement policy
ITLB has LRU replacement policy
DTLB has LRU replacement policy
STLB has LRU replacement policy
CPU 0 L1I next line prefetcher
L1I has LRU replacement policy
IP Table Entries: 256
L1D has LRU replacement policy
Initialize SRRIP state for L2C
Initialize DRRIP state for LLC
Heartbeat CPU 0 instructions: 10000000 cycles: 2805594 heartbeat IPC: 3.56431 cumulative IPC: 3.56431 (Simulation time: 0 hr 1 min 52 sec) 
Heartbeat CPU 0 instructions: 20000000 cycles: 5609331 heartbeat IPC: 3.56667 cumulative IPC: 3.56549 (Simulation time: 0 hr 3 min 47 sec) 
Heartbeat CPU 0 instructions: 30000003 cycles: 8418833 heartbeat IPC: 3.55935 cumulative IPC: 3.56344 (Simulation time: 0 hr 5 min 41 sec) 
Heartbeat CPU 0 instructions: 40000001 cycles: 11236771 heartbeat IPC: 3.54869 cumulative IPC: 3.55974 (Simulation time: 0 hr 7 min 36 sec) 
Heartbeat CPU 0 instructions: 50000002 cycles: 14057629 heartbeat IPC: 3.54502 cumulative IPC: 3.55679 (Simulation time: 0 hr 9 min 28 sec) 

Warmup complete CPU 0 instructions: 50000002 cycles: 14057629 (Simulation time: 0 hr 9 min 28 sec) 

Heartbeat CPU 0 instructions: 60000002 cycles: 27043160 heartbeat IPC: 0.770088 cumulative IPC: 0.770088 (Simulation time: 0 hr 11 min 42 sec) 
Heartbeat CPU 0 instructions: 70000001 cycles: 39633430 heartbeat IPC: 0.794264 cumulative IPC: 0.781989 (Simulation time: 0 hr 13 min 58 sec) 
Heartbeat CPU 0 instructions: 80000001 cycles: 53597239 heartbeat IPC: 0.716137 cumulative IPC: 0.758733 (Simulation time: 0 hr 16 min 8 sec) 
Heartbeat CPU 0 instructions: 90000000 cycles: 68146434 heartbeat IPC: 0.687323 cumulative IPC: 0.739525 (Simulation time: 0 hr 18 min 2 sec) 
Heartbeat CPU 0 instructions: 100000000 cycles: 88179367 heartbeat IPC: 0.499178 cumulative IPC: 0.674566 (Simulation time: 0 hr 20 min 32 sec) 
Finished CPU 0 instructions: 50000002 cycles: 74121740 cumulative IPC: 0.674566 (Simulation time: 0 hr 20 min 32 sec) 

ChampSim completed all CPUs

Region of Interest Statistics

CPU 0 cumulative IPC: 0.674566 instructions: 50000002 cycles: 74121740

CPU 0 Average Load ROB stall cycles: 1.8183e+07
CPU 0 Fraction of times ROB stalled by Loads: 36.2126
CPU 0 Percentage of Load stall cycles in Total stall cycles: 2.65197e+08
Issued all: 39668992
Issued LT all: 34151712
rob_not_full_when_issued_lt_all: 17972885
Issued LT one: 28020920
rob_not_full_when_issued_lt_one: 13666517
 Total stall cycles: 61202339
 Total load stall cycles: 162306938340496
CPU 0 NUM of IPS identified critical: 0
CPU 0 Num of Load IPs stalling ROB: 26837
Threshold modification factor: 0
Max PIST entries: 64
Min PIST entries: 0
Avg PIST entries: 27.18
Trouble in retire width: 0.907293
MaC = Marked as critical.
lt_50_percent_before_Mac: 0
gt_90_percent_before_Mac: 0
gt_75_percent_before_Mac: 0
gt_50_percent_before_Mac: 0
stall_proportion_bin_same_before_after: 0
stall_proportion_bin_lower_before_after: 0
stall_proportion_bin_upper_before_after: 0
average_stall_proportion_before: -nan
average_stall_proportion_after: -nan
Critical IP stalls, total frequency: 0
Non-critical IP stalls, total frequency: 3232444
Total Freq all stalling IPs: 3232444
stat_90_percent_critical_ip_stalls_freq: 2909302
stat_90_percent_non_critical_ip_stalls_freq: 323142
Critical_IP_ROB_Stalls_Bucket_0: 0
Non-critical_IP_ROB_Stalls_Bucket_0: 1432907
Critical_IP_ROB_Stalls_Bucket_1: 0
Non-critical_IP_ROB_Stalls_Bucket_1: 660181
Critical_IP_ROB_Stalls_Bucket_2: 0
Non-critical_IP_ROB_Stalls_Bucket_2: 273933
Critical_IP_ROB_Stalls_Bucket_3: 0
Non-critical_IP_ROB_Stalls_Bucket_3: 91318
Critical_IP_ROB_Stalls_Bucket_4: 0
Non-critical_IP_ROB_Stalls_Bucket_4: 37137
Critical_IP_ROB_Stalls_Bucket_5: 0
Non-critical_IP_ROB_Stalls_Bucket_5: 20197
Critical_IP_ROB_Stalls_Bucket_6: 0
Non-critical_IP_ROB_Stalls_Bucket_6: 716771
0 => IPs accounting for >50 percent of stalls, 1 => 55, 2 => 60, 3 => 65 and so on till 90.
percent50: 50.0149 num IPs:  39
percent55: 55.1293 num IPs: 63
percent60: 60.0308 num IPs: 97
percent65: 65.0089 num IPs: 155
percent70: 70.0119 num IPs: 251
percent75: 75.0031 num IPs: 399
percent80: 80.0137 num IPs: 641
percent85: 85.0083 num IPs: 1070
percent90: 90.0034 num IPs: 1859
Critical_ROB_Stalls_Percent_0_Bucket_0: 513048
Non-critical_ROB_Stalls_Percent_0_Bucket_0: 919859
Critical_ROB_Stalls_Percent_0_Bucket_1: 214028
Non-critical_ROB_Stalls_Percent_0_Bucket_1: 446153
Critical_ROB_Stalls_Percent_0_Bucket_2: 115400
Non-critical_ROB_Stalls_Percent_0_Bucket_2: 158533
Critical_ROB_Stalls_Percent_0_Bucket_3: 42239
Non-critical_ROB_Stalls_Percent_0_Bucket_3: 49079
Critical_ROB_Stalls_Percent_0_Bucket_4: 18514
Non-critical_ROB_Stalls_Percent_0_Bucket_4: 18623
Critical_ROB_Stalls_Percent_0_Bucket_5: 11025
Non-critical_ROB_Stalls_Percent_0_Bucket_5: 9172
Critical_ROB_Stalls_Percent_0_Bucket_6: 702451
Non-critical_ROB_Stalls_Percent_0_Bucket_6: 14320
Critical_ROB_Stalls_Percent_1_Bucket_0: 585906
Non-critical_ROB_Stalls_Percent_1_Bucket_0: 847001
Critical_ROB_Stalls_Percent_1_Bucket_1: 275248
Non-critical_ROB_Stalls_Percent_1_Bucket_1: 384933
Critical_ROB_Stalls_Percent_1_Bucket_2: 135627
Non-critical_ROB_Stalls_Percent_1_Bucket_2: 138306
Critical_ROB_Stalls_Percent_1_Bucket_3: 48610
Non-critical_ROB_Stalls_Percent_1_Bucket_3: 42708
Critical_ROB_Stalls_Percent_1_Bucket_4: 21224
Non-critical_ROB_Stalls_Percent_1_Bucket_4: 15913
Critical_ROB_Stalls_Percent_1_Bucket_5: 12026
Non-critical_ROB_Stalls_Percent_1_Bucket_5: 8171
Critical_ROB_Stalls_Percent_1_Bucket_6: 703382
Non-critical_ROB_Stalls_Percent_1_Bucket_6: 13389
Critical_ROB_Stalls_Percent_2_Bucket_0: 652106
Non-critical_ROB_Stalls_Percent_2_Bucket_0: 780801
Critical_ROB_Stalls_Percent_2_Bucket_1: 324162
Non-critical_ROB_Stalls_Percent_2_Bucket_1: 336019
Critical_ROB_Stalls_Percent_2_Bucket_2: 158958
Non-critical_ROB_Stalls_Percent_2_Bucket_2: 114975
Critical_ROB_Stalls_Percent_2_Bucket_3: 55973
Non-critical_ROB_Stalls_Percent_2_Bucket_3: 35345
Critical_ROB_Stalls_Percent_2_Bucket_4: 25060
Non-critical_ROB_Stalls_Percent_2_Bucket_4: 12077
Critical_ROB_Stalls_Percent_2_Bucket_5: 14511
Non-critical_ROB_Stalls_Percent_2_Bucket_5: 5686
Critical_ROB_Stalls_Percent_2_Bucket_6: 709691
Non-critical_ROB_Stalls_Percent_2_Bucket_6: 7080
Critical_ROB_Stalls_Percent_3_Bucket_0: 728633
Non-critical_ROB_Stalls_Percent_3_Bucket_0: 704274
Critical_ROB_Stalls_Percent_3_Bucket_1: 373251
Non-critical_ROB_Stalls_Percent_3_Bucket_1: 286930
Critical_ROB_Stalls_Percent_3_Bucket_2: 182030
Non-critical_ROB_Stalls_Percent_3_Bucket_2: 91903
Critical_ROB_Stalls_Percent_3_Bucket_3: 63934
Non-critical_ROB_Stalls_Percent_3_Bucket_3: 27384
Critical_ROB_Stalls_Percent_3_Bucket_4: 27163
Non-critical_ROB_Stalls_Percent_3_Bucket_4: 9974
Critical_ROB_Stalls_Percent_3_Bucket_5: 15857
Non-critical_ROB_Stalls_Percent_3_Bucket_5: 4340
Critical_ROB_Stalls_Percent_3_Bucket_6: 710510
Non-critical_ROB_Stalls_Percent_3_Bucket_6: 6261
Critical_ROB_Stalls_Percent_4_Bucket_0: 807456
Non-critical_ROB_Stalls_Percent_4_Bucket_0: 625451
Critical_ROB_Stalls_Percent_4_Bucket_1: 430995
Non-critical_ROB_Stalls_Percent_4_Bucket_1: 229186
Critical_ROB_Stalls_Percent_4_Bucket_2: 201169
Non-critical_ROB_Stalls_Percent_4_Bucket_2: 72764
Critical_ROB_Stalls_Percent_4_Bucket_3: 68178
Non-critical_ROB_Stalls_Percent_4_Bucket_3: 23140
Critical_ROB_Stalls_Percent_4_Bucket_4: 28072
Non-critical_ROB_Stalls_Percent_4_Bucket_4: 9065
Critical_ROB_Stalls_Percent_4_Bucket_5: 16239
Non-critical_ROB_Stalls_Percent_4_Bucket_5: 3958
Critical_ROB_Stalls_Percent_4_Bucket_6: 710985
Non-critical_ROB_Stalls_Percent_4_Bucket_6: 5786
Critical_ROB_Stalls_Percent_5_Bucket_0: 892121
Non-critical_ROB_Stalls_Percent_5_Bucket_0: 540786
Critical_ROB_Stalls_Percent_5_Bucket_1: 476102
Non-critical_ROB_Stalls_Percent_5_Bucket_1: 184079
Critical_ROB_Stalls_Percent_5_Bucket_2: 218801
Non-critical_ROB_Stalls_Percent_5_Bucket_2: 55132
Critical_ROB_Stalls_Percent_5_Bucket_3: 75007
Non-critical_ROB_Stalls_Percent_5_Bucket_3: 16311
Critical_ROB_Stalls_Percent_5_Bucket_4: 31663
Non-critical_ROB_Stalls_Percent_5_Bucket_4: 5474
Critical_ROB_Stalls_Percent_5_Bucket_5: 16982
Non-critical_ROB_Stalls_Percent_5_Bucket_5: 3215
Critical_ROB_Stalls_Percent_5_Bucket_6: 713756
Non-critical_ROB_Stalls_Percent_5_Bucket_6: 3015
Critical_ROB_Stalls_Percent_6_Bucket_0: 988740
Non-critical_ROB_Stalls_Percent_6_Bucket_0: 444167
Critical_ROB_Stalls_Percent_6_Bucket_1: 522445
Non-critical_ROB_Stalls_Percent_6_Bucket_1: 137736
Critical_ROB_Stalls_Percent_6_Bucket_2: 231164
Non-critical_ROB_Stalls_Percent_6_Bucket_2: 42769
Critical_ROB_Stalls_Percent_6_Bucket_3: 78035
Non-critical_ROB_Stalls_Percent_6_Bucket_3: 13283
Critical_ROB_Stalls_Percent_6_Bucket_4: 33179
Non-critical_ROB_Stalls_Percent_6_Bucket_4: 3958
Critical_ROB_Stalls_Percent_6_Bucket_5: 18004
Non-critical_ROB_Stalls_Percent_6_Bucket_5: 2193
Critical_ROB_Stalls_Percent_6_Bucket_6: 714830
Non-critical_ROB_Stalls_Percent_6_Bucket_6: 1941
Critical_ROB_Stalls_Percent_7_Bucket_0: 1083489
Non-critical_ROB_Stalls_Percent_7_Bucket_0: 349418
Critical_ROB_Stalls_Percent_7_Bucket_1: 566343
Non-critical_ROB_Stalls_Percent_7_Bucket_1: 93838
Critical_ROB_Stalls_Percent_7_Bucket_2: 245431
Non-critical_ROB_Stalls_Percent_7_Bucket_2: 28502
Critical_ROB_Stalls_Percent_7_Bucket_3: 83567
Non-critical_ROB_Stalls_Percent_7_Bucket_3: 7751
Critical_ROB_Stalls_Percent_7_Bucket_4: 34875
Non-critical_ROB_Stalls_Percent_7_Bucket_4: 2262
Critical_ROB_Stalls_Percent_7_Bucket_5: 18657
Non-critical_ROB_Stalls_Percent_7_Bucket_5: 1540
Critical_ROB_Stalls_Percent_7_Bucket_6: 715481
Non-critical_ROB_Stalls_Percent_7_Bucket_6: 1290
Critical_ROB_Stalls_Percent_8_Bucket_0: 1185842
Non-critical_ROB_Stalls_Percent_8_Bucket_0: 247065
Critical_ROB_Stalls_Percent_8_Bucket_1: 606439
Non-critical_ROB_Stalls_Percent_8_Bucket_1: 53742
Critical_ROB_Stalls_Percent_8_Bucket_2: 258754
Non-critical_ROB_Stalls_Percent_8_Bucket_2: 15179
Critical_ROB_Stalls_Percent_8_Bucket_3: 86883
Non-critical_ROB_Stalls_Percent_8_Bucket_3: 4435
Critical_ROB_Stalls_Percent_8_Bucket_4: 35827
Non-critical_ROB_Stalls_Percent_8_Bucket_4: 1310
Critical_ROB_Stalls_Percent_8_Bucket_5: 19594
Non-critical_ROB_Stalls_Percent_8_Bucket_5: 603
Critical_ROB_Stalls_Percent_8_Bucket_6: 715963
Non-critical_ROB_Stalls_Percent_8_Bucket_6: 808
Average ROB occupancy Load Stall Begin: 116.923
Average ROB occupancy Load Stall End: 124.367
Min ROB occupancy Load Stall Begin: 1
Max ROB occupancy Load Stall Begin: 352
Min ROB occupancy Load Stall End: 1
Max ROB occupancy Load Stall End: 352
Average ROB occupancy Critical Load Stall Begin: -nan
Average ROB occupancy Critical Load Stall End: -nan
Min ROB occupancy Critical Load Stall Begin: 400
Max ROB occupancy Critical Load Stall Begin: 0
Min ROB occupancy Critical Load Stall End: 400
Max ROB occupancy Critical Load Stall End: 0
 ROB Load Stall Begin Bucket Count 0: 1646263
 ROB Load Stall End Bucket Count 0: 1432907
 ROB Critical Load Stall Begin Bucket Count 0: 0
 ROB Critical Load Stall End Bucket Count 0: 0
 ROB Load Stall Begin Bucket Count 1: 531860
 ROB Load Stall End Bucket Count 1: 660181
 ROB Critical Load Stall Begin Bucket Count 1: 0
 ROB Critical Load Stall End Bucket Count 1: 0
 ROB Load Stall Begin Bucket Count 2: 220319
 ROB Load Stall End Bucket Count 2: 273933
 ROB Critical Load Stall Begin Bucket Count 2: 0
 ROB Critical Load Stall End Bucket Count 2: 0
 ROB Load Stall Begin Bucket Count 3: 72362
 ROB Load Stall End Bucket Count 3: 91318
 ROB Critical Load Stall Begin Bucket Count 3: 0
 ROB Critical Load Stall End Bucket Count 3: 0
 ROB Load Stall Begin Bucket Count 4: 29826
 ROB Load Stall End Bucket Count 4: 37137
 ROB Critical Load Stall Begin Bucket Count 4: 0
 ROB Critical Load Stall End Bucket Count 4: 0
 ROB Load Stall Begin Bucket Count 5: 19121
 ROB Load Stall End Bucket Count 5: 20197
 ROB Critical Load Stall Begin Bucket Count 5: 0
 ROB Critical Load Stall End Bucket Count 5: 0
 ROB Load Stall Begin Bucket Count 6: 712693
 ROB Load Stall End Bucket Count 6: 716771
 ROB Critical Load Stall Begin Bucket Count 6: 0
 ROB Critical Load Stall End Bucket Count 6: 0
PIST Tag Read Accesses: 1913250
PIST Read Accesses: 956625
PIST Tag Write Accesses: 1913250
PIST Write Accesses: 956625
Criticality detector called times: 2055501
Max global_stall_cycles_count: 3621000
Threshold Modified: 0 times, factor: 0
Sturdy critical IP cache stats: 
 Unused entries: 0
CIC Tag Read Accesses: 0
CIC Read Accesses: 0
CIC Tag Write Accesses: 0
CIC Write Accesses: 0
Wobbly critical IP cache stats: 
 Unused entries: 86
CIC Tag Read Accesses: 158411996
CIC Read Accesses: 0
CIC Tag Write Accesses: 9288
CIC Write Accesses: 0
ITLB TOTAL     ACCESS:    9295275  HIT:    9217549  MISS:      77726  HIT %:    99.1638  MISS %:   0.836188   MPKI: 1.55452
ITLB LOAD TRANSLATION ACCESS:    8634031  HIT:    8596789  MISS:      37242  HIT %:    99.5687  MISS %:    0.43134   MPKI: 0.74484
ITLB TRANSLATION FROM L1D PREFETCHER ACCESS:     661244  HIT:     620760  MISS:      40484  HIT %:    93.8776  MISS %:     6.1224   MPKI: 0.80968
ITLB PREFETCH  REQUESTED:          0  ISSUED:          0  USEFUL:      31782  USELESS:       8706
ITLB USEFUL LOAD PREFETCHES:      31782 PREFETCH ISSUED TO LOWER LEVEL:          0  ACCURACY: inf
ITLB TIMELY PREFETCHES:      31782 LATE PREFETCHES: 147 DROPPED PREFETCHES: 365
ITLB PREFETCHES SAME FILL-ORIGIN LEVEL: 0 DIFFERENT FILL-ORIGIN LEVEL: 0
ITLB AVERAGE MISS LATENCY: 77185.6 cycles
ITLB RQ	ACCESS:   11665205	FORWARD:          0	MERGED:    2356167	TO_CACHE:    9309038

DTLB TOTAL     ACCESS:    9887611  HIT:    9787054  MISS:     100557  HIT %:     98.983  MISS %:      1.017   MPKI: 2.01114
DTLB LOAD TRANSLATION ACCESS:    9887611  HIT:    9787054  MISS:     100557  HIT %:     98.983  MISS %:      1.017   MPKI: 2.01114
DTLB PREFETCH  REQUESTED:          0  ISSUED:          0  USEFUL:          0  USELESS:          0
DTLB USEFUL LOAD PREFETCHES:          0 PREFETCH ISSUED TO LOWER LEVEL:          0  ACCURACY: -nan
DTLB TIMELY PREFETCHES:          0 LATE PREFETCHES: 0 DROPPED PREFETCHES: 0
DTLB PREFETCHES SAME FILL-ORIGIN LEVEL: 0 DIFFERENT FILL-ORIGIN LEVEL: 0
DTLB AVERAGE MISS LATENCY: 14.1132 cycles
DTLB RQ	ACCESS:   12766868	FORWARD:          0	MERGED:    2861657	TO_CACHE:    9905211

STLB TOTAL     ACCESS:     268833  HIT:     264207  MISS:       4626  HIT %:    98.2792  MISS %:    1.72077   MPKI: 0.09252
STLB LOAD TRANSLATION ACCESS:     137652  HIT:     133245  MISS:       4407  HIT %:    96.7984  MISS %:    3.20155   MPKI: 0.08814
STLB TRANSLATION FROM L1D PREFETCHER ACCESS:     131181  HIT:     130962  MISS:        219  HIT %:    99.8331  MISS %:   0.166945   MPKI: 0.00438
STLB PREFETCH  REQUESTED:          0  ISSUED:          0  USEFUL:        137  USELESS:         52
STLB USEFUL LOAD PREFETCHES:        137 PREFETCH ISSUED TO LOWER LEVEL:          0  ACCURACY: inf
STLB TIMELY PREFETCHES:        137 LATE PREFETCHES: 0 DROPPED PREFETCHES: 365
STLB PREFETCHES SAME FILL-ORIGIN LEVEL: 0 DIFFERENT FILL-ORIGIN LEVEL: 0
STLB AVERAGE MISS LATENCY: 133.675 cycles
STLB RQ	ACCESS:     281738	FORWARD:          0	MERGED:      12540	TO_CACHE:     269198

STLB Hit, L1D data hit: 0
STLB Hit, L2C data hit: 0
STLB Hit, LLC data hit: 0
STLB Hit, LLC data miss: 0
STLB STLB hints to L2: 0
L1D TOTAL     ACCESS:   12253018  HIT:   11835933  MISS:     417085  HIT %:    96.5961  MISS %:    3.40394   MPKI: 8.3417
L1D LOAD      ACCESS:    6207461  HIT:    6098894  MISS:     108567  HIT %:     98.251  MISS %:    1.74898   MPKI: 2.17134
L1D RFO       ACCESS:    5954968  HIT:    5715365  MISS:     239603  HIT %:    95.9764  MISS %:    4.02358   MPKI: 4.79206
L1D PREFETCH  ACCESS:      90589  HIT:      21674  MISS:      68915  HIT %:    23.9256  MISS %:    76.0744   MPKI: 1.3783
L1D PREFETCH  REQUESTED:     206182  ISSUED:     206182  USEFUL:      60386  USELESS:       8521
L1D USEFUL LOAD PREFETCHES:      60386 PREFETCH ISSUED TO LOWER LEVEL:      80445  ACCURACY: 75.065
L1D TIMELY PREFETCHES:      60386 LATE PREFETCHES: 11520 DROPPED PREFETCHES: 0
L1D PREFETCHES SAME FILL-ORIGIN LEVEL: 80445 DIFFERENT FILL-ORIGIN LEVEL: 0
L1D AVERAGE MISS LATENCY: 1.90701e+06 cycles
L1D RQ	ACCESS:    9775998	FORWARD:          0	MERGED:    3412339	TO_CACHE:    6234175
L1D WQ	ACCESS:    6907394	FORWARD:     129486	MERGED:     374701	TO_CACHE:    6532693
L1D PQ	ACCESS:     103092	FORWARD:          0	MERGED:          0	TO_CACHE:     103090

L1D UNIQUE REGIONS ACCESSED: 0
L1D REGIONS CONFLICTS: 0
L1D Cross Page Prefetch Requests: 0
L1D Same Page Prefetch Requests: 103092
L1D ROI Sum of L1D PQ occupancy: 1599773
L1D PREFETCHES PUSHED FROM L2C: 0
L1I TOTAL     ACCESS:   11577568  HIT:   10845398  MISS:     732170  HIT %:     93.676  MISS %:    6.32404   MPKI: 14.6434
L1I LOAD      ACCESS:    9752521  HIT:    9574005  MISS:     178516  HIT %:    98.1695  MISS %:    1.83046   MPKI: 3.57032
L1I PREFETCH  ACCESS:    1825047  HIT:    1271393  MISS:     553654  HIT %:    69.6636  MISS %:    30.3364   MPKI: 11.0731
L1I PREFETCH  REQUESTED:    1992014  ISSUED:    1989799  USEFUL:     354138  USELESS:     199539
L1I USEFUL LOAD PREFETCHES:     354138 PREFETCH ISSUED TO LOWER LEVEL:     571374  ACCURACY: 61.9801
L1I TIMELY PREFETCHES:     354138 LATE PREFETCHES: 17720 DROPPED PREFETCHES: 652
L1I PREFETCHES SAME FILL-ORIGIN LEVEL: 571374 DIFFERENT FILL-ORIGIN LEVEL: 0
L1I AVERAGE MISS LATENCY: 960888 cycles
L1I RQ	ACCESS:   14258383	FORWARD:          0	MERGED:    4481667	TO_CACHE:    9776716
L1I PQ	ACCESS:    1989799	FORWARD:          0	MERGED:     101310	TO_CACHE:    1888489

BTB TOTAL     ACCESS:    7502677  HIT:    7071437  MISS:     431240  HIT %:    94.2522  MISS %:    5.74782   MPKI: 8.6248
BTB BRANCH_DIRECT_JUMP	ACCESS:     370859  HIT:     358934  MISS:      11925
BTB BRANCH_INDIRECT	ACCESS:      83252  HIT:      39140  MISS:      44112
BTB BRANCH_CONDITIONAL	ACCESS:    5399005  HIT:    5361920  MISS:      37085
BTB BRANCH_DIRECT_CALL	ACCESS:     722308  HIT:     695961  MISS:      26347
BTB BRANCH_INDIRECT_CALL	ACCESS:     101901  HIT:      81558  MISS:      20343
BTB BRANCH_RETURN	ACCESS:     825352  HIT:     533924  MISS:     291428
BTB BRANCH_OTHER ACCESS:          0  HIT:          0  MISS:          0

L2C TOTAL     ACCESS:    1416394  HIT:    1024658  MISS:     391736  HIT %:    72.3427  MISS %:    27.6573   MPKI: 7.83472
L2C LOAD      ACCESS:     257838  HIT:     200350  MISS:      57488  HIT %:    77.7038  MISS %:    22.2962   MPKI: 1.14976
L2C DATA LOAD MPKI: 0.75582
L2C INSTRUCTION LOAD MPKI: 0.39394
L2C RFO       ACCESS:     239587  HIT:      29040  MISS:     210547  HIT %:    12.1209  MISS %:    87.8791   MPKI: 4.21094
L2C PREFETCH  ACCESS:     651819  HIT:     537262  MISS:     114557  HIT %:     82.425  MISS %:     17.575   MPKI: 2.29114
L2C DATA PREFETCH MPKI: 1.46012
L2C INSTRUCTION PREFETCH MPKI: 0.83102
L2C WRITEBACK ACCESS:     262032  HIT:     254466  MISS:       7566  HIT %:    97.1126  MISS %:    2.88743   MPKI: 0.15132
L2C LOAD TRANSLATION ACCESS:       4519  HIT:       3083  MISS:       1436  HIT %:    68.2231  MISS %:    31.7769   MPKI: 0.02872
L2C TRANSLATION FROM L1D PREFETCHER ACCESS:        599  HIT:        457  MISS:        142  HIT %:    76.2938  MISS %:    23.7062   MPKI: 0.00284
L2C PREFETCH  REQUESTED:          0  ISSUED:          0  USEFUL:       6219  USELESS:     109544
L2C USEFUL LOAD PREFETCHES:       6219 PREFETCH ISSUED TO LOWER LEVEL:     114557  ACCURACY: 5.42874
L2C TIMELY PREFETCHES:       6219 LATE PREFETCHES: 0 DROPPED PREFETCHES: 0
L2C PREFETCHES SAME FILL-ORIGIN LEVEL: 0 DIFFERENT FILL-ORIGIN LEVEL: 0
L2C AVERAGE MISS LATENCY: 140.171 cycles
L2C RQ	ACCESS:     502554	FORWARD:          0	MERGED:          0	TO_CACHE:     502543
L2C WQ	ACCESS:     262032	FORWARD:         11	MERGED:          0	TO_CACHE:     262032
L2C PQ	ACCESS:     651819	FORWARD:          0	MERGED:          0	TO_CACHE:     651819

L2C Instructions Evicting Data 36901
L2C Translations Evicting Data 1158
L2C Data Evicting Data 282660
L2C Instructions Evicting Instructions 23960
L2C Translations Evicting Instructions 407
L2C Data Evicting Instructions 37649
L2C Instructions Evicting Translations 387
L2C Translations Evicting Translations 13
L2C Data Evicting Translations 1035
L2C Dense regions hint from L2: 0
PSCL5 TOTAL     ACCESS:       4991  HIT:       4991  MISS:          0  HIT %:        100  MISS %:          0   MPKI: 0
PSCL5 LOAD TRANSLATION ACCESS:       4407  HIT:       4407  MISS:          0  HIT %:        100  MISS %:          0   MPKI: 0
PSCL5 TRANSLATION FROM L1D PREFETCHER ACCESS:        584  HIT:        584  MISS:          0  HIT %:        100  MISS %:          0   MPKI: 0
PSCL5 PREFETCH  REQUESTED:          0  ISSUED:          0  USEFUL:          0  USELESS:          0
PSCL5 USEFUL LOAD PREFETCHES:          0 PREFETCH ISSUED TO LOWER LEVEL:          0  ACCURACY: -nan
PSCL5 TIMELY PREFETCHES:          0 LATE PREFETCHES: 0 DROPPED PREFETCHES: 0
PSCL5 PREFETCHES SAME FILL-ORIGIN LEVEL: 0 DIFFERENT FILL-ORIGIN LEVEL: 0

PSCL4 TOTAL     ACCESS:       4991  HIT:       4991  MISS:          0  HIT %:        100  MISS %:          0   MPKI: 0
PSCL4 LOAD TRANSLATION ACCESS:       4407  HIT:       4407  MISS:          0  HIT %:        100  MISS %:          0   MPKI: 0
PSCL4 TRANSLATION FROM L1D PREFETCHER ACCESS:        584  HIT:        584  MISS:          0  HIT %:        100  MISS %:          0   MPKI: 0
PSCL4 PREFETCH  REQUESTED:          0  ISSUED:          0  USEFUL:          0  USELESS:          0
PSCL4 USEFUL LOAD PREFETCHES:          0 PREFETCH ISSUED TO LOWER LEVEL:          0  ACCURACY: -nan
PSCL4 TIMELY PREFETCHES:          0 LATE PREFETCHES: 0 DROPPED PREFETCHES: 0
PSCL4 PREFETCHES SAME FILL-ORIGIN LEVEL: 0 DIFFERENT FILL-ORIGIN LEVEL: 0

PSCL3 TOTAL     ACCESS:       4962  HIT:       4957  MISS:          5  HIT %:    99.8992  MISS %:   0.100766   MPKI: 0.0001
PSCL3 LOAD TRANSLATION ACCESS:       4381  HIT:       4376  MISS:          5  HIT %:    99.8859  MISS %:   0.114129   MPKI: 0.0001
PSCL3 TRANSLATION FROM L1D PREFETCHER ACCESS:        581  HIT:        581  MISS:          0  HIT %:        100  MISS %:          0   MPKI: 0
PSCL3 PREFETCH  REQUESTED:          0  ISSUED:          0  USEFUL:          0  USELESS:          0
PSCL3 USEFUL LOAD PREFETCHES:          0 PREFETCH ISSUED TO LOWER LEVEL:          0  ACCURACY: -nan
PSCL3 TIMELY PREFETCHES:          0 LATE PREFETCHES: 0 DROPPED PREFETCHES: 0
PSCL3 PREFETCHES SAME FILL-ORIGIN LEVEL: 0 DIFFERENT FILL-ORIGIN LEVEL: 0

PSCL2 TOTAL     ACCESS:       4985  HIT:       4856  MISS:        129  HIT %:    97.4122  MISS %:    2.58776   MPKI: 0.00258
PSCL2 LOAD TRANSLATION ACCESS:       4415  HIT:       4286  MISS:        129  HIT %:    97.0781  MISS %:    2.92186   MPKI: 0.00258
PSCL2 TRANSLATION FROM L1D PREFETCHER ACCESS:        570  HIT:        570  MISS:          0  HIT %:        100  MISS %:          0   MPKI: 0
PSCL2 PREFETCH  REQUESTED:          0  ISSUED:          0  USEFUL:          0  USELESS:          0
PSCL2 USEFUL LOAD PREFETCHES:          0 PREFETCH ISSUED TO LOWER LEVEL:          0  ACCURACY: -nan
PSCL2 TIMELY PREFETCHES:          0 LATE PREFETCHES: 0 DROPPED PREFETCHES: 0
PSCL2 PREFETCHES SAME FILL-ORIGIN LEVEL: 0 DIFFERENT FILL-ORIGIN LEVEL: 0

LLC TOTAL     ACCESS:     602383  HIT:     335951  MISS:     266432  HIT %:    55.7703  MISS %:    44.2297   MPKI: 5.32864
LLC LOAD      ACCESS:      57487  HIT:      40397  MISS:      17090  HIT %:    70.2715  MISS %:    29.7285   MPKI: 0.3418
LLC RFO       ACCESS:     210547  HIT:      35715  MISS:     174832  HIT %:     16.963  MISS %:     83.037   MPKI: 3.49664
LLC PREFETCH  ACCESS:     114557  HIT:      45411  MISS:      69146  HIT %:    39.6405  MISS %:    60.3595   MPKI: 1.38292
LLC WRITEBACK ACCESS:     218214  HIT:     213924  MISS:       4290  HIT %:     98.034  MISS %:    1.96596   MPKI: 0.0858
LLC LOAD TRANSLATION ACCESS:       1436  HIT:        431  MISS:       1005  HIT %:    30.0139  MISS %:    69.9861   MPKI: 0.0201
LLC TRANSLATION FROM L1D PREFETCHER ACCESS:        142  HIT:         73  MISS:         69  HIT %:    51.4085  MISS %:    48.5915   MPKI: 0.00138
LLC PREFETCH  REQUESTED:          0  ISSUED:          0  USEFUL:        870  USELESS:      65396
LLC USEFUL LOAD PREFETCHES:        870 PREFETCH ISSUED TO LOWER LEVEL:      69146  ACCURACY: 1.25821
LLC TIMELY PREFETCHES:        870 LATE PREFETCHES: 0 DROPPED PREFETCHES: 0
LLC PREFETCHES SAME FILL-ORIGIN LEVEL: 0 DIFFERENT FILL-ORIGIN LEVEL: 0
LLC AVERAGE MISS LATENCY: 162.525 cycles
LLC RQ	ACCESS:     269613	FORWARD:          0	MERGED:          0	TO_CACHE:     269612
LLC WQ	ACCESS:     218214	FORWARD:          1	MERGED:          0	TO_CACHE:     218214
LLC PQ	ACCESS:     114557	FORWARD:          0	MERGED:          0	TO_CACHE:     114557

LLC Dense regions hint to LLC: 0

RAW hits: 1280278
Loads Generated: 11056274
Loads sent to L1D: 9775998
Stores Generated: 6907390
Stores sent to L1D: 6907394
Major fault: 0 Minor fault: 5106
Allocated PAGES: 5106
I-Shadow cache 408 bytes
Touched + WorthPF tables 6144 bytes 
MMA filter 174 bytes 
FNL filter 272 bytes 
TOTAL PREFETCHER STORAGE SIZE: 25174 bytes
CPU 0 L1I next line prefetcher final stats

stream: 
stream:times selected: 154079
stream:pref_filled: 8750
stream:pref_useful: 2800
stream:pref_late: 745
stream:misses: 1043
stream:misses_by_poll: 0

CS: 
CS:times selected: 76336
CS:pref_filled: 58001
CS:pref_useful: 57139
CS:pref_late: 10500
CS:misses: 25430
CS:misses_by_poll: 187

CPLX: 
CPLX:times selected: 77458
CPLX:pref_filled: 2102
CPLX:pref_useful: 438
CPLX:pref_late: 12
CPLX:misses: 6962
CPLX:misses_by_poll: 11

NL_L1: 
NL:times selected: 1314
NL:pref_filled: 62
NL:pref_useful: 9
NL:pref_late: 1
NL:misses: 59
NL:misses_by_poll: 0

total selections: 309187
total_filled: 68915
total_useful: 60386
total_late: 11520
total_polluted: 198
total_misses_after_warmup: 34213
conflicts: 738
Degree Incremented Times: 4326
Degree Decremented Times: 2702

L1 IP Table Write Accesses: 1241699
L1 IP Table Read Accesses: 1240961
L1 RST Write Accesses: 154082
L1 RST Read Accesses: 308155
L1 CSPT Write Accesses: 154082
L1 CSPT Read Accesses: 236006
L1 RR Filter Tag Write Accesses: 103092
L1 RR Filter Tag Read Accesses: 11599656
L1 IP Table Tag Write Accesses: 1242457
L1 IP Table Tag Read Accesses: 1242457
L1 RST Tag Write Accesses: 56
L1 RST Tag Read Accesses: 1445541
L1 RR Filter Write Accesses: 0
L1 RR Filter Read Accesses: 403685
test: 15349

DRAM Statistics
 CHANNEL 0
 RQ ROW_BUFFER_HIT:     104880  ROW_BUFFER_MISS:     157259
 DBUS_CONGESTED:        133
 WQ ROW_BUFFER_HIT:      35868  ROW_BUFFER_MISS:     139056  FULL:          0

 AVG_CONGESTED_CYCLE: 2
 All warmup complete: 2
Channel 0 Bank busy for read cycles: 0
Channel 0 Bank busy for write cycles: 0
Channel 0
Rank 0
0banks busy for read cycles: 51871102
0banks busy for write cycles: 33240
1banks busy for read cycles: 7828869
1banks busy for write cycles: 3982345
2banks busy for read cycles: 2927199
2banks busy for write cycles: 1284513
3banks busy for read cycles: 839054
3banks busy for write cycles: 352351
4banks busy for read cycles: 431918
4banks busy for write cycles: 259889
5banks busy for read cycles: 293542
5banks busy for write cycles: 221051
6banks busy for read cycles: 335138
6banks busy for write cycles: 234045
7banks busy for read cycles: 370962
7banks busy for write cycles: 372326
8banks busy for read cycles: 657768
8banks busy for write cycles: 1826429

CPU 0 Branch Prediction Accuracy: 98.6631% MPKI: 2.66884 Average ROB Occupancy at Mispredict: 41.7501
Branch types
NOT_BRANCH: 40018632 80.0373%
BRANCH_DIRECT_JUMP: 370859 0.741718%
BRANCH_INDIRECT: 83252 0.166504%
BRANCH_CONDITIONAL: 7877415 15.7548%
BRANCH_DIRECT_CALL: 722308 1.44462%
BRANCH_INDIRECT_CALL: 101901 0.203802%
BRANCH_RETURN: 825352 1.6507%
BRANCH_OTHER: 0 0%

DRAM PAGES: 1048576
Allocated PAGES: 5106
