Initialize SIGNATURE TABLE
ST_SET: 1
ST_WAY: 256
ST_TAG_BIT: 16
ST_TAG_MASK: ffff

Initialize PATTERN TABLE
PT_SET: 512
PT_WAY: 4
SIG_DELTA_BIT: 7
C_SIG_BIT: 4
C_DELTA_BIT: 4

Initialize PREFETCH FILTER
FILTER_SET: 1024

*** ChampSim Multicore Out-of-Order Simulator ***

Warmup Instructions: 50000000
Simulation Instructions: 50000000
Number of CPUs: 1
LLC sets: 2048
LLC ways: 16
Off-chip DRAM Size: 4096 MB Channels: 1 Width: 64-bit Data Rate: 6400 MT/s
CPU 0 runs ../IPC-traces//client_003.champsimtrace.xz
.xz
NUM_OF_IPS_IN_CRITICAL_IP_TRAINING: 64
NUM_OF_CRITICAL_IP_TRAINING_TABLE_WAYS: 2
NUM_OF_CRITICAL_IP_TRAINING_TABLE_SETS: 32
WOBBLY_CRITICAL_IP_CACHE_SETS: 32
WOBBLY_CRITICAL_IP_CACHE_WAYS: 4
BTB has LRU replacement policy
ITLB has LRU replacement policy
DTLB has LRU replacement policy
STLB has LRU replacement policy
CPU 0 L1I next line prefetcher
L1I has LRU replacement policy
L1D has LRU replacement policy
Initialize SRRIP state for L2C
Initialize DRRIP state for LLC
Heartbeat CPU 0 instructions: 10000000 cycles: 2805455 heartbeat IPC: 3.56448 cumulative IPC: 3.56448 (Simulation time: 0 hr 2 min 51 sec) 
Heartbeat CPU 0 instructions: 20000000 cycles: 5609159 heartbeat IPC: 3.56671 cumulative IPC: 3.5656 (Simulation time: 0 hr 5 min 14 sec) 
Heartbeat CPU 0 instructions: 30000003 cycles: 8418301 heartbeat IPC: 3.55981 cumulative IPC: 3.56366 (Simulation time: 0 hr 7 min 30 sec) 
Heartbeat CPU 0 instructions: 40000001 cycles: 11235944 heartbeat IPC: 3.54906 cumulative IPC: 3.56 (Simulation time: 0 hr 9 min 35 sec) 
Heartbeat CPU 0 instructions: 50000002 cycles: 14056318 heartbeat IPC: 3.54563 cumulative IPC: 3.55712 (Simulation time: 0 hr 11 min 34 sec) 

Warmup complete CPU 0 instructions: 50000002 cycles: 14056318 (Simulation time: 0 hr 11 min 34 sec) 

% increase in all ip prefetch 306.727
% increase in all ip prefetch 1.9789
Heartbeat CPU 0 instructions: 60000002 cycles: 27025564 heartbeat IPC: 0.771055 cumulative IPC: 0.771055 (Simulation time: 0 hr 13 min 55 sec) 
Heartbeat CPU 0 instructions: 70000001 cycles: 39624530 heartbeat IPC: 0.793716 cumulative IPC: 0.782221 (Simulation time: 0 hr 16 min 10 sec) 
Heartbeat CPU 0 instructions: 80000001 cycles: 53622519 heartbeat IPC: 0.714388 cumulative IPC: 0.758223 (Simulation time: 0 hr 18 min 27 sec) 
Heartbeat CPU 0 instructions: 90000000 cycles: 68606162 heartbeat IPC: 0.667394 cumulative IPC: 0.733274 (Simulation time: 0 hr 20 min 37 sec) 
Heartbeat CPU 0 instructions: 100000000 cycles: 88623216 heartbeat IPC: 0.499574 cumulative IPC: 0.670539 (Simulation time: 0 hr 23 min 30 sec) 
Finished CPU 0 instructions: 50000002 cycles: 74566900 cumulative IPC: 0.670539 (Simulation time: 0 hr 23 min 30 sec) 

ChampSim completed all CPUs

Region of Interest Statistics

CPU 0 cumulative IPC: 0.670539 instructions: 50000002 cycles: 74566900

CPU 0 Average Load ROB stall cycles: 1.82597e+07
CPU 0 Fraction of times ROB stalled by Loads: 36.3115
CPU 0 Percentage of Load stall cycles in Total stall cycles: 2.62614e+08
Issued all: 40080527
Issued LT all: 34560583
rob_not_full_when_issued_lt_all: 17985145
Issued LT one: 28435971
rob_not_full_when_issued_lt_one: 13677958
 Total stall cycles: 61612047
 Total load stall cycles: 161801621524820
CPU 0 NUM of IPS identified critical: 0
CPU 0 Num of Load IPs stalling ROB: 26802
Threshold modification factor: -1
Max PIST entries: 64
Min PIST entries: 0
Avg PIST entries: 27.26
Trouble in retire width: 0.903899
MaC = Marked as critical.
lt_50_percent_before_Mac: 0
gt_90_percent_before_Mac: 0
gt_75_percent_before_Mac: 0
gt_50_percent_before_Mac: 0
stall_proportion_bin_same_before_after: 0
stall_proportion_bin_lower_before_after: 0
stall_proportion_bin_upper_before_after: 0
average_stall_proportion_before: -nan
average_stall_proportion_after: -nan
Critical IP stalls, total frequency: 0
Non-critical IP stalls, total frequency: 3217609
Total Freq all stalling IPs: 3217609
stat_90_percent_critical_ip_stalls_freq: 2895978
stat_90_percent_non_critical_ip_stalls_freq: 321631
Critical_IP_ROB_Stalls_Bucket_0: 0
Non-critical_IP_ROB_Stalls_Bucket_0: 1410678
Critical_IP_ROB_Stalls_Bucket_1: 0
Non-critical_IP_ROB_Stalls_Bucket_1: 669403
Critical_IP_ROB_Stalls_Bucket_2: 0
Non-critical_IP_ROB_Stalls_Bucket_2: 272075
Critical_IP_ROB_Stalls_Bucket_3: 0
Non-critical_IP_ROB_Stalls_Bucket_3: 92077
Critical_IP_ROB_Stalls_Bucket_4: 0
Non-critical_IP_ROB_Stalls_Bucket_4: 36088
Critical_IP_ROB_Stalls_Bucket_5: 0
Non-critical_IP_ROB_Stalls_Bucket_5: 20270
Critical_IP_ROB_Stalls_Bucket_6: 0
Non-critical_IP_ROB_Stalls_Bucket_6: 717018
0 => IPs accounting for >50 percent of stalls, 1 => 55, 2 => 60, 3 => 65 and so on till 90.
percent50: 50.038 num IPs:  40
percent55: 55.0836 num IPs: 64
percent60: 60.0751 num IPs: 99
percent65: 65.0302 num IPs: 158
percent70: 70.0377 num IPs: 255
percent75: 75.0098 num IPs: 404
percent80: 80.013 num IPs: 648
percent85: 85.0084 num IPs: 1079
percent90: 90.004 num IPs: 1873
Critical_ROB_Stalls_Percent_0_Bucket_0: 490819
Non-critical_ROB_Stalls_Percent_0_Bucket_0: 919859
Critical_ROB_Stalls_Percent_0_Bucket_1: 224412
Non-critical_ROB_Stalls_Percent_0_Bucket_1: 444991
Critical_ROB_Stalls_Percent_0_Bucket_2: 117601
Non-critical_ROB_Stalls_Percent_0_Bucket_2: 154474
Critical_ROB_Stalls_Percent_0_Bucket_3: 43848
Non-critical_ROB_Stalls_Percent_0_Bucket_3: 48229
Critical_ROB_Stalls_Percent_0_Bucket_4: 19092
Non-critical_ROB_Stalls_Percent_0_Bucket_4: 16996
Critical_ROB_Stalls_Percent_0_Bucket_5: 11380
Non-critical_ROB_Stalls_Percent_0_Bucket_5: 8890
Critical_ROB_Stalls_Percent_0_Bucket_6: 702875
Non-critical_ROB_Stalls_Percent_0_Bucket_6: 14143
Critical_ROB_Stalls_Percent_1_Bucket_0: 563127
Non-critical_ROB_Stalls_Percent_1_Bucket_0: 847551
Critical_ROB_Stalls_Percent_1_Bucket_1: 285334
Non-critical_ROB_Stalls_Percent_1_Bucket_1: 384069
Critical_ROB_Stalls_Percent_1_Bucket_2: 136758
Non-critical_ROB_Stalls_Percent_1_Bucket_2: 135317
Critical_ROB_Stalls_Percent_1_Bucket_3: 49756
Non-critical_ROB_Stalls_Percent_1_Bucket_3: 42321
Critical_ROB_Stalls_Percent_1_Bucket_4: 21260
Non-critical_ROB_Stalls_Percent_1_Bucket_4: 14828
Critical_ROB_Stalls_Percent_1_Bucket_5: 12360
Non-critical_ROB_Stalls_Percent_1_Bucket_5: 7910
Critical_ROB_Stalls_Percent_1_Bucket_6: 703781
Non-critical_ROB_Stalls_Percent_1_Bucket_6: 13237
Critical_ROB_Stalls_Percent_2_Bucket_0: 633924
Non-critical_ROB_Stalls_Percent_2_Bucket_0: 776754
Critical_ROB_Stalls_Percent_2_Bucket_1: 334237
Non-critical_ROB_Stalls_Percent_2_Bucket_1: 335166
Critical_ROB_Stalls_Percent_2_Bucket_2: 160144
Non-critical_ROB_Stalls_Percent_2_Bucket_2: 111931
Critical_ROB_Stalls_Percent_2_Bucket_3: 56511
Non-critical_ROB_Stalls_Percent_2_Bucket_3: 35566
Critical_ROB_Stalls_Percent_2_Bucket_4: 24367
Non-critical_ROB_Stalls_Percent_2_Bucket_4: 11721
Critical_ROB_Stalls_Percent_2_Bucket_5: 14471
Non-critical_ROB_Stalls_Percent_2_Bucket_5: 5799
Critical_ROB_Stalls_Percent_2_Bucket_6: 709326
Non-critical_ROB_Stalls_Percent_2_Bucket_6: 7692
Critical_ROB_Stalls_Percent_3_Bucket_0: 708559
Non-critical_ROB_Stalls_Percent_3_Bucket_0: 702119
Critical_ROB_Stalls_Percent_3_Bucket_1: 385517
Non-critical_ROB_Stalls_Percent_3_Bucket_1: 283886
Critical_ROB_Stalls_Percent_3_Bucket_2: 181248
Non-critical_ROB_Stalls_Percent_3_Bucket_2: 90827
Critical_ROB_Stalls_Percent_3_Bucket_3: 64487
Non-critical_ROB_Stalls_Percent_3_Bucket_3: 27590
Critical_ROB_Stalls_Percent_3_Bucket_4: 26514
Non-critical_ROB_Stalls_Percent_3_Bucket_4: 9574
Critical_ROB_Stalls_Percent_3_Bucket_5: 15830
Non-critical_ROB_Stalls_Percent_3_Bucket_5: 4440
Critical_ROB_Stalls_Percent_3_Bucket_6: 710262
Non-critical_ROB_Stalls_Percent_3_Bucket_6: 6756
Critical_ROB_Stalls_Percent_4_Bucket_0: 789048
Non-critical_ROB_Stalls_Percent_4_Bucket_0: 621630
Critical_ROB_Stalls_Percent_4_Bucket_1: 441588
Non-critical_ROB_Stalls_Percent_4_Bucket_1: 227815
Critical_ROB_Stalls_Percent_4_Bucket_2: 199935
Non-critical_ROB_Stalls_Percent_4_Bucket_2: 72140
Critical_ROB_Stalls_Percent_4_Bucket_3: 68648
Non-critical_ROB_Stalls_Percent_4_Bucket_3: 23429
Critical_ROB_Stalls_Percent_4_Bucket_4: 27426
Non-critical_ROB_Stalls_Percent_4_Bucket_4: 8662
Critical_ROB_Stalls_Percent_4_Bucket_5: 16201
Non-critical_ROB_Stalls_Percent_4_Bucket_5: 4069
Critical_ROB_Stalls_Percent_4_Bucket_6: 710694
Non-critical_ROB_Stalls_Percent_4_Bucket_6: 6324
Critical_ROB_Stalls_Percent_5_Bucket_0: 871423
Non-critical_ROB_Stalls_Percent_5_Bucket_0: 539255
Critical_ROB_Stalls_Percent_5_Bucket_1: 486986
Non-critical_ROB_Stalls_Percent_5_Bucket_1: 182417
Critical_ROB_Stalls_Percent_5_Bucket_2: 217913
Non-critical_ROB_Stalls_Percent_5_Bucket_2: 54162
Critical_ROB_Stalls_Percent_5_Bucket_3: 75420
Non-critical_ROB_Stalls_Percent_5_Bucket_3: 16657
Critical_ROB_Stalls_Percent_5_Bucket_4: 30808
Non-critical_ROB_Stalls_Percent_5_Bucket_4: 5280
Critical_ROB_Stalls_Percent_5_Bucket_5: 16965
Non-critical_ROB_Stalls_Percent_5_Bucket_5: 3305
Critical_ROB_Stalls_Percent_5_Bucket_6: 714007
Non-critical_ROB_Stalls_Percent_5_Bucket_6: 3011
Critical_ROB_Stalls_Percent_6_Bucket_0: 969092
Non-critical_ROB_Stalls_Percent_6_Bucket_0: 441586
Critical_ROB_Stalls_Percent_6_Bucket_1: 531942
Non-critical_ROB_Stalls_Percent_6_Bucket_1: 137461
Critical_ROB_Stalls_Percent_6_Bucket_2: 229826
Non-critical_ROB_Stalls_Percent_6_Bucket_2: 42249
Critical_ROB_Stalls_Percent_6_Bucket_3: 78340
Non-critical_ROB_Stalls_Percent_6_Bucket_3: 13737
Critical_ROB_Stalls_Percent_6_Bucket_4: 32268
Non-critical_ROB_Stalls_Percent_6_Bucket_4: 3820
Critical_ROB_Stalls_Percent_6_Bucket_5: 17990
Non-critical_ROB_Stalls_Percent_6_Bucket_5: 2280
Critical_ROB_Stalls_Percent_6_Bucket_6: 715046
Non-critical_ROB_Stalls_Percent_6_Bucket_6: 1972
Critical_ROB_Stalls_Percent_7_Bucket_0: 1062719
Non-critical_ROB_Stalls_Percent_7_Bucket_0: 347959
Critical_ROB_Stalls_Percent_7_Bucket_1: 575881
Non-critical_ROB_Stalls_Percent_7_Bucket_1: 93522
Critical_ROB_Stalls_Percent_7_Bucket_2: 243640
Non-critical_ROB_Stalls_Percent_7_Bucket_2: 28435
Critical_ROB_Stalls_Percent_7_Bucket_3: 84526
Non-critical_ROB_Stalls_Percent_7_Bucket_3: 7551
Critical_ROB_Stalls_Percent_7_Bucket_4: 34004
Non-critical_ROB_Stalls_Percent_7_Bucket_4: 2084
Critical_ROB_Stalls_Percent_7_Bucket_5: 18719
Non-critical_ROB_Stalls_Percent_7_Bucket_5: 1551
Critical_ROB_Stalls_Percent_7_Bucket_6: 715750
Non-critical_ROB_Stalls_Percent_7_Bucket_6: 1268
Critical_ROB_Stalls_Percent_8_Bucket_0: 1164444
Non-critical_ROB_Stalls_Percent_8_Bucket_0: 246234
Critical_ROB_Stalls_Percent_8_Bucket_1: 616195
Non-critical_ROB_Stalls_Percent_8_Bucket_1: 53208
Critical_ROB_Stalls_Percent_8_Bucket_2: 257111
Non-critical_ROB_Stalls_Percent_8_Bucket_2: 14964
Critical_ROB_Stalls_Percent_8_Bucket_3: 87585
Non-critical_ROB_Stalls_Percent_8_Bucket_3: 4492
Critical_ROB_Stalls_Percent_8_Bucket_4: 34753
Non-critical_ROB_Stalls_Percent_8_Bucket_4: 1335
Critical_ROB_Stalls_Percent_8_Bucket_5: 19663
Non-critical_ROB_Stalls_Percent_8_Bucket_5: 607
Critical_ROB_Stalls_Percent_8_Bucket_6: 716227
Non-critical_ROB_Stalls_Percent_8_Bucket_6: 791
Average ROB occupancy Load Stall Begin: 117.353
Average ROB occupancy Load Stall End: 124.846
Min ROB occupancy Load Stall Begin: 1
Max ROB occupancy Load Stall Begin: 352
Min ROB occupancy Load Stall End: 1
Max ROB occupancy Load Stall End: 352
Average ROB occupancy Critical Load Stall Begin: -nan
Average ROB occupancy Critical Load Stall End: -nan
Min ROB occupancy Critical Load Stall Begin: 400
Max ROB occupancy Critical Load Stall Begin: 0
Min ROB occupancy Critical Load Stall End: 400
Max ROB occupancy Critical Load Stall End: 0
 ROB Load Stall Begin Bucket Count 0: 1632408
 ROB Load Stall End Bucket Count 0: 1410678
 ROB Critical Load Stall Begin Bucket Count 0: 0
 ROB Critical Load Stall End Bucket Count 0: 0
 ROB Load Stall Begin Bucket Count 1: 532206
 ROB Load Stall End Bucket Count 1: 669403
 ROB Critical Load Stall Begin Bucket Count 1: 0
 ROB Critical Load Stall End Bucket Count 1: 0
 ROB Load Stall Begin Bucket Count 2: 219115
 ROB Load Stall End Bucket Count 2: 272075
 ROB Critical Load Stall Begin Bucket Count 2: 0
 ROB Critical Load Stall End Bucket Count 2: 0
 ROB Load Stall Begin Bucket Count 3: 72169
 ROB Load Stall End Bucket Count 3: 92077
 ROB Critical Load Stall Begin Bucket Count 3: 0
 ROB Critical Load Stall End Bucket Count 3: 0
 ROB Load Stall Begin Bucket Count 4: 29672
 ROB Load Stall End Bucket Count 4: 36088
 ROB Critical Load Stall Begin Bucket Count 4: 0
 ROB Critical Load Stall End Bucket Count 4: 0
 ROB Load Stall Begin Bucket Count 5: 18782
 ROB Load Stall End Bucket Count 5: 20270
 ROB Critical Load Stall Begin Bucket Count 5: 0
 ROB Critical Load Stall End Bucket Count 5: 0
 ROB Load Stall Begin Bucket Count 6: 713257
 ROB Load Stall End Bucket Count 6: 717018
 ROB Critical Load Stall Begin Bucket Count 6: 0
 ROB Critical Load Stall End Bucket Count 6: 0
PIST Tag Read Accesses: 2324940
PIST Read Accesses: 1162470
PIST Tag Write Accesses: 2324940
PIST Write Accesses: 1162470
Criticality detector called times: 2050822
Max global_stall_cycles_count: 3865340
Threshold Modified: 1 times, factor: -1
Sturdy critical IP cache stats: 
 Unused entries: 0
CIC Tag Read Accesses: 0
CIC Read Accesses: 0
CIC Tag Write Accesses: 0
CIC Write Accesses: 0
Wobbly critical IP cache stats: 
 Unused entries: 82
CIC Tag Read Accesses: 81947161
CIC Read Accesses: 0
CIC Tag Write Accesses: 10683
CIC Write Accesses: 0
ITLB TOTAL     ACCESS:    9296705  HIT:    9219035  MISS:      77670  HIT %:    99.1645  MISS %:   0.835457   MPKI: 1.5534
ITLB LOAD TRANSLATION ACCESS:    8634093  HIT:    8596912  MISS:      37181  HIT %:    99.5694  MISS %:    0.43063   MPKI: 0.74362
ITLB TRANSLATION FROM L1D PREFETCHER ACCESS:     662612  HIT:     622123  MISS:      40489  HIT %:    93.8895  MISS %:    6.11051   MPKI: 0.80978
ITLB PREFETCH  REQUESTED:          0  ISSUED:          0  USEFUL:      31853  USELESS:       8638
ITLB USEFUL LOAD PREFETCHES:      31853 PREFETCH ISSUED TO LOWER LEVEL:          0  ACCURACY: inf
ITLB TIMELY PREFETCHES:      31853 LATE PREFETCHES: 176 DROPPED PREFETCHES: 378
ITLB PREFETCHES SAME FILL-ORIGIN LEVEL: 0 DIFFERENT FILL-ORIGIN LEVEL: 0
ITLB AVERAGE MISS LATENCY: 98705 cycles
ITLB RQ	ACCESS:   11673647	FORWARD:          0	MERGED:    2363198	TO_CACHE:    9310449

DTLB TOTAL     ACCESS:    9895393  HIT:    9794847  MISS:     100546  HIT %:    98.9839  MISS %:    1.01609   MPKI: 2.01092
DTLB LOAD TRANSLATION ACCESS:    9895393  HIT:    9794847  MISS:     100546  HIT %:    98.9839  MISS %:    1.01609   MPKI: 2.01092
DTLB PREFETCH  REQUESTED:          0  ISSUED:          0  USEFUL:          0  USELESS:          0
DTLB USEFUL LOAD PREFETCHES:          0 PREFETCH ISSUED TO LOWER LEVEL:          0  ACCURACY: -nan
DTLB TIMELY PREFETCHES:          0 LATE PREFETCHES: 0 DROPPED PREFETCHES: 0
DTLB PREFETCHES SAME FILL-ORIGIN LEVEL: 0 DIFFERENT FILL-ORIGIN LEVEL: 0
DTLB AVERAGE MISS LATENCY: 14.1352 cycles
DTLB RQ	ACCESS:   12774575	FORWARD:          0	MERGED:    2861315	TO_CACHE:    9913260

STLB TOTAL     ACCESS:     178216  HIT:     173624  MISS:       4592  HIT %:    97.4234  MISS %:    2.57665   MPKI: 0.09184
STLB LOAD TRANSLATION ACCESS:     137551  HIT:     133140  MISS:       4411  HIT %:    96.7932  MISS %:    3.20681   MPKI: 0.08822
STLB TRANSLATION FROM L1D PREFETCHER ACCESS:      40665  HIT:      40484  MISS:        181  HIT %:    99.5549  MISS %:     0.4451   MPKI: 0.00362
STLB PREFETCH  REQUESTED:          0  ISSUED:          0  USEFUL:        118  USELESS:         37
STLB USEFUL LOAD PREFETCHES:        118 PREFETCH ISSUED TO LOWER LEVEL:          0  ACCURACY: inf
STLB TIMELY PREFETCHES:        118 LATE PREFETCHES: 0 DROPPED PREFETCHES: 378
STLB PREFETCHES SAME FILL-ORIGIN LEVEL: 0 DIFFERENT FILL-ORIGIN LEVEL: 0
STLB AVERAGE MISS LATENCY: 134.951 cycles
STLB RQ	ACCESS:     178594	FORWARD:          0	MERGED:          0	TO_CACHE:     178594

STLB Hit, L1D data hit: 0
STLB Hit, L2C data hit: 0
STLB Hit, LLC data hit: 0
STLB Hit, LLC data miss: 0
STLB STLB hints to L2: 0
L1D TOTAL     ACCESS:   12157574  HIT:   11750252  MISS:     407322  HIT %:    96.6496  MISS %:    3.35036   MPKI: 8.14644
L1D LOAD      ACCESS:    6207229  HIT:    6039727  MISS:     167502  HIT %:    97.3015  MISS %:     2.6985   MPKI: 3.35004
L1D RFO       ACCESS:    5950345  HIT:    5710525  MISS:     239820  HIT %:    95.9696  MISS %:    4.03035   MPKI: 4.7964
L1D PREFETCH  REQUESTED:          0  ISSUED:          0  USEFUL:          0  USELESS:          0
L1D USEFUL LOAD PREFETCHES:          0 PREFETCH ISSUED TO LOWER LEVEL:          0  ACCURACY: -nan
L1D TIMELY PREFETCHES:          0 LATE PREFETCHES: 0 DROPPED PREFETCHES: 0
L1D PREFETCHES SAME FILL-ORIGIN LEVEL: 0 DIFFERENT FILL-ORIGIN LEVEL: 0
L1D AVERAGE MISS LATENCY: 114.57 cycles
L1D RQ	ACCESS:    9775115	FORWARD:          0	MERGED:    3396921	TO_CACHE:    6246962
L1D WQ	ACCESS:    6907394	FORWARD:     131232	MERGED:     379781	TO_CACHE:    6527613

L1D UNIQUE REGIONS ACCESSED: 0
L1D REGIONS CONFLICTS: 0
L1D Cross Page Prefetch Requests: 0
L1D Same Page Prefetch Requests: 0
L1D ROI Sum of L1D PQ occupancy: 0
L1D PREFETCHES PUSHED FROM L2C: 0
L1I TOTAL     ACCESS:   11583826  HIT:   10848847  MISS:     734979  HIT %:    93.6551  MISS %:    6.34487   MPKI: 14.6996
L1I LOAD      ACCESS:    9752209  HIT:    9572217  MISS:     179992  HIT %:    98.1543  MISS %:    1.84565   MPKI: 3.59984
L1I PREFETCH  ACCESS:    1831617  HIT:    1276630  MISS:     554987  HIT %:    69.6996  MISS %:    30.3004   MPKI: 11.0997
L1I PREFETCH  REQUESTED:    1999433  ISSUED:    1997151  USEFUL:     353772  USELESS:     201244
L1I USEFUL LOAD PREFETCHES:     353772 PREFETCH ISSUED TO LOWER LEVEL:     573151  ACCURACY: 61.724
L1I TIMELY PREFETCHES:     353772 LATE PREFETCHES: 18164 DROPPED PREFETCHES: 678
L1I PREFETCHES SAME FILL-ORIGIN LEVEL: 573151 DIFFERENT FILL-ORIGIN LEVEL: 0
L1I AVERAGE MISS LATENCY: 979533 cycles
L1I RQ	ACCESS:   14258688	FORWARD:          0	MERGED:    4481661	TO_CACHE:    9777027
L1I PQ	ACCESS:    1997151	FORWARD:          0	MERGED:     100531	TO_CACHE:    1896620

BTB TOTAL     ACCESS:    7502677  HIT:    7071437  MISS:     431240  HIT %:    94.2522  MISS %:    5.74782   MPKI: 8.6248
BTB BRANCH_DIRECT_JUMP	ACCESS:     370859  HIT:     358934  MISS:      11925
BTB BRANCH_INDIRECT	ACCESS:      83252  HIT:      39140  MISS:      44112
BTB BRANCH_CONDITIONAL	ACCESS:    5399005  HIT:    5361920  MISS:      37085
BTB BRANCH_DIRECT_CALL	ACCESS:     722308  HIT:     695961  MISS:      26347
BTB BRANCH_INDIRECT_CALL	ACCESS:     101901  HIT:      81558  MISS:      20343
BTB BRANCH_RETURN	ACCESS:     825352  HIT:     533924  MISS:     291428
BTB BRANCH_OTHER ACCESS:          0  HIT:          0  MISS:          0

L2C TOTAL     ACCESS:    1459987  HIT:    1070355  MISS:     389632  HIT %:    73.3126  MISS %:    26.6874   MPKI: 7.79264
L2C LOAD      ACCESS:     329329  HIT:     248012  MISS:      81317  HIT %:    75.3083  MISS %:    24.6917   MPKI: 1.62634
L2C DATA LOAD MPKI: 1.23092
L2C INSTRUCTION LOAD MPKI: 0.39542
L2C RFO       ACCESS:     239816  HIT:      28985  MISS:     210831  HIT %:    12.0863  MISS %:    87.9137   MPKI: 4.21662
L2C PREFETCH  ACCESS:     624333  HIT:     537759  MISS:      86574  HIT %:    86.1334  MISS %:    13.8666   MPKI: 1.73148
L2C DATA PREFETCH MPKI: 0.89506
L2C INSTRUCTION PREFETCH MPKI: 0.83642
L2C WRITEBACK ACCESS:     261428  HIT:     252073  MISS:       9355  HIT %:    96.4216  MISS %:    3.57842   MPKI: 0.1871
L2C LOAD TRANSLATION ACCESS:       4514  HIT:       3082  MISS:       1432  HIT %:    68.2765  MISS %:    31.7235   MPKI: 0.02864
L2C TRANSLATION FROM L1D PREFETCHER ACCESS:        567  HIT:        444  MISS:        123  HIT %:    78.3069  MISS %:    21.6931   MPKI: 0.00246
L2C PREFETCH  REQUESTED:     655800  ISSUED:     655800  USEFUL:      49976  USELESS:      38316
L2C USEFUL LOAD PREFETCHES:      49976 PREFETCH ISSUED TO LOWER LEVEL:     658498  ACCURACY: 7.58939
L2C TIMELY PREFETCHES:      49976 LATE PREFETCHES: 3235 DROPPED PREFETCHES: 0
L2C PREFETCHES SAME FILL-ORIGIN LEVEL: 47988 DIFFERENT FILL-ORIGIN LEVEL: 568689
L2C AVERAGE MISS LATENCY: 120.036 cycles
L2C RQ	ACCESS:     574231	FORWARD:          0	MERGED:          0	TO_CACHE:     574226
L2C WQ	ACCESS:     261428	FORWARD:          5	MERGED:          0	TO_CACHE:     261428
L2C PQ	ACCESS:    1228951	FORWARD:          0	MERGED:      29379	TO_CACHE:    1199572

L2C Instructions Evicting Data 36740
L2C Translations Evicting Data 1120
L2C Data Evicting Data 278824
L2C Instructions Evicting Instructions 24450
L2C Translations Evicting Instructions 419
L2C Data Evicting Instructions 37312
L2C Instructions Evicting Translations 402
L2C Translations Evicting Translations 16
L2C Data Evicting Translations 994
L2C Dense regions hint from L2: 0
PSCL5 TOTAL     ACCESS:       4970  HIT:       4970  MISS:          0  HIT %:        100  MISS %:          0   MPKI: 0
PSCL5 LOAD TRANSLATION ACCESS:       4411  HIT:       4411  MISS:          0  HIT %:        100  MISS %:          0   MPKI: 0
PSCL5 TRANSLATION FROM L1D PREFETCHER ACCESS:        559  HIT:        559  MISS:          0  HIT %:        100  MISS %:          0   MPKI: 0
PSCL5 PREFETCH  REQUESTED:          0  ISSUED:          0  USEFUL:          0  USELESS:          0
PSCL5 USEFUL LOAD PREFETCHES:          0 PREFETCH ISSUED TO LOWER LEVEL:          0  ACCURACY: -nan
PSCL5 TIMELY PREFETCHES:          0 LATE PREFETCHES: 0 DROPPED PREFETCHES: 0
PSCL5 PREFETCHES SAME FILL-ORIGIN LEVEL: 0 DIFFERENT FILL-ORIGIN LEVEL: 0

PSCL4 TOTAL     ACCESS:       4970  HIT:       4970  MISS:          0  HIT %:        100  MISS %:          0   MPKI: 0
PSCL4 LOAD TRANSLATION ACCESS:       4411  HIT:       4411  MISS:          0  HIT %:        100  MISS %:          0   MPKI: 0
PSCL4 TRANSLATION FROM L1D PREFETCHER ACCESS:        559  HIT:        559  MISS:          0  HIT %:        100  MISS %:          0   MPKI: 0
PSCL4 PREFETCH  REQUESTED:          0  ISSUED:          0  USEFUL:          0  USELESS:          0
PSCL4 USEFUL LOAD PREFETCHES:          0 PREFETCH ISSUED TO LOWER LEVEL:          0  ACCURACY: -nan
PSCL4 TIMELY PREFETCHES:          0 LATE PREFETCHES: 0 DROPPED PREFETCHES: 0
PSCL4 PREFETCHES SAME FILL-ORIGIN LEVEL: 0 DIFFERENT FILL-ORIGIN LEVEL: 0

PSCL3 TOTAL     ACCESS:       4931  HIT:       4928  MISS:          3  HIT %:    99.9392  MISS %:  0.0608396   MPKI: 6e-05
PSCL3 LOAD TRANSLATION ACCESS:       4375  HIT:       4372  MISS:          3  HIT %:    99.9314  MISS %:  0.0685714   MPKI: 6e-05
PSCL3 TRANSLATION FROM L1D PREFETCHER ACCESS:        556  HIT:        556  MISS:          0  HIT %:        100  MISS %:          0   MPKI: 0
PSCL3 PREFETCH  REQUESTED:          0  ISSUED:          0  USEFUL:          0  USELESS:          0
PSCL3 USEFUL LOAD PREFETCHES:          0 PREFETCH ISSUED TO LOWER LEVEL:          0  ACCURACY: -nan
PSCL3 TIMELY PREFETCHES:          0 LATE PREFETCHES: 0 DROPPED PREFETCHES: 0
PSCL3 PREFETCHES SAME FILL-ORIGIN LEVEL: 0 DIFFERENT FILL-ORIGIN LEVEL: 0

PSCL2 TOTAL     ACCESS:       4970  HIT:       4849  MISS:        121  HIT %:    97.5654  MISS %:    2.43461   MPKI: 0.00242
PSCL2 LOAD TRANSLATION ACCESS:       4418  HIT:       4297  MISS:        121  HIT %:    97.2612  MISS %:     2.7388   MPKI: 0.00242
PSCL2 TRANSLATION FROM L1D PREFETCHER ACCESS:        552  HIT:        552  MISS:          0  HIT %:        100  MISS %:          0   MPKI: 0
PSCL2 PREFETCH  REQUESTED:          0  ISSUED:          0  USEFUL:          0  USELESS:          0
PSCL2 USEFUL LOAD PREFETCHES:          0 PREFETCH ISSUED TO LOWER LEVEL:          0  ACCURACY: -nan
PSCL2 TIMELY PREFETCHES:          0 LATE PREFETCHES: 0 DROPPED PREFETCHES: 0
PSCL2 PREFETCHES SAME FILL-ORIGIN LEVEL: 0 DIFFERENT FILL-ORIGIN LEVEL: 0

LLC TOTAL     ACCESS:    1104554  HIT:     830083  MISS:     274471  HIT %:     75.151  MISS %:     24.849   MPKI: 5.48942
LLC LOAD      ACCESS:      78082  HIT:      60852  MISS:      17230  HIT %:    77.9335  MISS %:    22.0665   MPKI: 0.3446
LLC RFO       ACCESS:     210831  HIT:      35054  MISS:     175777  HIT %:    16.6266  MISS %:    83.3734   MPKI: 3.51554
LLC PREFETCH  ACCESS:     595563  HIT:     523201  MISS:      72362  HIT %:    87.8498  MISS %:    12.1502   MPKI: 1.44724
LLC WRITEBACK ACCESS:     218523  HIT:     210497  MISS:       8026  HIT %:    96.3272  MISS %:    3.67284   MPKI: 0.16052
LLC LOAD TRANSLATION ACCESS:       1432  HIT:        414  MISS:       1018  HIT %:    28.9106  MISS %:    71.0894   MPKI: 0.02036
LLC TRANSLATION FROM L1D PREFETCHER ACCESS:        123  HIT:         65  MISS:         58  HIT %:    52.8455  MISS %:    47.1545   MPKI: 0.00116
LLC PREFETCH  REQUESTED:          0  ISSUED:          0  USEFUL:      19467  USELESS:      48529
LLC USEFUL LOAD PREFETCHES:      19467 PREFETCH ISSUED TO LOWER LEVEL:      73160  ACCURACY: 26.6088
LLC TIMELY PREFETCHES:      19467 LATE PREFETCHES: 798 DROPPED PREFETCHES: 0
LLC PREFETCHES SAME FILL-ORIGIN LEVEL: 62824 DIFFERENT FILL-ORIGIN LEVEL: 0
LLC AVERAGE MISS LATENCY: 173.819 cycles
LLC RQ	ACCESS:     290468	FORWARD:          0	MERGED:          0	TO_CACHE:     290468
LLC WQ	ACCESS:     218523	FORWARD:          0	MERGED:          0	TO_CACHE:     218523
LLC PQ	ACCESS:     658498	FORWARD:          0	MERGED:       4581	TO_CACHE:     653917

LLC Dense regions hint to LLC: 0

RAW hits: 1281161
Loads Generated: 11056274
Loads sent to L1D: 9775115
Stores Generated: 6907390
Stores sent to L1D: 6907394
Major fault: 0 Minor fault: 5106
Allocated PAGES: 5106
I-Shadow cache 408 bytes
Touched + WorthPF tables 6144 bytes 
MMA filter 174 bytes 
FNL filter 272 bytes 
TOTAL PREFETCHER STORAGE SIZE: 25174 bytes
CPU 0 L1I next line prefetcher final stats
 All Calls: 1721929
 Critical Calls: 1721929
------------------
Depth Distribution
------------------
depth 0: 0
depth 1: 192410
depth 2: 67474
depth 3: 64483
depth 4: 62861
depth 5: 61363
depth 6: 59628
depth 7: 57592
depth 8: 53540
depth 9: 45414
depth 10: 39301
depth 11: 29924
depth 12: 20988
depth 13: 10649
depth 14: 1965
depth 15: 1899
depth 16: 15
depth 17: 0
depth 18: 0
depth 19: 0
depth 20: 0
depth 21: 0
depth 22: 0
depth 23: 0
depth 24: 0
depth 25: 0
depth 26: 0
depth 27: 0
depth 28: 0
depth 29: 0
Total: 769506
-----------------------------
-----------------------------
	Captured at Filter
-----------------------------
depth 0: 0
depth 1: 13894
depth 2: 362
depth 3: 273
depth 4: 261
depth 5: 259
depth 6: 251
depth 7: 249
depth 8: 230
depth 9: 198
depth 10: 177
depth 11: 145
depth 12: 111
depth 13: 60
depth 14: 13
depth 15: 15
depth 16: 1
depth 17: 0
depth 18: 0
depth 19: 0
depth 20: 0
depth 21: 0
depth 22: 0
depth 23: 0
depth 24: 0
depth 25: 0
depth 26: 0
depth 27: 0
depth 28: 0
depth 29: 0
-----------------------------
-----------------------------
		Lost at Page
-----------------------------
depth 0: 0
depth 1: 25744
depth 2: 2472
depth 3: 3277
depth 4: 4283
depth 5: 5305
depth 6: 6291
depth 7: 7209
depth 8: 7809
depth 9: 7618
depth 10: 7450
depth 11: 6328
depth 12: 4897
depth 13: 2768
depth 14: 568
depth 15: 600
depth 16: 1
depth 17: 0
depth 18: 0
depth 19: 0
depth 20: 0
depth 21: 0
depth 22: 0
depth 23: 0
depth 24: 0
depth 25: 0
depth 26: 0
depth 27: 0
depth 28: 0
depth 29: 0
-----------------------------
-----------------------------
	Lost due to PQ Size
-----------------------------
1441174
-----------------------------
ST read accesses: 706932
ST write accesses: 32644
PT read accesses: 12132726
PT write accesses: 998356
FILTER read accesses: 2424369
FILTER write accesses: 494998
GHR read accesses: 754066
GHR write accesses: 78312
GHR counter read accesses: 9876896
GHR counter write accesses: 850471
ST tag read accesses: 303912259
ST tag write accesses: 20907791

DRAM Statistics
 CHANNEL 0
 RQ ROW_BUFFER_HIT:     114533  ROW_BUFFER_MISS:     151911
 DBUS_CONGESTED:        166
 WQ ROW_BUFFER_HIT:      37220  ROW_BUFFER_MISS:     143134  FULL:          0

 AVG_CONGESTED_CYCLE: 3
 All warmup complete: 2
Channel 0 Bank busy for read cycles: 0
Channel 0 Bank busy for write cycles: 0
Channel 0
Rank 0
0banks busy for read cycles: 52626334
0banks busy for write cycles: 32920
1banks busy for read cycles: 7732824
1banks busy for write cycles: 3966400
2banks busy for read cycles: 2429035
2banks busy for write cycles: 1062116
3banks busy for read cycles: 1089229
3banks busy for write cycles: 517542
4banks busy for read cycles: 326766
4banks busy for write cycles: 290075
5banks busy for read cycles: 237356
5banks busy for write cycles: 260849
6banks busy for read cycles: 269897
6banks busy for write cycles: 280761
7banks busy for read cycles: 286765
7banks busy for write cycles: 432458
8banks busy for read cycles: 865354
8banks busy for write cycles: 1860220

CPU 0 Branch Prediction Accuracy: 98.6631% MPKI: 2.66884 Average ROB Occupancy at Mispredict: 41.9011
Branch types
NOT_BRANCH: 40018632 80.0373%
BRANCH_DIRECT_JUMP: 370859 0.741718%
BRANCH_INDIRECT: 83252 0.166504%
BRANCH_CONDITIONAL: 7877415 15.7548%
BRANCH_DIRECT_CALL: 722308 1.44462%
BRANCH_INDIRECT_CALL: 101901 0.203802%
BRANCH_RETURN: 825352 1.6507%
BRANCH_OTHER: 0 0%

DRAM PAGES: 1048576
Allocated PAGES: 5106
