
*** ChampSim Multicore Out-of-Order Simulator ***

Warmup Instructions: 50000000
Simulation Instructions: 50000000
Number of CPUs: 1
LLC sets: 2048
LLC ways: 16
Off-chip DRAM Size: 4096 MB Channels: 1 Width: 64-bit Data Rate: 6400 MT/s
CPU 0 runs ../IPC-traces//client_004.champsimtrace.xz
.xz
NUM_OF_IPS_IN_CRITICAL_IP_TRAINING: 64
NUM_OF_CRITICAL_IP_TRAINING_TABLE_WAYS: 2
NUM_OF_CRITICAL_IP_TRAINING_TABLE_SETS: 32
WOBBLY_CRITICAL_IP_CACHE_SETS: 32
WOBBLY_CRITICAL_IP_CACHE_WAYS: 4
BTB has LRU replacement policy
ITLB has LRU replacement policy
DTLB has LRU replacement policy
STLB has LRU replacement policy
CPU 0 L1I next line prefetcher
L1I has LRU replacement policy
IP Table Entries: 64
L1D has LRU replacement policy
IP_Table L2 entries: 64
Initialize SRRIP state for L2C
Initialize DRRIP state for LLC
Heartbeat CPU 0 instructions: 10000000 cycles: 3024197 heartbeat IPC: 3.30666 cumulative IPC: 3.30666 (Simulation time: 0 hr 3 min 37 sec) 
Heartbeat CPU 0 instructions: 20000001 cycles: 5874182 heartbeat IPC: 3.50879 cumulative IPC: 3.40473 (Simulation time: 0 hr 6 min 17 sec) 
Heartbeat CPU 0 instructions: 30000001 cycles: 8873236 heartbeat IPC: 3.33438 cumulative IPC: 3.38095 (Simulation time: 0 hr 8 min 48 sec) 
Heartbeat CPU 0 instructions: 40000001 cycles: 11865788 heartbeat IPC: 3.34163 cumulative IPC: 3.37104 (Simulation time: 0 hr 11 min 13 sec) 
Heartbeat CPU 0 instructions: 50000002 cycles: 14858353 heartbeat IPC: 3.34162 cumulative IPC: 3.36511 (Simulation time: 0 hr 13 min 35 sec) 

Warmup complete CPU 0 instructions: 50000002 cycles: 14858353 (Simulation time: 0 hr 13 min 35 sec) 

% increase in all ip prefetch 456.832
% increase in all ip prefetch -3.2883
Heartbeat CPU 0 instructions: 60000000 cycles: 30959851 heartbeat IPC: 0.62106 cumulative IPC: 0.62106 (Simulation time: 0 hr 15 min 46 sec) 
Heartbeat CPU 0 instructions: 70000001 cycles: 47880228 heartbeat IPC: 0.591003 cumulative IPC: 0.605659 (Simulation time: 0 hr 18 min 2 sec) 
Heartbeat CPU 0 instructions: 80000000 cycles: 65041154 heartbeat IPC: 0.582719 cumulative IPC: 0.597814 (Simulation time: 0 hr 20 min 16 sec) 
Heartbeat CPU 0 instructions: 90000000 cycles: 81494556 heartbeat IPC: 0.607777 cumulative IPC: 0.600274 (Simulation time: 0 hr 22 min 28 sec) 
Heartbeat CPU 0 instructions: 100000002 cycles: 97413483 heartbeat IPC: 0.628183 cumulative IPC: 0.605656 (Simulation time: 0 hr 24 min 28 sec) 
Finished CPU 0 instructions: 50000000 cycles: 82555130 cumulative IPC: 0.605656 (Simulation time: 0 hr 24 min 28 sec) 

ChampSim completed all CPUs

Region of Interest Statistics

CPU 0 cumulative IPC: 0.605656 instructions: 50000000 cycles: 82555130

CPU 0 Average Load ROB stall cycles: 6.63316e+06
CPU 0 Fraction of times ROB stalled by Loads: 11.4946
CPU 0 Percentage of Load stall cycles in Total stall cycles: 9.43953e+07
 Total stall cycles: 49051180
 Total load stall cycles: 46302012439758
CPU 0 NUM of IPS identified critical: 22
CPU 0 Num of Load IPs stalling ROB: 17131
Threshold modification factor: -1
Max PIST entries: 64
Min PIST entries: 0
Avg PIST entries: 31.93
Trouble in retire width: 0.705234
MaC = Marked as critical.
lt_50_percent_before_Mac: 15
gt_90_percent_before_Mac: 0
gt_75_percent_before_Mac: 2
gt_50_percent_before_Mac: 5
stall_proportion_bin_same_before_after: 0
stall_proportion_bin_lower_before_after: 0
stall_proportion_bin_upper_before_after: 0
average_stall_proportion_before: 0.20208
average_stall_proportion_after: 0.192483
Critical IP stalls, total frequency: 40438
Non-critical IP stalls, total frequency: 709533
Critical_IP_ROB_Stalls_Bucket_0: 18956
Non-critical_IP_ROB_Stalls_Bucket_0: 625439
Critical_IP_ROB_Stalls_Bucket_1: 14026
Non-critical_IP_ROB_Stalls_Bucket_1: 103136
Critical_IP_ROB_Stalls_Bucket_2: 3210
Non-critical_IP_ROB_Stalls_Bucket_2: 22534
Critical_IP_ROB_Stalls_Bucket_3: 1269
Non-critical_IP_ROB_Stalls_Bucket_3: 5441
Critical_IP_ROB_Stalls_Bucket_4: 658
Non-critical_IP_ROB_Stalls_Bucket_4: 2142
Critical_IP_ROB_Stalls_Bucket_5: 890
Non-critical_IP_ROB_Stalls_Bucket_5: 1171
Critical_IP_ROB_Stalls_Bucket_6: 1429
Non-critical_IP_ROB_Stalls_Bucket_6: 2065
0 => IPs accounting for >50 percent of stalls, 1 => 55, 2 => 60, 3 => 65 and so on till 90.
percent50: 50.0139 num IPs:453
percent55: 55.0072 num IPs:609
percent60: 60.0022 num IPs:815
percent65: 65.0073 num IPs:1081
percent70: 70.0114 num IPs:1429
percent75: 75.0055 num IPs:1894
percent80: 80.0043 num IPs:2511
percent85: 85.0004 num IPs:3373
percent90: 90.0028 num IPs:4650
Critical_ROB_Stalls_Percent_0_Bucket_0: 298333
Non-critical_ROB_Stalls_Percent_0_Bucket_0: 346062
Critical_ROB_Stalls_Percent_0_Bucket_1: 57313
Non-critical_ROB_Stalls_Percent_0_Bucket_1: 59849
Critical_ROB_Stalls_Percent_0_Bucket_2: 12078
Non-critical_ROB_Stalls_Percent_0_Bucket_2: 13666
Critical_ROB_Stalls_Percent_0_Bucket_3: 3002
Non-critical_ROB_Stalls_Percent_0_Bucket_3: 3708
Critical_ROB_Stalls_Percent_0_Bucket_4: 1343
Non-critical_ROB_Stalls_Percent_0_Bucket_4: 1457
Critical_ROB_Stalls_Percent_0_Bucket_5: 1224
Non-critical_ROB_Stalls_Percent_0_Bucket_5: 837
Critical_ROB_Stalls_Percent_0_Bucket_6: 1797
Non-critical_ROB_Stalls_Percent_0_Bucket_6: 1697
Critical_ROB_Stalls_Percent_1_Bucket_0: 327036
Non-critical_ROB_Stalls_Percent_1_Bucket_0: 317359
Critical_ROB_Stalls_Percent_1_Bucket_1: 63884
Non-critical_ROB_Stalls_Percent_1_Bucket_1: 53278
Critical_ROB_Stalls_Percent_1_Bucket_2: 13364
Non-critical_ROB_Stalls_Percent_1_Bucket_2: 12380
Critical_ROB_Stalls_Percent_1_Bucket_3: 3469
Non-critical_ROB_Stalls_Percent_1_Bucket_3: 3241
Critical_ROB_Stalls_Percent_1_Bucket_4: 1497
Non-critical_ROB_Stalls_Percent_1_Bucket_4: 1303
Critical_ROB_Stalls_Percent_1_Bucket_5: 1302
Non-critical_ROB_Stalls_Percent_1_Bucket_5: 759
Critical_ROB_Stalls_Percent_1_Bucket_6: 1986
Non-critical_ROB_Stalls_Percent_1_Bucket_6: 1508
Critical_ROB_Stalls_Percent_2_Bucket_0: 356954
Non-critical_ROB_Stalls_Percent_2_Bucket_0: 287441
Critical_ROB_Stalls_Percent_2_Bucket_1: 69105
Non-critical_ROB_Stalls_Percent_2_Bucket_1: 48057
Critical_ROB_Stalls_Percent_2_Bucket_2: 14733
Non-critical_ROB_Stalls_Percent_2_Bucket_2: 11011
Critical_ROB_Stalls_Percent_2_Bucket_3: 3800
Non-critical_ROB_Stalls_Percent_2_Bucket_3: 2910
Critical_ROB_Stalls_Percent_2_Bucket_4: 1664
Non-critical_ROB_Stalls_Percent_2_Bucket_4: 1136
Critical_ROB_Stalls_Percent_2_Bucket_5: 1445
Non-critical_ROB_Stalls_Percent_2_Bucket_5: 616
Critical_ROB_Stalls_Percent_2_Bucket_6: 2298
Non-critical_ROB_Stalls_Percent_2_Bucket_6: 1196
Critical_ROB_Stalls_Percent_3_Bucket_0: 386565
Non-critical_ROB_Stalls_Percent_3_Bucket_0: 257830
Critical_ROB_Stalls_Percent_3_Bucket_1: 75207
Non-critical_ROB_Stalls_Percent_3_Bucket_1: 41955
Critical_ROB_Stalls_Percent_3_Bucket_2: 15744
Non-critical_ROB_Stalls_Percent_3_Bucket_2: 10000
Critical_ROB_Stalls_Percent_3_Bucket_3: 4049
Non-critical_ROB_Stalls_Percent_3_Bucket_3: 2661
Critical_ROB_Stalls_Percent_3_Bucket_4: 1854
Non-critical_ROB_Stalls_Percent_3_Bucket_4: 946
Critical_ROB_Stalls_Percent_3_Bucket_5: 1572
Non-critical_ROB_Stalls_Percent_3_Bucket_5: 489
Critical_ROB_Stalls_Percent_3_Bucket_6: 2544
Non-critical_ROB_Stalls_Percent_3_Bucket_6: 950
Critical_ROB_Stalls_Percent_4_Bucket_0: 416765
Non-critical_ROB_Stalls_Percent_4_Bucket_0: 227630
Critical_ROB_Stalls_Percent_4_Bucket_1: 80673
Non-critical_ROB_Stalls_Percent_4_Bucket_1: 36489
Critical_ROB_Stalls_Percent_4_Bucket_2: 17121
Non-critical_ROB_Stalls_Percent_4_Bucket_2: 8623
Critical_ROB_Stalls_Percent_4_Bucket_3: 4354
Non-critical_ROB_Stalls_Percent_4_Bucket_3: 2356
Critical_ROB_Stalls_Percent_4_Bucket_4: 1964
Non-critical_ROB_Stalls_Percent_4_Bucket_4: 836
Critical_ROB_Stalls_Percent_4_Bucket_5: 1611
Non-critical_ROB_Stalls_Percent_4_Bucket_5: 450
Critical_ROB_Stalls_Percent_4_Bucket_6: 2576
Non-critical_ROB_Stalls_Percent_4_Bucket_6: 918
Critical_ROB_Stalls_Percent_5_Bucket_0: 445868
Non-critical_ROB_Stalls_Percent_5_Bucket_0: 198527
Critical_ROB_Stalls_Percent_5_Bucket_1: 87000
Non-critical_ROB_Stalls_Percent_5_Bucket_1: 30162
Critical_ROB_Stalls_Percent_5_Bucket_2: 18567
Non-critical_ROB_Stalls_Percent_5_Bucket_2: 7177
Critical_ROB_Stalls_Percent_5_Bucket_3: 4682
Non-critical_ROB_Stalls_Percent_5_Bucket_3: 2028
Critical_ROB_Stalls_Percent_5_Bucket_4: 2078
Non-critical_ROB_Stalls_Percent_5_Bucket_4: 722
Critical_ROB_Stalls_Percent_5_Bucket_5: 1671
Non-critical_ROB_Stalls_Percent_5_Bucket_5: 390
Critical_ROB_Stalls_Percent_5_Bucket_6: 2653
Non-critical_ROB_Stalls_Percent_5_Bucket_6: 841
Critical_ROB_Stalls_Percent_6_Bucket_0: 476270
Non-critical_ROB_Stalls_Percent_6_Bucket_0: 168125
Critical_ROB_Stalls_Percent_6_Bucket_1: 92134
Non-critical_ROB_Stalls_Percent_6_Bucket_1: 25028
Critical_ROB_Stalls_Percent_6_Bucket_2: 19770
Non-critical_ROB_Stalls_Percent_6_Bucket_2: 5974
Critical_ROB_Stalls_Percent_6_Bucket_3: 5029
Non-critical_ROB_Stalls_Percent_6_Bucket_3: 1681
Critical_ROB_Stalls_Percent_6_Bucket_4: 2194
Non-critical_ROB_Stalls_Percent_6_Bucket_4: 606
Critical_ROB_Stalls_Percent_6_Bucket_5: 1756
Non-critical_ROB_Stalls_Percent_6_Bucket_5: 305
Critical_ROB_Stalls_Percent_6_Bucket_6: 2854
Non-critical_ROB_Stalls_Percent_6_Bucket_6: 640
Critical_ROB_Stalls_Percent_7_Bucket_0: 506381
Non-critical_ROB_Stalls_Percent_7_Bucket_0: 138014
Critical_ROB_Stalls_Percent_7_Bucket_1: 97505
Non-critical_ROB_Stalls_Percent_7_Bucket_1: 19657
Critical_ROB_Stalls_Percent_7_Bucket_2: 20983
Non-critical_ROB_Stalls_Percent_7_Bucket_2: 4761
Critical_ROB_Stalls_Percent_7_Bucket_3: 5455
Non-critical_ROB_Stalls_Percent_7_Bucket_3: 1255
Critical_ROB_Stalls_Percent_7_Bucket_4: 2317
Non-critical_ROB_Stalls_Percent_7_Bucket_4: 483
Critical_ROB_Stalls_Percent_7_Bucket_5: 1841
Non-critical_ROB_Stalls_Percent_7_Bucket_5: 220
Critical_ROB_Stalls_Percent_7_Bucket_6: 2993
Non-critical_ROB_Stalls_Percent_7_Bucket_6: 501
Critical_ROB_Stalls_Percent_8_Bucket_0: 536905
Non-critical_ROB_Stalls_Percent_8_Bucket_0: 107490
Critical_ROB_Stalls_Percent_8_Bucket_1: 102665
Non-critical_ROB_Stalls_Percent_8_Bucket_1: 14497
Critical_ROB_Stalls_Percent_8_Bucket_2: 22240
Non-critical_ROB_Stalls_Percent_8_Bucket_2: 3504
Critical_ROB_Stalls_Percent_8_Bucket_3: 5760
Non-critical_ROB_Stalls_Percent_8_Bucket_3: 950
Critical_ROB_Stalls_Percent_8_Bucket_4: 2446
Non-critical_ROB_Stalls_Percent_8_Bucket_4: 354
Critical_ROB_Stalls_Percent_8_Bucket_5: 1893
Non-critical_ROB_Stalls_Percent_8_Bucket_5: 168
Critical_ROB_Stalls_Percent_8_Bucket_6: 3088
Non-critical_ROB_Stalls_Percent_8_Bucket_6: 406
Average ROB occupancy Load Stall Begin: 31.4803
Average ROB occupancy Load Stall End: 35.1135
Min ROB occupancy Load Stall Begin: 1
Max ROB occupancy Load Stall Begin: 351
Min ROB occupancy Load Stall End: 1
Max ROB occupancy Load Stall End: 352
Average ROB occupancy Critical Load Stall Begin: 73.1615
Average ROB occupancy Critical Load Stall End: 77.7257
Min ROB occupancy Critical Load Stall Begin: 2
Max ROB occupancy Critical Load Stall Begin: 351
Min ROB occupancy Critical Load Stall End: 2
Max ROB occupancy Critical Load Stall End: 352
 ROB Load Stall Begin Bucket Count 0: 673920
 ROB Load Stall End Bucket Count 0: 644395
 ROB Critical Load Stall Begin Bucket Count 0: 17667
 ROB Critical Load Stall End Bucket Count 0: 10785
 ROB Load Stall Begin Bucket Count 1: 93441
 ROB Load Stall End Bucket Count 1: 117162
 ROB Critical Load Stall Begin Bucket Count 1: 3714
 ROB Critical Load Stall End Bucket Count 1: 10312
 ROB Load Stall Begin Bucket Count 2: 21420
 ROB Load Stall End Bucket Count 2: 25744
 ROB Critical Load Stall Begin Bucket Count 2: 1556
 ROB Critical Load Stall End Bucket Count 2: 1747
 ROB Load Stall Begin Bucket Count 3: 5741
 ROB Load Stall End Bucket Count 3: 6710
 ROB Critical Load Stall Begin Bucket Count 3: 595
 ROB Critical Load Stall End Bucket Count 3: 650
 ROB Load Stall Begin Bucket Count 4: 2581
 ROB Load Stall End Bucket Count 4: 2800
 ROB Critical Load Stall Begin Bucket Count 4: 426
 ROB Critical Load Stall End Bucket Count 4: 414
 ROB Load Stall Begin Bucket Count 5: 1997
 ROB Load Stall End Bucket Count 5: 2061
 ROB Critical Load Stall Begin Bucket Count 5: 645
 ROB Critical Load Stall End Bucket Count 5: 622
 ROB Load Stall Begin Bucket Count 6: 3266
 ROB Load Stall End Bucket Count 6: 3494
 ROB Critical Load Stall Begin Bucket Count 6: 999
 ROB Critical Load Stall End Bucket Count 6: 1072
PIST Tag Read Accesses: 201044
PIST Read Accesses: 100522
PIST Tag Write Accesses: 201044
PIST Write Accesses: 100522
Criticality detector called times: 325776
Max global_stall_cycles_count: 343428
Threshold Modified: 1 times, factor: -1
ITLB TOTAL     ACCESS:    9143486  HIT:    9048768  MISS:      94718  HIT %:    98.9641  MISS %:    1.03591   MPKI: 1.89436
ITLB LOAD TRANSLATION ACCESS:    8557275  HIT:    8507817  MISS:      49458  HIT %:     99.422  MISS %:   0.577964   MPKI: 0.98916
ITLB TRANSLATION FROM L1D PREFETCHER ACCESS:     586211  HIT:     540951  MISS:      45260  HIT %:    92.2792  MISS %:    7.72077   MPKI: 0.9052
ITLB PREFETCH  REQUESTED:          0  ISSUED:          0  USEFUL:      34685  USELESS:      10576
ITLB USEFUL LOAD PREFETCHES:      34685 PREFETCH ISSUED TO LOWER LEVEL:          0  ACCURACY: inf
ITLB TIMELY PREFETCHES:      34685 LATE PREFETCHES: 99 DROPPED PREFETCHES: 81
ITLB PREFETCHES SAME FILL-ORIGIN LEVEL: 0 DIFFERENT FILL-ORIGIN LEVEL: 0
ITLB AVERAGE MISS LATENCY: 57848.3 cycles
ITLB RQ	ACCESS:   11320289	FORWARD:          0	MERGED:    2163027	TO_CACHE:    9157262

DTLB TOTAL     ACCESS:   11892162  HIT:   11699126  MISS:     193036  HIT %:    98.3768  MISS %:    1.62322   MPKI: 3.86072
DTLB LOAD TRANSLATION ACCESS:   11892162  HIT:   11699126  MISS:     193036  HIT %:    98.3768  MISS %:    1.62322   MPKI: 3.86072
DTLB PREFETCH  REQUESTED:          0  ISSUED:          0  USEFUL:          0  USELESS:          0
DTLB USEFUL LOAD PREFETCHES:          0 PREFETCH ISSUED TO LOWER LEVEL:          0  ACCURACY: -nan
DTLB TIMELY PREFETCHES:          0 LATE PREFETCHES: 0 DROPPED PREFETCHES: 0
DTLB PREFETCHES SAME FILL-ORIGIN LEVEL: 0 DIFFERENT FILL-ORIGIN LEVEL: 0
DTLB AVERAGE MISS LATENCY: 10.4908 cycles
DTLB RQ	ACCESS:   14400615	FORWARD:          0	MERGED:    2498204	TO_CACHE:   11902411

STLB TOTAL     ACCESS:     818941  HIT:     814526  MISS:       4415  HIT %:    99.4609  MISS %:   0.539111   MPKI: 0.0883
STLB LOAD TRANSLATION ACCESS:     242395  HIT:     238607  MISS:       3788  HIT %:    98.4373  MISS %:    1.56274   MPKI: 0.07576
STLB TRANSLATION FROM L1D PREFETCHER ACCESS:     576546  HIT:     575919  MISS:        627  HIT %:    99.8912  MISS %:   0.108751   MPKI: 0.01254
STLB PREFETCH  REQUESTED:          0  ISSUED:          0  USEFUL:        512  USELESS:        143
STLB USEFUL LOAD PREFETCHES:        512 PREFETCH ISSUED TO LOWER LEVEL:          0  ACCURACY: inf
STLB TIMELY PREFETCHES:        512 LATE PREFETCHES: 0 DROPPED PREFETCHES: 81
STLB PREFETCHES SAME FILL-ORIGIN LEVEL: 0 DIFFERENT FILL-ORIGIN LEVEL: 0
STLB AVERAGE MISS LATENCY: 105.311 cycles
STLB RQ	ACCESS:     979656	FORWARD:          0	MERGED:     160634	TO_CACHE:     819022

STLB Hit, L1D data hit: 0
STLB Hit, L2C data hit: 0
STLB Hit, LLC data hit: 0
STLB Hit, LLC data miss: 0
STLB STLB hints to L2: 0
L1D TOTAL     ACCESS:   14803402  HIT:   14081953  MISS:     721449  HIT %:    95.1265  MISS %:    4.87354   MPKI: 14.429
L1D LOAD      ACCESS:    9299108  HIT:    8899419  MISS:     399689  HIT %:    95.7019  MISS %:    4.29814   MPKI: 7.99378
L1D RFO       ACCESS:    4829901  HIT:    4700428  MISS:     129473  HIT %:    97.3193  MISS %:    2.68066   MPKI: 2.58946
L1D PREFETCH  ACCESS:     674393  HIT:     482106  MISS:     192287  HIT %:    71.4874  MISS %:    28.5126   MPKI: 3.84574
L1D PREFETCH  REQUESTED:    1383972  ISSUED:    1383935  USEFUL:      62844  USELESS:     129451
L1D USEFUL LOAD PREFETCHES:      62844 PREFETCH ISSUED TO LOWER LEVEL:     196885  ACCURACY: 31.9191
L1D TIMELY PREFETCHES:      62844 LATE PREFETCHES: 4320 DROPPED PREFETCHES: 0
L1D PREFETCHES SAME FILL-ORIGIN LEVEL: 196885 DIFFERENT FILL-ORIGIN LEVEL: 0
L1D AVERAGE MISS LATENCY: 363168 cycles
L1D RQ	ACCESS:   13206095	FORWARD:          0	MERGED:    3781555	TO_CACHE:    9327516
L1D WQ	ACCESS:    5238055	FORWARD:      97317	MERGED:     164956	TO_CACHE:    5073099
L1D PQ	ACCESS:     692114	FORWARD:          0	MERGED:          0	TO_CACHE:     691821

L1D UNIQUE REGIONS ACCESSED: 0
L1D REGIONS CONFLICTS: 0
L1D Cross Page Prefetch Requests: 0
L1D Same Page Prefetch Requests: 1051595
L1D ROI Sum of L1D PQ occupancy: 8914757
L1D PREFETCHES PUSHED FROM L2C: 0
L1I TOTAL     ACCESS:   11241104  HIT:   10354553  MISS:     886551  HIT %:    92.1133  MISS %:    7.88669   MPKI: 17.731
L1I LOAD      ACCESS:    9789468  HIT:    9595675  MISS:     193793  HIT %:    98.0204  MISS %:    1.97961   MPKI: 3.87586
L1I PREFETCH  ACCESS:    1451636  HIT:     758878  MISS:     692758  HIT %:    52.2774  MISS %:    47.7226   MPKI: 13.8552
L1I PREFETCH  REQUESTED:    1587536  ISSUED:    1585750  USEFUL:     422227  USELESS:     270528
L1I USEFUL LOAD PREFETCHES:     422227 PREFETCH ISSUED TO LOWER LEVEL:     710036  ACCURACY: 59.4656
L1I TIMELY PREFETCHES:     422227 LATE PREFETCHES: 17278 DROPPED PREFETCHES: 159
L1I PREFETCHES SAME FILL-ORIGIN LEVEL: 710036 DIFFERENT FILL-ORIGIN LEVEL: 0
L1I AVERAGE MISS LATENCY: 1.11043e+06 cycles
L1I RQ	ACCESS:   14422635	FORWARD:          0	MERGED:    4615044	TO_CACHE:    9807591
L1I PQ	ACCESS:    1585750	FORWARD:          0	MERGED:      73052	TO_CACHE:    1512698

BTB TOTAL     ACCESS:    7750112  HIT:    6953064  MISS:     797048  HIT %:    89.7157  MISS %:    10.2843   MPKI: 15.941
BTB BRANCH_DIRECT_JUMP	ACCESS:     644555  HIT:     617941  MISS:      26614
BTB BRANCH_INDIRECT	ACCESS:     201946  HIT:     110721  MISS:      91225
BTB BRANCH_CONDITIONAL	ACCESS:    4875062  HIT:    4805966  MISS:      69096
BTB BRANCH_DIRECT_CALL	ACCESS:     564821  HIT:     520817  MISS:      44004
BTB BRANCH_INDIRECT_CALL	ACCESS:     445012  HIT:     287828  MISS:     157184
BTB BRANCH_RETURN	ACCESS:    1018716  HIT:     609791  MISS:     408925
BTB BRANCH_OTHER ACCESS:          0  HIT:          0  MISS:          0

L2C TOTAL     ACCESS:    2282439  HIT:    1897364  MISS:     385075  HIT %:    83.1288  MISS %:    16.8712   MPKI: 7.7015
L2C LOAD      ACCESS:     571868  HIT:     487549  MISS:      84319  HIT %:    85.2555  MISS %:    14.7445   MPKI: 1.68638
L2C DATA LOAD MPKI: 0.91694
L2C INSTRUCTION LOAD MPKI: 0.76944
L2C RFO       ACCESS:     129190  HIT:      46664  MISS:      82526  HIT %:    36.1204  MISS %:    63.8796   MPKI: 1.65052
L2C PREFETCH  ACCESS:    1375170  HIT:    1169656  MISS:     205514  HIT %:    85.0554  MISS %:    14.9446   MPKI: 4.11028
L2C DATA PREFETCH MPKI: 1.96446
L2C INSTRUCTION PREFETCH MPKI: 2.14582
L2C WRITEBACK ACCESS:     201453  HIT:     191462  MISS:       9991  HIT %:    95.0405  MISS %:    4.95947   MPKI: 0.19982
L2C LOAD TRANSLATION ACCESS:       4024  HIT:       1758  MISS:       2266  HIT %:    43.6879  MISS %:    56.3121   MPKI: 0.04532
L2C TRANSLATION FROM L1D PREFETCHER ACCESS:        734  HIT:        275  MISS:        459  HIT %:    37.4659  MISS %:    62.5341   MPKI: 0.00918
L2C PREFETCH  REQUESTED:     883044  ISSUED:     883044  USEFUL:      30531  USELESS:     174799
L2C USEFUL LOAD PREFETCHES:      30531 PREFETCH ISSUED TO LOWER LEVEL:     206872  ACCURACY: 14.7584
L2C TIMELY PREFETCHES:      30531 LATE PREFETCHES: 1358 DROPPED PREFETCHES: 0
L2C PREFETCHES SAME FILL-ORIGIN LEVEL: 75648 DIFFERENT FILL-ORIGIN LEVEL: 0
L2C AVERAGE MISS LATENCY: 82.1748 cycles
L2C RQ	ACCESS:     705837	FORWARD:          0	MERGED:          0	TO_CACHE:     705816
L2C WQ	ACCESS:     201453	FORWARD:         34	MERGED:          0	TO_CACHE:     201453
L2C PQ	ACCESS:    1789965	FORWARD:          0	MERGED:     407663	TO_CACHE:    1382289

L2C Instructions Evicting Data 87567
L2C Translations Evicting Data 1662
L2C Data Evicting Data 141735
L2C Instructions Evicting Instructions 57144
L2C Translations Evicting Instructions 1031
L2C Data Evicting Instructions 83306
L2C Instructions Evicting Translations 1052
L2C Translations Evicting Translations 32
L2C Data Evicting Translations 1555
L2C Dense regions hint from L2: 0
PSCL5 TOTAL     ACCESS:       4496  HIT:       4496  MISS:          0  HIT %:        100  MISS %:          0   MPKI: 0
PSCL5 LOAD TRANSLATION ACCESS:       3788  HIT:       3788  MISS:          0  HIT %:        100  MISS %:          0   MPKI: 0
PSCL5 TRANSLATION FROM L1D PREFETCHER ACCESS:        708  HIT:        708  MISS:          0  HIT %:        100  MISS %:          0   MPKI: 0
PSCL5 PREFETCH  REQUESTED:          0  ISSUED:          0  USEFUL:          0  USELESS:          0
PSCL5 USEFUL LOAD PREFETCHES:          0 PREFETCH ISSUED TO LOWER LEVEL:          0  ACCURACY: -nan
PSCL5 TIMELY PREFETCHES:          0 LATE PREFETCHES: 0 DROPPED PREFETCHES: 0
PSCL5 PREFETCHES SAME FILL-ORIGIN LEVEL: 0 DIFFERENT FILL-ORIGIN LEVEL: 0

PSCL4 TOTAL     ACCESS:       4493  HIT:       4492  MISS:          1  HIT %:    99.9777  MISS %:  0.0222568   MPKI: 2e-05
PSCL4 LOAD TRANSLATION ACCESS:       3785  HIT:       3784  MISS:          1  HIT %:    99.9736  MISS %:  0.0264201   MPKI: 2e-05
PSCL4 TRANSLATION FROM L1D PREFETCHER ACCESS:        708  HIT:        708  MISS:          0  HIT %:        100  MISS %:          0   MPKI: 0
PSCL4 PREFETCH  REQUESTED:          0  ISSUED:          0  USEFUL:          0  USELESS:          0
PSCL4 USEFUL LOAD PREFETCHES:          0 PREFETCH ISSUED TO LOWER LEVEL:          0  ACCURACY: -nan
PSCL4 TIMELY PREFETCHES:          0 LATE PREFETCHES: 0 DROPPED PREFETCHES: 0
PSCL4 PREFETCHES SAME FILL-ORIGIN LEVEL: 0 DIFFERENT FILL-ORIGIN LEVEL: 0

PSCL3 TOTAL     ACCESS:       4258  HIT:       4238  MISS:         20  HIT %:    99.5303  MISS %:   0.469704   MPKI: 0.0004
PSCL3 LOAD TRANSLATION ACCESS:       3613  HIT:       3593  MISS:         20  HIT %:    99.4464  MISS %:   0.553557   MPKI: 0.0004
PSCL3 TRANSLATION FROM L1D PREFETCHER ACCESS:        645  HIT:        645  MISS:          0  HIT %:        100  MISS %:          0   MPKI: 0
PSCL3 PREFETCH  REQUESTED:          0  ISSUED:          0  USEFUL:          0  USELESS:          0
PSCL3 USEFUL LOAD PREFETCHES:          0 PREFETCH ISSUED TO LOWER LEVEL:          0  ACCURACY: -nan
PSCL3 TIMELY PREFETCHES:          0 LATE PREFETCHES: 0 DROPPED PREFETCHES: 0
PSCL3 PREFETCHES SAME FILL-ORIGIN LEVEL: 0 DIFFERENT FILL-ORIGIN LEVEL: 0

PSCL2 TOTAL     ACCESS:       4492  HIT:       4254  MISS:        238  HIT %:    94.7017  MISS %:    5.29831   MPKI: 0.00476
PSCL2 LOAD TRANSLATION ACCESS:       3807  HIT:       3569  MISS:        238  HIT %:    93.7484  MISS %:    6.25164   MPKI: 0.00476
PSCL2 TRANSLATION FROM L1D PREFETCHER ACCESS:        685  HIT:        685  MISS:          0  HIT %:        100  MISS %:          0   MPKI: 0
PSCL2 PREFETCH  REQUESTED:          0  ISSUED:          0  USEFUL:          0  USELESS:          0
PSCL2 USEFUL LOAD PREFETCHES:          0 PREFETCH ISSUED TO LOWER LEVEL:          0  ACCURACY: -nan
PSCL2 TIMELY PREFETCHES:          0 LATE PREFETCHES: 0 DROPPED PREFETCHES: 0
PSCL2 PREFETCHES SAME FILL-ORIGIN LEVEL: 0 DIFFERENT FILL-ORIGIN LEVEL: 0

LLC TOTAL     ACCESS:     475113  HIT:     341274  MISS:     133839  HIT %:    71.8301  MISS %:    28.1699   MPKI: 2.67678
LLC LOAD      ACCESS:      83038  HIT:      59881  MISS:      23157  HIT %:    72.1128  MISS %:    27.8872   MPKI: 0.46314
LLC RFO       ACCESS:      82449  HIT:      39275  MISS:      43174  HIT %:    47.6355  MISS %:    52.3645   MPKI: 0.86348
LLC PREFETCH  ACCESS:     206872  HIT:     144513  MISS:      62359  HIT %:    69.8562  MISS %:    30.1438   MPKI: 1.24718
LLC WRITEBACK ACCESS:     100029  HIT:      96151  MISS:       3878  HIT %:    96.1231  MISS %:    3.87688   MPKI: 0.07756
LLC LOAD TRANSLATION ACCESS:       2266  HIT:       1152  MISS:       1114  HIT %:    50.8385  MISS %:    49.1615   MPKI: 0.02228
LLC TRANSLATION FROM L1D PREFETCHER ACCESS:        459  HIT:        302  MISS:        157  HIT %:    65.7952  MISS %:    34.2048   MPKI: 0.00314
LLC PREFETCH  REQUESTED:          0  ISSUED:          0  USEFUL:       5614  USELESS:      56770
LLC USEFUL LOAD PREFETCHES:       5614 PREFETCH ISSUED TO LOWER LEVEL:      62359  ACCURACY: 9.00271
LLC TIMELY PREFETCHES:       5614 LATE PREFETCHES: 0 DROPPED PREFETCHES: 0
LLC PREFETCHES SAME FILL-ORIGIN LEVEL: 0 DIFFERENT FILL-ORIGIN LEVEL: 0
LLC AVERAGE MISS LATENCY: 152.674 cycles
LLC RQ	ACCESS:     168212	FORWARD:          0	MERGED:          0	TO_CACHE:     168212
LLC WQ	ACCESS:     100029	FORWARD:          0	MERGED:          0	TO_CACHE:     100029
LLC PQ	ACCESS:     206872	FORWARD:          0	MERGED:          0	TO_CACHE:     206872

LLC Dense regions hint to LLC: 0

RAW hits: 1003222
Loads Generated: 14209317
Loads sent to L1D: 13206095
Stores Generated: 5238051
Stores sent to L1D: 5238055
Major fault: 0 Minor fault: 4055
Allocated PAGES: 4055
I-Shadow cache 408 bytes
Touched + WorthPF tables 6144 bytes 
MMA filter 174 bytes 
FNL filter 272 bytes 
TOTAL PREFETCHER STORAGE SIZE: 25174 bytes
CPU 0 L1I next line prefetcher final stats

stream: 
stream:times selected: 1454673
stream:pref_filled: 193389
stream:pref_useful: 60946
stream:pref_late: 3780
stream:misses: 24006
stream:misses_by_poll: 0

CS: 
CS:times selected: 90241
CS:pref_filled: 24311
CS:pref_useful: 17811
CS:pref_late: 381
CS:misses: 2372
CS:misses_by_poll: 7

CPLX: 
CPLX:times selected: 1352910
CPLX:pref_filled: 57469
CPLX:pref_useful: 13918
CPLX:pref_late: 487
CPLX:misses: 109361
CPLX:misses_by_poll: 26

NL_L1: 
NL:times selected: 10191
NL:pref_filled: 2051
NL:pref_useful: 690
NL:pref_late: 59
NL:misses: 1319
NL:misses_by_poll: 0

total selections: 2908015
total_filled: 192287
total_useful: 62844
total_late: 5575
total_polluted: 33
total_misses_after_warmup: 428097
conflicts: 2975606
Degree Incremented Times: 0
Degree Decremented Times: 223503

L1 IP Table Write Accesses: 5805815
L1 IP Table Read Accesses: 2830209
L1 RST Write Accesses: 918042
L1 RST Read Accesses: 1836084
L1 CSPT Write Accesses: 918042
L1 CSPT Read Accesses: 1777878
L1 RR Filter Tag Write Accesses: 692151
L1 RR Filter Tag Read Accesses: 35209474
L1 IP Table Tag Write Accesses: 9327516
L1 IP Table Tag Read Accesses: 9327516
L1 RST Tag Write Accesses: 0
L1 RST Tag Read Accesses: 8386039
L1 RR Filter Write Accesses: 0
L1 RR Filter Read Accesses: 1262648
test: 482545
L2 IP Table Read Accesses: 1653377
L2 IP Table Write Accesses: 2284483
L2 IP Table Tag Read Accesses: 1275570
L2 IP Table Tag Write Accesses: 1275570

DRAM Statistics
 CHANNEL 0
 RQ ROW_BUFFER_HIT:      31660  ROW_BUFFER_MISS:      98292
 DBUS_CONGESTED:        141
 WQ ROW_BUFFER_HIT:       7707  ROW_BUFFER_MISS:      39242  FULL:          0

 AVG_CONGESTED_CYCLE: 4
 All warmup complete: 2
Channel 0 Bank busy for read cycles: 0
Channel 0 Bank busy for write cycles: 0
Channel 0
Rank 0
0banks busy for read cycles: 69908759
0banks busy for write cycles: 17106
1banks busy for read cycles: 5011364
1banks busy for write cycles: 2218343
2banks busy for read cycles: 1747636
2banks busy for write cycles: 749751
3banks busy for read cycles: 657398
3banks busy for write cycles: 370826
4banks busy for read cycles: 394742
4banks busy for write cycles: 231558
5banks busy for read cycles: 253694
5banks busy for write cycles: 161549
6banks busy for read cycles: 200926
6banks busy for write cycles: 116805
7banks busy for read cycles: 162393
7banks busy for write cycles: 98826
8banks busy for read cycles: 84470
8banks busy for write cycles: 168985

CPU 0 Branch Prediction Accuracy: 94.1242% MPKI: 11.6089 Average ROB Occupancy at Mispredict: 34.0924
Branch types
NOT_BRANCH: 40121082 80.2422%
BRANCH_DIRECT_JUMP: 644555 1.28911%
BRANCH_INDIRECT: 201946 0.403892%
BRANCH_CONDITIONAL: 7003557 14.0071%
BRANCH_DIRECT_CALL: 564821 1.12964%
BRANCH_INDIRECT_CALL: 445012 0.890024%
BRANCH_RETURN: 1018716 2.03743%
BRANCH_OTHER: 0 0%

DRAM PAGES: 1048576
Allocated PAGES: 4055
