
*** ChampSim Multicore Out-of-Order Simulator ***

Warmup Instructions: 50000000
Simulation Instructions: 50000000
Number of CPUs: 1
LLC sets: 2048
LLC ways: 16
Off-chip DRAM Size: 4096 MB Channels: 1 Width: 64-bit Data Rate: 6400 MT/s
CPU 0 runs ../IPC-traces//client_002.champsimtrace.xz
.xz
NUM_OF_IPS_IN_CRITICAL_IP_TRAINING: 64
NUM_OF_CRITICAL_IP_TRAINING_TABLE_WAYS: 2
NUM_OF_CRITICAL_IP_TRAINING_TABLE_SETS: 32
WOBBLY_CRITICAL_IP_CACHE_SETS: 32
WOBBLY_CRITICAL_IP_CACHE_WAYS: 4
BTB has LRU replacement policy
ITLB has LRU replacement policy
DTLB has LRU replacement policy
STLB has LRU replacement policy
CPU 0 L1I next line prefetcher
L1I has LRU replacement policy
IP Table Entries: 256
L1D has LRU replacement policy
Initialize SRRIP state for L2C
Initialize DRRIP state for LLC
Heartbeat CPU 0 instructions: 10000000 cycles: 2815126 heartbeat IPC: 3.55224 cumulative IPC: 3.55224 (Simulation time: 0 hr 5 min 52 sec) 
Heartbeat CPU 0 instructions: 20000002 cycles: 5649350 heartbeat IPC: 3.5283 cumulative IPC: 3.54023 (Simulation time: 0 hr 11 min 56 sec) 
Heartbeat CPU 0 instructions: 30000002 cycles: 8478968 heartbeat IPC: 3.53405 cumulative IPC: 3.53817 (Simulation time: 0 hr 18 min 24 sec) 
Heartbeat CPU 0 instructions: 40000000 cycles: 11313324 heartbeat IPC: 3.52814 cumulative IPC: 3.53565 (Simulation time: 0 hr 24 min 35 sec) 
Heartbeat CPU 0 instructions: 50000002 cycles: 14134105 heartbeat IPC: 3.54512 cumulative IPC: 3.53754 (Simulation time: 0 hr 30 min 16 sec) 

Warmup complete CPU 0 instructions: 50000002 cycles: 14134105 (Simulation time: 0 hr 30 min 16 sec) 

% increase in all ip prefetch 277.246
% increase in all ip prefetch -2.39641
Heartbeat CPU 0 instructions: 60000001 cycles: 26881176 heartbeat IPC: 0.784494 cumulative IPC: 0.784494 (Simulation time: 0 hr 35 min 43 sec) 
Heartbeat CPU 0 instructions: 70000003 cycles: 39799422 heartbeat IPC: 0.774099 cumulative IPC: 0.779262 (Simulation time: 0 hr 40 min 54 sec) 
Heartbeat CPU 0 instructions: 80000000 cycles: 52479435 heartbeat IPC: 0.788642 cumulative IPC: 0.782364 (Simulation time: 0 hr 45 min 40 sec) 
Heartbeat CPU 0 instructions: 90000001 cycles: 65835738 heartbeat IPC: 0.74871 cumulative IPC: 0.77367 (Simulation time: 0 hr 49 min 45 sec) 
Heartbeat CPU 0 instructions: 100000003 cycles: 78518744 heartbeat IPC: 0.788457 cumulative IPC: 0.776583 (Simulation time: 0 hr 52 min 42 sec) 
Finished CPU 0 instructions: 50000001 cycles: 64384639 cumulative IPC: 0.776583 (Simulation time: 0 hr 52 min 42 sec) 

ChampSim completed all CPUs

Region of Interest Statistics

CPU 0 cumulative IPC: 0.776583 instructions: 50000001 cycles: 64384639

CPU 0 Average Load ROB stall cycles: 1.768e+07
CPU 0 Fraction of times ROB stalled by Loads: 38.231
CPU 0 Percentage of Load stall cycles in Total stall cycles: 2.72057e+08
Issued all: 27011149
Issued LT all: 21349019
rob_not_full_when_issued_lt_all: 20968308
Issued LT one: 16001782
rob_not_full_when_issued_lt_one: 15678328
 Total stall cycles: 51485283
 Total load stall cycles: 140069302278085
CPU 0 NUM of IPS identified critical: 0
CPU 0 Num of Load IPs stalling ROB: 19228
Threshold modification factor: -1
Max PIST entries: 64
Min PIST entries: 0
Avg PIST entries: 32
Trouble in retire width: 0.875376
MaC = Marked as critical.
lt_50_percent_before_Mac: 0
gt_90_percent_before_Mac: 0
gt_75_percent_before_Mac: 0
gt_50_percent_before_Mac: 0
stall_proportion_bin_same_before_after: 0
stall_proportion_bin_lower_before_after: 0
stall_proportion_bin_upper_before_after: 0
average_stall_proportion_before: -nan
average_stall_proportion_after: -nan
Critical IP stalls, total frequency: 0
Non-critical IP stalls, total frequency: 3028835
Total Freq all stalling IPs: 3028835
stat_90_percent_critical_ip_stalls_freq: 2725985
stat_90_percent_non_critical_ip_stalls_freq: 302850
Critical_IP_ROB_Stalls_Bucket_0: 0
Non-critical_IP_ROB_Stalls_Bucket_0: 1662038
Critical_IP_ROB_Stalls_Bucket_1: 0
Non-critical_IP_ROB_Stalls_Bucket_1: 925119
Critical_IP_ROB_Stalls_Bucket_2: 0
Non-critical_IP_ROB_Stalls_Bucket_2: 310957
Critical_IP_ROB_Stalls_Bucket_3: 0
Non-critical_IP_ROB_Stalls_Bucket_3: 79939
Critical_IP_ROB_Stalls_Bucket_4: 0
Non-critical_IP_ROB_Stalls_Bucket_4: 21682
Critical_IP_ROB_Stalls_Bucket_5: 0
Non-critical_IP_ROB_Stalls_Bucket_5: 9184
Critical_IP_ROB_Stalls_Bucket_6: 0
Non-critical_IP_ROB_Stalls_Bucket_6: 19916
0 => IPs accounting for >50 percent of stalls, 1 => 55, 2 => 60, 3 => 65 and so on till 90.
percent50: 50.0021 num IPs:  146
percent55: 55.0069 num IPs: 192
percent60: 60.0486 num IPs: 255
percent65: 65.003 num IPs: 340
percent70: 70.0083 num IPs: 458
percent75: 75.0043 num IPs: 611
percent80: 80.0118 num IPs: 793
percent85: 85.0087 num IPs: 1053
percent90: 90.0012 num IPs: 1606
Critical_ROB_Stalls_Percent_0_Bucket_0: 766696
Non-critical_ROB_Stalls_Percent_0_Bucket_0: 895342
Critical_ROB_Stalls_Percent_0_Bucket_1: 494705
Non-critical_ROB_Stalls_Percent_0_Bucket_1: 430414
Critical_ROB_Stalls_Percent_0_Bucket_2: 179141
Non-critical_ROB_Stalls_Percent_0_Bucket_2: 131816
Critical_ROB_Stalls_Percent_0_Bucket_3: 43286
Non-critical_ROB_Stalls_Percent_0_Bucket_3: 36653
Critical_ROB_Stalls_Percent_0_Bucket_4: 12764
Non-critical_ROB_Stalls_Percent_0_Bucket_4: 8918
Critical_ROB_Stalls_Percent_0_Bucket_5: 4589
Non-critical_ROB_Stalls_Percent_0_Bucket_5: 4595
Critical_ROB_Stalls_Percent_0_Bucket_6: 13299
Non-critical_ROB_Stalls_Percent_0_Bucket_6: 6617
Critical_ROB_Stalls_Percent_1_Bucket_0: 843661
Non-critical_ROB_Stalls_Percent_1_Bucket_0: 818377
Critical_ROB_Stalls_Percent_1_Bucket_1: 542741
Non-critical_ROB_Stalls_Percent_1_Bucket_1: 382378
Critical_ROB_Stalls_Percent_1_Bucket_2: 200107
Non-critical_ROB_Stalls_Percent_1_Bucket_2: 110850
Critical_ROB_Stalls_Percent_1_Bucket_3: 46804
Non-critical_ROB_Stalls_Percent_1_Bucket_3: 33135
Critical_ROB_Stalls_Percent_1_Bucket_4: 13894
Non-critical_ROB_Stalls_Percent_1_Bucket_4: 7788
Critical_ROB_Stalls_Percent_1_Bucket_5: 5253
Non-critical_ROB_Stalls_Percent_1_Bucket_5: 3931
Critical_ROB_Stalls_Percent_1_Bucket_6: 13607
Non-critical_ROB_Stalls_Percent_1_Bucket_6: 6309
Critical_ROB_Stalls_Percent_2_Bucket_0: 919058
Non-critical_ROB_Stalls_Percent_2_Bucket_0: 742980
Critical_ROB_Stalls_Percent_2_Bucket_1: 590894
Non-critical_ROB_Stalls_Percent_2_Bucket_1: 334225
Critical_ROB_Stalls_Percent_2_Bucket_2: 220369
Non-critical_ROB_Stalls_Percent_2_Bucket_2: 90588
Critical_ROB_Stalls_Percent_2_Bucket_3: 54070
Non-critical_ROB_Stalls_Percent_2_Bucket_3: 25869
Critical_ROB_Stalls_Percent_2_Bucket_4: 14993
Non-critical_ROB_Stalls_Percent_2_Bucket_4: 6689
Critical_ROB_Stalls_Percent_2_Bucket_5: 5608
Non-critical_ROB_Stalls_Percent_2_Bucket_5: 3576
Critical_ROB_Stalls_Percent_2_Bucket_6: 13782
Non-critical_ROB_Stalls_Percent_2_Bucket_6: 6134
Critical_ROB_Stalls_Percent_3_Bucket_0: 988545
Non-critical_ROB_Stalls_Percent_3_Bucket_0: 673493
Critical_ROB_Stalls_Percent_3_Bucket_1: 651330
Non-critical_ROB_Stalls_Percent_3_Bucket_1: 273789
Critical_ROB_Stalls_Percent_3_Bucket_2: 234686
Non-critical_ROB_Stalls_Percent_3_Bucket_2: 76271
Critical_ROB_Stalls_Percent_3_Bucket_3: 57873
Non-critical_ROB_Stalls_Percent_3_Bucket_3: 22066
Critical_ROB_Stalls_Percent_3_Bucket_4: 16216
Non-critical_ROB_Stalls_Percent_3_Bucket_4: 5466
Critical_ROB_Stalls_Percent_3_Bucket_5: 6179
Non-critical_ROB_Stalls_Percent_3_Bucket_5: 3005
Critical_ROB_Stalls_Percent_3_Bucket_6: 14005
Non-critical_ROB_Stalls_Percent_3_Bucket_6: 5911
Critical_ROB_Stalls_Percent_4_Bucket_0: 1068190
Non-critical_ROB_Stalls_Percent_4_Bucket_0: 593848
Critical_ROB_Stalls_Percent_4_Bucket_1: 705321
Non-critical_ROB_Stalls_Percent_4_Bucket_1: 219798
Critical_ROB_Stalls_Percent_4_Bucket_2: 248566
Non-critical_ROB_Stalls_Percent_4_Bucket_2: 62391
Critical_ROB_Stalls_Percent_4_Bucket_3: 60358
Non-critical_ROB_Stalls_Percent_4_Bucket_3: 19581
Critical_ROB_Stalls_Percent_4_Bucket_4: 17139
Non-critical_ROB_Stalls_Percent_4_Bucket_4: 4543
Critical_ROB_Stalls_Percent_4_Bucket_5: 6574
Non-critical_ROB_Stalls_Percent_4_Bucket_5: 2610
Critical_ROB_Stalls_Percent_4_Bucket_6: 14288
Non-critical_ROB_Stalls_Percent_4_Bucket_6: 5628
Critical_ROB_Stalls_Percent_5_Bucket_0: 1147758
Non-critical_ROB_Stalls_Percent_5_Bucket_0: 514280
Critical_ROB_Stalls_Percent_5_Bucket_1: 752989
Non-critical_ROB_Stalls_Percent_5_Bucket_1: 172130
Critical_ROB_Stalls_Percent_5_Bucket_2: 263617
Non-critical_ROB_Stalls_Percent_5_Bucket_2: 47340
Critical_ROB_Stalls_Percent_5_Bucket_3: 64780
Non-critical_ROB_Stalls_Percent_5_Bucket_3: 15159
Critical_ROB_Stalls_Percent_5_Bucket_4: 17997
Non-critical_ROB_Stalls_Percent_5_Bucket_4: 3685
Critical_ROB_Stalls_Percent_5_Bucket_5: 7355
Non-critical_ROB_Stalls_Percent_5_Bucket_5: 1829
Critical_ROB_Stalls_Percent_5_Bucket_6: 17260
Non-critical_ROB_Stalls_Percent_5_Bucket_6: 2656
Critical_ROB_Stalls_Percent_6_Bucket_0: 1224054
Non-critical_ROB_Stalls_Percent_6_Bucket_0: 437984
Critical_ROB_Stalls_Percent_6_Bucket_1: 801949
Non-critical_ROB_Stalls_Percent_6_Bucket_1: 123170
Critical_ROB_Stalls_Percent_6_Bucket_2: 281375
Non-critical_ROB_Stalls_Percent_6_Bucket_2: 29582
Critical_ROB_Stalls_Percent_6_Bucket_3: 71432
Non-critical_ROB_Stalls_Percent_6_Bucket_3: 8507
Critical_ROB_Stalls_Percent_6_Bucket_4: 19041
Non-critical_ROB_Stalls_Percent_6_Bucket_4: 2641
Critical_ROB_Stalls_Percent_6_Bucket_5: 7586
Non-critical_ROB_Stalls_Percent_6_Bucket_5: 1598
Critical_ROB_Stalls_Percent_6_Bucket_6: 17990
Non-critical_ROB_Stalls_Percent_6_Bucket_6: 1926
Critical_ROB_Stalls_Percent_7_Bucket_0: 1325219
Non-critical_ROB_Stalls_Percent_7_Bucket_0: 336819
Critical_ROB_Stalls_Percent_7_Bucket_1: 841430
Non-critical_ROB_Stalls_Percent_7_Bucket_1: 83689
Critical_ROB_Stalls_Percent_7_Bucket_2: 288679
Non-critical_ROB_Stalls_Percent_7_Bucket_2: 22278
Critical_ROB_Stalls_Percent_7_Bucket_3: 73401
Non-critical_ROB_Stalls_Percent_7_Bucket_3: 6538
Critical_ROB_Stalls_Percent_7_Bucket_4: 19689
Non-critical_ROB_Stalls_Percent_7_Bucket_4: 1993
Critical_ROB_Stalls_Percent_7_Bucket_5: 8050
Non-critical_ROB_Stalls_Percent_7_Bucket_5: 1134
Critical_ROB_Stalls_Percent_7_Bucket_6: 18303
Non-critical_ROB_Stalls_Percent_7_Bucket_6: 1613
Critical_ROB_Stalls_Percent_8_Bucket_0: 1427300
Non-critical_ROB_Stalls_Percent_8_Bucket_0: 234738
Critical_ROB_Stalls_Percent_8_Bucket_1: 877577
Non-critical_ROB_Stalls_Percent_8_Bucket_1: 47542
Critical_ROB_Stalls_Percent_8_Bucket_2: 297234
Non-critical_ROB_Stalls_Percent_8_Bucket_2: 13723
Critical_ROB_Stalls_Percent_8_Bucket_3: 75793
Non-critical_ROB_Stalls_Percent_8_Bucket_3: 4146
Critical_ROB_Stalls_Percent_8_Bucket_4: 20678
Non-critical_ROB_Stalls_Percent_8_Bucket_4: 1004
Critical_ROB_Stalls_Percent_8_Bucket_5: 8407
Non-critical_ROB_Stalls_Percent_8_Bucket_5: 777
Critical_ROB_Stalls_Percent_8_Bucket_6: 18996
Non-critical_ROB_Stalls_Percent_8_Bucket_6: 920
Average ROB occupancy Load Stall Begin: 49.2258
Average ROB occupancy Load Stall End: 58.6655
Min ROB occupancy Load Stall Begin: 1
Max ROB occupancy Load Stall Begin: 352
Min ROB occupancy Load Stall End: 1
Max ROB occupancy Load Stall End: 352
Average ROB occupancy Critical Load Stall Begin: -nan
Average ROB occupancy Critical Load Stall End: -nan
Min ROB occupancy Critical Load Stall Begin: 400
Max ROB occupancy Critical Load Stall Begin: 0
Min ROB occupancy Critical Load Stall End: 400
Max ROB occupancy Critical Load Stall End: 0
 ROB Load Stall Begin Bucket Count 0: 1972427
 ROB Load Stall End Bucket Count 0: 1662038
 ROB Critical Load Stall Begin Bucket Count 0: 0
 ROB Critical Load Stall End Bucket Count 0: 0
 ROB Load Stall Begin Bucket Count 1: 725491
 ROB Load Stall End Bucket Count 1: 925119
 ROB Critical Load Stall Begin Bucket Count 1: 0
 ROB Critical Load Stall End Bucket Count 1: 0
 ROB Load Stall Begin Bucket Count 2: 230948
 ROB Load Stall End Bucket Count 2: 310957
 ROB Critical Load Stall Begin Bucket Count 2: 0
 ROB Critical Load Stall End Bucket Count 2: 0
 ROB Load Stall Begin Bucket Count 3: 58085
 ROB Load Stall End Bucket Count 3: 79939
 ROB Critical Load Stall Begin Bucket Count 3: 0
 ROB Critical Load Stall End Bucket Count 3: 0
 ROB Load Stall Begin Bucket Count 4: 16104
 ROB Load Stall End Bucket Count 4: 21682
 ROB Critical Load Stall Begin Bucket Count 4: 0
 ROB Critical Load Stall End Bucket Count 4: 0
 ROB Load Stall Begin Bucket Count 5: 7839
 ROB Load Stall End Bucket Count 5: 9184
 ROB Critical Load Stall Begin Bucket Count 5: 0
 ROB Critical Load Stall End Bucket Count 5: 0
 ROB Load Stall Begin Bucket Count 6: 17941
 ROB Load Stall End Bucket Count 6: 19916
 ROB Critical Load Stall Begin Bucket Count 6: 0
 ROB Critical Load Stall End Bucket Count 6: 0
PIST Tag Read Accesses: 3133350
PIST Read Accesses: 1566675
PIST Tag Write Accesses: 3133350
PIST Write Accesses: 1566675
Criticality detector called times: 2837190
Max global_stall_cycles_count: 3014428
Threshold Modified: 1 times, factor: -1
Sturdy critical IP cache stats: 
 Unused entries: 0
CIC Tag Read Accesses: 0
CIC Read Accesses: 0
CIC Tag Write Accesses: 0
CIC Write Accesses: 0
Wobbly critical IP cache stats: 
 Unused entries: 95
CIC Tag Read Accesses: 82624094
CIC Read Accesses: 0
CIC Tag Write Accesses: 5289
CIC Write Accesses: 0
ITLB TOTAL     ACCESS:    9203885  HIT:    9080920  MISS:     122965  HIT %:     98.664  MISS %:    1.33601   MPKI: 2.4593
ITLB LOAD TRANSLATION ACCESS:    8314133  HIT:    8268940  MISS:      45193  HIT %:    99.4564  MISS %:   0.543568   MPKI: 0.90386
ITLB TRANSLATION FROM L1D PREFETCHER ACCESS:     889752  HIT:     811980  MISS:      77772  HIT %:    91.2591  MISS %:    8.74086   MPKI: 1.55544
ITLB PREFETCH  REQUESTED:          0  ISSUED:          0  USEFUL:      66483  USELESS:      11288
ITLB USEFUL LOAD PREFETCHES:      66483 PREFETCH ISSUED TO LOWER LEVEL:          0  ACCURACY: inf
ITLB TIMELY PREFETCHES:      66483 LATE PREFETCHES: 327 DROPPED PREFETCHES: 246
ITLB PREFETCHES SAME FILL-ORIGIN LEVEL: 0 DIFFERENT FILL-ORIGIN LEVEL: 0
ITLB AVERAGE MISS LATENCY: 125710 cycles
ITLB RQ	ACCESS:   12609458	FORWARD:          0	MERGED:    3386769	TO_CACHE:    9222689

DTLB TOTAL     ACCESS:   10063009  HIT:    9904543  MISS:     158466  HIT %:    98.4253  MISS %:    1.57474   MPKI: 3.16932
DTLB LOAD TRANSLATION ACCESS:   10063009  HIT:    9904543  MISS:     158466  HIT %:    98.4253  MISS %:    1.57474   MPKI: 3.16932
DTLB PREFETCH  REQUESTED:          0  ISSUED:          0  USEFUL:          0  USELESS:          0
DTLB USEFUL LOAD PREFETCHES:          0 PREFETCH ISSUED TO LOWER LEVEL:          0  ACCURACY: -nan
DTLB TIMELY PREFETCHES:          0 LATE PREFETCHES: 0 DROPPED PREFETCHES: 0
DTLB PREFETCHES SAME FILL-ORIGIN LEVEL: 0 DIFFERENT FILL-ORIGIN LEVEL: 0
DTLB AVERAGE MISS LATENCY: 11.0552 cycles
DTLB RQ	ACCESS:   13622936	FORWARD:          0	MERGED:    3542361	TO_CACHE:   10080575

STLB TOTAL     ACCESS:     320884  HIT:     312634  MISS:       8250  HIT %:     97.429  MISS %:    2.57102   MPKI: 0.165
STLB LOAD TRANSLATION ACCESS:     203332  HIT:     195946  MISS:       7386  HIT %:    96.3675  MISS %:    3.63248   MPKI: 0.14772
STLB TRANSLATION FROM L1D PREFETCHER ACCESS:     117552  HIT:     116688  MISS:        864  HIT %:     99.265  MISS %:   0.734994   MPKI: 0.01728
STLB PREFETCH  REQUESTED:          0  ISSUED:          0  USEFUL:        267  USELESS:        598
STLB USEFUL LOAD PREFETCHES:        267 PREFETCH ISSUED TO LOWER LEVEL:          0  ACCURACY: inf
STLB TIMELY PREFETCHES:        267 LATE PREFETCHES: 0 DROPPED PREFETCHES: 246
STLB PREFETCHES SAME FILL-ORIGIN LEVEL: 0 DIFFERENT FILL-ORIGIN LEVEL: 0
STLB AVERAGE MISS LATENCY: 45.9776 cycles
STLB RQ	ACCESS:     327913	FORWARD:          0	MERGED:       6783	TO_CACHE:     321130

STLB Hit, L1D data hit: 0
STLB Hit, L2C data hit: 0
STLB Hit, LLC data hit: 0
STLB Hit, LLC data miss: 0
STLB STLB hints to L2: 0
L1D TOTAL     ACCESS:   13446094  HIT:   13200097  MISS:     245997  HIT %:    98.1705  MISS %:    1.82951   MPKI: 4.91994
L1D LOAD      ACCESS:    7020303  HIT:    6888391  MISS:     131912  HIT %:     98.121  MISS %:    1.87901   MPKI: 2.63824
L1D RFO       ACCESS:    6381844  HIT:    6284654  MISS:      97190  HIT %:    98.4771  MISS %:    1.52291   MPKI: 1.9438
L1D PREFETCH  ACCESS:      43947  HIT:      27052  MISS:      16895  HIT %:     61.556  MISS %:     38.444   MPKI: 0.3379
L1D PREFETCH  REQUESTED:      92498  ISSUED:      92498  USEFUL:      12595  USELESS:       4404
L1D USEFUL LOAD PREFETCHES:      12595 PREFETCH ISSUED TO LOWER LEVEL:      18787  ACCURACY: 67.041
L1D TIMELY PREFETCHES:      12595 LATE PREFETCHES: 1868 DROPPED PREFETCHES: 0
L1D PREFETCHES SAME FILL-ORIGIN LEVEL: 18787 DIFFERENT FILL-ORIGIN LEVEL: 0
L1D AVERAGE MISS LATENCY: 376161 cycles
L1D RQ	ACCESS:   11302815	FORWARD:          0	MERGED:    4095818	TO_CACHE:    7031523
L1D WQ	ACCESS:    6777772	FORWARD:     175500	MERGED:     186359	TO_CACHE:    6591413
L1D PQ	ACCESS:      46262	FORWARD:          0	MERGED:          0	TO_CACHE:      46236

L1D UNIQUE REGIONS ACCESSED: 0
L1D REGIONS CONFLICTS: 0
L1D Cross Page Prefetch Requests: 0
L1D Same Page Prefetch Requests: 349913
L1D ROI Sum of L1D PQ occupancy: 623705
L1D PREFETCHES PUSHED FROM L2C: 0
L1I TOTAL     ACCESS:   12520199  HIT:   11578050  MISS:     942149  HIT %:     92.475  MISS %:    7.52503   MPKI: 18.843
L1I LOAD      ACCESS:    9989452  HIT:    9811882  MISS:     177570  HIT %:    98.2224  MISS %:    1.77757   MPKI: 3.5514
L1I PREFETCH  ACCESS:    2530747  HIT:    1766168  MISS:     764579  HIT %:    69.7884  MISS %:    30.2116   MPKI: 15.2916
L1I PREFETCH  REQUESTED:    2715411  ISSUED:    2709773  USEFUL:     519403  USELESS:     245185
L1I USEFUL LOAD PREFETCHES:     519403 PREFETCH ISSUED TO LOWER LEVEL:     781063  ACCURACY: 66.4995
L1I TIMELY PREFETCHES:     519403 LATE PREFETCHES: 16484 DROPPED PREFETCHES: 495
L1I PREFETCHES SAME FILL-ORIGIN LEVEL: 781063 DIFFERENT FILL-ORIGIN LEVEL: 0
L1I AVERAGE MISS LATENCY: 804649 cycles
L1I RQ	ACCESS:   15031638	FORWARD:          0	MERGED:    5017998	TO_CACHE:   10013640
L1I PQ	ACCESS:    2709773	FORWARD:          0	MERGED:     113955	TO_CACHE:    2595818

BTB TOTAL     ACCESS:    6850856  HIT:    6216517  MISS:     634339  HIT %:    90.7407  MISS %:    9.25927   MPKI: 12.6868
BTB BRANCH_DIRECT_JUMP	ACCESS:     517397  HIT:     498758  MISS:      18639
BTB BRANCH_INDIRECT	ACCESS:     112347  HIT:      56826  MISS:      55521
BTB BRANCH_CONDITIONAL	ACCESS:    4051503  HIT:    3997511  MISS:      53992
BTB BRANCH_DIRECT_CALL	ACCESS:     960973  HIT:     922167  MISS:      38806
BTB BRANCH_INDIRECT_CALL	ACCESS:     123707  HIT:      94699  MISS:      29008
BTB BRANCH_RETURN	ACCESS:    1084929  HIT:     646556  MISS:     438373
BTB BRANCH_OTHER ACCESS:          0  HIT:          0  MISS:          0

L2C TOTAL     ACCESS:    1315508  HIT:    1105109  MISS:     210399  HIT %:    84.0063  MISS %:    15.9937   MPKI: 4.20798
L2C LOAD      ACCESS:     291128  HIT:     218359  MISS:      72769  HIT %:    75.0045  MISS %:    24.9955   MPKI: 1.45538
L2C DATA LOAD MPKI: 0.85456
L2C INSTRUCTION LOAD MPKI: 0.60082
L2C RFO       ACCESS:      97165  HIT:      32713  MISS:      64452  HIT %:    33.6675  MISS %:    66.3325   MPKI: 1.28904
L2C PREFETCH  ACCESS:     799849  HIT:     733941  MISS:      65908  HIT %:    91.7599  MISS %:    8.24006   MPKI: 1.31816
L2C DATA PREFETCH MPKI: 0.21132
L2C INSTRUCTION PREFETCH MPKI: 1.10684
L2C WRITEBACK ACCESS:     118593  HIT:     113111  MISS:       5482  HIT %:    95.3775  MISS %:    4.62253   MPKI: 0.10964
L2C LOAD TRANSLATION ACCESS:       7652  HIT:       5987  MISS:       1665  HIT %:     78.241  MISS %:     21.759   MPKI: 0.0333
L2C TRANSLATION FROM L1D PREFETCHER ACCESS:       1121  HIT:        998  MISS:        123  HIT %:    89.0277  MISS %:    10.9723   MPKI: 0.00246
L2C PREFETCH  REQUESTED:          0  ISSUED:          0  USEFUL:       6276  USELESS:      59668
L2C USEFUL LOAD PREFETCHES:       6276 PREFETCH ISSUED TO LOWER LEVEL:      65908  ACCURACY: 9.52236
L2C TIMELY PREFETCHES:       6276 LATE PREFETCHES: 0 DROPPED PREFETCHES: 0
L2C PREFETCHES SAME FILL-ORIGIN LEVEL: 0 DIFFERENT FILL-ORIGIN LEVEL: 0
L2C AVERAGE MISS LATENCY: 65.1098 cycles
L2C RQ	ACCESS:     397070	FORWARD:          0	MERGED:          0	TO_CACHE:     397067
L2C WQ	ACCESS:     118593	FORWARD:          4	MERGED:          0	TO_CACHE:     118593
L2C PQ	ACCESS:     799850	FORWARD:          0	MERGED:          0	TO_CACHE:     799849

L2C Instructions Evicting Data 51272
L2C Translations Evicting Data 1016
L2C Data Evicting Data 68325
L2C Instructions Evicting Instructions 33452
L2C Translations Evicting Instructions 739
L2C Data Evicting Instructions 48368
L2C Instructions Evicting Translations 659
L2C Translations Evicting Translations 33
L2C Data Evicting Translations 1053
L2C Dense regions hint from L2: 0
PSCL5 TOTAL     ACCESS:       8496  HIT:       8496  MISS:          0  HIT %:        100  MISS %:          0   MPKI: 0
PSCL5 LOAD TRANSLATION ACCESS:       7386  HIT:       7386  MISS:          0  HIT %:        100  MISS %:          0   MPKI: 0
PSCL5 TRANSLATION FROM L1D PREFETCHER ACCESS:       1110  HIT:       1110  MISS:          0  HIT %:        100  MISS %:          0   MPKI: 0
PSCL5 PREFETCH  REQUESTED:          0  ISSUED:          0  USEFUL:          0  USELESS:          0
PSCL5 USEFUL LOAD PREFETCHES:          0 PREFETCH ISSUED TO LOWER LEVEL:          0  ACCURACY: -nan
PSCL5 TIMELY PREFETCHES:          0 LATE PREFETCHES: 0 DROPPED PREFETCHES: 0
PSCL5 PREFETCHES SAME FILL-ORIGIN LEVEL: 0 DIFFERENT FILL-ORIGIN LEVEL: 0

PSCL4 TOTAL     ACCESS:       8496  HIT:       8496  MISS:          0  HIT %:        100  MISS %:          0   MPKI: 0
PSCL4 LOAD TRANSLATION ACCESS:       7386  HIT:       7386  MISS:          0  HIT %:        100  MISS %:          0   MPKI: 0
PSCL4 TRANSLATION FROM L1D PREFETCHER ACCESS:       1110  HIT:       1110  MISS:          0  HIT %:        100  MISS %:          0   MPKI: 0
PSCL4 PREFETCH  REQUESTED:          0  ISSUED:          0  USEFUL:          0  USELESS:          0
PSCL4 USEFUL LOAD PREFETCHES:          0 PREFETCH ISSUED TO LOWER LEVEL:          0  ACCURACY: -nan
PSCL4 TIMELY PREFETCHES:          0 LATE PREFETCHES: 0 DROPPED PREFETCHES: 0
PSCL4 PREFETCHES SAME FILL-ORIGIN LEVEL: 0 DIFFERENT FILL-ORIGIN LEVEL: 0

PSCL3 TOTAL     ACCESS:       8487  HIT:       8478  MISS:          9  HIT %:     99.894  MISS %:   0.106045   MPKI: 0.00018
PSCL3 LOAD TRANSLATION ACCESS:       7378  HIT:       7369  MISS:          9  HIT %:     99.878  MISS %:   0.121984   MPKI: 0.00018
PSCL3 TRANSLATION FROM L1D PREFETCHER ACCESS:       1109  HIT:       1109  MISS:          0  HIT %:        100  MISS %:          0   MPKI: 0
PSCL3 PREFETCH  REQUESTED:          0  ISSUED:          0  USEFUL:          0  USELESS:          0
PSCL3 USEFUL LOAD PREFETCHES:          0 PREFETCH ISSUED TO LOWER LEVEL:          0  ACCURACY: -nan
PSCL3 TIMELY PREFETCHES:          0 LATE PREFETCHES: 0 DROPPED PREFETCHES: 0
PSCL3 PREFETCHES SAME FILL-ORIGIN LEVEL: 0 DIFFERENT FILL-ORIGIN LEVEL: 0

PSCL2 TOTAL     ACCESS:       8496  HIT:       8225  MISS:        271  HIT %:    96.8103  MISS %:    3.18974   MPKI: 0.00542
PSCL2 LOAD TRANSLATION ACCESS:       7397  HIT:       7126  MISS:        271  HIT %:    96.3364  MISS %:    3.66365   MPKI: 0.00542
PSCL2 TRANSLATION FROM L1D PREFETCHER ACCESS:       1099  HIT:       1099  MISS:          0  HIT %:        100  MISS %:          0   MPKI: 0
PSCL2 PREFETCH  REQUESTED:          0  ISSUED:          0  USEFUL:          0  USELESS:          0
PSCL2 USEFUL LOAD PREFETCHES:          0 PREFETCH ISSUED TO LOWER LEVEL:          0  ACCURACY: -nan
PSCL2 TIMELY PREFETCHES:          0 LATE PREFETCHES: 0 DROPPED PREFETCHES: 0
PSCL2 PREFETCHES SAME FILL-ORIGIN LEVEL: 0 DIFFERENT FILL-ORIGIN LEVEL: 0

LLC TOTAL     ACCESS:     276289  HIT:     219819  MISS:      56470  HIT %:    79.5613  MISS %:    20.4387   MPKI: 1.1294
LLC LOAD      ACCESS:      72768  HIT:      59591  MISS:      13177  HIT %:    81.8918  MISS %:    18.1082   MPKI: 0.26354
LLC RFO       ACCESS:      64451  HIT:      30633  MISS:      33818  HIT %:    47.5291  MISS %:    52.4709   MPKI: 0.67636
LLC PREFETCH  ACCESS:      65908  HIT:      57389  MISS:       8519  HIT %:    87.0744  MISS %:    12.9256   MPKI: 0.17038
LLC WRITEBACK ACCESS:      71374  HIT:      70735  MISS:        639  HIT %:    99.1047  MISS %:   0.895284   MPKI: 0.01278
LLC LOAD TRANSLATION ACCESS:       1665  HIT:       1352  MISS:        313  HIT %:    81.2012  MISS %:    18.7988   MPKI: 0.00626
LLC TRANSLATION FROM L1D PREFETCHER ACCESS:        123  HIT:        119  MISS:          4  HIT %:     96.748  MISS %:    3.25203   MPKI: 8e-05
LLC PREFETCH  REQUESTED:          0  ISSUED:          0  USEFUL:        531  USELESS:       9888
LLC USEFUL LOAD PREFETCHES:        531 PREFETCH ISSUED TO LOWER LEVEL:       8519  ACCURACY: 6.23313
LLC TIMELY PREFETCHES:        531 LATE PREFETCHES: 0 DROPPED PREFETCHES: 0
LLC PREFETCHES SAME FILL-ORIGIN LEVEL: 0 DIFFERENT FILL-ORIGIN LEVEL: 0
LLC AVERAGE MISS LATENCY: 133.103 cycles
LLC RQ	ACCESS:     139010	FORWARD:          0	MERGED:          0	TO_CACHE:     139008
LLC WQ	ACCESS:      71374	FORWARD:          2	MERGED:          0	TO_CACHE:      71374
LLC PQ	ACCESS:      65908	FORWARD:          0	MERGED:          0	TO_CACHE:      65908

LLC Dense regions hint to LLC: 0

RAW hits: 1752549
Loads Generated: 13055366
Loads sent to L1D: 11302815
Stores Generated: 6777761
Stores sent to L1D: 6777772
Major fault: 0 Minor fault: 3152
Allocated PAGES: 3152
I-Shadow cache 408 bytes
Touched + WorthPF tables 6144 bytes 
MMA filter 174 bytes 
FNL filter 272 bytes 
TOTAL PREFETCHER STORAGE SIZE: 25174 bytes
CPU 0 L1I next line prefetcher final stats

stream: 
stream:times selected: 1085136
stream:pref_filled: 32754
stream:pref_useful: 14390
stream:pref_late: 447
stream:misses: 7179
stream:misses_by_poll: 0

CS: 
CS:times selected: 162609
CS:pref_filled: 32166
CS:pref_useful: 27656
CS:pref_late: 1157
CS:misses: 8728
CS:misses_by_poll: 5

CPLX: 
CPLX:times selected: 916480
CPLX:pref_filled: 16432
CPLX:pref_useful: 3950
CPLX:pref_late: 44
CPLX:misses: 31284
CPLX:misses_by_poll: 4

NL_L1: 
NL:times selected: 13855
NL:pref_filled: 328
NL:pref_useful: 181
NL:pref_late: 4
NL:misses: 493
NL:misses_by_poll: 0

total selections: 2178080
total_filled: 16895
total_useful: 12595
total_late: 2232
total_polluted: 9
total_misses_after_warmup: 143133
conflicts: 2074075
Degree Incremented Times: 58694
Degree Decremented Times: 26365

L1 IP Table Write Accesses: 4534182
L1 IP Table Read Accesses: 2460107
L1 RST Write Accesses: 551634
L1 RST Read Accesses: 1103268
L1 CSPT Write Accesses: 551634
L1 CSPT Read Accesses: 1017711
L1 RR Filter Tag Write Accesses: 46262
L1 RR Filter Tag Read Accesses: 6394319
L1 IP Table Tag Write Accesses: 7031524
L1 IP Table Tag Read Accesses: 7031524
L1 RST Tag Write Accesses: 0
L1 RST Tag Read Accesses: 5692322
L1 RR Filter Write Accesses: 0
L1 RR Filter Read Accesses: 257197
test: 237933

DRAM Statistics
 CHANNEL 0
 RQ ROW_BUFFER_HIT:      24106  ROW_BUFFER_MISS:      31725
 DBUS_CONGESTED:         36
 WQ ROW_BUFFER_HIT:       7542  ROW_BUFFER_MISS:      28972  FULL:          0

 AVG_CONGESTED_CYCLE: 3
 All warmup complete: 2
Channel 0 Bank busy for read cycles: 0
Channel 0 Bank busy for write cycles: 0
Channel 0
Rank 0
0banks busy for read cycles: 57901963
0banks busy for write cycles: 12443
1banks busy for read cycles: 2830928
1banks busy for write cycles: 1730203
2banks busy for read cycles: 454018
2banks busy for write cycles: 415142
3banks busy for read cycles: 152351
3banks busy for write cycles: 157322
4banks busy for read cycles: 75806
4banks busy for write cycles: 87444
5banks busy for read cycles: 47003
5banks busy for write cycles: 63333
6banks busy for read cycles: 47008
6banks busy for write cycles: 53510
7banks busy for read cycles: 45689
7banks busy for write cycles: 63808
8banks busy for read cycles: 78763
8banks busy for write cycles: 167906

CPU 0 Branch Prediction Accuracy: 99.2117% MPKI: 1.49752 Average ROB Occupancy at Mispredict: 48.3063
Branch types
NOT_BRANCH: 40501574 81.0031%
BRANCH_DIRECT_JUMP: 517397 1.03479%
BRANCH_INDIRECT: 112347 0.224694%
BRANCH_CONDITIONAL: 6698733 13.3975%
BRANCH_DIRECT_CALL: 960973 1.92195%
BRANCH_INDIRECT_CALL: 123707 0.247414%
BRANCH_RETURN: 1084929 2.16986%
BRANCH_OTHER: 0 0%

DRAM PAGES: 1048576
Allocated PAGES: 3152
