
*** ChampSim Multicore Out-of-Order Simulator ***

Warmup Instructions: 50000000
Simulation Instructions: 50000000
Number of CPUs: 1
LLC sets: 2048
LLC ways: 16
Off-chip DRAM Size: 4096 MB Channels: 1 Width: 64-bit Data Rate: 6400 MT/s
CPU 0 runs ../IPC-traces//client_002.champsimtrace.xz
.xz
NUM_OF_IPS_IN_CRITICAL_IP_TRAINING: 64
NUM_OF_CRITICAL_IP_TRAINING_TABLE_WAYS: 2
NUM_OF_CRITICAL_IP_TRAINING_TABLE_SETS: 32
WOBBLY_CRITICAL_IP_CACHE_SETS: 32
WOBBLY_CRITICAL_IP_CACHE_WAYS: 4
BTB has LRU replacement policy
ITLB has LRU replacement policy
DTLB has LRU replacement policy
STLB has LRU replacement policy
CPU 0 L1I next line prefetcher
L1I has LRU replacement policy
IP Table Entries: 64
L1D has LRU replacement policy
Initialize SRRIP state for L2C
Initialize DRRIP state for LLC
Heartbeat CPU 0 instructions: 10000000 cycles: 2815938 heartbeat IPC: 3.55121 cumulative IPC: 3.55121 (Simulation time: 0 hr 4 min 57 sec) 
Heartbeat CPU 0 instructions: 20000001 cycles: 5650750 heartbeat IPC: 3.52757 cumulative IPC: 3.53935 (Simulation time: 0 hr 8 min 31 sec) 
Heartbeat CPU 0 instructions: 30000002 cycles: 8480914 heartbeat IPC: 3.53336 cumulative IPC: 3.53735 (Simulation time: 0 hr 12 min 14 sec) 
Heartbeat CPU 0 instructions: 40000000 cycles: 11316260 heartbeat IPC: 3.52691 cumulative IPC: 3.53474 (Simulation time: 0 hr 15 min 23 sec) 
Heartbeat CPU 0 instructions: 50000002 cycles: 14137422 heartbeat IPC: 3.54464 cumulative IPC: 3.53671 (Simulation time: 0 hr 18 min 26 sec) 

Warmup complete CPU 0 instructions: 50000002 cycles: 14137422 (Simulation time: 0 hr 18 min 26 sec) 

% increase in all ip prefetch 276.637
% increase in all ip prefetch -2.37457
Heartbeat CPU 0 instructions: 60000001 cycles: 26918261 heartbeat IPC: 0.782421 cumulative IPC: 0.782421 (Simulation time: 0 hr 21 min 19 sec) 
Heartbeat CPU 0 instructions: 70000003 cycles: 39831196 heartbeat IPC: 0.774417 cumulative IPC: 0.778399 (Simulation time: 0 hr 24 min 8 sec) 
Heartbeat CPU 0 instructions: 80000000 cycles: 52500881 heartbeat IPC: 0.789285 cumulative IPC: 0.781994 (Simulation time: 0 hr 26 min 56 sec) 
Heartbeat CPU 0 instructions: 90000001 cycles: 65854646 heartbeat IPC: 0.748853 cumulative IPC: 0.773437 (Simulation time: 0 hr 29 min 43 sec) 
Heartbeat CPU 0 instructions: 100000003 cycles: 78549707 heartbeat IPC: 0.787708 cumulative IPC: 0.776249 (Simulation time: 0 hr 32 min 29 sec) 
Finished CPU 0 instructions: 50000001 cycles: 64412285 cumulative IPC: 0.776249 (Simulation time: 0 hr 32 min 29 sec) 

ChampSim completed all CPUs

Region of Interest Statistics

CPU 0 cumulative IPC: 0.776249 instructions: 50000001 cycles: 64412285

CPU 0 Average Load ROB stall cycles: 1.76815e+07
CPU 0 Fraction of times ROB stalled by Loads: 38.2102
CPU 0 Percentage of Load stall cycles in Total stall cycles: 2.71708e+08
Issued all: 27002676
Issued LT all: 21340768
rob_not_full_when_issued_lt_all: 20960131
Issued LT one: 15991670
rob_not_full_when_issued_lt_one: 15668259
 Total stall cycles: 51520174
 Total load stall cycles: 139984268678201
CPU 0 NUM of IPS identified critical: 0
CPU 0 Num of Load IPs stalling ROB: 19239
Threshold modification factor: -1
Max PIST entries: 64
Min PIST entries: 0
Avg PIST entries: 32
Trouble in retire width: 0.875378
MaC = Marked as critical.
lt_50_percent_before_Mac: 0
gt_90_percent_before_Mac: 0
gt_75_percent_before_Mac: 0
gt_50_percent_before_Mac: 0
stall_proportion_bin_same_before_after: 0
stall_proportion_bin_lower_before_after: 0
stall_proportion_bin_upper_before_after: 0
average_stall_proportion_before: -nan
average_stall_proportion_after: -nan
Critical IP stalls, total frequency: 0
Non-critical IP stalls, total frequency: 3025096
Total Freq all stalling IPs: 3025096
stat_90_percent_critical_ip_stalls_freq: 2722579
stat_90_percent_non_critical_ip_stalls_freq: 302517
Critical_IP_ROB_Stalls_Bucket_0: 0
Non-critical_IP_ROB_Stalls_Bucket_0: 1655563
Critical_IP_ROB_Stalls_Bucket_1: 0
Non-critical_IP_ROB_Stalls_Bucket_1: 924340
Critical_IP_ROB_Stalls_Bucket_2: 0
Non-critical_IP_ROB_Stalls_Bucket_2: 313768
Critical_IP_ROB_Stalls_Bucket_3: 0
Non-critical_IP_ROB_Stalls_Bucket_3: 80617
Critical_IP_ROB_Stalls_Bucket_4: 0
Non-critical_IP_ROB_Stalls_Bucket_4: 21761
Critical_IP_ROB_Stalls_Bucket_5: 0
Non-critical_IP_ROB_Stalls_Bucket_5: 9274
Critical_IP_ROB_Stalls_Bucket_6: 0
Non-critical_IP_ROB_Stalls_Bucket_6: 19773
0 => IPs accounting for >50 percent of stalls, 1 => 55, 2 => 60, 3 => 65 and so on till 90.
percent50: 50.0472 num IPs:  146
percent55: 55.0354 num IPs: 192
percent60: 60.0065 num IPs: 254
percent65: 65.0291 num IPs: 340
percent70: 70.0324 num IPs: 458
percent75: 75.0184 num IPs: 611
percent80: 80.0238 num IPs: 793
percent85: 85.0003 num IPs: 1052
percent90: 90.0001 num IPs: 1607
Critical_ROB_Stalls_Percent_0_Bucket_0: 764746
Non-critical_ROB_Stalls_Percent_0_Bucket_0: 890817
Critical_ROB_Stalls_Percent_0_Bucket_1: 494713
Non-critical_ROB_Stalls_Percent_0_Bucket_1: 429627
Critical_ROB_Stalls_Percent_0_Bucket_2: 180470
Non-critical_ROB_Stalls_Percent_0_Bucket_2: 133298
Critical_ROB_Stalls_Percent_0_Bucket_3: 43368
Non-critical_ROB_Stalls_Percent_0_Bucket_3: 37249
Critical_ROB_Stalls_Percent_0_Bucket_4: 12805
Non-critical_ROB_Stalls_Percent_0_Bucket_4: 8956
Critical_ROB_Stalls_Percent_0_Bucket_5: 4635
Non-critical_ROB_Stalls_Percent_0_Bucket_5: 4639
Critical_ROB_Stalls_Percent_0_Bucket_6: 13238
Non-critical_ROB_Stalls_Percent_0_Bucket_6: 6535
Critical_ROB_Stalls_Percent_1_Bucket_0: 842978
Non-critical_ROB_Stalls_Percent_1_Bucket_0: 812585
Critical_ROB_Stalls_Percent_1_Bucket_1: 541792
Non-critical_ROB_Stalls_Percent_1_Bucket_1: 382548
Critical_ROB_Stalls_Percent_1_Bucket_2: 200998
Non-critical_ROB_Stalls_Percent_1_Bucket_2: 112770
Critical_ROB_Stalls_Percent_1_Bucket_3: 46648
Non-critical_ROB_Stalls_Percent_1_Bucket_3: 33969
Critical_ROB_Stalls_Percent_1_Bucket_4: 13843
Non-critical_ROB_Stalls_Percent_1_Bucket_4: 7918
Critical_ROB_Stalls_Percent_1_Bucket_5: 5189
Non-critical_ROB_Stalls_Percent_1_Bucket_5: 4085
Critical_ROB_Stalls_Percent_1_Bucket_6: 13425
Non-critical_ROB_Stalls_Percent_1_Bucket_6: 6348
Critical_ROB_Stalls_Percent_2_Bucket_0: 915551
Non-critical_ROB_Stalls_Percent_2_Bucket_0: 740012
Critical_ROB_Stalls_Percent_2_Bucket_1: 590214
Non-critical_ROB_Stalls_Percent_2_Bucket_1: 334126
Critical_ROB_Stalls_Percent_2_Bucket_2: 220857
Non-critical_ROB_Stalls_Percent_2_Bucket_2: 92911
Critical_ROB_Stalls_Percent_2_Bucket_3: 54211
Non-critical_ROB_Stalls_Percent_2_Bucket_3: 26406
Critical_ROB_Stalls_Percent_2_Bucket_4: 15056
Non-critical_ROB_Stalls_Percent_2_Bucket_4: 6705
Critical_ROB_Stalls_Percent_2_Bucket_5: 5658
Non-critical_ROB_Stalls_Percent_2_Bucket_5: 3616
Critical_ROB_Stalls_Percent_2_Bucket_6: 13707
Non-critical_ROB_Stalls_Percent_2_Bucket_6: 6066
Critical_ROB_Stalls_Percent_3_Bucket_0: 985286
Non-critical_ROB_Stalls_Percent_3_Bucket_0: 670277
Critical_ROB_Stalls_Percent_3_Bucket_1: 650885
Non-critical_ROB_Stalls_Percent_3_Bucket_1: 273455
Critical_ROB_Stalls_Percent_3_Bucket_2: 236534
Non-critical_ROB_Stalls_Percent_3_Bucket_2: 77234
Critical_ROB_Stalls_Percent_3_Bucket_3: 58046
Non-critical_ROB_Stalls_Percent_3_Bucket_3: 22571
Critical_ROB_Stalls_Percent_3_Bucket_4: 16286
Non-critical_ROB_Stalls_Percent_3_Bucket_4: 5475
Critical_ROB_Stalls_Percent_3_Bucket_5: 6234
Non-critical_ROB_Stalls_Percent_3_Bucket_5: 3040
Critical_ROB_Stalls_Percent_3_Bucket_6: 13919
Non-critical_ROB_Stalls_Percent_3_Bucket_6: 5854
Critical_ROB_Stalls_Percent_4_Bucket_0: 1064622
Non-critical_ROB_Stalls_Percent_4_Bucket_0: 590941
Critical_ROB_Stalls_Percent_4_Bucket_1: 704681
Non-critical_ROB_Stalls_Percent_4_Bucket_1: 219659
Critical_ROB_Stalls_Percent_4_Bucket_2: 250512
Non-critical_ROB_Stalls_Percent_4_Bucket_2: 63256
Critical_ROB_Stalls_Percent_4_Bucket_3: 60674
Non-critical_ROB_Stalls_Percent_4_Bucket_3: 19943
Critical_ROB_Stalls_Percent_4_Bucket_4: 17227
Non-critical_ROB_Stalls_Percent_4_Bucket_4: 4534
Critical_ROB_Stalls_Percent_4_Bucket_5: 6650
Non-critical_ROB_Stalls_Percent_4_Bucket_5: 2624
Critical_ROB_Stalls_Percent_4_Bucket_6: 14181
Non-critical_ROB_Stalls_Percent_4_Bucket_6: 5592
Critical_ROB_Stalls_Percent_5_Bucket_0: 1143278
Non-critical_ROB_Stalls_Percent_5_Bucket_0: 512285
Critical_ROB_Stalls_Percent_5_Bucket_1: 753270
Non-critical_ROB_Stalls_Percent_5_Bucket_1: 171070
Critical_ROB_Stalls_Percent_5_Bucket_2: 265516
Non-critical_ROB_Stalls_Percent_5_Bucket_2: 48252
Critical_ROB_Stalls_Percent_5_Bucket_3: 64925
Non-critical_ROB_Stalls_Percent_5_Bucket_3: 15692
Critical_ROB_Stalls_Percent_5_Bucket_4: 18005
Non-critical_ROB_Stalls_Percent_5_Bucket_4: 3756
Critical_ROB_Stalls_Percent_5_Bucket_5: 7332
Non-critical_ROB_Stalls_Percent_5_Bucket_5: 1942
Critical_ROB_Stalls_Percent_5_Bucket_6: 17051
Non-critical_ROB_Stalls_Percent_5_Bucket_6: 2722
Critical_ROB_Stalls_Percent_6_Bucket_0: 1220478
Non-critical_ROB_Stalls_Percent_6_Bucket_0: 435085
Critical_ROB_Stalls_Percent_6_Bucket_1: 800452
Non-critical_ROB_Stalls_Percent_6_Bucket_1: 123888
Critical_ROB_Stalls_Percent_6_Bucket_2: 283673
Non-critical_ROB_Stalls_Percent_6_Bucket_2: 30095
Critical_ROB_Stalls_Percent_6_Bucket_3: 71748
Non-critical_ROB_Stalls_Percent_6_Bucket_3: 8869
Critical_ROB_Stalls_Percent_6_Bucket_4: 19013
Non-critical_ROB_Stalls_Percent_6_Bucket_4: 2748
Critical_ROB_Stalls_Percent_6_Bucket_5: 7608
Non-critical_ROB_Stalls_Percent_6_Bucket_5: 1666
Critical_ROB_Stalls_Percent_6_Bucket_6: 17818
Non-critical_ROB_Stalls_Percent_6_Bucket_6: 1955
Critical_ROB_Stalls_Percent_7_Bucket_0: 1319357
Non-critical_ROB_Stalls_Percent_7_Bucket_0: 336206
Critical_ROB_Stalls_Percent_7_Bucket_1: 840803
Non-critical_ROB_Stalls_Percent_7_Bucket_1: 83537
Critical_ROB_Stalls_Percent_7_Bucket_2: 291196
Non-critical_ROB_Stalls_Percent_7_Bucket_2: 22572
Critical_ROB_Stalls_Percent_7_Bucket_3: 73903
Non-critical_ROB_Stalls_Percent_7_Bucket_3: 6714
Critical_ROB_Stalls_Percent_7_Bucket_4: 19751
Non-critical_ROB_Stalls_Percent_7_Bucket_4: 2010
Critical_ROB_Stalls_Percent_7_Bucket_5: 8141
Non-critical_ROB_Stalls_Percent_7_Bucket_5: 1133
Critical_ROB_Stalls_Percent_7_Bucket_6: 18188
Non-critical_ROB_Stalls_Percent_7_Bucket_6: 1585
Critical_ROB_Stalls_Percent_8_Bucket_0: 1421055
Non-critical_ROB_Stalls_Percent_8_Bucket_0: 234508
Critical_ROB_Stalls_Percent_8_Bucket_1: 877258
Non-critical_ROB_Stalls_Percent_8_Bucket_1: 47082
Critical_ROB_Stalls_Percent_8_Bucket_2: 299559
Non-critical_ROB_Stalls_Percent_8_Bucket_2: 14209
Critical_ROB_Stalls_Percent_8_Bucket_3: 76412
Non-critical_ROB_Stalls_Percent_8_Bucket_3: 4205
Critical_ROB_Stalls_Percent_8_Bucket_4: 20775
Non-critical_ROB_Stalls_Percent_8_Bucket_4: 986
Critical_ROB_Stalls_Percent_8_Bucket_5: 8561
Non-critical_ROB_Stalls_Percent_8_Bucket_5: 713
Critical_ROB_Stalls_Percent_8_Bucket_6: 18959
Non-critical_ROB_Stalls_Percent_8_Bucket_6: 814
Average ROB occupancy Load Stall Begin: 49.3605
Average ROB occupancy Load Stall End: 58.8135
Min ROB occupancy Load Stall Begin: 1
Max ROB occupancy Load Stall Begin: 352
Min ROB occupancy Load Stall End: 1
Max ROB occupancy Load Stall End: 352
Average ROB occupancy Critical Load Stall Begin: -nan
Average ROB occupancy Critical Load Stall End: -nan
Min ROB occupancy Critical Load Stall Begin: 400
Max ROB occupancy Critical Load Stall Begin: 0
Min ROB occupancy Critical Load Stall End: 400
Max ROB occupancy Critical Load Stall End: 0
 ROB Load Stall Begin Bucket Count 0: 1964613
 ROB Load Stall End Bucket Count 0: 1655563
 ROB Critical Load Stall Begin Bucket Count 0: 0
 ROB Critical Load Stall End Bucket Count 0: 0
 ROB Load Stall Begin Bucket Count 1: 727154
 ROB Load Stall End Bucket Count 1: 924340
 ROB Critical Load Stall Begin Bucket Count 1: 0
 ROB Critical Load Stall End Bucket Count 1: 0
 ROB Load Stall Begin Bucket Count 2: 233036
 ROB Load Stall End Bucket Count 2: 313768
 ROB Critical Load Stall Begin Bucket Count 2: 0
 ROB Critical Load Stall End Bucket Count 2: 0
 ROB Load Stall Begin Bucket Count 3: 58498
 ROB Load Stall End Bucket Count 3: 80617
 ROB Critical Load Stall Begin Bucket Count 3: 0
 ROB Critical Load Stall End Bucket Count 3: 0
 ROB Load Stall Begin Bucket Count 4: 16056
 ROB Load Stall End Bucket Count 4: 21761
 ROB Critical Load Stall Begin Bucket Count 4: 0
 ROB Critical Load Stall End Bucket Count 4: 0
 ROB Load Stall Begin Bucket Count 5: 7963
 ROB Load Stall End Bucket Count 5: 9274
 ROB Critical Load Stall Begin Bucket Count 5: 0
 ROB Critical Load Stall End Bucket Count 5: 0
 ROB Load Stall Begin Bucket Count 6: 17776
 ROB Load Stall End Bucket Count 6: 19773
 ROB Critical Load Stall Begin Bucket Count 6: 0
 ROB Critical Load Stall End Bucket Count 6: 0
PIST Tag Read Accesses: 3136478
PIST Read Accesses: 1568239
PIST Tag Write Accesses: 3136478
PIST Write Accesses: 1568239
Criticality detector called times: 2833899
Max global_stall_cycles_count: 3012201
Threshold Modified: 1 times, factor: -1
Sturdy critical IP cache stats: 
 Unused entries: 0
CIC Tag Read Accesses: 0
CIC Read Accesses: 0
CIC Tag Write Accesses: 0
CIC Write Accesses: 0
Wobbly critical IP cache stats: 
 Unused entries: 95
CIC Tag Read Accesses: 82605861
CIC Read Accesses: 0
CIC Tag Write Accesses: 5293
CIC Write Accesses: 0
ITLB TOTAL     ACCESS:    9206571  HIT:    9086421  MISS:     120150  HIT %:     98.695  MISS %:    1.30505   MPKI: 2.403
ITLB LOAD TRANSLATION ACCESS:    8314514  HIT:    8271221  MISS:      43293  HIT %:    99.4793  MISS %:   0.520692   MPKI: 0.86586
ITLB TRANSLATION FROM L1D PREFETCHER ACCESS:     892057  HIT:     815200  MISS:      76857  HIT %:    91.3843  MISS %:    8.61571   MPKI: 1.53714
ITLB PREFETCH  REQUESTED:          0  ISSUED:          0  USEFUL:      66314  USELESS:      10543
ITLB USEFUL LOAD PREFETCHES:      66314 PREFETCH ISSUED TO LOWER LEVEL:          0  ACCURACY: inf
ITLB TIMELY PREFETCHES:      66314 LATE PREFETCHES: 233 DROPPED PREFETCHES: 246
ITLB PREFETCHES SAME FILL-ORIGIN LEVEL: 0 DIFFERENT FILL-ORIGIN LEVEL: 0
ITLB AVERAGE MISS LATENCY: 88962.8 cycles
ITLB RQ	ACCESS:   12608914	FORWARD:          0	MERGED:    3384518	TO_CACHE:    9224396

DTLB TOTAL     ACCESS:   10060415  HIT:    9901999  MISS:     158416  HIT %:    98.4254  MISS %:    1.57465   MPKI: 3.16832
DTLB LOAD TRANSLATION ACCESS:   10060415  HIT:    9901999  MISS:     158416  HIT %:    98.4254  MISS %:    1.57465   MPKI: 3.16832
DTLB PREFETCH  REQUESTED:          0  ISSUED:          0  USEFUL:          0  USELESS:          0
DTLB USEFUL LOAD PREFETCHES:          0 PREFETCH ISSUED TO LOWER LEVEL:          0  ACCURACY: -nan
DTLB TIMELY PREFETCHES:          0 LATE PREFETCHES: 0 DROPPED PREFETCHES: 0
DTLB PREFETCHES SAME FILL-ORIGIN LEVEL: 0 DIFFERENT FILL-ORIGIN LEVEL: 0
DTLB AVERAGE MISS LATENCY: 11.0457 cycles
DTLB RQ	ACCESS:   13622112	FORWARD:          0	MERGED:    3544256	TO_CACHE:   10077856

STLB TOTAL     ACCESS:     310194  HIT:     301996  MISS:       8198  HIT %:    97.3571  MISS %:    2.64286   MPKI: 0.16396
STLB LOAD TRANSLATION ACCESS:     201476  HIT:     194169  MISS:       7307  HIT %:    96.3733  MISS %:    3.62673   MPKI: 0.14614
STLB TRANSLATION FROM L1D PREFETCHER ACCESS:     108718  HIT:     107827  MISS:        891  HIT %:    99.1804  MISS %:   0.819552   MPKI: 0.01782
STLB PREFETCH  REQUESTED:          0  ISSUED:          0  USEFUL:        303  USELESS:        587
STLB USEFUL LOAD PREFETCHES:        303 PREFETCH ISSUED TO LOWER LEVEL:          0  ACCURACY: inf
STLB TIMELY PREFETCHES:        303 LATE PREFETCHES: 0 DROPPED PREFETCHES: 246
STLB PREFETCHES SAME FILL-ORIGIN LEVEL: 0 DIFFERENT FILL-ORIGIN LEVEL: 0
STLB AVERAGE MISS LATENCY: 46.2721 cycles
STLB RQ	ACCESS:     315648	FORWARD:          0	MERGED:       5208	TO_CACHE:     310440

STLB Hit, L1D data hit: 0
STLB Hit, L2C data hit: 0
STLB Hit, LLC data hit: 0
STLB Hit, LLC data miss: 0
STLB STLB hints to L2: 0
L1D TOTAL     ACCESS:   13434758  HIT:   13190277  MISS:     244481  HIT %:    98.1802  MISS %:    1.81976   MPKI: 4.88962
L1D LOAD      ACCESS:    7019081  HIT:    6885682  MISS:     133399  HIT %:    98.0995  MISS %:    1.90052   MPKI: 2.66798
L1D RFO       ACCESS:    6380745  HIT:    6283517  MISS:      97228  HIT %:    98.4762  MISS %:    1.52377   MPKI: 1.94456
L1D PREFETCH  ACCESS:      34932  HIT:      21078  MISS:      13854  HIT %:    60.3401  MISS %:    39.6599   MPKI: 0.27708
L1D PREFETCH  REQUESTED:      73683  ISSUED:      73683  USEFUL:      10809  USELESS:       3116
L1D USEFUL LOAD PREFETCHES:      10809 PREFETCH ISSUED TO LOWER LEVEL:      15379  ACCURACY: 70.2842
L1D TIMELY PREFETCHES:      10809 LATE PREFETCHES: 1524 DROPPED PREFETCHES: 0
L1D PREFETCHES SAME FILL-ORIGIN LEVEL: 15379 DIFFERENT FILL-ORIGIN LEVEL: 0
L1D AVERAGE MISS LATENCY: 305278 cycles
L1D RQ	ACCESS:   11302007	FORWARD:          0	MERGED:    4096059	TO_CACHE:    7030839
L1D WQ	ACCESS:    6777772	FORWARD:     175120	MERGED:     186499	TO_CACHE:    6591273
L1D PQ	ACCESS:      36847	FORWARD:          0	MERGED:          0	TO_CACHE:      36836

L1D UNIQUE REGIONS ACCESSED: 0
L1D REGIONS CONFLICTS: 0
L1D Cross Page Prefetch Requests: 0
L1D Same Page Prefetch Requests: 201017
L1D ROI Sum of L1D PQ occupancy: 499129
L1D PREFETCHES PUSHED FROM L2C: 0
L1I TOTAL     ACCESS:   12522516  HIT:   11590164  MISS:     932352  HIT %:    92.5546  MISS %:     7.4454   MPKI: 18.647
L1I LOAD      ACCESS:    9989662  HIT:    9815888  MISS:     173774  HIT %:    98.2605  MISS %:    1.73954   MPKI: 3.47548
L1I PREFETCH  ACCESS:    2532854  HIT:    1774276  MISS:     758578  HIT %:    70.0505  MISS %:    29.9495   MPKI: 15.1716
L1I PREFETCH  REQUESTED:    2714465  ISSUED:    2708438  USEFUL:     516194  USELESS:     242390
L1I USEFUL LOAD PREFETCHES:     516194 PREFETCH ISSUED TO LOWER LEVEL:     774561  ACCURACY: 66.6434
L1I TIMELY PREFETCHES:     516194 LATE PREFETCHES: 15983 DROPPED PREFETCHES: 495
L1I PREFETCHES SAME FILL-ORIGIN LEVEL: 774561 DIFFERENT FILL-ORIGIN LEVEL: 0
L1I AVERAGE MISS LATENCY: 791841 cycles
L1I RQ	ACCESS:   15029308	FORWARD:          0	MERGED:    5016052	TO_CACHE:   10013256
L1I PQ	ACCESS:    2708438	FORWARD:          0	MERGED:     112780	TO_CACHE:    2595658

BTB TOTAL     ACCESS:    6850856  HIT:    6216517  MISS:     634339  HIT %:    90.7407  MISS %:    9.25927   MPKI: 12.6868
BTB BRANCH_DIRECT_JUMP	ACCESS:     517397  HIT:     498758  MISS:      18639
BTB BRANCH_INDIRECT	ACCESS:     112347  HIT:      56826  MISS:      55521
BTB BRANCH_CONDITIONAL	ACCESS:    4051503  HIT:    3997511  MISS:      53992
BTB BRANCH_DIRECT_CALL	ACCESS:     960973  HIT:     922167  MISS:      38806
BTB BRANCH_INDIRECT_CALL	ACCESS:     123707  HIT:      94699  MISS:      29008
BTB BRANCH_RETURN	ACCESS:    1084929  HIT:     646556  MISS:     438373
BTB BRANCH_OTHER ACCESS:          0  HIT:          0  MISS:          0

L2C TOTAL     ACCESS:    1325246  HIT:    1112154  MISS:     213092  HIT %:    83.9206  MISS %:    16.0794   MPKI: 4.26184
L2C LOAD      ACCESS:     289665  HIT:     216061  MISS:      73604  HIT %:      74.59  MISS %:      25.41   MPKI: 1.47208
L2C DATA LOAD MPKI: 0.86886
L2C INSTRUCTION LOAD MPKI: 0.60322
L2C RFO       ACCESS:      97225  HIT:      32899  MISS:      64326  HIT %:     33.838  MISS %:     66.162   MPKI: 1.28652
L2C PREFETCH  ACCESS:     811109  HIT:     743188  MISS:      67921  HIT %:    91.6262  MISS %:    8.37384   MPKI: 1.35842
L2C DATA PREFETCH MPKI: 0.2243
L2C INSTRUCTION PREFETCH MPKI: 1.13412
L2C WRITEBACK ACCESS:     118534  HIT:     113063  MISS:       5471  HIT %:    95.3844  MISS %:    4.61555   MPKI: 0.10942
L2C LOAD TRANSLATION ACCESS:       7570  HIT:       5917  MISS:       1653  HIT %:    78.1638  MISS %:    21.8362   MPKI: 0.03306
L2C TRANSLATION FROM L1D PREFETCHER ACCESS:       1143  HIT:       1026  MISS:        117  HIT %:    89.7638  MISS %:    10.2362   MPKI: 0.00234
L2C PREFETCH  REQUESTED:      25836  ISSUED:      25836  USEFUL:       7259  USELESS:      60925
L2C USEFUL LOAD PREFETCHES:       7259 PREFETCH ISSUED TO LOWER LEVEL:      67960  ACCURACY: 10.6813
L2C TIMELY PREFETCHES:       7259 LATE PREFETCHES: 39 DROPPED PREFETCHES: 0
L2C PREFETCHES SAME FILL-ORIGIN LEVEL: 6184 DIFFERENT FILL-ORIGIN LEVEL: 0
L2C AVERAGE MISS LATENCY: 64.5427 cycles
L2C RQ	ACCESS:     395607	FORWARD:          0	MERGED:          0	TO_CACHE:     395604
L2C WQ	ACCESS:     118534	FORWARD:          4	MERGED:          0	TO_CACHE:     118534
L2C PQ	ACCESS:     815776	FORWARD:          0	MERGED:       3692	TO_CACHE:     812083

L2C Instructions Evicting Data 51937
L2C Translations Evicting Data 1008
L2C Data Evicting Data 69104
L2C Instructions Evicting Instructions 34235
L2C Translations Evicting Instructions 732
L2C Data Evicting Instructions 48882
L2C Instructions Evicting Translations 695
L2C Translations Evicting Translations 30
L2C Data Evicting Translations 998
L2C Dense regions hint from L2: 0
PSCL5 TOTAL     ACCESS:       8444  HIT:       8444  MISS:          0  HIT %:        100  MISS %:          0   MPKI: 0
PSCL5 LOAD TRANSLATION ACCESS:       7307  HIT:       7307  MISS:          0  HIT %:        100  MISS %:          0   MPKI: 0
PSCL5 TRANSLATION FROM L1D PREFETCHER ACCESS:       1137  HIT:       1137  MISS:          0  HIT %:        100  MISS %:          0   MPKI: 0
PSCL5 PREFETCH  REQUESTED:          0  ISSUED:          0  USEFUL:          0  USELESS:          0
PSCL5 USEFUL LOAD PREFETCHES:          0 PREFETCH ISSUED TO LOWER LEVEL:          0  ACCURACY: -nan
PSCL5 TIMELY PREFETCHES:          0 LATE PREFETCHES: 0 DROPPED PREFETCHES: 0
PSCL5 PREFETCHES SAME FILL-ORIGIN LEVEL: 0 DIFFERENT FILL-ORIGIN LEVEL: 0

PSCL4 TOTAL     ACCESS:       8444  HIT:       8444  MISS:          0  HIT %:        100  MISS %:          0   MPKI: 0
PSCL4 LOAD TRANSLATION ACCESS:       7307  HIT:       7307  MISS:          0  HIT %:        100  MISS %:          0   MPKI: 0
PSCL4 TRANSLATION FROM L1D PREFETCHER ACCESS:       1137  HIT:       1137  MISS:          0  HIT %:        100  MISS %:          0   MPKI: 0
PSCL4 PREFETCH  REQUESTED:          0  ISSUED:          0  USEFUL:          0  USELESS:          0
PSCL4 USEFUL LOAD PREFETCHES:          0 PREFETCH ISSUED TO LOWER LEVEL:          0  ACCURACY: -nan
PSCL4 TIMELY PREFETCHES:          0 LATE PREFETCHES: 0 DROPPED PREFETCHES: 0
PSCL4 PREFETCHES SAME FILL-ORIGIN LEVEL: 0 DIFFERENT FILL-ORIGIN LEVEL: 0

PSCL3 TOTAL     ACCESS:       8436  HIT:       8427  MISS:          9  HIT %:    99.8933  MISS %:   0.106686   MPKI: 0.00018
PSCL3 LOAD TRANSLATION ACCESS:       7300  HIT:       7291  MISS:          9  HIT %:    99.8767  MISS %:   0.123288   MPKI: 0.00018
PSCL3 TRANSLATION FROM L1D PREFETCHER ACCESS:       1136  HIT:       1136  MISS:          0  HIT %:        100  MISS %:          0   MPKI: 0
PSCL3 PREFETCH  REQUESTED:          0  ISSUED:          0  USEFUL:          0  USELESS:          0
PSCL3 USEFUL LOAD PREFETCHES:          0 PREFETCH ISSUED TO LOWER LEVEL:          0  ACCURACY: -nan
PSCL3 TIMELY PREFETCHES:          0 LATE PREFETCHES: 0 DROPPED PREFETCHES: 0
PSCL3 PREFETCHES SAME FILL-ORIGIN LEVEL: 0 DIFFERENT FILL-ORIGIN LEVEL: 0

PSCL2 TOTAL     ACCESS:       8444  HIT:       8181  MISS:        263  HIT %:    96.8854  MISS %:    3.11464   MPKI: 0.00526
PSCL2 LOAD TRANSLATION ACCESS:       7313  HIT:       7050  MISS:        263  HIT %:    96.4037  MISS %:    3.59634   MPKI: 0.00526
PSCL2 TRANSLATION FROM L1D PREFETCHER ACCESS:       1131  HIT:       1131  MISS:          0  HIT %:        100  MISS %:          0   MPKI: 0
PSCL2 PREFETCH  REQUESTED:          0  ISSUED:          0  USEFUL:          0  USELESS:          0
PSCL2 USEFUL LOAD PREFETCHES:          0 PREFETCH ISSUED TO LOWER LEVEL:          0  ACCURACY: -nan
PSCL2 TIMELY PREFETCHES:          0 LATE PREFETCHES: 0 DROPPED PREFETCHES: 0
PSCL2 PREFETCHES SAME FILL-ORIGIN LEVEL: 0 DIFFERENT FILL-ORIGIN LEVEL: 0

LLC TOTAL     ACCESS:     278860  HIT:     222749  MISS:      56111  HIT %:    79.8784  MISS %:    20.1216   MPKI: 1.12222
LLC LOAD      ACCESS:      73569  HIT:      59977  MISS:      13592  HIT %:    81.5248  MISS %:    18.4752   MPKI: 0.27184
LLC RFO       ACCESS:      64320  HIT:      30480  MISS:      33840  HIT %:    47.3881  MISS %:    52.6119   MPKI: 0.6768
LLC PREFETCH  ACCESS:      67960  HIT:      60199  MISS:       7761  HIT %:      88.58  MISS %:      11.42   MPKI: 0.15522
LLC WRITEBACK ACCESS:      71241  HIT:      70647  MISS:        594  HIT %:    99.1662  MISS %:    0.83379   MPKI: 0.01188
LLC LOAD TRANSLATION ACCESS:       1653  HIT:       1333  MISS:        320  HIT %:    80.6413  MISS %:    19.3587   MPKI: 0.0064
LLC TRANSLATION FROM L1D PREFETCHER ACCESS:        117  HIT:        113  MISS:          4  HIT %:    96.5812  MISS %:     3.4188   MPKI: 8e-05
LLC PREFETCH  REQUESTED:          0  ISSUED:          0  USEFUL:        671  USELESS:       8575
LLC USEFUL LOAD PREFETCHES:        671 PREFETCH ISSUED TO LOWER LEVEL:       7761  ACCURACY: 8.64579
LLC TIMELY PREFETCHES:        671 LATE PREFETCHES: 0 DROPPED PREFETCHES: 0
LLC PREFETCHES SAME FILL-ORIGIN LEVEL: 0 DIFFERENT FILL-ORIGIN LEVEL: 0
LLC AVERAGE MISS LATENCY: 133.569 cycles
LLC RQ	ACCESS:     139662	FORWARD:          0	MERGED:          0	TO_CACHE:     139660
LLC WQ	ACCESS:      71241	FORWARD:          2	MERGED:          0	TO_CACHE:      71241
LLC PQ	ACCESS:      67960	FORWARD:          0	MERGED:          0	TO_CACHE:      67960

LLC Dense regions hint to LLC: 0

RAW hits: 1753357
Loads Generated: 13055366
Loads sent to L1D: 11302007
Stores Generated: 6777761
Stores sent to L1D: 6777772
Major fault: 0 Minor fault: 3152
Allocated PAGES: 3152
I-Shadow cache 408 bytes
Touched + WorthPF tables 6144 bytes 
MMA filter 174 bytes 
FNL filter 272 bytes 
TOTAL PREFETCHER STORAGE SIZE: 25174 bytes
CPU 0 L1I next line prefetcher final stats

stream: 
stream:times selected: 595563
stream:pref_filled: 20219
stream:pref_useful: 9483
stream:pref_late: 415
stream:misses: 3450
stream:misses_by_poll: 0

CS: 
CS:times selected: 123324
CS:pref_filled: 24540
CS:pref_useful: 22066
CS:pref_late: 940
CS:misses: 5888
CS:misses_by_poll: 1

CPLX: 
CPLX:times selected: 470765
CPLX:pref_filled: 10152
CPLX:pref_useful: 2494
CPLX:pref_late: 38
CPLX:misses: 19005
CPLX:misses_by_poll: 1

NL_L1: 
NL:times selected: 6650
NL:pref_filled: 156
NL:pref_useful: 91
NL:pref_late: 2
NL:misses: 271
NL:misses_by_poll: 0

total selections: 1196302
total_filled: 13854
total_useful: 10809
total_late: 1926
total_polluted: 2
total_misses_after_warmup: 145158
conflicts: 2631677
Degree Incremented Times: 22632
Degree Decremented Times: 29907

L1 IP Table Write Accesses: 4041334
L1 IP Table Read Accesses: 1409657
L1 RST Write Accesses: 305057
L1 RST Read Accesses: 610114
L1 CSPT Write Accesses: 305057
L1 CSPT Read Accesses: 544294
L1 RR Filter Tag Write Accesses: 36847
L1 RR Filter Tag Read Accesses: 5641366
L1 IP Table Tag Write Accesses: 7030840
L1 IP Table Tag Read Accesses: 7030840
L1 RST Tag Write Accesses: 0
L1 RST Tag Read Accesses: 2861389
L1 RR Filter Write Accesses: 0
L1 RR Filter Read Accesses: 211359
test: 124885
L2 IP Table Read Accesses: 981004
L2 IP Table Write Accesses: 1772682
L2 IP Table Tag Read Accesses: 918276
L2 IP Table Tag Write Accesses: 918276

DRAM Statistics
 CHANNEL 0
 RQ ROW_BUFFER_HIT:      24078  ROW_BUFFER_MISS:      31439
 DBUS_CONGESTED:         32
 WQ ROW_BUFFER_HIT:       7484  ROW_BUFFER_MISS:      28849  FULL:          0

 AVG_CONGESTED_CYCLE: 3
 All warmup complete: 2
Channel 0 Bank busy for read cycles: 0
Channel 0 Bank busy for write cycles: 0
Channel 0
Rank 0
0banks busy for read cycles: 58051363
0banks busy for write cycles: 12281
1banks busy for read cycles: 2758449
1banks busy for write cycles: 1708022
2banks busy for read cycles: 428455
2banks busy for write cycles: 395942
3banks busy for read cycles: 149451
3banks busy for write cycles: 156293
4banks busy for read cycles: 86425
4banks busy for write cycles: 87984
5banks busy for read cycles: 50724
5banks busy for write cycles: 64849
6banks busy for read cycles: 50616
6banks busy for write cycles: 52701
7banks busy for read cycles: 46732
7banks busy for write cycles: 61473
8banks busy for read cycles: 78621
8banks busy for write cycles: 171905

CPU 0 Branch Prediction Accuracy: 99.2117% MPKI: 1.49752 Average ROB Occupancy at Mispredict: 48.3043
Branch types
NOT_BRANCH: 40501574 81.0031%
BRANCH_DIRECT_JUMP: 517397 1.03479%
BRANCH_INDIRECT: 112347 0.224694%
BRANCH_CONDITIONAL: 6698733 13.3975%
BRANCH_DIRECT_CALL: 960973 1.92195%
BRANCH_INDIRECT_CALL: 123707 0.247414%
BRANCH_RETURN: 1084929 2.16986%
BRANCH_OTHER: 0 0%

DRAM PAGES: 1048576
Allocated PAGES: 3152
