
*** ChampSim Multicore Out-of-Order Simulator ***

Warmup Instructions: 50000000
Simulation Instructions: 50000000
Number of CPUs: 1
LLC sets: 2048
LLC ways: 16
Off-chip DRAM Size: 4096 MB Channels: 1 Width: 64-bit Data Rate: 6400 MT/s
CPU 0 runs ../IPC-traces//client_007.champsimtrace.xz
.xz
NUM_OF_IPS_IN_CRITICAL_IP_TRAINING: 64
NUM_OF_CRITICAL_IP_TRAINING_TABLE_WAYS: 2
NUM_OF_CRITICAL_IP_TRAINING_TABLE_SETS: 32
WOBBLY_CRITICAL_IP_CACHE_SETS: 32
WOBBLY_CRITICAL_IP_CACHE_WAYS: 4
BTB has LRU replacement policy
ITLB has LRU replacement policy
DTLB has LRU replacement policy
STLB has LRU replacement policy
CPU 0 L1I next line prefetcher
L1I has LRU replacement policy
L1D has LRU replacement policy
Bingo PHT WAYS: 16 and PHT_SIZE: 16384
Initialize SRRIP state for L2C
Initialize DRRIP state for LLC
Heartbeat CPU 0 instructions: 10000003 cycles: 3033856 heartbeat IPC: 3.29614 cumulative IPC: 3.29614 (Simulation time: 0 hr 2 min 45 sec) 
Heartbeat CPU 0 instructions: 20000003 cycles: 5975521 heartbeat IPC: 3.39944 cumulative IPC: 3.34699 (Simulation time: 0 hr 5 min 2 sec) 
Heartbeat CPU 0 instructions: 30000000 cycles: 9156744 heartbeat IPC: 3.14344 cumulative IPC: 3.27627 (Simulation time: 0 hr 7 min 39 sec) 
Heartbeat CPU 0 instructions: 40000003 cycles: 12444582 heartbeat IPC: 3.04151 cumulative IPC: 3.21425 (Simulation time: 0 hr 9 min 53 sec) 
Heartbeat CPU 0 instructions: 50000001 cycles: 15345871 heartbeat IPC: 3.44674 cumulative IPC: 3.25821 (Simulation time: 0 hr 11 min 53 sec) 

Warmup complete CPU 0 instructions: 50000001 cycles: 15345871 (Simulation time: 0 hr 11 min 53 sec) 

% increase in all ip prefetch 264.706
% increase in all ip prefetch 1.0455
Heartbeat CPU 0 instructions: 60000003 cycles: 28482567 heartbeat IPC: 0.761227 cumulative IPC: 0.761227 (Simulation time: 0 hr 14 min 30 sec) 
Heartbeat CPU 0 instructions: 70000003 cycles: 45373288 heartbeat IPC: 0.592041 cumulative IPC: 0.666058 (Simulation time: 0 hr 17 min 19 sec) 
Heartbeat CPU 0 instructions: 80000001 cycles: 55717985 heartbeat IPC: 0.966679 cumulative IPC: 0.743087 (Simulation time: 0 hr 19 min 42 sec) 
Heartbeat CPU 0 instructions: 90000001 cycles: 70097555 heartbeat IPC: 0.695431 cumulative IPC: 0.730571 (Simulation time: 0 hr 22 min 13 sec) 
Heartbeat CPU 0 instructions: 100000000 cycles: 86224479 heartbeat IPC: 0.620081 cumulative IPC: 0.705431 (Simulation time: 0 hr 24 min 49 sec) 
Finished CPU 0 instructions: 50000001 cycles: 70878609 cumulative IPC: 0.705431 (Simulation time: 0 hr 24 min 49 sec) 

ChampSim completed all CPUs

Region of Interest Statistics

CPU 0 cumulative IPC: 0.705431 instructions: 50000001 cycles: 70878609

CPU 0 Average Load ROB stall cycles: 1.86928e+07
CPU 0 Fraction of times ROB stalled by Loads: 39.0242
CPU 0 Percentage of Load stall cycles in Total stall cycles: 2.37373e+08
Issued all: 30612050
Issued LT all: 25191287
rob_not_full_when_issued_lt_all: 18635793
Issued LT one: 19472045
rob_not_full_when_issued_lt_one: 14277161
critical_ip_candidate_identification_operations: 5786226
critical_ip_candidate_identification_operation_per_cycle: 0.0816357
 Total stall cycles: 58381344
 Total load stall cycles: 138581291694224
Unique Load IPs: 16511
CPU 0 NUM of IPS identified critical: 145
CPU 0 Num of Load IPs stalling ROB: 12236
Threshold modification factor: -1
Max PIST entries: 64
Min PIST entries: 0
Avg PIST entries: 30.26
Trouble in retire width: 0.906478
MaC = Marked as critical.
lt_50_percent_before_Mac: 102
gt_90_percent_before_Mac: 9
gt_75_percent_before_Mac: 11
gt_50_percent_before_Mac: 23
stall_proportion_bin_same_before_after: 0
stall_proportion_bin_lower_before_after: 0
stall_proportion_bin_upper_before_after: 0
average_stall_proportion_before: 0.0579324
average_stall_proportion_after: 0.0633429
Critical IP stalls, total frequency: 1187258
Non-critical IP stalls, total frequency: 1705855
Total Freq all stalling IPs: 2893113
Critical_IP_Detector_Accuracy_70: 0.696552
Critical_IP_Detector_Accuracy_80: 0.793103
Critical_IP_Detector_Accuracy_90: 0.944828
Critical_IP_Detector_Coverage_70: 0.258974
Critical_IP_Detector_Coverage_80: 0.158621
Critical_IP_Detector_Coverage_90: 0.100073
stat_90_percent_critical_ip_stalls_freq: 2604022
stat_90_percent_non_critical_ip_stalls_freq: 289091
AVERAGE_ROB_Occupancy_90_Percent_Critical_IP_Stalls: 114.251
AVERAGE_ROB_Occupancy_90_Percent_Non_Critical_IP_Stalls: 64.053
Critical_IP_ROB_Stalls_Bucket_0: 140597
Non-critical_IP_ROB_Stalls_Bucket_0: 911311
Critical_IP_ROB_Stalls_Bucket_1: 252626
Non-critical_IP_ROB_Stalls_Bucket_1: 544141
Critical_IP_ROB_Stalls_Bucket_2: 239887
Non-critical_IP_ROB_Stalls_Bucket_2: 142738
Critical_IP_ROB_Stalls_Bucket_3: 148778
Non-critical_IP_ROB_Stalls_Bucket_3: 46270
Critical_IP_ROB_Stalls_Bucket_4: 60742
Non-critical_IP_ROB_Stalls_Bucket_4: 22202
Critical_IP_ROB_Stalls_Bucket_5: 36659
Non-critical_IP_ROB_Stalls_Bucket_5: 12473
Critical_IP_ROB_Stalls_Bucket_6: 307969
Non-critical_IP_ROB_Stalls_Bucket_6: 26720
0 => IPs accounting for >50 percent of stalls, 1 => 55, 2 => 60, 3 => 65 and so on till 90.
percent50: 50.1076 num IPs:  117
percent55: 55.007 num IPs: 159
percent60: 60.0279 num IPs: 216
percent65: 65.0411 num IPs: 290
percent70: 70.0065 num IPs: 390
percent75: 75.0272 num IPs: 530
percent80: 80.0213 num IPs: 725
percent85: 85.0028 num IPs: 975
percent90: 90.0076 num IPs: 1369
Critical_ROB_Stalls_Percent_0_Bucket_0: 324940
Non-critical_ROB_Stalls_Percent_0_Bucket_0: 726968
Critical_ROB_Stalls_Percent_0_Bucket_1: 344141
Non-critical_ROB_Stalls_Percent_0_Bucket_1: 452626
Critical_ROB_Stalls_Percent_0_Bucket_2: 248848
Non-critical_ROB_Stalls_Percent_0_Bucket_2: 133777
Critical_ROB_Stalls_Percent_0_Bucket_3: 146246
Non-critical_ROB_Stalls_Percent_0_Bucket_3: 48802
Critical_ROB_Stalls_Percent_0_Bucket_4: 57143
Non-critical_ROB_Stalls_Percent_0_Bucket_4: 25801
Critical_ROB_Stalls_Percent_0_Bucket_5: 34341
Non-critical_ROB_Stalls_Percent_0_Bucket_5: 14791
Critical_ROB_Stalls_Percent_0_Bucket_6: 294012
Non-critical_ROB_Stalls_Percent_0_Bucket_6: 40677
Critical_ROB_Stalls_Percent_1_Bucket_0: 389357
Non-critical_ROB_Stalls_Percent_1_Bucket_0: 662551
Critical_ROB_Stalls_Percent_1_Bucket_1: 394878
Non-critical_ROB_Stalls_Percent_1_Bucket_1: 401889
Critical_ROB_Stalls_Percent_1_Bucket_2: 262089
Non-critical_ROB_Stalls_Percent_1_Bucket_2: 120536
Critical_ROB_Stalls_Percent_1_Bucket_3: 151892
Non-critical_ROB_Stalls_Percent_1_Bucket_3: 43156
Critical_ROB_Stalls_Percent_1_Bucket_4: 59569
Non-critical_ROB_Stalls_Percent_1_Bucket_4: 23375
Critical_ROB_Stalls_Percent_1_Bucket_5: 36233
Non-critical_ROB_Stalls_Percent_1_Bucket_5: 12899
Critical_ROB_Stalls_Percent_1_Bucket_6: 297397
Non-critical_ROB_Stalls_Percent_1_Bucket_6: 37292
Critical_ROB_Stalls_Percent_2_Bucket_0: 455407
Non-critical_ROB_Stalls_Percent_2_Bucket_0: 596501
Critical_ROB_Stalls_Percent_2_Bucket_1: 447339
Non-critical_ROB_Stalls_Percent_2_Bucket_1: 349428
Critical_ROB_Stalls_Percent_2_Bucket_2: 273656
Non-critical_ROB_Stalls_Percent_2_Bucket_2: 108969
Critical_ROB_Stalls_Percent_2_Bucket_3: 157448
Non-critical_ROB_Stalls_Percent_2_Bucket_3: 37600
Critical_ROB_Stalls_Percent_2_Bucket_4: 62110
Non-critical_ROB_Stalls_Percent_2_Bucket_4: 20834
Critical_ROB_Stalls_Percent_2_Bucket_5: 37328
Non-critical_ROB_Stalls_Percent_2_Bucket_5: 11804
Critical_ROB_Stalls_Percent_2_Bucket_6: 303387
Non-critical_ROB_Stalls_Percent_2_Bucket_6: 31302
Critical_ROB_Stalls_Percent_3_Bucket_0: 518647
Non-critical_ROB_Stalls_Percent_3_Bucket_0: 533261
Critical_ROB_Stalls_Percent_3_Bucket_1: 496561
Non-critical_ROB_Stalls_Percent_3_Bucket_1: 300206
Critical_ROB_Stalls_Percent_3_Bucket_2: 292780
Non-critical_ROB_Stalls_Percent_3_Bucket_2: 89845
Critical_ROB_Stalls_Percent_3_Bucket_3: 162280
Non-critical_ROB_Stalls_Percent_3_Bucket_3: 32768
Critical_ROB_Stalls_Percent_3_Bucket_4: 66372
Non-critical_ROB_Stalls_Percent_3_Bucket_4: 16572
Critical_ROB_Stalls_Percent_3_Bucket_5: 38967
Non-critical_ROB_Stalls_Percent_3_Bucket_5: 10165
Critical_ROB_Stalls_Percent_3_Bucket_6: 306105
Non-critical_ROB_Stalls_Percent_3_Bucket_6: 28584
Critical_ROB_Stalls_Percent_4_Bucket_0: 579218
Non-critical_ROB_Stalls_Percent_4_Bucket_0: 472690
Critical_ROB_Stalls_Percent_4_Bucket_1: 546473
Non-critical_ROB_Stalls_Percent_4_Bucket_1: 250294
Critical_ROB_Stalls_Percent_4_Bucket_2: 308034
Non-critical_ROB_Stalls_Percent_4_Bucket_2: 74591
Critical_ROB_Stalls_Percent_4_Bucket_3: 167864
Non-critical_ROB_Stalls_Percent_4_Bucket_3: 27184
Critical_ROB_Stalls_Percent_4_Bucket_4: 69340
Non-critical_ROB_Stalls_Percent_4_Bucket_4: 13604
Critical_ROB_Stalls_Percent_4_Bucket_5: 41401
Non-critical_ROB_Stalls_Percent_4_Bucket_5: 7731
Critical_ROB_Stalls_Percent_4_Bucket_6: 313038
Non-critical_ROB_Stalls_Percent_4_Bucket_6: 21651
Critical_ROB_Stalls_Percent_5_Bucket_0: 658488
Non-critical_ROB_Stalls_Percent_5_Bucket_0: 393420
Critical_ROB_Stalls_Percent_5_Bucket_1: 589689
Non-critical_ROB_Stalls_Percent_5_Bucket_1: 207078
Critical_ROB_Stalls_Percent_5_Bucket_2: 319300
Non-critical_ROB_Stalls_Percent_5_Bucket_2: 63325
Critical_ROB_Stalls_Percent_5_Bucket_3: 171748
Non-critical_ROB_Stalls_Percent_5_Bucket_3: 23300
Critical_ROB_Stalls_Percent_5_Bucket_4: 72592
Non-critical_ROB_Stalls_Percent_5_Bucket_4: 10352
Critical_ROB_Stalls_Percent_5_Bucket_5: 43111
Non-critical_ROB_Stalls_Percent_5_Bucket_5: 6021
Critical_ROB_Stalls_Percent_5_Bucket_6: 315695
Non-critical_ROB_Stalls_Percent_5_Bucket_6: 18994
Critical_ROB_Stalls_Percent_6_Bucket_0: 727856
Non-critical_ROB_Stalls_Percent_6_Bucket_0: 324052
Critical_ROB_Stalls_Percent_6_Bucket_1: 640834
Non-critical_ROB_Stalls_Percent_6_Bucket_1: 155933
Critical_ROB_Stalls_Percent_6_Bucket_2: 331878
Non-critical_ROB_Stalls_Percent_6_Bucket_2: 50747
Critical_ROB_Stalls_Percent_6_Bucket_3: 176200
Non-critical_ROB_Stalls_Percent_6_Bucket_3: 18848
Critical_ROB_Stalls_Percent_6_Bucket_4: 74549
Non-critical_ROB_Stalls_Percent_6_Bucket_4: 8395
Critical_ROB_Stalls_Percent_6_Bucket_5: 44256
Non-critical_ROB_Stalls_Percent_6_Bucket_5: 4876
Critical_ROB_Stalls_Percent_6_Bucket_6: 319535
Non-critical_ROB_Stalls_Percent_6_Bucket_6: 15154
Critical_ROB_Stalls_Percent_7_Bucket_0: 813490
Non-critical_ROB_Stalls_Percent_7_Bucket_0: 238418
Critical_ROB_Stalls_Percent_7_Bucket_1: 676651
Non-critical_ROB_Stalls_Percent_7_Bucket_1: 120116
Critical_ROB_Stalls_Percent_7_Bucket_2: 342563
Non-critical_ROB_Stalls_Percent_7_Bucket_2: 40062
Critical_ROB_Stalls_Percent_7_Bucket_3: 180476
Non-critical_ROB_Stalls_Percent_7_Bucket_3: 14572
Critical_ROB_Stalls_Percent_7_Bucket_4: 76786
Non-critical_ROB_Stalls_Percent_7_Bucket_4: 6158
Critical_ROB_Stalls_Percent_7_Bucket_5: 45320
Non-critical_ROB_Stalls_Percent_7_Bucket_5: 3812
Critical_ROB_Stalls_Percent_7_Bucket_6: 323942
Non-critical_ROB_Stalls_Percent_7_Bucket_6: 10747
Critical_ROB_Stalls_Percent_8_Bucket_0: 889577
Non-critical_ROB_Stalls_Percent_8_Bucket_0: 162331
Critical_ROB_Stalls_Percent_8_Bucket_1: 717174
Non-critical_ROB_Stalls_Percent_8_Bucket_1: 79593
Critical_ROB_Stalls_Percent_8_Bucket_2: 357650
Non-critical_ROB_Stalls_Percent_8_Bucket_2: 24975
Critical_ROB_Stalls_Percent_8_Bucket_3: 186353
Non-critical_ROB_Stalls_Percent_8_Bucket_3: 8695
Critical_ROB_Stalls_Percent_8_Bucket_4: 79156
Non-critical_ROB_Stalls_Percent_8_Bucket_4: 3788
Critical_ROB_Stalls_Percent_8_Bucket_5: 46748
Non-critical_ROB_Stalls_Percent_8_Bucket_5: 2384
Critical_ROB_Stalls_Percent_8_Bucket_6: 327364
Non-critical_ROB_Stalls_Percent_8_Bucket_6: 7325
Average ROB occupancy Load Stall Begin: 100.076
Average ROB occupancy Load Stall End: 109.235
Min ROB occupancy Load Stall Begin: 1
Max ROB occupancy Load Stall Begin: 352
Min ROB occupancy Load Stall End: 1
Max ROB occupancy Load Stall End: 352
Average ROB occupancy Critical Load Stall Begin: 179.824
Average ROB occupancy Critical Load Stall End: 188.222
Min ROB occupancy Critical Load Stall Begin: 2
Max ROB occupancy Critical Load Stall Begin: 352
Min ROB occupancy Critical Load Stall End: 2
Max ROB occupancy Critical Load Stall End: 352
 ROB Load Stall Begin Bucket Count 0: 1315158
 ROB Load Stall End Bucket Count 0: 1051908
 ROB Critical Load Stall Begin Bucket Count 0: 165569
 ROB Critical Load Stall End Bucket Count 0: 99174
 ROB Load Stall Begin Bucket Count 1: 643425
 ROB Load Stall End Bucket Count 1: 796767
 ROB Critical Load Stall Begin Bucket Count 1: 173576
 ROB Critical Load Stall End Bucket Count 1: 195369
 ROB Load Stall Begin Bucket Count 2: 331859
 ROB Load Stall End Bucket Count 2: 382625
 ROB Critical Load Stall Begin Bucket Count 2: 189031
 ROB Critical Load Stall End Bucket Count 2: 200319
 ROB Load Stall Begin Bucket Count 3: 162661
 ROB Load Stall End Bucket Count 3: 195048
 ROB Critical Load Stall Begin Bucket Count 3: 114286
 ROB Critical Load Stall End Bucket Count 3: 132812
 ROB Load Stall Begin Bucket Count 4: 71036
 ROB Load Stall End Bucket Count 4: 82944
 ROB Critical Load Stall Begin Bucket Count 4: 45405
 ROB Critical Load Stall End Bucket Count 4: 51439
 ROB Load Stall Begin Bucket Count 5: 43420
 ROB Load Stall End Bucket Count 5: 49132
 ROB Critical Load Stall Begin Bucket Count 5: 28349
 ROB Critical Load Stall End Bucket Count 5: 32127
 ROB Load Stall Begin Bucket Count 6: 325554
 ROB Load Stall End Bucket Count 6: 334689
 ROB Critical Load Stall Begin Bucket Count 6: 296371
 ROB Critical Load Stall End Bucket Count 6: 301347
PIST Tag Read Accesses: 2207878
PIST Read Accesses: 1103939
PIST Tag Write Accesses: 2207878
PIST Write Accesses: 1103939
Criticality detector called times: 1883571
Max global_stall_cycles_count: 4844578
Threshold Modified: 1 times, factor: -1
Sturdy critical IP cache stats: 
 Unused entries: 0
CIC Tag Read Accesses: 0
CIC Read Accesses: 0
CIC Tag Write Accesses: 0
CIC Write Accesses: 0
Wobbly critical IP cache stats: 
 Unused entries: 17
CIC Tag Read Accesses: 89168615
CIC Read Accesses: 0
CIC Tag Write Accesses: 305677
CIC Write Accesses: 0
ITLB TOTAL     ACCESS:    8768684  HIT:    8589780  MISS:     178904  HIT %:    97.9597  MISS %:    2.04026   MPKI: 3.57808
ITLB LOAD TRANSLATION ACCESS:    8150014  HIT:    8137452  MISS:      12562  HIT %:    99.8459  MISS %:   0.154135   MPKI: 0.25124
ITLB TRANSLATION FROM L1D PREFETCHER ACCESS:     618670  HIT:     452328  MISS:     166342  HIT %:     73.113  MISS %:     26.887   MPKI: 3.32684
ITLBprefetch_cycle_count: 0 prefetches_per_prefetch_cycle: -nan
ITLB PREFETCH  REQUESTED:          0  ISSUED:          0  USEFUL:     143253  USELESS:      23094
ITLB USEFUL LOAD PREFETCHES:     143253 PREFETCH ISSUED TO LOWER LEVEL:          0  ACCURACY: inf
ITLB TIMELY PREFETCHES:     143253 LATE PREFETCHES: 39 DROPPED PREFETCHES: 17
ITLB PREFETCHES SAME FILL-ORIGIN LEVEL: 0 DIFFERENT FILL-ORIGIN LEVEL: 0
ITLB AVERAGE MISS LATENCY: 6915.63 cycles
ITLB RQ	ACCESS:   11241266	FORWARD:          0	MERGED:    2459502	TO_CACHE:    8781764

DTLB TOTAL     ACCESS:   11602208  HIT:   11285279  MISS:     316929  HIT %:    97.2684  MISS %:    2.73163   MPKI: 6.33858
DTLB LOAD TRANSLATION ACCESS:   11602208  HIT:   11285279  MISS:     316929  HIT %:    97.2684  MISS %:    2.73163   MPKI: 6.33858
DTLBprefetch_cycle_count: 0 prefetches_per_prefetch_cycle: -nan
DTLB PREFETCH  REQUESTED:          0  ISSUED:          0  USEFUL:          0  USELESS:          0
DTLB USEFUL LOAD PREFETCHES:          0 PREFETCH ISSUED TO LOWER LEVEL:          0  ACCURACY: -nan
DTLB TIMELY PREFETCHES:          0 LATE PREFETCHES: 0 DROPPED PREFETCHES: 0
DTLB PREFETCHES SAME FILL-ORIGIN LEVEL: 0 DIFFERENT FILL-ORIGIN LEVEL: 0
DTLB AVERAGE MISS LATENCY: 10.3499 cycles
DTLB RQ	ACCESS:   13870698	FORWARD:          0	MERGED:    2251991	TO_CACHE:   11618707

STLB TOTAL     ACCESS:     495833  HIT:     491622  MISS:       4211  HIT %:    99.1507  MISS %:   0.849278   MPKI: 0.08422
STLB LOAD TRANSLATION ACCESS:     329452  HIT:     325547  MISS:       3905  HIT %:    98.8147  MISS %:     1.1853   MPKI: 0.0781
STLB TRANSLATION FROM L1D PREFETCHER ACCESS:     166381  HIT:     166075  MISS:        306  HIT %:    99.8161  MISS %:   0.183915   MPKI: 0.00612
STLBprefetch_cycle_count: 0 prefetches_per_prefetch_cycle: -nan
STLB PREFETCH  REQUESTED:          0  ISSUED:          0  USEFUL:        245  USELESS:         49
STLB USEFUL LOAD PREFETCHES:        245 PREFETCH ISSUED TO LOWER LEVEL:          0  ACCURACY: inf
STLB TIMELY PREFETCHES:        245 LATE PREFETCHES: 0 DROPPED PREFETCHES: 17
STLB PREFETCHES SAME FILL-ORIGIN LEVEL: 0 DIFFERENT FILL-ORIGIN LEVEL: 0
STLB AVERAGE MISS LATENCY: 125.59 cycles
STLB RQ	ACCESS:     495850	FORWARD:          0	MERGED:          0	TO_CACHE:     495850

STLB Hit, L1D data hit: 0
STLB Hit, L2C data hit: 0
STLB Hit, LLC data hit: 0
STLB Hit, LLC data miss: 0
STLB STLB hints to L2: 0
L1D TOTAL     ACCESS:   13696449  HIT:   13130348  MISS:     566101  HIT %:    95.8668  MISS %:     4.1332   MPKI: 11.322
L1D LOAD      ACCESS:    8778717  HIT:    8288699  MISS:     490018  HIT %:    94.4181  MISS %:    5.58189   MPKI: 9.80036
L1D RFO       ACCESS:    4917732  HIT:    4841649  MISS:      76083  HIT %:    98.4529  MISS %:    1.54712   MPKI: 1.52166
L1Dprefetch_cycle_count: 0 prefetches_per_prefetch_cycle: -nan
L1D PREFETCH  REQUESTED:          0  ISSUED:          0  USEFUL:          0  USELESS:          0
L1D USEFUL LOAD PREFETCHES:          0 PREFETCH ISSUED TO LOWER LEVEL:          0  ACCURACY: -nan
L1D TIMELY PREFETCHES:          0 LATE PREFETCHES: 0 DROPPED PREFETCHES: 0
L1D PREFETCHES SAME FILL-ORIGIN LEVEL: 0 DIFFERENT FILL-ORIGIN LEVEL: 0
L1D AVERAGE MISS LATENCY: 54.6335 cycles
L1D RQ	ACCESS:   12805322	FORWARD:          0	MERGED:    3886919	TO_CACHE:    8833322
L1D WQ	ACCESS:    5437654	FORWARD:      85081	MERGED:     400278	TO_CACHE:    5037376

L1D UNIQUE REGIONS ACCESSED: 0
L1D REGIONS CONFLICTS: 0
L1D Cross Page Prefetch Requests: 0
L1D Same Page Prefetch Requests: 0
L1D ROI Sum of L1D PQ occupancy: 0
L1D PREFETCHES PUSHED FROM L2C: 0
L1I TOTAL     ACCESS:   11210029  HIT:   10040070  MISS:    1169959  HIT %:    89.5633  MISS %:    10.4367   MPKI: 23.3992
L1I LOAD      ACCESS:    9640243  HIT:    9593407  MISS:      46836  HIT %:    99.5142  MISS %:   0.485838   MPKI: 0.93672
L1I PREFETCH  ACCESS:    1569786  HIT:     446663  MISS:    1123123  HIT %:    28.4538  MISS %:    71.5462   MPKI: 22.4625
L1Iprefetch_cycle_count: 0 prefetches_per_prefetch_cycle: inf
L1I PREFETCH  REQUESTED:    1621703  ISSUED:    1620728  USEFUL:     844204  USELESS:     278972
L1I USEFUL LOAD PREFETCHES:     844204 PREFETCH ISSUED TO LOWER LEVEL:    1130375  ACCURACY: 74.6835
L1I TIMELY PREFETCHES:     844204 LATE PREFETCHES: 6919 DROPPED PREFETCHES: 22
L1I PREFETCHES SAME FILL-ORIGIN LEVEL: 1130375 DIFFERENT FILL-ORIGIN LEVEL: 0
L1I AVERAGE MISS LATENCY: 260400 cycles
L1I RQ	ACCESS:   14356136	FORWARD:          0	MERGED:    4707850	TO_CACHE:    9648286
L1I PQ	ACCESS:    1620728	FORWARD:          0	MERGED:      27748	TO_CACHE:    1592980

BTB TOTAL     ACCESS:    6145704  HIT:    5759281  MISS:     386423  HIT %:    93.7123  MISS %:    6.28769   MPKI: 7.72846
BTB BRANCH_DIRECT_JUMP	ACCESS:     735331  HIT:     732025  MISS:       3306
BTB BRANCH_INDIRECT	ACCESS:     269194  HIT:     145703  MISS:     123491
BTB BRANCH_CONDITIONAL	ACCESS:    3930750  HIT:    3920624  MISS:      10126
BTB BRANCH_DIRECT_CALL	ACCESS:     368758  HIT:     363374  MISS:       5384
BTB BRANCH_INDIRECT_CALL	ACCESS:     226975  HIT:     162973  MISS:      64002
BTB BRANCH_RETURN	ACCESS:     614696  HIT:     434582  MISS:     180114
BTB BRANCH_OTHER ACCESS:          0  HIT:          0  MISS:          0

L2C TOTAL     ACCESS:    2013661  HIT:    1824318  MISS:     189343  HIT %:    90.5971  MISS %:    9.40292   MPKI: 3.78686
L2C LOAD      ACCESS:     529809  HIT:     422624  MISS:     107185  HIT %:    79.7691  MISS %:    20.2309   MPKI: 2.1437
L2C DATA LOAD MPKI: 2.05962
L2C INSTRUCTION LOAD MPKI: 0.08408
L2C RFO       ACCESS:      76073  HIT:      29555  MISS:      46518  HIT %:    38.8508  MISS %:    61.1492   MPKI: 0.93036
L2C PREFETCH  ACCESS:    1171213  HIT:    1139308  MISS:      31905  HIT %:    97.2759  MISS %:     2.7241   MPKI: 0.6381
L2C DATA PREFETCH MPKI: 0.4656
L2C INSTRUCTION PREFETCH MPKI: 0.1725
L2C WRITEBACK ACCESS:     232145  HIT:     230201  MISS:       1944  HIT %:    99.1626  MISS %:   0.837408   MPKI: 0.03888
L2C LOAD TRANSLATION ACCESS:       4073  HIT:       2487  MISS:       1586  HIT %:    61.0606  MISS %:    38.9394   MPKI: 0.03172
L2C TRANSLATION FROM L1D PREFETCHER ACCESS:        348  HIT:        143  MISS:        205  HIT %:     41.092  MISS %:     58.908   MPKI: 0.0041
L2Cprefetch_cycle_count: 8275 prefetches_per_prefetch_cycle: 5.00701
L2C PREFETCH  REQUESTED:      41433  ISSUED:      41433  USEFUL:      14208  USELESS:      19874
L2C USEFUL LOAD PREFETCHES:      14208 PREFETCH ISSUED TO LOWER LEVEL:      32001  ACCURACY: 44.3986
L2C TIMELY PREFETCHES:      14208 LATE PREFETCHES: 96 DROPPED PREFETCHES: 0
L2C PREFETCHES SAME FILL-ORIGIN LEVEL: 23376 DIFFERENT FILL-ORIGIN LEVEL: 0
L2C AVERAGE MISS LATENCY: 149.918 cycles
L2C RQ	ACCESS:     610439	FORWARD:          0	MERGED:          0	TO_CACHE:     610303
L2C WQ	ACCESS:     232145	FORWARD:        136	MERGED:          0	TO_CACHE:     232145
L2C PQ	ACCESS:    1171475	FORWARD:          0	MERGED:          0	TO_CACHE:    1171475

L2C Instructions Evicting Data 9480
L2C Translations Evicting Data 1447
L2C Data Evicting Data 158902
L2C Instructions Evicting Instructions 3070
L2C Translations Evicting Instructions 321
L2C Data Evicting Instructions 12229
L2C Instructions Evicting Translations 279
L2C Translations Evicting Translations 23
L2C Data Evicting Translations 1648
L2C Dense regions hint from L2: 0
PSCL5 TOTAL     ACCESS:       4228  HIT:       4228  MISS:          0  HIT %:        100  MISS %:          0   MPKI: 0
PSCL5 LOAD TRANSLATION ACCESS:       3905  HIT:       3905  MISS:          0  HIT %:        100  MISS %:          0   MPKI: 0
PSCL5 TRANSLATION FROM L1D PREFETCHER ACCESS:        323  HIT:        323  MISS:          0  HIT %:        100  MISS %:          0   MPKI: 0
PSCL5prefetch_cycle_count: 0 prefetches_per_prefetch_cycle: -nan
PSCL5 PREFETCH  REQUESTED:          0  ISSUED:          0  USEFUL:          0  USELESS:          0
PSCL5 USEFUL LOAD PREFETCHES:          0 PREFETCH ISSUED TO LOWER LEVEL:          0  ACCURACY: -nan
PSCL5 TIMELY PREFETCHES:          0 LATE PREFETCHES: 0 DROPPED PREFETCHES: 0
PSCL5 PREFETCHES SAME FILL-ORIGIN LEVEL: 0 DIFFERENT FILL-ORIGIN LEVEL: 0

PSCL4 TOTAL     ACCESS:       3939  HIT:       3932  MISS:          7  HIT %:    99.8223  MISS %:    0.17771   MPKI: 0.00014
PSCL4 LOAD TRANSLATION ACCESS:       3643  HIT:       3636  MISS:          7  HIT %:    99.8079  MISS %:   0.192149   MPKI: 0.00014
PSCL4 TRANSLATION FROM L1D PREFETCHER ACCESS:        296  HIT:        296  MISS:          0  HIT %:        100  MISS %:          0   MPKI: 0
PSCL4prefetch_cycle_count: 0 prefetches_per_prefetch_cycle: -nan
PSCL4 PREFETCH  REQUESTED:          0  ISSUED:          0  USEFUL:          0  USELESS:          0
PSCL4 USEFUL LOAD PREFETCHES:          0 PREFETCH ISSUED TO LOWER LEVEL:          0  ACCURACY: -nan
PSCL4 TIMELY PREFETCHES:          0 LATE PREFETCHES: 0 DROPPED PREFETCHES: 0
PSCL4 PREFETCHES SAME FILL-ORIGIN LEVEL: 0 DIFFERENT FILL-ORIGIN LEVEL: 0

PSCL3 TOTAL     ACCESS:       4169  HIT:       4152  MISS:         17  HIT %:    99.5922  MISS %:   0.407772   MPKI: 0.00034
PSCL3 LOAD TRANSLATION ACCESS:       3854  HIT:       3837  MISS:         17  HIT %:    99.5589  MISS %:     0.4411   MPKI: 0.00034
PSCL3 TRANSLATION FROM L1D PREFETCHER ACCESS:        315  HIT:        315  MISS:          0  HIT %:        100  MISS %:          0   MPKI: 0
PSCL3prefetch_cycle_count: 0 prefetches_per_prefetch_cycle: -nan
PSCL3 PREFETCH  REQUESTED:          0  ISSUED:          0  USEFUL:          0  USELESS:          0
PSCL3 USEFUL LOAD PREFETCHES:          0 PREFETCH ISSUED TO LOWER LEVEL:          0  ACCURACY: -nan
PSCL3 TIMELY PREFETCHES:          0 LATE PREFETCHES: 0 DROPPED PREFETCHES: 0
PSCL3 PREFETCHES SAME FILL-ORIGIN LEVEL: 0 DIFFERENT FILL-ORIGIN LEVEL: 0

PSCL2 TOTAL     ACCESS:       4228  HIT:       4054  MISS:        174  HIT %:    95.8846  MISS %:    4.11542   MPKI: 0.00348
PSCL2 LOAD TRANSLATION ACCESS:       3928  HIT:       3754  MISS:        174  HIT %:    95.5703  MISS %:    4.42974   MPKI: 0.00348
PSCL2 TRANSLATION FROM L1D PREFETCHER ACCESS:        300  HIT:        300  MISS:          0  HIT %:        100  MISS %:          0   MPKI: 0
PSCL2prefetch_cycle_count: 0 prefetches_per_prefetch_cycle: -nan
PSCL2 PREFETCH  REQUESTED:          0  ISSUED:          0  USEFUL:          0  USELESS:          0
PSCL2 USEFUL LOAD PREFETCHES:          0 PREFETCH ISSUED TO LOWER LEVEL:          0  ACCURACY: -nan
PSCL2 TIMELY PREFETCHES:          0 LATE PREFETCHES: 0 DROPPED PREFETCHES: 0
PSCL2 PREFETCHES SAME FILL-ORIGIN LEVEL: 0 DIFFERENT FILL-ORIGIN LEVEL: 0

LLC TOTAL     ACCESS:     257762  HIT:     123453  MISS:     134309  HIT %:    47.8942  MISS %:    52.1058   MPKI: 2.68618
LLC LOAD      ACCESS:     107091  HIT:      40290  MISS:      66801  HIT %:    37.6222  MISS %:    62.3778   MPKI: 1.33602
LLC RFO       ACCESS:      46516  HIT:       5135  MISS:      41381  HIT %:    11.0392  MISS %:    88.9608   MPKI: 0.82762
LLC PREFETCH  ACCESS:      32001  HIT:       9513  MISS:      22488  HIT %:    29.7272  MISS %:    70.2728   MPKI: 0.44976
LLC WRITEBACK ACCESS:      70363  HIT:      67810  MISS:       2553  HIT %:    96.3717  MISS %:    3.62833   MPKI: 0.05106
LLC LOAD TRANSLATION ACCESS:       1586  HIT:        615  MISS:        971  HIT %:    38.7768  MISS %:    61.2232   MPKI: 0.01942
LLC TRANSLATION FROM L1D PREFETCHER ACCESS:        205  HIT:         90  MISS:        115  HIT %:    43.9024  MISS %:    56.0976   MPKI: 0.0023
LLCprefetch_cycle_count: 0 prefetches_per_prefetch_cycle: -nan
LLC PREFETCH  REQUESTED:          0  ISSUED:          0  USEFUL:       4266  USELESS:      19243
LLC USEFUL LOAD PREFETCHES:       4266 PREFETCH ISSUED TO LOWER LEVEL:      22488  ACCURACY: 18.9701
LLC TIMELY PREFETCHES:       4266 LATE PREFETCHES: 0 DROPPED PREFETCHES: 0
LLC PREFETCHES SAME FILL-ORIGIN LEVEL: 0 DIFFERENT FILL-ORIGIN LEVEL: 0
LLC AVERAGE MISS LATENCY: 168.793 cycles
LLC RQ	ACCESS:     155398	FORWARD:          0	MERGED:          0	TO_CACHE:     155398
LLC WQ	ACCESS:      70363	FORWARD:          0	MERGED:          0	TO_CACHE:      70363
LLC PQ	ACCESS:      32001	FORWARD:          0	MERGED:          0	TO_CACHE:      32001

LLC Dense regions hint to LLC: 0

RAW hits: 1074613
Loads Generated: 13879936
Loads sent to L1D: 12805322
Stores Generated: 5437650
Stores sent to L1D: 5437654
Major fault: 0 Minor fault: 4494
Allocated PAGES: 4494
I-Shadow cache 408 bytes
Touched + WorthPF tables 6144 bytes 
MMA filter 174 bytes 
FNL filter 272 bytes 
TOTAL PREFETCHER STORAGE SIZE: 25174 bytes
CPU 0 L1I next line prefetcher final stats
total_pref_operate_instances_l2: 1217492
dynamic_config_counter_instances_l2_1: 770466
dynamic_config_counter_instances_l2_2: 7131
dynamic_config_counter_instances_l2_3: 416985
dynamic_config_counter_instances_l2_4: 293
dynamic_config_counter_instances_l2_5: 22617
[Bingo] PHT Access: 12036
[Bingo] PHT Hit PC+Addr: 3819
[Bingo] PHT Hit PC+Offs: 4274
[Bingo] PHT Miss: 3943
[Bingo] Prefetch PC+Addr: 0
[Bingo] Prefetch PC+Offs: 0
[Bingo] Useful PC+Addr: 0
[Bingo] Useful PC+Offs: 0
[Bingo] Useless PC+Addr: 0
[Bingo] Useless PC+Offs: 0
[Bingo] L1 Prefetch per Region: 0
[Bingo] L2 Prefetch per Region: 6.64216
[Bingo] L3 Prefetch per Region: 0
[Bingo] No Prefetch per Region: 25.3578
[Bingo] Number of Voters Mean: 5.88161
[Bingo] Number of Voters SD: 5.42732
PHT read accesses: 60706
PHT write accesses: 7680
AT read accesses: 129121
AT write accesses: 132851
FT read accesses: 37999
FT write accesses: 12036
PS read accesses: 16597
PS write accesses: 8093
PHT tag read accesses: 304363
PHT tag write accesses: 11499
AT tag read accesses: 5661174
AT tag write accesses: 136716
FT tag read accesses: 3874226
FT tag write accesses: 35725
PS tag read accesses: 2573486
PS tag write accesses: 24611

DRAM Statistics
 CHANNEL 0
 RQ ROW_BUFFER_HIT:      31104  ROW_BUFFER_MISS:     100649
 DBUS_CONGESTED:         42
 WQ ROW_BUFFER_HIT:      10986  ROW_BUFFER_MISS:      49988  FULL:          0

 AVG_CONGESTED_CYCLE: 4
 All warmup complete: 2
Channel 0 Bank busy for read cycles: 0
Channel 0 Bank busy for write cycles: 0
Channel 0
Rank 0
0banks busy for read cycles: 55301667
0banks busy for write cycles: 21264
1banks busy for read cycles: 6773969
1banks busy for write cycles: 3058854
2banks busy for read cycles: 1771814
2banks busy for write cycles: 978243
3banks busy for read cycles: 672544
3banks busy for write cycles: 466752
4banks busy for read cycles: 241711
4banks busy for write cycles: 251648
5banks busy for read cycles: 174816
5banks busy for write cycles: 175318
6banks busy for read cycles: 110961
6banks busy for write cycles: 128674
7banks busy for read cycles: 95934
7banks busy for write cycles: 117634
8banks busy for read cycles: 145985
8banks busy for write cycles: 390822

CPU 0 Branch Prediction Accuracy: 98.8607% MPKI: 1.8623 Average ROB Occupancy at Mispredict: 74.4864
Branch types
NOT_BRANCH: 41826774 83.6535%
BRANCH_DIRECT_JUMP: 735331 1.47066%
BRANCH_INDIRECT: 269194 0.538388%
BRANCH_CONDITIONAL: 5957947 11.9159%
BRANCH_DIRECT_CALL: 368758 0.737516%
BRANCH_INDIRECT_CALL: 226975 0.45395%
BRANCH_RETURN: 614696 1.22939%
BRANCH_OTHER: 0 0%

DRAM PAGES: 1048576
Allocated PAGES: 4494
