
*** ChampSim Multicore Out-of-Order Simulator ***

Warmup Instructions: 50000000
Simulation Instructions: 50000000
Number of CPUs: 1
LLC sets: 2048
LLC ways: 16
Off-chip DRAM Size: 4096 MB Channels: 1 Width: 64-bit Data Rate: 6400 MT/s
CPU 0 runs ../IPC-traces//client_005.champsimtrace.xz
.xz
NUM_OF_IPS_IN_CRITICAL_IP_TRAINING: 64
NUM_OF_CRITICAL_IP_TRAINING_TABLE_WAYS: 2
NUM_OF_CRITICAL_IP_TRAINING_TABLE_SETS: 32
WOBBLY_CRITICAL_IP_CACHE_SETS: 32
WOBBLY_CRITICAL_IP_CACHE_WAYS: 4
BTB has LRU replacement policy
ITLB has LRU replacement policy
DTLB has LRU replacement policy
STLB has LRU replacement policy
CPU 0 L1I next line prefetcher
L1I has LRU replacement policy
IP Table Entries: 256
L1D has LRU replacement policy
IP_Table L2 entries: 256
Initialize SRRIP state for L2C
Initialize DRRIP state for LLC
Heartbeat CPU 0 instructions: 10000001 cycles: 2798908 heartbeat IPC: 3.57282 cumulative IPC: 3.57282 (Simulation time: 0 hr 3 min 50 sec) 
Heartbeat CPU 0 instructions: 20000002 cycles: 5591049 heartbeat IPC: 3.58148 cumulative IPC: 3.57715 (Simulation time: 0 hr 6 min 57 sec) 
Heartbeat CPU 0 instructions: 30000001 cycles: 8439289 heartbeat IPC: 3.51094 cumulative IPC: 3.5548 (Simulation time: 0 hr 10 min 3 sec) 
Heartbeat CPU 0 instructions: 40000000 cycles: 11284990 heartbeat IPC: 3.51407 cumulative IPC: 3.54453 (Simulation time: 0 hr 12 min 35 sec) 
Heartbeat CPU 0 instructions: 50000001 cycles: 14054198 heartbeat IPC: 3.61114 cumulative IPC: 3.55766 (Simulation time: 0 hr 14 min 54 sec) 

Warmup complete CPU 0 instructions: 50000001 cycles: 14054198 (Simulation time: 0 hr 14 min 54 sec) 

% increase in all ip prefetch 397.769
% increase in all ip prefetch 5.68216
% increase in all ip prefetch 7.8874
% increase in all ip prefetch 4.55864
% increase in all ip prefetch -6.08965
Heartbeat CPU 0 instructions: 60000001 cycles: 29648846 heartbeat IPC: 0.641246 cumulative IPC: 0.641246 (Simulation time: 0 hr 17 min 23 sec) 
Heartbeat CPU 0 instructions: 70000002 cycles: 43878623 heartbeat IPC: 0.702752 cumulative IPC: 0.670591 (Simulation time: 0 hr 19 min 50 sec) 
Heartbeat CPU 0 instructions: 80000001 cycles: 56917735 heartbeat IPC: 0.766923 cumulative IPC: 0.699896 (Simulation time: 0 hr 22 min 25 sec) 
Heartbeat CPU 0 instructions: 90000002 cycles: 72379769 heartbeat IPC: 0.646746 cumulative IPC: 0.685806 (Simulation time: 0 hr 25 min 8 sec) 
Heartbeat CPU 0 instructions: 100000002 cycles: 87337795 heartbeat IPC: 0.668537 cumulative IPC: 0.682281 (Simulation time: 0 hr 27 min 50 sec) 
Finished CPU 0 instructions: 50000001 cycles: 73283597 cumulative IPC: 0.682281 (Simulation time: 0 hr 27 min 50 sec) 

ChampSim completed all CPUs

Region of Interest Statistics

CPU 0 cumulative IPC: 0.682281 instructions: 50000001 cycles: 73283597

CPU 0 Average Load ROB stall cycles: 1.71277e+07
CPU 0 Fraction of times ROB stalled by Loads: 34.3596
CPU 0 Percentage of Load stall cycles in Total stall cycles: 2.44292e+08
Issued all: 27160195
Issued LT all: 21454643
rob_not_full_when_issued_lt_all: 20383132
Issued LT one: 16208671
rob_not_full_when_issued_lt_one: 15247254
critical_ip_candidate_identification_operations: 5852074
critical_ip_candidate_identification_operation_per_cycle: 0.0798552
 Total stall cycles: 59706432
 Total load stall cycles: 145857814804714
Unique Load IPs: 41101
CPU 0 NUM of IPS identified critical: 158
CPU 0 Num of Load IPs stalling ROB: 27677
Threshold modification factor: -4
Max PIST entries: 64
Min PIST entries: 0
Avg PIST entries: 31.95
Trouble in retire width: 0.870116
MaC = Marked as critical.
lt_50_percent_before_Mac: 103
gt_90_percent_before_Mac: 8
gt_75_percent_before_Mac: 12
gt_50_percent_before_Mac: 35
stall_proportion_bin_same_before_after: 0
stall_proportion_bin_lower_before_after: 0
stall_proportion_bin_upper_before_after: 0
average_stall_proportion_before: 0.0627742
average_stall_proportion_after: 0.0621554
Critical IP stalls, total frequency: 376844
Non-critical IP stalls, total frequency: 2549193
Total Freq all stalling IPs: 2926037
Critical_IP_Detector_Accuracy_70: 0.556962
Critical_IP_Detector_Accuracy_80: 0.753165
Critical_IP_Detector_Accuracy_90: 0.955696
Critical_IP_Detector_Coverage_70: 0.121547
Critical_IP_Detector_Coverage_80: 0.0873074
Critical_IP_Detector_Coverage_90: 0.0517833
stat_90_percent_critical_ip_stalls_freq: 2633456
stat_90_percent_non_critical_ip_stalls_freq: 292581
AVERAGE_ROB_Occupancy_90_Percent_Critical_IP_Stalls: 71.5924
AVERAGE_ROB_Occupancy_90_Percent_Non_Critical_IP_Stalls: 36.5386
Critical_IP_ROB_Stalls_Bucket_0: 129476
Non-critical_IP_ROB_Stalls_Bucket_0: 1331415
Critical_IP_ROB_Stalls_Bucket_1: 108711
Non-critical_IP_ROB_Stalls_Bucket_1: 730390
Critical_IP_ROB_Stalls_Bucket_2: 50735
Non-critical_IP_ROB_Stalls_Bucket_2: 324920
Critical_IP_ROB_Stalls_Bucket_3: 29956
Non-critical_IP_ROB_Stalls_Bucket_3: 102713
Critical_IP_ROB_Stalls_Bucket_4: 14217
Non-critical_IP_ROB_Stalls_Bucket_4: 34693
Critical_IP_ROB_Stalls_Bucket_5: 12301
Non-critical_IP_ROB_Stalls_Bucket_5: 15820
Critical_IP_ROB_Stalls_Bucket_6: 31448
Non-critical_IP_ROB_Stalls_Bucket_6: 9242
0 => IPs accounting for >50 percent of stalls, 1 => 55, 2 => 60, 3 => 65 and so on till 90.
percent50: 50.0315 num IPs:  200
percent55: 55.0507 num IPs: 281
percent60: 60.0075 num IPs: 391
percent65: 65.0198 num IPs: 531
percent70: 70.0166 num IPs: 724
percent75: 75.0039 num IPs: 993
percent80: 80.0093 num IPs: 1363
percent85: 85.003 num IPs: 1922
percent90: 90.0008 num IPs: 2916
Critical_ROB_Stalls_Percent_0_Bucket_0: 541328
Non-critical_ROB_Stalls_Percent_0_Bucket_0: 919563
Critical_ROB_Stalls_Percent_0_Bucket_1: 492608
Non-critical_ROB_Stalls_Percent_0_Bucket_1: 346493
Critical_ROB_Stalls_Percent_0_Bucket_2: 261549
Non-critical_ROB_Stalls_Percent_0_Bucket_2: 114106
Critical_ROB_Stalls_Percent_0_Bucket_3: 92155
Non-critical_ROB_Stalls_Percent_0_Bucket_3: 40514
Critical_ROB_Stalls_Percent_0_Bucket_4: 29744
Non-critical_ROB_Stalls_Percent_0_Bucket_4: 19166
Critical_ROB_Stalls_Percent_0_Bucket_5: 19980
Non-critical_ROB_Stalls_Percent_0_Bucket_5: 8141
Critical_ROB_Stalls_Percent_0_Bucket_6: 26576
Non-critical_ROB_Stalls_Percent_0_Bucket_6: 14114
Critical_ROB_Stalls_Percent_1_Bucket_0: 620392
Non-critical_ROB_Stalls_Percent_1_Bucket_0: 840499
Critical_ROB_Stalls_Percent_1_Bucket_1: 536341
Non-critical_ROB_Stalls_Percent_1_Bucket_1: 302760
Critical_ROB_Stalls_Percent_1_Bucket_2: 274241
Non-critical_ROB_Stalls_Percent_1_Bucket_2: 101414
Critical_ROB_Stalls_Percent_1_Bucket_3: 96571
Non-critical_ROB_Stalls_Percent_1_Bucket_3: 36098
Critical_ROB_Stalls_Percent_1_Bucket_4: 31546
Non-critical_ROB_Stalls_Percent_1_Bucket_4: 17364
Critical_ROB_Stalls_Percent_1_Bucket_5: 20833
Non-critical_ROB_Stalls_Percent_1_Bucket_5: 7288
Critical_ROB_Stalls_Percent_1_Bucket_6: 30880
Non-critical_ROB_Stalls_Percent_1_Bucket_6: 9810
Critical_ROB_Stalls_Percent_2_Bucket_0: 693225
Non-critical_ROB_Stalls_Percent_2_Bucket_0: 767666
Critical_ROB_Stalls_Percent_2_Bucket_1: 580537
Non-critical_ROB_Stalls_Percent_2_Bucket_1: 258564
Critical_ROB_Stalls_Percent_2_Bucket_2: 287358
Non-critical_ROB_Stalls_Percent_2_Bucket_2: 88297
Critical_ROB_Stalls_Percent_2_Bucket_3: 102329
Non-critical_ROB_Stalls_Percent_2_Bucket_3: 30340
Critical_ROB_Stalls_Percent_2_Bucket_4: 36605
Non-critical_ROB_Stalls_Percent_2_Bucket_4: 12305
Critical_ROB_Stalls_Percent_2_Bucket_5: 22402
Non-critical_ROB_Stalls_Percent_2_Bucket_5: 5719
Critical_ROB_Stalls_Percent_2_Bucket_6: 33386
Non-critical_ROB_Stalls_Percent_2_Bucket_6: 7304
Critical_ROB_Stalls_Percent_3_Bucket_0: 760443
Non-critical_ROB_Stalls_Percent_3_Bucket_0: 700448
Critical_ROB_Stalls_Percent_3_Bucket_1: 629211
Non-critical_ROB_Stalls_Percent_3_Bucket_1: 209890
Critical_ROB_Stalls_Percent_3_Bucket_2: 307000
Non-critical_ROB_Stalls_Percent_3_Bucket_2: 68655
Critical_ROB_Stalls_Percent_3_Bucket_3: 108785
Non-critical_ROB_Stalls_Percent_3_Bucket_3: 23884
Critical_ROB_Stalls_Percent_3_Bucket_4: 39459
Non-critical_ROB_Stalls_Percent_3_Bucket_4: 9451
Critical_ROB_Stalls_Percent_3_Bucket_5: 23479
Non-critical_ROB_Stalls_Percent_3_Bucket_5: 4642
Critical_ROB_Stalls_Percent_3_Bucket_6: 34127
Non-critical_ROB_Stalls_Percent_3_Bucket_6: 6563
Critical_ROB_Stalls_Percent_4_Bucket_0: 856678
Non-critical_ROB_Stalls_Percent_4_Bucket_0: 604213
Critical_ROB_Stalls_Percent_4_Bucket_1: 659829
Non-critical_ROB_Stalls_Percent_4_Bucket_1: 179272
Critical_ROB_Stalls_Percent_4_Bucket_2: 319039
Non-critical_ROB_Stalls_Percent_4_Bucket_2: 56616
Critical_ROB_Stalls_Percent_4_Bucket_3: 112537
Non-critical_ROB_Stalls_Percent_4_Bucket_3: 20132
Critical_ROB_Stalls_Percent_4_Bucket_4: 41239
Non-critical_ROB_Stalls_Percent_4_Bucket_4: 7671
Critical_ROB_Stalls_Percent_4_Bucket_5: 24192
Non-critical_ROB_Stalls_Percent_4_Bucket_5: 3929
Critical_ROB_Stalls_Percent_4_Bucket_6: 35197
Non-critical_ROB_Stalls_Percent_4_Bucket_6: 5493
Critical_ROB_Stalls_Percent_5_Bucket_0: 943292
Non-critical_ROB_Stalls_Percent_5_Bucket_0: 517599
Critical_ROB_Stalls_Percent_5_Bucket_1: 697288
Non-critical_ROB_Stalls_Percent_5_Bucket_1: 141813
Critical_ROB_Stalls_Percent_5_Bucket_2: 332036
Non-critical_ROB_Stalls_Percent_5_Bucket_2: 43619
Critical_ROB_Stalls_Percent_5_Bucket_3: 116950
Non-critical_ROB_Stalls_Percent_5_Bucket_3: 15719
Critical_ROB_Stalls_Percent_5_Bucket_4: 43236
Non-critical_ROB_Stalls_Percent_5_Bucket_4: 5674
Critical_ROB_Stalls_Percent_5_Bucket_5: 25327
Non-critical_ROB_Stalls_Percent_5_Bucket_5: 2794
Critical_ROB_Stalls_Percent_5_Bucket_6: 36512
Non-critical_ROB_Stalls_Percent_5_Bucket_6: 4178
Critical_ROB_Stalls_Percent_6_Bucket_0: 1035875
Non-critical_ROB_Stalls_Percent_6_Bucket_0: 425016
Critical_ROB_Stalls_Percent_6_Bucket_1: 736251
Non-critical_ROB_Stalls_Percent_6_Bucket_1: 102850
Critical_ROB_Stalls_Percent_6_Bucket_2: 341011
Non-critical_ROB_Stalls_Percent_6_Bucket_2: 34644
Critical_ROB_Stalls_Percent_6_Bucket_3: 120137
Non-critical_ROB_Stalls_Percent_6_Bucket_3: 12532
Critical_ROB_Stalls_Percent_6_Bucket_4: 44537
Non-critical_ROB_Stalls_Percent_6_Bucket_4: 4373
Critical_ROB_Stalls_Percent_6_Bucket_5: 25998
Non-critical_ROB_Stalls_Percent_6_Bucket_5: 2123
Critical_ROB_Stalls_Percent_6_Bucket_6: 37294
Non-critical_ROB_Stalls_Percent_6_Bucket_6: 3396
Critical_ROB_Stalls_Percent_7_Bucket_0: 1134106
Non-critical_ROB_Stalls_Percent_7_Bucket_0: 326785
Critical_ROB_Stalls_Percent_7_Bucket_1: 766665
Non-critical_ROB_Stalls_Percent_7_Bucket_1: 72436
Critical_ROB_Stalls_Percent_7_Bucket_2: 351585
Non-critical_ROB_Stalls_Percent_7_Bucket_2: 24070
Critical_ROB_Stalls_Percent_7_Bucket_3: 123449
Non-critical_ROB_Stalls_Percent_7_Bucket_3: 9220
Critical_ROB_Stalls_Percent_7_Bucket_4: 45827
Non-critical_ROB_Stalls_Percent_7_Bucket_4: 3083
Critical_ROB_Stalls_Percent_7_Bucket_5: 26722
Non-critical_ROB_Stalls_Percent_7_Bucket_5: 1399
Critical_ROB_Stalls_Percent_7_Bucket_6: 38863
Non-critical_ROB_Stalls_Percent_7_Bucket_6: 1827
Critical_ROB_Stalls_Percent_8_Bucket_0: 1231563
Non-critical_ROB_Stalls_Percent_8_Bucket_0: 229328
Critical_ROB_Stalls_Percent_8_Bucket_1: 796828
Non-critical_ROB_Stalls_Percent_8_Bucket_1: 42273
Critical_ROB_Stalls_Percent_8_Bucket_2: 362848
Non-critical_ROB_Stalls_Percent_8_Bucket_2: 12807
Critical_ROB_Stalls_Percent_8_Bucket_3: 128031
Non-critical_ROB_Stalls_Percent_8_Bucket_3: 4638
Critical_ROB_Stalls_Percent_8_Bucket_4: 47194
Non-critical_ROB_Stalls_Percent_8_Bucket_4: 1716
Critical_ROB_Stalls_Percent_8_Bucket_5: 27360
Non-critical_ROB_Stalls_Percent_8_Bucket_5: 761
Critical_ROB_Stalls_Percent_8_Bucket_6: 39632
Non-critical_ROB_Stalls_Percent_8_Bucket_6: 1058
Average ROB occupancy Load Stall Begin: 58.6037
Average ROB occupancy Load Stall End: 68.0873
Min ROB occupancy Load Stall Begin: 1
Max ROB occupancy Load Stall Begin: 352
Min ROB occupancy Load Stall End: 1
Max ROB occupancy Load Stall End: 352
Average ROB occupancy Critical Load Stall Begin: 105.819
Average ROB occupancy Critical Load Stall End: 116.945
Min ROB occupancy Critical Load Stall Begin: 2
Max ROB occupancy Critical Load Stall Begin: 352
Min ROB occupancy Critical Load Stall End: 2
Max ROB occupancy Critical Load Stall End: 352
 ROB Load Stall Begin Bucket Count 0: 1717395
 ROB Load Stall End Bucket Count 0: 1460891
 ROB Critical Load Stall Begin Bucket Count 0: 112262
 ROB Critical Load Stall End Bucket Count 0: 82561
 ROB Load Stall Begin Bucket Count 1: 705193
 ROB Load Stall End Bucket Count 1: 839101
 ROB Critical Load Stall Begin Bucket Count 1: 61331
 ROB Critical Load Stall End Bucket Count 1: 79038
 ROB Load Stall Begin Bucket Count 2: 304053
 ROB Load Stall End Bucket Count 2: 375655
 ROB Critical Load Stall Begin Bucket Count 2: 36774
 ROB Critical Load Stall End Bucket Count 2: 40686
 ROB Load Stall Begin Bucket Count 3: 100835
 ROB Load Stall End Bucket Count 3: 132669
 ROB Critical Load Stall Begin Bucket Count 3: 20846
 ROB Critical Load Stall End Bucket Count 3: 25233
 ROB Load Stall Begin Bucket Count 4: 38326
 ROB Load Stall End Bucket Count 4: 48910
 ROB Critical Load Stall Begin Bucket Count 4: 10246
 ROB Critical Load Stall End Bucket Count 4: 11270
 ROB Load Stall Begin Bucket Count 5: 24990
 ROB Load Stall End Bucket Count 5: 28121
 ROB Critical Load Stall Begin Bucket Count 5: 11033
 ROB Critical Load Stall End Bucket Count 5: 10758
 ROB Load Stall Begin Bucket Count 6: 35245
 ROB Load Stall End Bucket Count 6: 40690
 ROB Critical Load Stall Begin Bucket Count 6: 25326
 ROB Critical Load Stall End Bucket Count 6: 28272
PIST Tag Read Accesses: 4630668
PIST Read Accesses: 2315334
PIST Tag Write Accesses: 4630668
PIST Write Accesses: 2315334
Criticality detector called times: 2660243
Max global_stall_cycles_count: 4355042
Threshold Modified: 4 times, factor: -4
Sturdy critical IP cache stats: 
 Unused entries: 0
CIC Tag Read Accesses: 0
CIC Read Accesses: 0
CIC Tag Write Accesses: 0
CIC Write Accesses: 0
Wobbly critical IP cache stats: 
 Unused entries: 14
CIC Tag Read Accesses: 80166857
CIC Read Accesses: 0
CIC Tag Write Accesses: 60373
CIC Write Accesses: 0
ITLB TOTAL     ACCESS:    9249003  HIT:    9131297  MISS:     117706  HIT %:    98.7274  MISS %:    1.27263   MPKI: 2.35412
ITLB LOAD TRANSLATION ACCESS:    8276762  HIT:    8218012  MISS:      58750  HIT %:    99.2902  MISS %:   0.709819   MPKI: 1.175
ITLB TRANSLATION FROM L1D PREFETCHER ACCESS:     972241  HIT:     913285  MISS:      58956  HIT %:    93.9361  MISS %:    6.06393   MPKI: 1.17912
ITLBprefetch_cycle_count: 0 prefetches_per_prefetch_cycle: -nan
ITLB PREFETCH  REQUESTED:          0  ISSUED:          0  USEFUL:      47709  USELESS:      11248
ITLB USEFUL LOAD PREFETCHES:      47709 PREFETCH ISSUED TO LOWER LEVEL:          0  ACCURACY: inf
ITLB TIMELY PREFETCHES:      47709 LATE PREFETCHES: 367 DROPPED PREFETCHES: 341
ITLB PREFETCHES SAME FILL-ORIGIN LEVEL: 0 DIFFERENT FILL-ORIGIN LEVEL: 0
ITLB AVERAGE MISS LATENCY: 149730 cycles
ITLB RQ	ACCESS:   12548753	FORWARD:          0	MERGED:    3280201	TO_CACHE:    9268552

DTLB TOTAL     ACCESS:   10424188  HIT:   10222647  MISS:     201541  HIT %:    98.0666  MISS %:     1.9334   MPKI: 4.03082
DTLB LOAD TRANSLATION ACCESS:   10424188  HIT:   10222647  MISS:     201541  HIT %:    98.0666  MISS %:     1.9334   MPKI: 4.03082
DTLBprefetch_cycle_count: 0 prefetches_per_prefetch_cycle: -nan
DTLB PREFETCH  REQUESTED:          0  ISSUED:          0  USEFUL:          0  USELESS:          0
DTLB USEFUL LOAD PREFETCHES:          0 PREFETCH ISSUED TO LOWER LEVEL:          0  ACCURACY: -nan
DTLB TIMELY PREFETCHES:          0 LATE PREFETCHES: 0 DROPPED PREFETCHES: 0
DTLB PREFETCHES SAME FILL-ORIGIN LEVEL: 0 DIFFERENT FILL-ORIGIN LEVEL: 0
DTLB AVERAGE MISS LATENCY: 12.9968 cycles
DTLB RQ	ACCESS:   14361886	FORWARD:          0	MERGED:    3906929	TO_CACHE:   10454957

STLB TOTAL     ACCESS:     503640  HIT:     491761  MISS:      11879  HIT %:    97.6414  MISS %:    2.35863   MPKI: 0.23758
STLB LOAD TRANSLATION ACCESS:     259926  HIT:     248828  MISS:      11098  HIT %:    95.7303  MISS %:    4.26968   MPKI: 0.22196
STLB TRANSLATION FROM L1D PREFETCHER ACCESS:     243714  HIT:     242933  MISS:        781  HIT %:    99.6795  MISS %:   0.320458   MPKI: 0.01562
STLBprefetch_cycle_count: 0 prefetches_per_prefetch_cycle: -nan
STLB PREFETCH  REQUESTED:          0  ISSUED:          0  USEFUL:        543  USELESS:        237
STLB USEFUL LOAD PREFETCHES:        543 PREFETCH ISSUED TO LOWER LEVEL:          0  ACCURACY: inf
STLB TIMELY PREFETCHES:        543 LATE PREFETCHES: 0 DROPPED PREFETCHES: 343
STLB PREFETCHES SAME FILL-ORIGIN LEVEL: 0 DIFFERENT FILL-ORIGIN LEVEL: 0
STLB AVERAGE MISS LATENCY: 82.1778 cycles
STLB RQ	ACCESS:     531864	FORWARD:          0	MERGED:      27881	TO_CACHE:     503983

STLB Hit, L1D data hit: 0
STLB Hit, L2C data hit: 0
STLB Hit, LLC data hit: 0
STLB Hit, LLC data miss: 0
STLB STLB hints to L2: 0
L1D TOTAL     ACCESS:   14077218  HIT:   13650905  MISS:     426313  HIT %:    96.9716  MISS %:    3.02839   MPKI: 8.52626
L1D LOAD      ACCESS:    7074247  HIT:    6901230  MISS:     173017  HIT %:    97.5543  MISS %:    2.44573   MPKI: 3.46034
L1D RFO       ACCESS:    6801234  HIT:    6606441  MISS:     194793  HIT %:    97.1359  MISS %:    2.86408   MPKI: 3.89586
L1D PREFETCH  ACCESS:     201737  HIT:     143234  MISS:      58503  HIT %:    71.0004  MISS %:    28.9996   MPKI: 1.17006
L1Dprefetch_cycle_count: 187196 prefetches_per_prefetch_cycle: 2.26942
L1D PREFETCH  REQUESTED:     424910  ISSUED:     424827  USEFUL:      25835  USELESS:      32730
L1D USEFUL LOAD PREFETCHES:      25835 PREFETCH ISSUED TO LOWER LEVEL:      63665  ACCURACY: 40.5796
L1D TIMELY PREFETCHES:      25835 LATE PREFETCHES: 4533 DROPPED PREFETCHES: 0
L1D PREFETCHES SAME FILL-ORIGIN LEVEL: 63665 DIFFERENT FILL-ORIGIN LEVEL: 0
L1D AVERAGE MISS LATENCY: 654733 cycles
L1D RQ	ACCESS:   10978909	FORWARD:          0	MERGED:    3725054	TO_CACHE:    7100717
L1D WQ	ACCESS:    7412318	FORWARD:     153417	MERGED:     151149	TO_CACHE:    7261169
L1D PQ	ACCESS:     212553	FORWARD:          0	MERGED:          0	TO_CACHE:     212274

L1D UNIQUE REGIONS ACCESSED: 0
L1D REGIONS CONFLICTS: 0
L1D Cross Page Prefetch Requests: 0
L1D Same Page Prefetch Requests: 635296
L1D ROI Sum of L1D PQ occupancy: 2775168
L1D PREFETCHES PUSHED FROM L2C: 0
L1I TOTAL     ACCESS:   12412074  HIT:   11342721  MISS:    1069353  HIT %:    91.3846  MISS %:    8.61543   MPKI: 21.3871
L1I LOAD      ACCESS:    9749641  HIT:    9477721  MISS:     271920  HIT %:     97.211  MISS %:    2.78903   MPKI: 5.4384
L1I PREFETCH  ACCESS:    2662433  HIT:    1865000  MISS:     797433  HIT %:    70.0487  MISS %:    29.9513   MPKI: 15.9487
L1Iprefetch_cycle_count: 0 prefetches_per_prefetch_cycle: inf
L1I PREFETCH  REQUESTED:    2917335  ISSUED:    2914776  USEFUL:     509132  USELESS:     288249
L1I USEFUL LOAD PREFETCHES:     509132 PREFETCH ISSUED TO LOWER LEVEL:     827215  ACCURACY: 61.5477
L1I TIMELY PREFETCHES:     509132 LATE PREFETCHES: 29782 DROPPED PREFETCHES: 722
L1I PREFETCHES SAME FILL-ORIGIN LEVEL: 827215 DIFFERENT FILL-ORIGIN LEVEL: 0
L1I AVERAGE MISS LATENCY: 1.31133e+06 cycles
L1I RQ	ACCESS:   14561840	FORWARD:          0	MERGED:    4774797	TO_CACHE:    9787043
L1I PQ	ACCESS:    2914776	FORWARD:          0	MERGED:     153066	TO_CACHE:    2761710

BTB TOTAL     ACCESS:    6897112  HIT:    6294074  MISS:     603038  HIT %:    91.2567  MISS %:    8.74334   MPKI: 12.0608
BTB BRANCH_DIRECT_JUMP	ACCESS:     484667  HIT:     467652  MISS:      17015
BTB BRANCH_INDIRECT	ACCESS:      85086  HIT:      43882  MISS:      41204
BTB BRANCH_CONDITIONAL	ACCESS:    3984632  HIT:    3933521  MISS:      51111
BTB BRANCH_DIRECT_CALL	ACCESS:    1028917  HIT:     994054  MISS:      34863
BTB BRANCH_INDIRECT_CALL	ACCESS:     141825  HIT:     105579  MISS:      36246
BTB BRANCH_RETURN	ACCESS:    1171985  HIT:     749386  MISS:     422599
BTB BRANCH_OTHER ACCESS:          0  HIT:          0  MISS:          0

L2C TOTAL     ACCESS:    2205711  HIT:    1768248  MISS:     437463  HIT %:    80.1668  MISS %:    19.8332   MPKI: 8.74926
L2C LOAD      ACCESS:     410613  HIT:     303214  MISS:     107399  HIT %:    73.8442  MISS %:    26.1558   MPKI: 2.14798
L2C DATA LOAD MPKI: 1.62386
L2C INSTRUCTION LOAD MPKI: 0.52412
L2C RFO       ACCESS:     194159  HIT:      32662  MISS:     161497  HIT %:    16.8223  MISS %:    83.1777   MPKI: 3.22994
L2C PREFETCH  ACCESS:    1344562  HIT:    1193674  MISS:     150888  HIT %:    88.7779  MISS %:    11.2221   MPKI: 3.01776
L2C DATA PREFETCH MPKI: 1.80362
L2C INSTRUCTION PREFETCH MPKI: 1.21414
L2C WRITEBACK ACCESS:     243223  HIT:     229817  MISS:      13406  HIT %:    94.4882  MISS %:    5.51181   MPKI: 0.26812
L2C LOAD TRANSLATION ACCESS:      11938  HIT:       8024  MISS:       3914  HIT %:    67.2139  MISS %:    32.7861   MPKI: 0.07828
L2C TRANSLATION FROM L1D PREFETCHER ACCESS:       1216  HIT:        857  MISS:        359  HIT %:     70.477  MISS %:     29.523   MPKI: 0.00718
L2Cprefetch_cycle_count: 901069 prefetches_per_prefetch_cycle: 1.00104
L2C PREFETCH  REQUESTED:     902008  ISSUED:     902008  USEFUL:      22174  USELESS:     127804
L2C USEFUL LOAD PREFETCHES:      22174 PREFETCH ISSUED TO LOWER LEVEL:     152312  ACCURACY: 14.5583
L2C TIMELY PREFETCHES:      22174 LATE PREFETCHES: 1424 DROPPED PREFETCHES: 0
L2C PREFETCHES SAME FILL-ORIGIN LEVEL: 61204 DIFFERENT FILL-ORIGIN LEVEL: 0
L2C AVERAGE MISS LATENCY: 119.709 cycles
L2C RQ	ACCESS:     617940	FORWARD:          0	MERGED:          0	TO_CACHE:     617926
L2C WQ	ACCESS:     243223	FORWARD:         15	MERGED:          0	TO_CACHE:     243223
L2C PQ	ACCESS:    1792888	FORWARD:          0	MERGED:     441962	TO_CACHE:    1350925

L2C Instructions Evicting Data 57352
L2C Translations Evicting Data 3102
L2C Data Evicting Data 276920
L2C Instructions Evicting Instructions 28534
L2C Translations Evicting Instructions 1097
L2C Data Evicting Instructions 52917
L2C Instructions Evicting Translations 1027
L2C Translations Evicting Translations 74
L2C Data Evicting Translations 3034
L2C Dense regions hint from L2: 0
PSCL5 TOTAL     ACCESS:      12222  HIT:      12222  MISS:          0  HIT %:        100  MISS %:          0   MPKI: 0
PSCL5 LOAD TRANSLATION ACCESS:      11098  HIT:      11098  MISS:          0  HIT %:        100  MISS %:          0   MPKI: 0
PSCL5 TRANSLATION FROM L1D PREFETCHER ACCESS:       1124  HIT:       1124  MISS:          0  HIT %:        100  MISS %:          0   MPKI: 0
PSCL5prefetch_cycle_count: 0 prefetches_per_prefetch_cycle: -nan
PSCL5 PREFETCH  REQUESTED:          0  ISSUED:          0  USEFUL:          0  USELESS:          0
PSCL5 USEFUL LOAD PREFETCHES:          0 PREFETCH ISSUED TO LOWER LEVEL:          0  ACCURACY: -nan
PSCL5 TIMELY PREFETCHES:          0 LATE PREFETCHES: 0 DROPPED PREFETCHES: 0
PSCL5 PREFETCHES SAME FILL-ORIGIN LEVEL: 0 DIFFERENT FILL-ORIGIN LEVEL: 0

PSCL4 TOTAL     ACCESS:      12222  HIT:      12222  MISS:          0  HIT %:        100  MISS %:          0   MPKI: 0
PSCL4 LOAD TRANSLATION ACCESS:      11098  HIT:      11098  MISS:          0  HIT %:        100  MISS %:          0   MPKI: 0
PSCL4 TRANSLATION FROM L1D PREFETCHER ACCESS:       1124  HIT:       1124  MISS:          0  HIT %:        100  MISS %:          0   MPKI: 0
PSCL4prefetch_cycle_count: 0 prefetches_per_prefetch_cycle: -nan
PSCL4 PREFETCH  REQUESTED:          0  ISSUED:          0  USEFUL:          0  USELESS:          0
PSCL4 USEFUL LOAD PREFETCHES:          0 PREFETCH ISSUED TO LOWER LEVEL:          0  ACCURACY: -nan
PSCL4 TIMELY PREFETCHES:          0 LATE PREFETCHES: 0 DROPPED PREFETCHES: 0
PSCL4 PREFETCHES SAME FILL-ORIGIN LEVEL: 0 DIFFERENT FILL-ORIGIN LEVEL: 0

PSCL3 TOTAL     ACCESS:      12201  HIT:      12191  MISS:         10  HIT %:     99.918  MISS %:  0.0819605   MPKI: 0.0002
PSCL3 LOAD TRANSLATION ACCESS:      11082  HIT:      11072  MISS:         10  HIT %:    99.9098  MISS %:  0.0902364   MPKI: 0.0002
PSCL3 TRANSLATION FROM L1D PREFETCHER ACCESS:       1119  HIT:       1119  MISS:          0  HIT %:        100  MISS %:          0   MPKI: 0
PSCL3prefetch_cycle_count: 0 prefetches_per_prefetch_cycle: -nan
PSCL3 PREFETCH  REQUESTED:          0  ISSUED:          0  USEFUL:          0  USELESS:          0
PSCL3 USEFUL LOAD PREFETCHES:          0 PREFETCH ISSUED TO LOWER LEVEL:          0  ACCURACY: -nan
PSCL3 TIMELY PREFETCHES:          0 LATE PREFETCHES: 0 DROPPED PREFETCHES: 0
PSCL3 PREFETCHES SAME FILL-ORIGIN LEVEL: 0 DIFFERENT FILL-ORIGIN LEVEL: 0

PSCL2 TOTAL     ACCESS:      12179  HIT:      11299  MISS:        880  HIT %:    92.7744  MISS %:    7.22555   MPKI: 0.0176
PSCL2 LOAD TRANSLATION ACCESS:      11145  HIT:      10265  MISS:        880  HIT %:    92.1041  MISS %:    7.89592   MPKI: 0.0176
PSCL2 TRANSLATION FROM L1D PREFETCHER ACCESS:       1034  HIT:       1034  MISS:          0  HIT %:        100  MISS %:          0   MPKI: 0
PSCL2prefetch_cycle_count: 0 prefetches_per_prefetch_cycle: -nan
PSCL2 PREFETCH  REQUESTED:          0  ISSUED:          0  USEFUL:          0  USELESS:          0
PSCL2 USEFUL LOAD PREFETCHES:          0 PREFETCH ISSUED TO LOWER LEVEL:          0  ACCURACY: -nan
PSCL2 TIMELY PREFETCHES:          0 LATE PREFETCHES: 0 DROPPED PREFETCHES: 0
PSCL2 PREFETCHES SAME FILL-ORIGIN LEVEL: 0 DIFFERENT FILL-ORIGIN LEVEL: 0

LLC TOTAL     ACCESS:     620841  HIT:     346818  MISS:     274023  HIT %:    55.8626  MISS %:    44.1374   MPKI: 5.48046
LLC LOAD      ACCESS:     106199  HIT:      52054  MISS:      54145  HIT %:    49.0155  MISS %:    50.9845   MPKI: 1.0829
LLC RFO       ACCESS:     161273  HIT:       9137  MISS:     152136  HIT %:    5.66555  MISS %:    94.3345   MPKI: 3.04272
LLC PREFETCH  ACCESS:     152312  HIT:      91059  MISS:      61253  HIT %:    59.7845  MISS %:    40.2155   MPKI: 1.22506
LLC WRITEBACK ACCESS:     196784  HIT:     192420  MISS:       4364  HIT %:    97.7823  MISS %:    2.21766   MPKI: 0.08728
LLC LOAD TRANSLATION ACCESS:       3914  HIT:       1951  MISS:       1963  HIT %:    49.8467  MISS %:    50.1533   MPKI: 0.03926
LLC TRANSLATION FROM L1D PREFETCHER ACCESS:        359  HIT:        197  MISS:        162  HIT %:    54.8747  MISS %:    45.1253   MPKI: 0.00324
LLCprefetch_cycle_count: 0 prefetches_per_prefetch_cycle: -nan
LLC PREFETCH  REQUESTED:          0  ISSUED:          0  USEFUL:       5611  USELESS:      52230
LLC USEFUL LOAD PREFETCHES:       5611 PREFETCH ISSUED TO LOWER LEVEL:      61253  ACCURACY: 9.16037
LLC TIMELY PREFETCHES:       5611 LATE PREFETCHES: 0 DROPPED PREFETCHES: 0
LLC PREFETCHES SAME FILL-ORIGIN LEVEL: 0 DIFFERENT FILL-ORIGIN LEVEL: 0
LLC AVERAGE MISS LATENCY: 144.771 cycles
LLC RQ	ACCESS:     271745	FORWARD:          0	MERGED:          0	TO_CACHE:     271745
LLC WQ	ACCESS:     196784	FORWARD:          0	MERGED:          0	TO_CACHE:     196784
LLC PQ	ACCESS:     152312	FORWARD:          0	MERGED:          0	TO_CACHE:     152312

LLC Dense regions hint to LLC: 0

RAW hits: 1813290
Loads Generated: 12792198
Loads sent to L1D: 10978909
Stores Generated: 7412307
Stores sent to L1D: 7412318
Major fault: 0 Minor fault: 6178
Allocated PAGES: 6178
I-Shadow cache 408 bytes
Touched + WorthPF tables 6144 bytes 
MMA filter 174 bytes 
FNL filter 272 bytes 
TOTAL PREFETCHER STORAGE SIZE: 25174 bytes
CPU 0 L1I next line prefetcher final stats

total_pref_operate_instances_l1: 7100717
dynamic_config_counter_instances_1: 6650610
dynamic_config_counter_instances_2: 13378
dynamic_config_counter_instances_3: 17174
dynamic_config_counter_instances_4: 9115
dynamic_config_counter_instances_5: 410440
stream: 
stream:times selected: 1186860
stream:pref_filled: 61567
stream:pref_useful: 17905
stream:pref_late: 893
stream:misses: 6472
stream:misses_by_poll: 0

CS: 
CS:times selected: 158479
CS:pref_filled: 47754
CS:pref_useful: 38346
CS:pref_late: 2895
CS:misses: 9209
CS:misses_by_poll: 24

CPLX: 
CPLX:times selected: 1018022
CPLX:pref_filled: 26437
CPLX:pref_useful: 4280
CPLX:pref_late: 82
CPLX:misses: 30588
CPLX:misses_by_poll: 4

NL_L1: 
NL:times selected: 236271
NL:pref_filled: 32222
NL:pref_useful: 8649
NL:pref_late: 1330
NL:misses: 37026
NL:misses_by_poll: 50

total selections: 2599632
total_filled: 58503
total_useful: 25835
total_late: 5567
total_polluted: 78
total_misses_after_warmup: 199487
conflicts: 2329618
Degree Incremented Times: 44753
Degree Decremented Times: 118878

L1 IP Table Write Accesses: 4334059
L1 IP Table Read Accesses: 2004441
L1 RST Write Accesses: 573272
L1 RST Read Accesses: 1146544
L1 CSPT Write Accesses: 573272
L1 CSPT Read Accesses: 643635
L1 RR Filter Tag Write Accesses: 212636
L1 RR Filter Tag Read Accesses: 11681084
L1 IP Table Tag Write Accesses: 7100717
L1 IP Table Tag Read Accesses: 7100717
L1 RST Tag Write Accesses: 0
L1 RST Tag Read Accesses: 5298230
L1 RR Filter Write Accesses: 0
L1 RR Filter Read Accesses: 439452
test: 363883
total_pref_operate_instances_l2: 1034985
dynamic_config_counter_instances_l2_1: 1024946
dynamic_config_counter_instances_l2_2: 5520
dynamic_config_counter_instances_l2_3: 4519
dynamic_config_counter_instances_l2_4: 0
dynamic_config_counter_instances_l2_5: 0
L2 IP Table Read Accesses: 1173727
L2 IP Table Write Accesses: 1959776
L2 IP Table Tag Read Accesses: 1034985
L2 IP Table Tag Write Accesses: 1034985

DRAM Statistics
 CHANNEL 0
 RQ ROW_BUFFER_HIT:      89623  ROW_BUFFER_MISS:     180036
 DBUS_CONGESTED:        286
 WQ ROW_BUFFER_HIT:      36114  ROW_BUFFER_MISS:     146593  FULL:          0

 AVG_CONGESTED_CYCLE: 3
 All warmup complete: 2
Channel 0 Bank busy for read cycles: 0
Channel 0 Bank busy for write cycles: 0
Channel 0
Rank 0
0banks busy for read cycles: 44457522
0banks busy for write cycles: 44088
1banks busy for read cycles: 10218651
1banks busy for write cycles: 4925094
2banks busy for read cycles: 3993628
2banks busy for write cycles: 2597149
3banks busy for read cycles: 1151814
3banks busy for write cycles: 1236443
4banks busy for read cycles: 540435
4banks busy for write cycles: 631050
5banks busy for read cycles: 268432
5banks busy for write cycles: 437298
6banks busy for read cycles: 251641
6banks busy for write cycles: 380508
7banks busy for read cycles: 244095
7banks busy for write cycles: 441433
8banks busy for read cycles: 395582
8banks busy for write cycles: 1068735

CPU 0 Branch Prediction Accuracy: 97.8666% MPKI: 3.9013 Average ROB Occupancy at Mispredict: 47.8958
Branch types
NOT_BRANCH: 40856330 81.7127%
BRANCH_DIRECT_JUMP: 484667 0.969334%
BRANCH_INDIRECT: 85086 0.170172%
BRANCH_CONDITIONAL: 6230887 12.4618%
BRANCH_DIRECT_CALL: 1028917 2.05783%
BRANCH_INDIRECT_CALL: 141825 0.28365%
BRANCH_RETURN: 1171985 2.34397%
BRANCH_OTHER: 0 0%

DRAM PAGES: 1048576
Allocated PAGES: 6178
