
*** ChampSim Multicore Out-of-Order Simulator ***

Warmup Instructions: 50000000
Simulation Instructions: 50000000
Number of CPUs: 1
LLC sets: 2048
LLC ways: 16
Off-chip DRAM Size: 4096 MB Channels: 1 Width: 64-bit Data Rate: 6400 MT/s
CPU 0 runs ../IPC-traces//client_004.champsimtrace.xz
.xz
NUM_OF_IPS_IN_CRITICAL_IP_TRAINING: 64
NUM_OF_CRITICAL_IP_TRAINING_TABLE_WAYS: 2
NUM_OF_CRITICAL_IP_TRAINING_TABLE_SETS: 32
WOBBLY_CRITICAL_IP_CACHE_SETS: 32
WOBBLY_CRITICAL_IP_CACHE_WAYS: 4
BTB has LRU replacement policy
ITLB has LRU replacement policy
DTLB has LRU replacement policy
STLB has LRU replacement policy
CPU 0 L1I next line prefetcher
L1I has LRU replacement policy
IP Table Entries: 64
L1D has LRU replacement policy
Initialize SRRIP state for L2C
Initialize DRRIP state for LLC
Heartbeat CPU 0 instructions: 10000000 cycles: 3025023 heartbeat IPC: 3.30576 cumulative IPC: 3.30576 (Simulation time: 0 hr 3 min 12 sec) 
Heartbeat CPU 0 instructions: 20000001 cycles: 5875100 heartbeat IPC: 3.50868 cumulative IPC: 3.4042 (Simulation time: 0 hr 5 min 29 sec) 
Heartbeat CPU 0 instructions: 30000001 cycles: 8873437 heartbeat IPC: 3.33518 cumulative IPC: 3.38088 (Simulation time: 0 hr 7 min 55 sec) 
Heartbeat CPU 0 instructions: 40000001 cycles: 11866425 heartbeat IPC: 3.34114 cumulative IPC: 3.37086 (Simulation time: 0 hr 10 min 7 sec) 
Heartbeat CPU 0 instructions: 50000002 cycles: 14860408 heartbeat IPC: 3.34003 cumulative IPC: 3.36465 (Simulation time: 0 hr 12 min 12 sec) 

Warmup complete CPU 0 instructions: 50000002 cycles: 14860408 (Simulation time: 0 hr 12 min 12 sec) 

% increase in all ip prefetch 457.408
% increase in all ip prefetch -3.21564
Heartbeat CPU 0 instructions: 60000000 cycles: 30977189 heartbeat IPC: 0.620471 cumulative IPC: 0.620471 (Simulation time: 0 hr 14 min 45 sec) 
Heartbeat CPU 0 instructions: 70000001 cycles: 47926281 heartbeat IPC: 0.590002 cumulative IPC: 0.604853 (Simulation time: 0 hr 17 min 21 sec) 
Heartbeat CPU 0 instructions: 80000000 cycles: 65116677 heartbeat IPC: 0.58172 cumulative IPC: 0.59694 (Simulation time: 0 hr 19 min 52 sec) 
Heartbeat CPU 0 instructions: 90000000 cycles: 81610497 heartbeat IPC: 0.606288 cumulative IPC: 0.59925 (Simulation time: 0 hr 22 min 30 sec) 
Heartbeat CPU 0 instructions: 100000002 cycles: 97562224 heartbeat IPC: 0.626891 cumulative IPC: 0.604582 (Simulation time: 0 hr 24 min 56 sec) 
Finished CPU 0 instructions: 50000000 cycles: 82701816 cumulative IPC: 0.604582 (Simulation time: 0 hr 24 min 56 sec) 

ChampSim completed all CPUs

Region of Interest Statistics

CPU 0 cumulative IPC: 0.604582 instructions: 50000000 cycles: 82701816

CPU 0 Average Load ROB stall cycles: 2.35853e+07
CPU 0 Fraction of times ROB stalled by Loads: 41.7799
CPU 0 Percentage of Load stall cycles in Total stall cycles: 3.20914e+08
Issued all: 27695922
Issued LT all: 21999714
rob_not_full_when_issued_lt_all: 21177566
Issued LT one: 16677075
rob_not_full_when_issued_lt_one: 16002286
critical_ip_candidate_identification_operations: 7680498
critical_ip_candidate_identification_operation_per_cycle: 0.0928698
 Total stall cycles: 67552982
 Total load stall cycles: 216787235966230
Unique Load IPs: 72894
CPU 0 NUM of IPS identified critical: 267
CPU 0 Num of Load IPs stalling ROB: 54083
Threshold modification factor: -1
Max PIST entries: 64
Min PIST entries: 0
Avg PIST entries: 32
Trouble in retire width: 0.903665
MaC = Marked as critical.
lt_50_percent_before_Mac: 163
gt_90_percent_before_Mac: 20
gt_75_percent_before_Mac: 22
gt_50_percent_before_Mac: 61
stall_proportion_bin_same_before_after: 0
stall_proportion_bin_lower_before_after: 0
stall_proportion_bin_upper_before_after: 0
average_stall_proportion_before: 0.0623922
average_stall_proportion_after: 0.0631073
Critical IP stalls, total frequency: 604968
Non-critical IP stalls, total frequency: 3235281
Total Freq all stalling IPs: 3840249
Critical_IP_Detector_Accuracy_70: 0.895131
Critical_IP_Detector_Accuracy_80: 0.985019
Critical_IP_Detector_Accuracy_90: 1
Critical_IP_Detector_Coverage_70: 0.0917114
Critical_IP_Detector_Coverage_80: 0.0552057
Critical_IP_Detector_Coverage_90: 0.0268288
stat_90_percent_critical_ip_stalls_freq: 3456242
stat_90_percent_non_critical_ip_stalls_freq: 384007
AVERAGE_ROB_Occupancy_90_Percent_Critical_IP_Stalls: 55.9214
AVERAGE_ROB_Occupancy_90_Percent_Non_Critical_IP_Stalls: 27.5431
Critical_IP_ROB_Stalls_Bucket_0: 157549
Non-critical_IP_ROB_Stalls_Bucket_0: 2260194
Critical_IP_ROB_Stalls_Bucket_1: 221096
Non-critical_IP_ROB_Stalls_Bucket_1: 697021
Critical_IP_ROB_Stalls_Bucket_2: 113567
Non-critical_IP_ROB_Stalls_Bucket_2: 202007
Critical_IP_ROB_Stalls_Bucket_3: 44729
Non-critical_IP_ROB_Stalls_Bucket_3: 48408
Critical_IP_ROB_Stalls_Bucket_4: 17982
Non-critical_IP_ROB_Stalls_Bucket_4: 13824
Critical_IP_ROB_Stalls_Bucket_5: 10643
Non-critical_IP_ROB_Stalls_Bucket_5: 6025
Critical_IP_ROB_Stalls_Bucket_6: 39402
Non-critical_IP_ROB_Stalls_Bucket_6: 7802
0 => IPs accounting for >50 percent of stalls, 1 => 55, 2 => 60, 3 => 65 and so on till 90.
percent50: 50.0179 num IPs:  847
percent55: 55.0133 num IPs: 1126
percent60: 60.0054 num IPs: 1489
percent65: 65.0028 num IPs: 1961
percent70: 70.0016 num IPs: 2606
percent75: 75.0042 num IPs: 3496
percent80: 80.0001 num IPs: 4764
percent85: 85 num IPs: 6707
percent90: 90.0005 num IPs: 9952
Critical_ROB_Stalls_Percent_0_Bucket_0: 1051185
Non-critical_ROB_Stalls_Percent_0_Bucket_0: 1366558
Critical_ROB_Stalls_Percent_0_Bucket_1: 538922
Non-critical_ROB_Stalls_Percent_0_Bucket_1: 379195
Critical_ROB_Stalls_Percent_0_Bucket_2: 198118
Non-critical_ROB_Stalls_Percent_0_Bucket_2: 117456
Critical_ROB_Stalls_Percent_0_Bucket_3: 62632
Non-critical_ROB_Stalls_Percent_0_Bucket_3: 30505
Critical_ROB_Stalls_Percent_0_Bucket_4: 21852
Non-critical_ROB_Stalls_Percent_0_Bucket_4: 9954
Critical_ROB_Stalls_Percent_0_Bucket_5: 11557
Non-critical_ROB_Stalls_Percent_0_Bucket_5: 5111
Critical_ROB_Stalls_Percent_0_Bucket_6: 36545
Non-critical_ROB_Stalls_Percent_0_Bucket_6: 10659
Critical_ROB_Stalls_Percent_1_Bucket_0: 1169083
Non-critical_ROB_Stalls_Percent_1_Bucket_0: 1248660
Critical_ROB_Stalls_Percent_1_Bucket_1: 589074
Non-critical_ROB_Stalls_Percent_1_Bucket_1: 329043
Critical_ROB_Stalls_Percent_1_Bucket_2: 214777
Non-critical_ROB_Stalls_Percent_1_Bucket_2: 100797
Critical_ROB_Stalls_Percent_1_Bucket_3: 67146
Non-critical_ROB_Stalls_Percent_1_Bucket_3: 25991
Critical_ROB_Stalls_Percent_1_Bucket_4: 23087
Non-critical_ROB_Stalls_Percent_1_Bucket_4: 8719
Critical_ROB_Stalls_Percent_1_Bucket_5: 12087
Non-critical_ROB_Stalls_Percent_1_Bucket_5: 4581
Critical_ROB_Stalls_Percent_1_Bucket_6: 37394
Non-critical_ROB_Stalls_Percent_1_Bucket_6: 9810
Critical_ROB_Stalls_Percent_2_Bucket_0: 1280373
Non-critical_ROB_Stalls_Percent_2_Bucket_0: 1137370
Critical_ROB_Stalls_Percent_2_Bucket_1: 639562
Non-critical_ROB_Stalls_Percent_2_Bucket_1: 278555
Critical_ROB_Stalls_Percent_2_Bucket_2: 233995
Non-critical_ROB_Stalls_Percent_2_Bucket_2: 81579
Critical_ROB_Stalls_Percent_2_Bucket_3: 72978
Non-critical_ROB_Stalls_Percent_2_Bucket_3: 20159
Critical_ROB_Stalls_Percent_2_Bucket_4: 25196
Non-critical_ROB_Stalls_Percent_2_Bucket_4: 6610
Critical_ROB_Stalls_Percent_2_Bucket_5: 13237
Non-critical_ROB_Stalls_Percent_2_Bucket_5: 3431
Critical_ROB_Stalls_Percent_2_Bucket_6: 39013
Non-critical_ROB_Stalls_Percent_2_Bucket_6: 8191
Critical_ROB_Stalls_Percent_3_Bucket_0: 1411933
Non-critical_ROB_Stalls_Percent_3_Bucket_0: 1005810
Critical_ROB_Stalls_Percent_3_Bucket_1: 680606
Non-critical_ROB_Stalls_Percent_3_Bucket_1: 237511
Critical_ROB_Stalls_Percent_3_Bucket_2: 247212
Non-critical_ROB_Stalls_Percent_3_Bucket_2: 68362
Critical_ROB_Stalls_Percent_3_Bucket_3: 76182
Non-critical_ROB_Stalls_Percent_3_Bucket_3: 16955
Critical_ROB_Stalls_Percent_3_Bucket_4: 26390
Non-critical_ROB_Stalls_Percent_3_Bucket_4: 5416
Critical_ROB_Stalls_Percent_3_Bucket_5: 13899
Non-critical_ROB_Stalls_Percent_3_Bucket_5: 2769
Critical_ROB_Stalls_Percent_3_Bucket_6: 40049
Non-critical_ROB_Stalls_Percent_3_Bucket_6: 7155
Critical_ROB_Stalls_Percent_4_Bucket_0: 1539350
Non-critical_ROB_Stalls_Percent_4_Bucket_0: 878393
Critical_ROB_Stalls_Percent_4_Bucket_1: 726730
Non-critical_ROB_Stalls_Percent_4_Bucket_1: 191387
Critical_ROB_Stalls_Percent_4_Bucket_2: 260215
Non-critical_ROB_Stalls_Percent_4_Bucket_2: 55359
Critical_ROB_Stalls_Percent_4_Bucket_3: 79403
Non-critical_ROB_Stalls_Percent_4_Bucket_3: 13734
Critical_ROB_Stalls_Percent_4_Bucket_4: 27153
Non-critical_ROB_Stalls_Percent_4_Bucket_4: 4653
Critical_ROB_Stalls_Percent_4_Bucket_5: 14340
Non-critical_ROB_Stalls_Percent_4_Bucket_5: 2328
Critical_ROB_Stalls_Percent_4_Bucket_6: 41043
Non-critical_ROB_Stalls_Percent_4_Bucket_6: 6161
Critical_ROB_Stalls_Percent_5_Bucket_0: 1665247
Non-critical_ROB_Stalls_Percent_5_Bucket_0: 752496
Critical_ROB_Stalls_Percent_5_Bucket_1: 773422
Non-critical_ROB_Stalls_Percent_5_Bucket_1: 144695
Critical_ROB_Stalls_Percent_5_Bucket_2: 273762
Non-critical_ROB_Stalls_Percent_5_Bucket_2: 41812
Critical_ROB_Stalls_Percent_5_Bucket_3: 82659
Non-critical_ROB_Stalls_Percent_5_Bucket_3: 10478
Critical_ROB_Stalls_Percent_5_Bucket_4: 28225
Non-critical_ROB_Stalls_Percent_5_Bucket_4: 3581
Critical_ROB_Stalls_Percent_5_Bucket_5: 14866
Non-critical_ROB_Stalls_Percent_5_Bucket_5: 1802
Critical_ROB_Stalls_Percent_5_Bucket_6: 42168
Non-critical_ROB_Stalls_Percent_5_Bucket_6: 5036
Critical_ROB_Stalls_Percent_6_Bucket_0: 1796568
Non-critical_ROB_Stalls_Percent_6_Bucket_0: 621175
Critical_ROB_Stalls_Percent_6_Bucket_1: 812630
Non-critical_ROB_Stalls_Percent_6_Bucket_1: 105487
Critical_ROB_Stalls_Percent_6_Bucket_2: 287336
Non-critical_ROB_Stalls_Percent_6_Bucket_2: 28238
Critical_ROB_Stalls_Percent_6_Bucket_3: 86027
Non-critical_ROB_Stalls_Percent_6_Bucket_3: 7110
Critical_ROB_Stalls_Percent_6_Bucket_4: 29325
Non-critical_ROB_Stalls_Percent_6_Bucket_4: 2481
Critical_ROB_Stalls_Percent_6_Bucket_5: 15477
Non-critical_ROB_Stalls_Percent_6_Bucket_5: 1191
Critical_ROB_Stalls_Percent_6_Bucket_6: 44839
Non-critical_ROB_Stalls_Percent_6_Bucket_6: 2365
Critical_ROB_Stalls_Percent_7_Bucket_0: 1938912
Non-critical_ROB_Stalls_Percent_7_Bucket_0: 478831
Critical_ROB_Stalls_Percent_7_Bucket_1: 847734
Non-critical_ROB_Stalls_Percent_7_Bucket_1: 70383
Critical_ROB_Stalls_Percent_7_Bucket_2: 297067
Non-critical_ROB_Stalls_Percent_7_Bucket_2: 18507
Critical_ROB_Stalls_Percent_7_Bucket_3: 88437
Non-critical_ROB_Stalls_Percent_7_Bucket_3: 4700
Critical_ROB_Stalls_Percent_7_Bucket_4: 30139
Non-critical_ROB_Stalls_Percent_7_Bucket_4: 1667
Critical_ROB_Stalls_Percent_7_Bucket_5: 15953
Non-critical_ROB_Stalls_Percent_7_Bucket_5: 715
Critical_ROB_Stalls_Percent_7_Bucket_6: 45973
Non-critical_ROB_Stalls_Percent_7_Bucket_6: 1231
Critical_ROB_Stalls_Percent_8_Bucket_0: 2088234
Non-critical_ROB_Stalls_Percent_8_Bucket_0: 329509
Critical_ROB_Stalls_Percent_8_Bucket_1: 878707
Non-critical_ROB_Stalls_Percent_8_Bucket_1: 39410
Critical_ROB_Stalls_Percent_8_Bucket_2: 305291
Non-critical_ROB_Stalls_Percent_8_Bucket_2: 10283
Critical_ROB_Stalls_Percent_8_Bucket_3: 90432
Non-critical_ROB_Stalls_Percent_8_Bucket_3: 2705
Critical_ROB_Stalls_Percent_8_Bucket_4: 30785
Non-critical_ROB_Stalls_Percent_8_Bucket_4: 1021
Critical_ROB_Stalls_Percent_8_Bucket_5: 16303
Non-critical_ROB_Stalls_Percent_8_Bucket_5: 365
Critical_ROB_Stalls_Percent_8_Bucket_6: 46490
Non-critical_ROB_Stalls_Percent_8_Bucket_6: 714
Average ROB occupancy Load Stall Begin: 45.5954
Average ROB occupancy Load Stall End: 53.0837
Min ROB occupancy Load Stall Begin: 1
Max ROB occupancy Load Stall Begin: 352
Min ROB occupancy Load Stall End: 1
Max ROB occupancy Load Stall End: 352
Average ROB occupancy Critical Load Stall Begin: 103.846
Average ROB occupancy Critical Load Stall End: 112.373
Min ROB occupancy Critical Load Stall Begin: 2
Max ROB occupancy Critical Load Stall Begin: 352
Min ROB occupancy Critical Load Stall End: 2
Max ROB occupancy Critical Load Stall End: 352
 ROB Load Stall Begin Bucket Count 0: 2710237
 ROB Load Stall End Bucket Count 0: 2417743
 ROB Critical Load Stall Begin Bucket Count 0: 140229
 ROB Critical Load Stall End Bucket Count 0: 100145
 ROB Load Stall Begin Bucket Count 1: 718914
 ROB Load Stall End Bucket Count 1: 918117
 ROB Critical Load Stall Begin Bucket Count 1: 130381
 ROB Critical Load Stall End Bucket Count 1: 151131
 ROB Load Stall Begin Bucket Count 2: 250660
 ROB Load Stall End Bucket Count 2: 315574
 ROB Critical Load Stall Begin Bucket Count 2: 72662
 ROB Critical Load Stall End Bucket Count 2: 83658
 ROB Load Stall Begin Bucket Count 3: 73379
 ROB Load Stall End Bucket Count 3: 93137
 ROB Critical Load Stall Begin Bucket Count 3: 30801
 ROB Critical Load Stall End Bucket Count 3: 36075
 ROB Load Stall Begin Bucket Count 4: 27087
 ROB Load Stall End Bucket Count 4: 31806
 ROB Critical Load Stall Begin Bucket Count 4: 13424
 ROB Critical Load Stall End Bucket Count 4: 14880
 ROB Load Stall Begin Bucket Count 5: 14957
 ROB Load Stall End Bucket Count 5: 16668
 ROB Critical Load Stall Begin Bucket Count 5: 8244
 ROB Critical Load Stall End Bucket Count 5: 8889
 ROB Load Stall Begin Bucket Count 6: 45015
 ROB Load Stall End Bucket Count 6: 47204
 ROB Critical Load Stall Begin Bucket Count 6: 33524
 ROB Critical Load Stall End Bucket Count 6: 34487
PIST Tag Read Accesses: 2830278
PIST Read Accesses: 1415139
PIST Tag Write Accesses: 2830278
PIST Write Accesses: 1415139
Criticality detector called times: 3462463
Max global_stall_cycles_count: 4372878
Threshold Modified: 1 times, factor: -1
Sturdy critical IP cache stats: 
 Unused entries: 0
CIC Tag Read Accesses: 0
CIC Read Accesses: 0
CIC Tag Write Accesses: 0
CIC Write Accesses: 0
Wobbly critical IP cache stats: 
 Unused entries: 0
CIC Tag Read Accesses: 88484688
CIC Read Accesses: 0
CIC Tag Write Accesses: 16982
CIC Write Accesses: 0
ITLB TOTAL     ACCESS:    9144988  HIT:    9049536  MISS:      95452  HIT %:    98.9562  MISS %:    1.04376   MPKI: 1.90904
ITLB LOAD TRANSLATION ACCESS:    8556716  HIT:    8507729  MISS:      48987  HIT %:    99.4275  MISS %:   0.572498   MPKI: 0.97974
ITLB TRANSLATION FROM L1D PREFETCHER ACCESS:     588272  HIT:     541807  MISS:      46465  HIT %:    92.1014  MISS %:    7.89856   MPKI: 0.9293
ITLBprefetch_cycle_count: 0 prefetches_per_prefetch_cycle: -nan
ITLB PREFETCH  REQUESTED:          0  ISSUED:          0  USEFUL:      35613  USELESS:      10852
ITLB USEFUL LOAD PREFETCHES:      35613 PREFETCH ISSUED TO LOWER LEVEL:          0  ACCURACY: inf
ITLB TIMELY PREFETCHES:      35613 LATE PREFETCHES: 96 DROPPED PREFETCHES: 90
ITLB PREFETCHES SAME FILL-ORIGIN LEVEL: 0 DIFFERENT FILL-ORIGIN LEVEL: 0
ITLB AVERAGE MISS LATENCY: 53055.1 cycles
ITLB RQ	ACCESS:   11329354	FORWARD:          0	MERGED:    2170424	TO_CACHE:    9158930

DTLB TOTAL     ACCESS:   11882871  HIT:   11689859  MISS:     193012  HIT %:    98.3757  MISS %:    1.62429   MPKI: 3.86024
DTLB LOAD TRANSLATION ACCESS:   11882871  HIT:   11689859  MISS:     193012  HIT %:    98.3757  MISS %:    1.62429   MPKI: 3.86024
DTLBprefetch_cycle_count: 0 prefetches_per_prefetch_cycle: -nan
DTLB PREFETCH  REQUESTED:          0  ISSUED:          0  USEFUL:          0  USELESS:          0
DTLB USEFUL LOAD PREFETCHES:          0 PREFETCH ISSUED TO LOWER LEVEL:          0  ACCURACY: -nan
DTLB TIMELY PREFETCHES:          0 LATE PREFETCHES: 0 DROPPED PREFETCHES: 0
DTLB PREFETCHES SAME FILL-ORIGIN LEVEL: 0 DIFFERENT FILL-ORIGIN LEVEL: 0
DTLB AVERAGE MISS LATENCY: 10.3846 cycles
DTLB RQ	ACCESS:   14395064	FORWARD:          0	MERGED:    2501936	TO_CACHE:   11893128

STLB TOTAL     ACCESS:     446401  HIT:     442021  MISS:       4380  HIT %:    99.0188  MISS %:   0.981181   MPKI: 0.0876
STLB LOAD TRANSLATION ACCESS:     241903  HIT:     238134  MISS:       3769  HIT %:    98.4419  MISS %:    1.55806   MPKI: 0.07538
STLB TRANSLATION FROM L1D PREFETCHER ACCESS:     204498  HIT:     203887  MISS:        611  HIT %:    99.7012  MISS %:    0.29878   MPKI: 0.01222
STLBprefetch_cycle_count: 0 prefetches_per_prefetch_cycle: -nan
STLB PREFETCH  REQUESTED:          0  ISSUED:          0  USEFUL:        508  USELESS:        128
STLB USEFUL LOAD PREFETCHES:        508 PREFETCH ISSUED TO LOWER LEVEL:          0  ACCURACY: inf
STLB TIMELY PREFETCHES:        508 LATE PREFETCHES: 0 DROPPED PREFETCHES: 90
STLB PREFETCHES SAME FILL-ORIGIN LEVEL: 0 DIFFERENT FILL-ORIGIN LEVEL: 0
STLB AVERAGE MISS LATENCY: 97.587 cycles
STLB RQ	ACCESS:     579254	FORWARD:          0	MERGED:     132762	TO_CACHE:     446492

STLB Hit, L1D data hit: 0
STLB Hit, L2C data hit: 0
STLB Hit, LLC data hit: 0
STLB Hit, LLC data miss: 0
STLB STLB hints to L2: 0
L1D TOTAL     ACCESS:   14401409  HIT:   13808705  MISS:     592704  HIT %:    95.8844  MISS %:     4.1156   MPKI: 11.8541
L1D LOAD      ACCESS:    9289416  HIT:    8894038  MISS:     395378  HIT %:    95.7438  MISS %:    4.25622   MPKI: 7.90756
L1D RFO       ACCESS:    4824650  HIT:    4693939  MISS:     130711  HIT %:    97.2908  MISS %:    2.70923   MPKI: 2.61422
L1D PREFETCH  ACCESS:     287343  HIT:     220728  MISS:      66615  HIT %:    76.8169  MISS %:    23.1831   MPKI: 1.3323
L1Dprefetch_cycle_count: 163238 prefetches_per_prefetch_cycle: 3.56187
L1D PREFETCH  REQUESTED:     581448  ISSUED:     581432  USEFUL:      22791  USELESS:      43826
L1D USEFUL LOAD PREFETCHES:      22791 PREFETCH ISSUED TO LOWER LEVEL:      67873  ACCURACY: 33.5789
L1D TIMELY PREFETCHES:      22791 LATE PREFETCHES: 1219 DROPPED PREFETCHES: 0
L1D PREFETCHES SAME FILL-ORIGIN LEVEL: 67873 DIFFERENT FILL-ORIGIN LEVEL: 0
L1D AVERAGE MISS LATENCY: 120403 cycles
L1D RQ	ACCESS:   13199141	FORWARD:          0	MERGED:    3779290	TO_CACHE:    9322892
L1D WQ	ACCESS:    5238055	FORWARD:      96993	MERGED:     165883	TO_CACHE:    5072172
L1D PQ	ACCESS:     290733	FORWARD:          0	MERGED:          0	TO_CACHE:     290699

L1D UNIQUE REGIONS ACCESSED: 0
L1D REGIONS CONFLICTS: 0
L1D Cross Page Prefetch Requests: 0
L1D Same Page Prefetch Requests: 297748
L1D ROI Sum of L1D PQ occupancy: 3823220
L1D PREFETCHES PUSHED FROM L2C: 0
L1I TOTAL     ACCESS:   11249727  HIT:   10356604  MISS:     893123  HIT %:    92.0609  MISS %:    7.93906   MPKI: 17.8625
L1I LOAD      ACCESS:    9789236  HIT:    9595911  MISS:     193325  HIT %:    98.0251  MISS %:    1.97487   MPKI: 3.8665
L1I PREFETCH  ACCESS:    1460491  HIT:     760693  MISS:     699798  HIT %:    52.0847  MISS %:    47.9153   MPKI: 13.996
L1Iprefetch_cycle_count: 0 prefetches_per_prefetch_cycle: inf
L1I PREFETCH  REQUESTED:    1595873  ISSUED:    1594288  USEFUL:     426774  USELESS:     273019
L1I USEFUL LOAD PREFETCHES:     426774 PREFETCH ISSUED TO LOWER LEVEL:     716868  ACCURACY: 59.5331
L1I TIMELY PREFETCHES:     426774 LATE PREFETCHES: 17070 DROPPED PREFETCHES: 167
L1I PREFETCHES SAME FILL-ORIGIN LEVEL: 716868 DIFFERENT FILL-ORIGIN LEVEL: 0
L1I AVERAGE MISS LATENCY: 1.0891e+06 cycles
L1I RQ	ACCESS:   14422670	FORWARD:          0	MERGED:    4615448	TO_CACHE:    9807222
L1I PQ	ACCESS:    1594288	FORWARD:          0	MERGED:      72156	TO_CACHE:    1522132

BTB TOTAL     ACCESS:    7750112  HIT:    6953064  MISS:     797048  HIT %:    89.7157  MISS %:    10.2843   MPKI: 15.941
BTB BRANCH_DIRECT_JUMP	ACCESS:     644555  HIT:     617941  MISS:      26614
BTB BRANCH_INDIRECT	ACCESS:     201946  HIT:     110721  MISS:      91225
BTB BRANCH_CONDITIONAL	ACCESS:    4875062  HIT:    4805966  MISS:      69096
BTB BRANCH_DIRECT_CALL	ACCESS:     564821  HIT:     520817  MISS:      44004
BTB BRANCH_INDIRECT_CALL	ACCESS:     445012  HIT:     287828  MISS:     157184
BTB BRANCH_RETURN	ACCESS:    1018716  HIT:     609791  MISS:     408925
BTB BRANCH_OTHER ACCESS:          0  HIT:          0  MISS:          0

L2C TOTAL     ACCESS:    1939124  HIT:    1601391  MISS:     337733  HIT %:    82.5832  MISS %:    17.4168   MPKI: 6.75466
L2C LOAD      ACCESS:     570390  HIT:     476607  MISS:      93783  HIT %:    83.5581  MISS %:    16.4419   MPKI: 1.87566
L2C DATA LOAD MPKI: 1.14222
L2C INSTRUCTION LOAD MPKI: 0.73344
L2C RFO       ACCESS:     130669  HIT:      46978  MISS:      83691  HIT %:    35.9519  MISS %:    64.0481   MPKI: 1.67382
L2C PREFETCH  ACCESS:    1038442  HIT:     891394  MISS:     147048  HIT %:    85.8396  MISS %:    14.1604   MPKI: 2.94096
L2C DATA PREFETCH MPKI: 0.88778
L2C INSTRUCTION PREFETCH MPKI: 2.05318
L2C WRITEBACK ACCESS:     194893  HIT:     184333  MISS:      10560  HIT %:    94.5816  MISS %:    5.41836   MPKI: 0.2112
L2C LOAD TRANSLATION ACCESS:       4003  HIT:       1776  MISS:       2227  HIT %:    44.3667  MISS %:    55.6333   MPKI: 0.04454
L2C TRANSLATION FROM L1D PREFETCHER ACCESS:        727  HIT:        303  MISS:        424  HIT %:    41.6781  MISS %:    58.3219   MPKI: 0.00848
L2Cprefetch_cycle_count: 619837 prefetches_per_prefetch_cycle: 1.00019
L2C PREFETCH  REQUESTED:     619955  ISSUED:     619955  USEFUL:      16568  USELESS:     129952
L2C USEFUL LOAD PREFETCHES:      16568 PREFETCH ISSUED TO LOWER LEVEL:     147333  ACCURACY: 11.2453
L2C TIMELY PREFETCHES:      16568 LATE PREFETCHES: 285 DROPPED PREFETCHES: 0
L2C PREFETCHES SAME FILL-ORIGIN LEVEL: 36460 DIFFERENT FILL-ORIGIN LEVEL: 0
L2C AVERAGE MISS LATENCY: 81.7693 cycles
L2C RQ	ACCESS:     705816	FORWARD:          0	MERGED:          0	TO_CACHE:     705789
L2C WQ	ACCESS:     194893	FORWARD:         31	MERGED:          0	TO_CACHE:     194893
L2C PQ	ACCESS:    1404696	FORWARD:          0	MERGED:     362637	TO_CACHE:    1042055

L2C Instructions Evicting Data 79582
L2C Translations Evicting Data 1523
L2C Data Evicting Data 109242
L2C Instructions Evicting Instructions 58653
L2C Translations Evicting Instructions 1094
L2C Data Evicting Instructions 74512
L2C Instructions Evicting Translations 1096
L2C Translations Evicting Translations 34
L2C Data Evicting Translations 1437
L2C Dense regions hint from L2: 0
PSCL5 TOTAL     ACCESS:       4470  HIT:       4470  MISS:          0  HIT %:        100  MISS %:          0   MPKI: 0
PSCL5 LOAD TRANSLATION ACCESS:       3769  HIT:       3769  MISS:          0  HIT %:        100  MISS %:          0   MPKI: 0
PSCL5 TRANSLATION FROM L1D PREFETCHER ACCESS:        701  HIT:        701  MISS:          0  HIT %:        100  MISS %:          0   MPKI: 0
PSCL5prefetch_cycle_count: 0 prefetches_per_prefetch_cycle: -nan
PSCL5 PREFETCH  REQUESTED:          0  ISSUED:          0  USEFUL:          0  USELESS:          0
PSCL5 USEFUL LOAD PREFETCHES:          0 PREFETCH ISSUED TO LOWER LEVEL:          0  ACCURACY: -nan
PSCL5 TIMELY PREFETCHES:          0 LATE PREFETCHES: 0 DROPPED PREFETCHES: 0
PSCL5 PREFETCHES SAME FILL-ORIGIN LEVEL: 0 DIFFERENT FILL-ORIGIN LEVEL: 0

PSCL4 TOTAL     ACCESS:       4467  HIT:       4466  MISS:          1  HIT %:    99.9776  MISS %:  0.0223864   MPKI: 2e-05
PSCL4 LOAD TRANSLATION ACCESS:       3766  HIT:       3765  MISS:          1  HIT %:    99.9734  MISS %:  0.0265534   MPKI: 2e-05
PSCL4 TRANSLATION FROM L1D PREFETCHER ACCESS:        701  HIT:        701  MISS:          0  HIT %:        100  MISS %:          0   MPKI: 0
PSCL4prefetch_cycle_count: 0 prefetches_per_prefetch_cycle: -nan
PSCL4 PREFETCH  REQUESTED:          0  ISSUED:          0  USEFUL:          0  USELESS:          0
PSCL4 USEFUL LOAD PREFETCHES:          0 PREFETCH ISSUED TO LOWER LEVEL:          0  ACCURACY: -nan
PSCL4 TIMELY PREFETCHES:          0 LATE PREFETCHES: 0 DROPPED PREFETCHES: 0
PSCL4 PREFETCHES SAME FILL-ORIGIN LEVEL: 0 DIFFERENT FILL-ORIGIN LEVEL: 0

PSCL3 TOTAL     ACCESS:       4443  HIT:       4428  MISS:         15  HIT %:    99.6624  MISS %:    0.33761   MPKI: 0.0003
PSCL3 LOAD TRANSLATION ACCESS:       3747  HIT:       3732  MISS:         15  HIT %:    99.5997  MISS %:    0.40032   MPKI: 0.0003
PSCL3 TRANSLATION FROM L1D PREFETCHER ACCESS:        696  HIT:        696  MISS:          0  HIT %:        100  MISS %:          0   MPKI: 0
PSCL3prefetch_cycle_count: 0 prefetches_per_prefetch_cycle: -nan
PSCL3 PREFETCH  REQUESTED:          0  ISSUED:          0  USEFUL:          0  USELESS:          0
PSCL3 USEFUL LOAD PREFETCHES:          0 PREFETCH ISSUED TO LOWER LEVEL:          0  ACCURACY: -nan
PSCL3 TIMELY PREFETCHES:          0 LATE PREFETCHES: 0 DROPPED PREFETCHES: 0
PSCL3 PREFETCHES SAME FILL-ORIGIN LEVEL: 0 DIFFERENT FILL-ORIGIN LEVEL: 0

PSCL2 TOTAL     ACCESS:       4461  HIT:       4225  MISS:        236  HIT %:    94.7097  MISS %:    5.29029   MPKI: 0.00472
PSCL2 LOAD TRANSLATION ACCESS:       3785  HIT:       3549  MISS:        236  HIT %:    93.7649  MISS %:    6.23514   MPKI: 0.00472
PSCL2 TRANSLATION FROM L1D PREFETCHER ACCESS:        676  HIT:        676  MISS:          0  HIT %:        100  MISS %:          0   MPKI: 0
PSCL2prefetch_cycle_count: 0 prefetches_per_prefetch_cycle: -nan
PSCL2 PREFETCH  REQUESTED:          0  ISSUED:          0  USEFUL:          0  USELESS:          0
PSCL2 USEFUL LOAD PREFETCHES:          0 PREFETCH ISSUED TO LOWER LEVEL:          0  ACCURACY: -nan
PSCL2 TIMELY PREFETCHES:          0 LATE PREFETCHES: 0 DROPPED PREFETCHES: 0
PSCL2 PREFETCHES SAME FILL-ORIGIN LEVEL: 0 DIFFERENT FILL-ORIGIN LEVEL: 0

LLC TOTAL     ACCESS:     423339  HIT:     305527  MISS:     117812  HIT %:    72.1708  MISS %:    27.8292   MPKI: 2.35624
LLC LOAD      ACCESS:      93498  HIT:      67089  MISS:      26409  HIT %:    71.7545  MISS %:    28.2455   MPKI: 0.52818
LLC RFO       ACCESS:      83689  HIT:      39297  MISS:      44392  HIT %:     46.956  MISS %:     53.044   MPKI: 0.88784
LLC PREFETCH  ACCESS:     147333  HIT:     104956  MISS:      42377  HIT %:    71.2373  MISS %:    28.7627   MPKI: 0.84754
LLC WRITEBACK ACCESS:      96168  HIT:      92666  MISS:       3502  HIT %:    96.3585  MISS %:    3.64154   MPKI: 0.07004
LLC LOAD TRANSLATION ACCESS:       2227  HIT:       1235  MISS:        992  HIT %:    55.4558  MISS %:    44.5442   MPKI: 0.01984
LLC TRANSLATION FROM L1D PREFETCHER ACCESS:        424  HIT:        284  MISS:        140  HIT %:    66.9811  MISS %:    33.0189   MPKI: 0.0028
LLCprefetch_cycle_count: 0 prefetches_per_prefetch_cycle: -nan
LLC PREFETCH  REQUESTED:          0  ISSUED:          0  USEFUL:       3053  USELESS:      37738
LLC USEFUL LOAD PREFETCHES:       3053 PREFETCH ISSUED TO LOWER LEVEL:      42377  ACCURACY: 7.20438
LLC TIMELY PREFETCHES:       3053 LATE PREFETCHES: 0 DROPPED PREFETCHES: 0
LLC PREFETCHES SAME FILL-ORIGIN LEVEL: 0 DIFFERENT FILL-ORIGIN LEVEL: 0
LLC AVERAGE MISS LATENCY: 151.083 cycles
LLC RQ	ACCESS:     179840	FORWARD:          0	MERGED:          0	TO_CACHE:     179838
LLC WQ	ACCESS:      96168	FORWARD:          2	MERGED:          0	TO_CACHE:      96168
LLC PQ	ACCESS:     147333	FORWARD:          0	MERGED:          0	TO_CACHE:     147333

LLC Dense regions hint to LLC: 0

RAW hits: 1010175
Loads Generated: 14209317
Loads sent to L1D: 13199141
Stores Generated: 5238050
Stores sent to L1D: 5238055
Major fault: 0 Minor fault: 4055
Allocated PAGES: 4055
I-Shadow cache 408 bytes
Touched + WorthPF tables 6144 bytes 
MMA filter 174 bytes 
FNL filter 272 bytes 
TOTAL PREFETCHER STORAGE SIZE: 25174 bytes
CPU 0 L1I next line prefetcher final stats

total_pref_operate_instances_l1: 843847
dynamic_config_counter_instances_1: 208577
dynamic_config_counter_instances_2: 36048
dynamic_config_counter_instances_3: 16399
dynamic_config_counter_instances_4: 6403
dynamic_config_counter_instances_5: 576420
stream: 
stream:times selected: 278300
stream:pref_filled: 50848
stream:pref_useful: 16365
stream:pref_late: 780
stream:misses: 4281
stream:misses_by_poll: 0

CS: 
CS:times selected: 26596
CS:pref_filled: 7289
CS:pref_useful: 5160
CS:pref_late: 127
CS:misses: 519
CS:misses_by_poll: 49

CPLX: 
CPLX:times selected: 249726
CPLX:pref_filled: 8017
CPLX:pref_useful: 1408
CPLX:pref_late: 27
CPLX:misses: 18755
CPLX:misses_by_poll: 45

NL_L1: 
NL:times selected: 19260
NL:pref_filled: 3564
NL:pref_useful: 487
NL:pref_late: 45
NL:misses: 2510
NL:misses_by_poll: 1

total selections: 573882
total_filled: 66615
total_useful: 22791
total_late: 1293
total_polluted: 95
total_misses_after_warmup: 37715
conflicts: 123551
Degree Incremented Times: 0
Degree Decremented Times: 10751

L1 IP Table Write Accesses: 687836
L1 IP Table Read Accesses: 564285
L1 RST Write Accesses: 272292
L1 RST Read Accesses: 544584
L1 CSPT Write Accesses: 272292
L1 CSPT Read Accesses: 516848
L1 RR Filter Tag Write Accesses: 290749
L1 RR Filter Tag Read Accesses: 17293504
L1 IP Table Tag Write Accesses: 843847
L1 IP Table Tag Read Accesses: 843847
L1 RST Tag Write Accesses: 0
L1 RST Tag Read Accesses: 2436041
L1 RR Filter Write Accesses: 0
L1 RR Filter Read Accesses: 645493
test: 104270
total_pref_operate_instances_l2: 724504
dynamic_config_counter_instances_l2_1: 691928
dynamic_config_counter_instances_l2_2: 2166
dynamic_config_counter_instances_l2_3: 30410
dynamic_config_counter_instances_l2_4: 0
dynamic_config_counter_instances_l2_5: 0
L2 IP Table Read Accesses: 818829
L2 IP Table Write Accesses: 1416473
L2 IP Table Tag Read Accesses: 724504
L2 IP Table Tag Write Accesses: 724504

DRAM Statistics
 CHANNEL 0
 RQ ROW_BUFFER_HIT:      28386  ROW_BUFFER_MISS:      85918
 DBUS_CONGESTED:        130
 WQ ROW_BUFFER_HIT:       7733  ROW_BUFFER_MISS:      37784  FULL:          0

 AVG_CONGESTED_CYCLE: 4
 All warmup complete: 2
Channel 0 Bank busy for read cycles: 0
Channel 0 Bank busy for write cycles: 0
Channel 0
Rank 0
0banks busy for read cycles: 70702124
0banks busy for write cycles: 16940
1banks busy for read cycles: 5112359
1banks busy for write cycles: 2227821
2banks busy for read cycles: 1374814
2banks busy for write cycles: 706946
3banks busy for read cycles: 549841
3banks busy for write cycles: 365026
4banks busy for read cycles: 324579
4banks busy for write cycles: 225396
5banks busy for read cycles: 213797
5banks busy for write cycles: 151951
6banks busy for read cycles: 166450
6banks busy for write cycles: 119818
7banks busy for read cycles: 142810
7banks busy for write cycles: 105127
8banks busy for read cycles: 55638
8banks busy for write cycles: 140380

CPU 0 Branch Prediction Accuracy: 94.1242% MPKI: 11.6089 Average ROB Occupancy at Mispredict: 34.6518
Branch types
NOT_BRANCH: 40121074 80.2421%
BRANCH_DIRECT_JUMP: 644555 1.28911%
BRANCH_INDIRECT: 201946 0.403892%
BRANCH_CONDITIONAL: 7003556 14.0071%
BRANCH_DIRECT_CALL: 564821 1.12964%
BRANCH_INDIRECT_CALL: 445012 0.890024%
BRANCH_RETURN: 1018716 2.03743%
BRANCH_OTHER: 0 0%

DRAM PAGES: 1048576
Allocated PAGES: 4055
